MODEL 1
REMARK VINA RESULT:     -11.1      0.000      0.000
REMARK SMILES CCCCOc1ccc(NC(=O)[C@]2(C)CC[C@](C)(C(=O)NCCCCCCNC(=O)c3ccc(-c4c5nc(c(-c6cccc(S(=O)(=O)[O-])c6F)c6ccc([nH]6)c(-c6cccc(S(=O)(=O)[O-])c6F)c6nc(c(-c7cccc(S(=O)(=O)[O-])c7F)c7ccc4[nH]7)C=C6)C=C5)cc3)C2(C)C)cc1
REMARK SMILES IDX 23 1 22 2 21 3 19 4 20 5 17 7 13 8 15 9 94 10 14 11 16 12
REMARK SMILES IDX 95 13 96 14 18 15 11 16 10 17 12 19 9 20 6 21 7 22 98 23
REMARK SMILES IDX 8 24 97 25 5 26 4 27 3 28 2 29 1 30 24 31 25 32 26 33 27 34
REMARK SMILES IDX 28 35 29 36 30 38 31 39 32 40 93 41 33 42 92 43 34 44 35 45
REMARK SMILES IDX 36 46 86 47 37 48 91 49 85 50 87 51 38 52 90 53 84 54 83 55
REMARK SMILES IDX 39 57 71 58 51 59 70 60 52 61 55 62 69 63 88 64 53 65 54 66
REMARK SMILES IDX 68 68 89 69 56 70 40 71 41 72 49 73 42 74 44 75 50 76 43 77
REMARK SMILES IDX 45 78 46 79 47 80 48 81 72 82 73 83 81 84 74 85 76 86 82 87
REMARK SMILES IDX 75 88 77 89 78 90 79 91 80 92 57 93 58 94 66 95 59 96 61 97
REMARK SMILES IDX 67 98 60 99 62 100 63 101 64 102 65 103
REMARK H PARENT 21 6 10 18 28 37 87 56 55 67
REMARK Flexibility Score: inf
ROOT
ATOM      1  C   UNL A   1      35.836  21.091  25.021  1.00  0.00     0.021 C 
ENDROOT
BRANCH   1   2
ATOM      2  C   UNL A   1      34.888  21.786  26.014  1.00  0.00     0.116 C 
BRANCH   2   3
ATOM      3  N   UNL A   1      33.499  21.369  25.913  1.00  0.00    -0.356 N 
ATOM      4  C   UNL A   1      32.414  21.815  25.218  1.00  0.00     0.226 C 
ATOM      5  O   UNL A   1      31.392  21.133  25.370  1.00  0.00    -0.274 OA
ATOM      6  H   UNL A   1      33.297  20.585  26.473  1.00  0.00     0.163 HD
BRANCH   4   7
ATOM      7  C   UNL A   1      32.413  23.050  24.246  1.00  0.00     0.052 C 
ATOM      8  C   UNL A   1      31.720  25.595  24.254  1.00  0.00     0.053 C 
ATOM      9  C   UNL A   1      30.900  24.703  23.274  1.00  0.00     0.018 C 
ATOM     10  C   UNL A   1      32.796  24.509  24.833  1.00  0.00    -0.007 C 
ATOM     11  C   UNL A   1      32.173  26.784  23.365  1.00  0.00     0.022 C 
ATOM     12  C   UNL A   1      30.948  23.287  23.807  1.00  0.00     0.018 C 
ATOM     13  C   UNL A   1      34.234  24.865  24.391  1.00  0.00     0.013 C 
ATOM     14  C   UNL A   1      32.635  24.434  26.370  1.00  0.00     0.013 C 
ATOM     15  C   UNL A   1      33.216  22.589  23.004  1.00  0.00     0.022 C 
BRANCH   8  16
ATOM     16  C   UNL A   1      30.781  26.254  25.332  1.00  0.00     0.230 C 
ATOM     17  N   UNL A   1      31.057  27.367  26.091  1.00  0.00    -0.326 N 
ATOM     18  H   UNL A   1      30.284  27.618  26.647  1.00  0.00     0.169 HD
ATOM     19  O   UNL A   1      29.679  25.738  25.577  1.00  0.00    -0.274 OA
BRANCH  17  20
ATOM     20  C   UNL A   1      32.141  28.252  26.296  1.00  0.00     0.041 A 
ATOM     21  C   UNL A   1      34.057  30.136  27.156  1.00  0.00     0.119 A 
ATOM     22  C   UNL A   1      34.379  28.794  27.112  1.00  0.00     0.048 A 
ATOM     23  C   UNL A   1      32.853  30.563  26.612  1.00  0.00     0.048 A 
ATOM     24  C   UNL A   1      33.437  27.881  26.625  1.00  0.00     0.030 A 
ATOM     25  C   UNL A   1      31.882  29.627  26.225  1.00  0.00     0.030 A 
BRANCH  21  26
ATOM     26  O   UNL A   1      34.941  31.055  27.635  1.00  0.00    -0.494 OA
BRANCH  26  27
ATOM     27  C   UNL A   1      34.297  32.118  28.363  1.00  0.00     0.229 C 
BRANCH  27  28
ATOM     28  C   UNL A   1      35.158  33.387  28.307  1.00  0.00     0.041 C 
BRANCH  28  29
ATOM     29  C   UNL A   1      36.659  33.153  28.510  1.00  0.00     0.000 C 
ATOM     30  C   UNL A   1      37.056  32.952  29.964  1.00  0.00     0.004 C 
ENDBRANCH  28  29
ENDBRANCH  27  28
ENDBRANCH  26  27
ENDBRANCH  21  26
ENDBRANCH  17  20
ENDBRANCH   8  16
ENDBRANCH   4   7
ENDBRANCH   2   3
ENDBRANCH   1   2
BRANCH   1  31
ATOM     31  C   UNL A   1      36.950  21.996  24.490  1.00  0.00     0.002 C 
BRANCH  31  32
ATOM     32  C   UNL A   1      38.254  21.878  25.280  1.00  0.00     0.002 C 
BRANCH  32  33
ATOM     33  C   UNL A   1      38.822  20.456  25.342  1.00  0.00     0.021 C 
BRANCH  33  34
ATOM     34  C   UNL A   1      39.759  20.212  26.520  1.00  0.00     0.116 C 
BRANCH  34  35
ATOM     35  N   UNL A   1      40.786  19.237  26.182  1.00  0.00    -0.352 N 
ATOM     36  C   UNL A   1      42.095  19.469  25.853  1.00  0.00     0.251 C 
ATOM     37  H   UNL A   1      40.504  18.294  26.190  1.00  0.00     0.163 HD
ATOM     38  O   UNL A   1      42.770  18.589  25.318  1.00  0.00    -0.269 OA
BRANCH  36  39
ATOM     39  C   UNL A   1      42.683  20.790  26.145  1.00  0.00     0.039 A 
ATOM     40  C   UNL A   1      43.025  21.639  25.091  1.00  0.00     0.014 A 
ATOM     41  C   UNL A   1      42.870  21.190  27.471  1.00  0.00     0.014 A 
ATOM     42  C   UNL A   1      43.511  22.918  25.371  1.00  0.00     0.010 A 
ATOM     43  C   UNL A   1      43.283  22.489  27.746  1.00  0.00     0.010 A 
ATOM     44  C   UNL A   1      43.617  23.363  26.700  1.00  0.00    -0.014 A 
BRANCH  44  45
ATOM     45  C   UNL A   1      44.080  24.735  27.024  1.00  0.00     0.031 A 
ATOM     46  C   UNL A   1      43.103  25.751  27.553  1.00  0.00     0.074 A 
ATOM     47  C   UNL A   1      45.354  25.092  26.763  1.00  0.00     0.049 A 
ATOM     48  N   UNL A   1      43.288  27.020  27.807  1.00  0.00    -0.248 NA
ATOM     49  C   UNL A   1      41.727  25.285  27.802  1.00  0.00     0.031 C 
ATOM     50  C   UNL A   1      46.381  24.215  26.196  1.00  0.00     0.029 A 
ATOM     51  N   UNL A   1      45.996  26.296  26.916  1.00  0.00    -0.354 N 
ATOM     52  C   UNL A   1      42.054  27.509  28.216  1.00  0.00     0.074 A 
ATOM     53  C   UNL A   1      41.116  26.412  28.136  1.00  0.00     0.031 C 
ATOM     54  C   UNL A   1      47.522  24.908  26.051  1.00  0.00     0.029 A 
ATOM     55  C   UNL A   1      47.300  26.285  26.478  1.00  0.00     0.049 A 
ATOM     56  H   UNL A   1      45.563  27.091  27.302  1.00  0.00     0.167 HD
ATOM     57  C   UNL A   1      41.735  28.752  28.649  1.00  0.00     0.034 A 
ATOM     58  C   UNL A   1      48.208  27.279  26.413  1.00  0.00     0.034 A 
ATOM     59  C   UNL A   1      42.678  29.831  28.759  1.00  0.00     0.049 A 
ATOM     60  C   UNL A   1      47.826  28.651  26.902  1.00  0.00     0.074 A 
ATOM     61  C   UNL A   1      42.469  31.108  29.246  1.00  0.00     0.029 A 
ATOM     62  N   UNL A   1      44.007  29.762  28.371  1.00  0.00    -0.354 N 
ATOM     63  N   UNL A   1      46.689  29.059  27.410  1.00  0.00    -0.248 NA
ATOM     64  C   UNL A   1      48.864  29.691  26.841  1.00  0.00     0.031 C 
ATOM     65  C   UNL A   1      43.665  31.822  29.125  1.00  0.00     0.029 A 
ATOM     66  C   UNL A   1      44.629  30.977  28.600  1.00  0.00     0.049 A 
ATOM     67  H   UNL A   1      44.443  28.967  27.988  1.00  0.00     0.167 HD
ATOM     68  C   UNL A   1      46.888  30.387  27.771  1.00  0.00     0.074 A 
ATOM     69  C   UNL A   1      48.260  30.710  27.438  1.00  0.00     0.031 C 
ATOM     70  C   UNL A   1      46.012  31.263  28.321  1.00  0.00     0.034 A 
BRANCH  57  71
ATOM     71  C   UNL A   1      40.314  29.001  29.086  1.00  0.00     0.023 A 
ATOM     72  C   UNL A   1      39.321  29.245  28.114  1.00  0.00     0.012 A 
ATOM     73  C   UNL A   1      39.949  28.932  30.444  1.00  0.00     0.148 A 
ATOM     74  C   UNL A   1      37.994  29.449  28.490  1.00  0.00     0.002 A 
ATOM     75  C   UNL A   1      38.617  29.089  30.807  1.00  0.00     0.091 A 
ATOM     76  F   UNL A   1      40.910  28.717  31.354  1.00  0.00    -0.205 F 
ATOM     77  C   UNL A   1      37.641  29.361  29.833  1.00  0.00     0.022 A 
BRANCH  75  78
ATOM     78  S   UNL A   1      38.042  28.913  32.500  1.00  0.00     0.127 S 
ATOM     79  O   UNL A   1      38.249  27.484  32.734  1.00  0.00    -0.237 OA
ATOM     80  O   UNL A   1      38.960  29.789  33.226  1.00  0.00    -0.237 OA
ATOM     81  O   UNL A   1      36.653  29.348  32.501  1.00  0.00    -0.744 OA
ENDBRANCH  75  78
ENDBRANCH  57  71
BRANCH  58  82
ATOM     82  C   UNL A   1      49.586  27.009  25.911  1.00  0.00     0.023 A 
ATOM     83  C   UNL A   1      50.545  26.454  26.781  1.00  0.00     0.012 A 
ATOM     84  C   UNL A   1      49.954  27.299  24.582  1.00  0.00     0.148 A 
ATOM     85  C   UNL A   1      51.855  26.237  26.354  1.00  0.00     0.002 A 
ATOM     86  C   UNL A   1      51.245  27.024  24.145  1.00  0.00     0.091 A 
ATOM     87  F   UNL A   1      49.032  27.833  23.770  1.00  0.00    -0.205 F 
ATOM     88  C   UNL A   1      52.203  26.513  25.034  1.00  0.00     0.022 A 
BRANCH  86  89
ATOM     89  S   UNL A   1      51.744  27.230  22.432  1.00  0.00     0.127 S 
ATOM     90  O   UNL A   1      51.826  28.683  22.317  1.00  0.00    -0.237 OA
ATOM     91  O   UNL A   1      53.032  26.535  22.408  1.00  0.00    -0.237 OA
ATOM     92  O   UNL A   1      50.704  26.588  21.640  1.00  0.00    -0.744 OA
ENDBRANCH  86  89
ENDBRANCH  58  82
BRANCH  70  93
ATOM     93  C   UNL A   1      46.516  32.642  28.658  1.00  0.00     0.023 A 
ATOM     94  C   UNL A   1      47.164  32.880  29.885  1.00  0.00     0.012 A 
ATOM     95  C   UNL A   1      46.421  33.683  27.712  1.00  0.00     0.148 A 
ATOM     96  C   UNL A   1      47.683  34.140  30.179  1.00  0.00     0.002 A 
ATOM     97  C   UNL A   1      46.987  34.921  27.989  1.00  0.00     0.091 A 
ATOM     98  F   UNL A   1      45.786  33.439  26.556  1.00  0.00    -0.205 F 
ATOM     99  C   UNL A   1      47.606  35.155  29.228  1.00  0.00     0.022 A 
BRANCH  97 100
ATOM    100  S   UNL A   1      47.027  36.254  26.787  1.00  0.00     0.127 S 
ATOM    101  O   UNL A   1      47.766  37.287  27.513  1.00  0.00    -0.237 OA
ATOM    102  O   UNL A   1      47.760  35.646  25.677  1.00  0.00    -0.237 OA
ATOM    103  O   UNL A   1      45.638  36.576  26.493  1.00  0.00    -0.744 OA
ENDBRANCH  97 100
ENDBRANCH  70  93
ENDBRANCH  44  45
ENDBRANCH  36  39
ENDBRANCH  34  35
ENDBRANCH  33  34
ENDBRANCH  32  33
ENDBRANCH  31  32
ENDBRANCH   1  31
TORSDOF 22
ENDMDL
MODEL 2
REMARK VINA RESULT:     -10.9      0.670      7.455
REMARK SMILES CCCCOc1ccc(NC(=O)[C@]2(C)CC[C@](C)(C(=O)NCCCCCCNC(=O)c3ccc(-c4c5nc(c(-c6cccc(S(=O)(=O)[O-])c6F)c6ccc([nH]6)c(-c6cccc(S(=O)(=O)[O-])c6F)c6nc(c(-c7cccc(S(=O)(=O)[O-])c7F)c7ccc4[nH]7)C=C6)C=C5)cc3)C2(C)C)cc1
REMARK SMILES IDX 23 1 22 2 21 3 19 4 20 5 17 7 13 8 15 9 94 10 14 11 16 12
REMARK SMILES IDX 95 13 96 14 18 15 11 16 10 17 12 19 9 20 6 21 7 22 98 23
REMARK SMILES IDX 8 24 97 25 5 26 4 27 3 28 2 29 1 30 24 31 25 32 26 33 27 34
REMARK SMILES IDX 28 35 29 36 30 38 31 39 32 40 93 41 33 42 92 43 34 44 35 45
REMARK SMILES IDX 36 46 86 47 37 48 91 49 85 50 87 51 38 52 90 53 84 54 83 55
REMARK SMILES IDX 39 57 71 58 51 59 70 60 52 61 55 62 69 63 88 64 53 65 54 66
REMARK SMILES IDX 68 68 89 69 56 70 40 71 41 72 49 73 42 74 44 75 50 76 43 77
REMARK SMILES IDX 45 78 46 79 47 80 48 81 72 82 73 83 81 84 74 85 76 86 82 87
REMARK SMILES IDX 75 88 77 89 78 90 79 91 80 92 57 93 58 94 66 95 59 96 61 97
REMARK SMILES IDX 67 98 60 99 62 100 63 101 64 102 65 103
REMARK H PARENT 21 6 10 18 28 37 87 56 55 67
REMARK Flexibility Score: inf
ROOT
ATOM      1  C   UNL A   1      35.949  20.766  24.994  1.00  0.00     0.021 C 
ENDROOT
BRANCH   1   2
ATOM      2  C   UNL A   1      35.058  21.629  25.904  1.00  0.00     0.116 C 
BRANCH   2   3
ATOM      3  N   UNL A   1      33.643  21.299  25.849  1.00  0.00    -0.356 N 
ATOM      4  C   UNL A   1      32.556  21.852  25.240  1.00  0.00     0.226 C 
ATOM      5  O   UNL A   1      31.502  21.221  25.401  1.00  0.00    -0.274 OA
ATOM      6  H   UNL A   1      33.420  20.494  26.369  1.00  0.00     0.163 HD
BRANCH   4   7
ATOM      7  C   UNL A   1      32.583  23.145  24.346  1.00  0.00     0.052 C 
ATOM      8  C   UNL A   1      31.894  25.686  24.495  1.00  0.00     0.053 C 
ATOM      9  C   UNL A   1      31.101  24.860  23.438  1.00  0.00     0.018 C 
ATOM     10  C   UNL A   1      32.952  24.563  25.034  1.00  0.00    -0.007 C 
ATOM     11  C   UNL A   1      32.373  26.927  23.695  1.00  0.00     0.022 C 
ATOM     12  C   UNL A   1      31.131  23.413  23.882  1.00  0.00     0.018 C 
ATOM     13  C   UNL A   1      34.402  24.942  24.656  1.00  0.00     0.013 C 
ATOM     14  C   UNL A   1      32.748  24.392  26.558  1.00  0.00     0.013 C 
ATOM     15  C   UNL A   1      33.421  22.760  23.102  1.00  0.00     0.022 C 
BRANCH   8  16
ATOM     16  C   UNL A   1      30.926  26.280  25.584  1.00  0.00     0.230 C 
ATOM     17  N   UNL A   1      31.127  27.419  26.328  1.00  0.00    -0.326 N 
ATOM     18  H   UNL A   1      30.347  27.613  26.897  1.00  0.00     0.169 HD
ATOM     19  O   UNL A   1      29.873  25.680  25.857  1.00  0.00    -0.274 OA
BRANCH  17  20
ATOM     20  C   UNL A   1      32.140  28.390  26.504  1.00  0.00     0.041 A 
ATOM     21  C   UNL A   1      33.897  30.453  27.292  1.00  0.00     0.119 A 
ATOM     22  C   UNL A   1      34.314  29.137  27.333  1.00  0.00     0.048 A 
ATOM     23  C   UNL A   1      32.679  30.760  26.698  1.00  0.00     0.048 A 
ATOM     24  C   UNL A   1      33.450  28.132  26.880  1.00  0.00     0.030 A 
ATOM     25  C   UNL A   1      31.787  29.736  26.347  1.00  0.00     0.030 A 
BRANCH  21  26
ATOM     26  O   UNL A   1      34.701  31.459  27.734  1.00  0.00    -0.494 OA
BRANCH  26  27
ATOM     27  C   UNL A   1      34.573  31.692  29.150  1.00  0.00     0.229 C 
BRANCH  27  28
ATOM     28  C   UNL A   1      34.875  33.162  29.468  1.00  0.00     0.041 C 
BRANCH  28  29
ATOM     29  C   UNL A   1      33.836  34.158  28.941  1.00  0.00     0.000 C 
ATOM     30  C   UNL A   1      34.437  35.300  28.136  1.00  0.00     0.004 C 
ENDBRANCH  28  29
ENDBRANCH  27  28
ENDBRANCH  26  27
ENDBRANCH  21  26
ENDBRANCH  17  20
ENDBRANCH   8  16
ENDBRANCH   4   7
ENDBRANCH   2   3
ENDBRANCH   1   2
BRANCH   1  31
ATOM     31  C   UNL A   1      37.198  21.489  24.483  1.00  0.00     0.002 C 
BRANCH  31  32
ATOM     32  C   UNL A   1      38.407  21.334  25.406  1.00  0.00     0.002 C 
BRANCH  32  33
ATOM     33  C   UNL A   1      39.100  19.971  25.308  1.00  0.00     0.021 C 
BRANCH  33  34
ATOM     34  C   UNL A   1      39.948  19.616  26.524  1.00  0.00     0.116 C 
BRANCH  34  35
ATOM     35  N   UNL A   1      41.175  18.938  26.130  1.00  0.00    -0.352 N 
ATOM     36  C   UNL A   1      42.378  19.499  25.791  1.00  0.00     0.251 C 
ATOM     37  H   UNL A   1      41.135  17.955  26.104  1.00  0.00     0.163 HD
ATOM     38  O   UNL A   1      43.236  18.832  25.210  1.00  0.00    -0.269 OA
BRANCH  36  39
ATOM     39  C   UNL A   1      42.629  20.912  26.129  1.00  0.00     0.039 A 
ATOM     40  C   UNL A   1      42.804  21.278  27.465  1.00  0.00     0.014 A 
ATOM     41  C   UNL A   1      42.715  21.867  25.112  1.00  0.00     0.014 A 
ATOM     42  C   UNL A   1      43.115  22.603  27.777  1.00  0.00     0.010 A 
ATOM     43  C   UNL A   1      43.098  23.167  25.419  1.00  0.00     0.010 A 
ATOM     44  C   UNL A   1      43.293  23.552  26.755  1.00  0.00    -0.014 A 
BRANCH  44  45
ATOM     45  C   UNL A   1      43.677  24.954  27.055  1.00  0.00     0.031 A 
ATOM     46  C   UNL A   1      45.116  25.379  26.937  1.00  0.00     0.074 A 
ATOM     47  C   UNL A   1      42.751  25.818  27.515  1.00  0.00     0.049 A 
ATOM     48  N   UNL A   1      45.665  26.525  27.241  1.00  0.00    -0.248 NA
ATOM     49  C   UNL A   1      46.069  24.372  26.437  1.00  0.00     0.031 C 
ATOM     50  C   UNL A   1      41.335  25.509  27.729  1.00  0.00     0.029 A 
ATOM     51  N   UNL A   1      42.866  27.128  27.911  1.00  0.00    -0.354 N 
ATOM     52  C   UNL A   1      47.025  26.371  26.999  1.00  0.00     0.074 A 
ATOM     53  C   UNL A   1      47.226  25.007  26.563  1.00  0.00     0.031 C 
ATOM     54  C   UNL A   1      40.715  26.597  28.214  1.00  0.00     0.029 A 
ATOM     55  C   UNL A   1      41.691  27.667  28.383  1.00  0.00     0.049 A 
ATOM     56  H   UNL A   1      43.710  27.632  27.864  1.00  0.00     0.167 HD
ATOM     57  C   UNL A   1      48.015  27.289  27.100  1.00  0.00     0.034 A 
ATOM     58  C   UNL A   1      41.436  28.883  28.906  1.00  0.00     0.034 A 
ATOM     59  C   UNL A   1      47.806  28.653  27.503  1.00  0.00     0.049 A 
ATOM     60  C   UNL A   1      42.556  29.885  29.006  1.00  0.00     0.074 A 
ATOM     61  C   UNL A   1      48.732  29.679  27.575  1.00  0.00     0.029 A 
ATOM     62  N   UNL A   1      46.590  29.182  27.905  1.00  0.00    -0.354 N 
ATOM     63  N   UNL A   1      43.809  29.760  28.646  1.00  0.00    -0.248 NA
ATOM     64  C   UNL A   1      42.217  31.207  29.553  1.00  0.00     0.031 C 
ATOM     65  C   UNL A   1      48.081  30.821  28.051  1.00  0.00     0.029 A 
ATOM     66  C   UNL A   1      46.742  30.518  28.235  1.00  0.00     0.049 A 
ATOM     67  H   UNL A   1      45.743  28.682  27.950  1.00  0.00     0.167 HD
ATOM     68  C   UNL A   1      44.398  30.999  28.879  1.00  0.00     0.074 A 
ATOM     69  C   UNL A   1      43.359  31.865  29.396  1.00  0.00     0.031 C 
ATOM     70  C   UNL A   1      45.684  31.383  28.690  1.00  0.00     0.034 A 
BRANCH  57  71
ATOM     71  C   UNL A   1      49.410  26.864  26.723  1.00  0.00     0.023 A 
ATOM     72  C   UNL A   1      50.151  26.049  27.604  1.00  0.00     0.012 A 
ATOM     73  C   UNL A   1      49.964  27.215  25.476  1.00  0.00     0.148 A 
ATOM     74  C   UNL A   1      51.433  25.618  27.266  1.00  0.00     0.002 A 
ATOM     75  C   UNL A   1      51.223  26.741  25.125  1.00  0.00     0.091 A 
ATOM     76  F   UNL A   1      49.252  28.004  24.659  1.00  0.00    -0.205 F 
ATOM     77  C   UNL A   1      51.963  25.954  26.024  1.00  0.00     0.022 A 
BRANCH  75  78
ATOM     78  S   UNL A   1      51.964  27.048  23.518  1.00  0.00     0.127 S 
ATOM     79  O   UNL A   1      52.381  28.443  23.648  1.00  0.00    -0.237 OA
ATOM     80  O   UNL A   1      53.062  26.082  23.499  1.00  0.00    -0.237 OA
ATOM     81  O   UNL A   1      50.917  26.801  22.538  1.00  0.00    -0.744 OA
ENDBRANCH  75  78
ENDBRANCH  57  71
BRANCH  58  82
ATOM     82  C   UNL A   1      40.054  29.245  29.332  1.00  0.00     0.023 A 
ATOM     83  C   UNL A   1      39.117  29.662  28.366  1.00  0.00     0.012 A 
ATOM     84  C   UNL A   1      39.661  29.182  30.684  1.00  0.00     0.148 A 
ATOM     85  C   UNL A   1      37.832  30.054  28.741  1.00  0.00     0.002 A 
ATOM     86  C   UNL A   1      38.361  29.517  31.043  1.00  0.00     0.091 A 
ATOM     87  F   UNL A   1      40.567  28.790  31.591  1.00  0.00    -0.205 F 
ATOM     88  C   UNL A   1      37.451  29.973  30.077  1.00  0.00     0.022 A 
BRANCH  86  89
ATOM     89  S   UNL A   1      37.747  29.322  32.720  1.00  0.00     0.127 S 
ATOM     90  O   UNL A   1      36.423  29.932  32.626  1.00  0.00    -0.237 OA
ATOM     91  O   UNL A   1      37.747  27.867  32.874  1.00  0.00    -0.237 OA
ATOM     92  O   UNL A   1      38.704  30.014  33.572  1.00  0.00    -0.744 OA
ENDBRANCH  86  89
ENDBRANCH  58  82
BRANCH  70  93
ATOM     93  C   UNL A   1      46.040  32.817  28.983  1.00  0.00     0.023 A 
ATOM     94  C   UNL A   1      46.668  33.156  30.197  1.00  0.00     0.012 A 
ATOM     95  C   UNL A   1      45.827  33.814  28.011  1.00  0.00     0.148 A 
ATOM     96  C   UNL A   1      47.051  34.473  30.451  1.00  0.00     0.002 A 
ATOM     97  C   UNL A   1      46.259  35.113  28.248  1.00  0.00     0.091 A 
ATOM     98  F   UNL A   1      45.212  33.472  26.869  1.00  0.00    -0.205 F 
ATOM     99  C   UNL A   1      46.859  35.447  29.473  1.00  0.00     0.022 A 
BRANCH  97 100
ATOM    100  S   UNL A   1      46.147  36.409  27.010  1.00  0.00     0.127 S 
ATOM    101  O   UNL A   1      44.699  36.546  26.853  1.00  0.00    -0.237 OA
ATOM    102  O   UNL A   1      46.796  37.533  27.683  1.00  0.00    -0.237 OA
ATOM    103  O   UNL A   1      46.855  35.912  25.838  1.00  0.00    -0.744 OA
ENDBRANCH  97 100
ENDBRANCH  70  93
ENDBRANCH  44  45
ENDBRANCH  36  39
ENDBRANCH  34  35
ENDBRANCH  33  34
ENDBRANCH  32  33
ENDBRANCH  31  32
ENDBRANCH   1  31
TORSDOF 22
ENDMDL
MODEL 3
REMARK VINA RESULT:     -10.6      5.935      9.339
REMARK SMILES CCCCOc1ccc(NC(=O)[C@]2(C)CC[C@](C)(C(=O)NCCCCCCNC(=O)c3ccc(-c4c5nc(c(-c6cccc(S(=O)(=O)[O-])c6F)c6ccc([nH]6)c(-c6cccc(S(=O)(=O)[O-])c6F)c6nc(c(-c7cccc(S(=O)(=O)[O-])c7F)c7ccc4[nH]7)C=C6)C=C5)cc3)C2(C)C)cc1
REMARK SMILES IDX 23 1 22 2 21 3 19 4 20 5 17 7 13 8 15 9 94 10 14 11 16 12
REMARK SMILES IDX 95 13 96 14 18 15 11 16 10 17 12 19 9 20 6 21 7 22 98 23
REMARK SMILES IDX 8 24 97 25 5 26 4 27 3 28 2 29 1 30 24 31 25 32 26 33 27 34
REMARK SMILES IDX 28 35 29 36 30 38 31 39 32 40 93 41 33 42 92 43 34 44 35 45
REMARK SMILES IDX 36 46 86 47 37 48 91 49 85 50 87 51 38 52 90 53 84 54 83 55
REMARK SMILES IDX 39 57 71 58 51 59 70 60 52 61 55 62 69 63 88 64 53 65 54 66
REMARK SMILES IDX 68 68 89 69 56 70 40 71 41 72 49 73 42 74 44 75 50 76 43 77
REMARK SMILES IDX 45 78 46 79 47 80 48 81 72 82 73 83 81 84 74 85 76 86 82 87
REMARK SMILES IDX 75 88 77 89 78 90 79 91 80 92 57 93 58 94 66 95 59 96 61 97
REMARK SMILES IDX 67 98 60 99 62 100 63 101 64 102 65 103
REMARK H PARENT 21 6 10 18 28 37 87 56 55 67
REMARK Flexibility Score: inf
ROOT
ATOM      1  C   UNL A   1      33.083  27.642  26.847  1.00  0.00     0.021 C 
ENDROOT
BRANCH   1   2
ATOM      2  C   UNL A   1      33.054  26.372  25.979  1.00  0.00     0.116 C 
BRANCH   2   3
ATOM      3  N   UNL A   1      34.365  25.827  25.665  1.00  0.00    -0.356 N 
ATOM      4  C   UNL A   1      34.879  24.568  25.567  1.00  0.00     0.226 C 
ATOM      5  O   UNL A   1      36.066  24.525  25.216  1.00  0.00    -0.274 OA
ATOM      6  H   UNL A   1      35.034  26.527  25.482  1.00  0.00     0.163 HD
BRANCH   4   7
ATOM      7  C   UNL A   1      34.068  23.243  25.809  1.00  0.00     0.052 C 
ATOM      8  C   UNL A   1      32.685  21.472  24.429  1.00  0.00     0.053 C 
ATOM      9  C   UNL A   1      31.850  22.281  25.466  1.00  0.00     0.018 C 
ATOM     10  C   UNL A   1      34.186  22.046  24.726  1.00  0.00    -0.007 C 
ATOM     11  C   UNL A   1      32.309  19.998  24.737  1.00  0.00     0.022 C 
ATOM     12  C   UNL A   1      32.566  23.596  25.693  1.00  0.00     0.018 C 
ATOM     13  C   UNL A   1      35.099  20.938  25.299  1.00  0.00     0.013 C 
ATOM     14  C   UNL A   1      34.736  22.670  23.421  1.00  0.00     0.013 C 
ATOM     15  C   UNL A   1      34.358  22.854  27.279  1.00  0.00     0.022 C 
BRANCH   8  16
ATOM     16  C   UNL A   1      32.147  21.709  22.968  1.00  0.00     0.230 C 
ATOM     17  N   UNL A   1      31.662  22.889  22.454  1.00  0.00    -0.326 N 
ATOM     18  H   UNL A   1      31.447  22.796  21.497  1.00  0.00     0.169 HD
ATOM     19  O   UNL A   1      32.112  20.759  22.170  1.00  0.00    -0.274 OA
BRANCH  17  20
ATOM     20  C   UNL A   1      31.386  24.197  22.914  1.00  0.00     0.041 A 
ATOM     21  C   UNL A   1      30.702  26.902  23.332  1.00  0.00     0.119 A 
ATOM     22  C   UNL A   1      29.917  25.901  23.868  1.00  0.00     0.048 A 
ATOM     23  C   UNL A   1      31.914  26.571  22.740  1.00  0.00     0.048 A 
ATOM     24  C   UNL A   1      30.306  24.566  23.703  1.00  0.00     0.030 A 
ATOM     25  C   UNL A   1      32.235  25.228  22.492  1.00  0.00     0.030 A 
BRANCH  21  26
ATOM     26  O   UNL A   1      30.353  28.213  23.460  1.00  0.00    -0.494 OA
BRANCH  26  27
ATOM     27  C   UNL A   1      29.412  28.638  22.455  1.00  0.00     0.229 C 
BRANCH  27  28
ATOM     28  C   UNL A   1      29.444  30.166  22.322  1.00  0.00     0.041 C 
BRANCH  28  29
ATOM     29  C   UNL A   1      29.064  30.928  23.596  1.00  0.00     0.000 C 
ATOM     30  C   UNL A   1      27.673  31.540  23.551  1.00  0.00     0.004 C 
ENDBRANCH  28  29
ENDBRANCH  27  28
ENDBRANCH  26  27
ENDBRANCH  21  26
ENDBRANCH  17  20
ENDBRANCH   8  16
ENDBRANCH   4   7
ENDBRANCH   2   3
ENDBRANCH   1   2
BRANCH   1  31
ATOM     31  C   UNL A   1      31.791  28.461  26.791  1.00  0.00     0.002 C 
BRANCH  31  32
ATOM     32  C   UNL A   1      31.871  29.656  25.841  1.00  0.00     0.002 C 
BRANCH  32  33
ATOM     33  C   UNL A   1      31.653  31.012  26.519  1.00  0.00     0.021 C 
BRANCH  33  34
ATOM     34  C   UNL A   1      32.862  31.518  27.299  1.00  0.00     0.116 C 
BRANCH  34  35
ATOM     35  N   UNL A   1      32.838  32.969  27.422  1.00  0.00    -0.352 N 
ATOM     36  C   UNL A   1      33.589  33.759  28.251  1.00  0.00     0.251 C 
ATOM     37  H   UNL A   1      32.203  33.440  26.835  1.00  0.00     0.163 HD
ATOM     38  O   UNL A   1      33.270  34.931  28.454  1.00  0.00    -0.269 OA
BRANCH  36  39
ATOM     39  C   UNL A   1      34.783  33.184  28.898  1.00  0.00     0.039 A 
ATOM     40  C   UNL A   1      34.630  32.356  30.011  1.00  0.00     0.014 A 
ATOM     41  C   UNL A   1      36.054  33.452  28.379  1.00  0.00     0.014 A 
ATOM     42  C   UNL A   1      35.755  31.753  30.577  1.00  0.00     0.010 A 
ATOM     43  C   UNL A   1      37.161  32.792  28.897  1.00  0.00     0.010 A 
ATOM     44  C   UNL A   1      37.026  31.944  30.007  1.00  0.00    -0.014 A 
BRANCH  44  45
ATOM     45  C   UNL A   1      38.231  31.272  30.556  1.00  0.00     0.031 A 
ATOM     46  C   UNL A   1      38.842  31.761  31.842  1.00  0.00     0.074 A 
ATOM     47  C   UNL A   1      38.824  30.285  29.856  1.00  0.00     0.049 A 
ATOM     48  N   UNL A   1      39.940  31.371  32.434  1.00  0.00    -0.248 NA
ATOM     49  C   UNL A   1      38.138  32.851  32.541  1.00  0.00     0.031 C 
ATOM     50  C   UNL A   1      38.362  29.763  28.568  1.00  0.00     0.029 A 
ATOM     51  N   UNL A   1      39.961  29.560  30.117  1.00  0.00    -0.354 N 
ATOM     52  C   UNL A   1      40.076  32.183  33.554  1.00  0.00     0.074 A 
ATOM     53  C   UNL A   1      38.972  33.116  33.538  1.00  0.00     0.031 C 
ATOM     54  C   UNL A   1      39.204  28.802  28.154  1.00  0.00     0.029 A 
ATOM     55  C   UNL A   1      40.285  28.665  29.123  1.00  0.00     0.049 A 
ATOM     56  H   UNL A   1      40.493  29.671  30.938  1.00  0.00     0.167 HD
ATOM     57  C   UNL A   1      41.018  32.137  34.526  1.00  0.00     0.034 A 
ATOM     58  C   UNL A   1      41.344  27.840  29.003  1.00  0.00     0.034 A 
ATOM     59  C   UNL A   1      42.095  31.186  34.556  1.00  0.00     0.049 A 
ATOM     60  C   UNL A   1      42.375  27.809  30.099  1.00  0.00     0.074 A 
ATOM     61  C   UNL A   1      43.063  31.015  35.529  1.00  0.00     0.029 A 
ATOM     62  N   UNL A   1      42.351  30.249  33.567  1.00  0.00    -0.354 N 
ATOM     63  N   UNL A   1      42.413  28.493  31.216  1.00  0.00    -0.248 NA
ATOM     64  C   UNL A   1      43.493  26.867  29.935  1.00  0.00     0.031 C 
ATOM     65  C   UNL A   1      43.923  29.994  35.114  1.00  0.00     0.029 A 
ATOM     66  C   UNL A   1      43.466  29.502  33.902  1.00  0.00     0.049 A 
ATOM     67  H   UNL A   1      41.818  30.133  32.748  1.00  0.00     0.167 HD
ATOM     68  C   UNL A   1      43.529  28.033  31.908  1.00  0.00     0.074 A 
ATOM     69  C   UNL A   1      44.131  27.000  31.090  1.00  0.00     0.031 C 
ATOM     70  C   UNL A   1      44.016  28.435  33.106  1.00  0.00     0.034 A 
BRANCH  57  71
ATOM     71  C   UNL A   1      40.897  33.113  35.667  1.00  0.00     0.023 A 
ATOM     72  C   UNL A   1      41.565  34.353  35.594  1.00  0.00     0.012 A 
ATOM     73  C   UNL A   1      40.079  32.834  36.779  1.00  0.00     0.148 A 
ATOM     74  C   UNL A   1      41.447  35.286  36.624  1.00  0.00     0.002 A 
ATOM     75  C   UNL A   1      39.928  33.788  37.779  1.00  0.00     0.091 A 
ATOM     76  F   UNL A   1      39.467  31.643  36.839  1.00  0.00    -0.205 F 
ATOM     77  C   UNL A   1      40.621  35.009  37.709  1.00  0.00     0.022 A 
BRANCH  75  78
ATOM     78  S   UNL A   1      38.825  33.564  39.178  1.00  0.00     0.127 S 
ATOM     79  O   UNL A   1      39.504  32.503  39.921  1.00  0.00    -0.237 OA
ATOM     80  O   UNL A   1      38.868  34.879  39.815  1.00  0.00    -0.237 OA
ATOM     81  O   UNL A   1      37.531  33.200  38.617  1.00  0.00    -0.744 OA
ENDBRANCH  75  78
ENDBRANCH  57  71
BRANCH  58  82
ATOM     82  C   UNL A   1      41.463  26.935  27.823  1.00  0.00     0.023 A 
ATOM     83  C   UNL A   1      42.061  27.414  26.641  1.00  0.00     0.012 A 
ATOM     84  C   UNL A   1      40.988  25.610  27.862  1.00  0.00     0.148 A 
ATOM     85  C   UNL A   1      42.142  26.607  25.505  1.00  0.00     0.002 A 
ATOM     86  C   UNL A   1      41.125  24.792  26.747  1.00  0.00     0.091 A 
ATOM     87  F   UNL A   1      40.415  25.173  28.992  1.00  0.00    -0.205 F 
ATOM     88  C   UNL A   1      41.683  25.294  25.560  1.00  0.00     0.022 A 
BRANCH  86  89
ATOM     89  S   UNL A   1      40.678  23.053  26.769  1.00  0.00     0.127 S 
ATOM     90  O   UNL A   1      41.424  22.537  25.624  1.00  0.00    -0.237 OA
ATOM     91  O   UNL A   1      41.181  22.628  28.075  1.00  0.00    -0.237 OA
ATOM     92  O   UNL A   1      39.227  23.018  26.647  1.00  0.00    -0.744 OA
ENDBRANCH  86  89
ENDBRANCH  58  82
BRANCH  70  93
ATOM     93  C   UNL A   1      45.228  27.721  33.647  1.00  0.00     0.023 A 
ATOM     94  C   UNL A   1      46.518  28.234  33.408  1.00  0.00     0.012 A 
ATOM     95  C   UNL A   1      45.076  26.587  34.469  1.00  0.00     0.148 A 
ATOM     96  C   UNL A   1      47.639  27.611  33.953  1.00  0.00     0.002 A 
ATOM     97  C   UNL A   1      46.192  26.002  35.052  1.00  0.00     0.091 A 
ATOM     98  F   UNL A   1      43.840  26.106  34.671  1.00  0.00    -0.205 F 
ATOM     99  C   UNL A   1      47.476  26.505  34.784  1.00  0.00     0.022 A 
BRANCH  97 100
ATOM    100  S   UNL A   1      46.072  24.640  36.216  1.00  0.00     0.127 S 
ATOM    101  O   UNL A   1      47.477  24.407  36.548  1.00  0.00    -0.237 OA
ATOM    102  O   UNL A   1      45.279  25.227  37.296  1.00  0.00    -0.237 OA
ATOM    103  O   UNL A   1      45.415  23.554  35.502  1.00  0.00    -0.744 OA
ENDBRANCH  97 100
ENDBRANCH  70  93
ENDBRANCH  44  45
ENDBRANCH  36  39
ENDBRANCH  34  35
ENDBRANCH  33  34
ENDBRANCH  32  33
ENDBRANCH  31  32
ENDBRANCH   1  31
TORSDOF 22
ENDMDL
