MODEL 1
REMARK VINA RESULT:     -10.6      0.000      0.000
REMARK SMILES COc1ccc(C(=O)CCCC(=O)NCCCCCCNC(=O)c2ccc(-c3c4nc(c(-c5cccc(S(=O)(=O)[O-])c5F)c5ccc([nH]5)c(-c5cccc(S(=O)(=O)[O-])c5F)c5nc(c(-c6cccc(S(=O)(=O)[O-])c6F)c6ccc3[nH]6)C=C5)C=C4)cc2)cc1
REMARK SMILES IDX 16 1 15 2 14 3 12 4 13 5 11 7 10 8 9 9 7 10 8 11 6 12 3 13
REMARK SMILES IDX 4 14 88 15 5 16 87 17 2 18 1 19 17 20 18 21 19 22 20 23
REMARK SMILES IDX 21 24 22 25 23 27 24 28 25 29 86 30 26 31 85 32 27 33 28 34
REMARK SMILES IDX 29 35 79 36 30 37 84 38 78 39 80 40 31 41 83 42 77 43 76 44
REMARK SMILES IDX 32 46 64 47 44 48 63 49 45 50 48 51 62 52 81 53 46 54 47 55
REMARK SMILES IDX 61 57 82 58 49 59 33 60 34 61 42 62 35 63 37 64 43 65 36 66
REMARK SMILES IDX 38 67 39 68 40 69 41 70 65 71 66 72 74 73 67 74 69 75 75 76
REMARK SMILES IDX 68 77 70 78 71 79 72 80 73 81 50 82 51 83 59 84 52 85 54 86
REMARK SMILES IDX 60 87 53 88 55 89 56 90 57 91 58 92
REMARK H PARENT 14 6 21 26 80 45 48 56
REMARK Flexibility Score: inf
ROOT
ATOM      1  C   UNL A   1      32.957  22.509  23.134  1.00  0.00     0.021 C 
ENDROOT
BRANCH   1   2
ATOM      2  C   UNL A   1      31.960  23.631  22.849  1.00  0.00     0.116 C 
BRANCH   2   3
ATOM      3  N   UNL A   1      32.301  24.358  21.642  1.00  0.00    -0.356 N 
ATOM      4  C   UNL A   1      32.937  25.515  21.362  1.00  0.00     0.220 C 
ATOM      5  O   UNL A   1      33.080  25.752  20.153  1.00  0.00    -0.275 OA
ATOM      6  H   UNL A   1      31.996  23.894  20.830  1.00  0.00     0.163 HD
BRANCH   4   7
ATOM      7  C   UNL A   1      33.591  26.462  22.368  1.00  0.00     0.100 C 
BRANCH   7   8
ATOM      8  C   UNL A   1      33.581  27.982  22.241  1.00  0.00     0.018 C 
BRANCH   8   9
ATOM      9  C   UNL A   1      33.382  28.942  23.409  1.00  0.00     0.081 C 
BRANCH   9  10
ATOM     10  C   UNL A   1      32.396  28.718  24.567  1.00  0.00     0.162 C 
ATOM     11  O   UNL A   1      31.773  29.701  24.985  1.00  0.00    -0.294 OA
BRANCH  10  12
ATOM     12  C   UNL A   1      32.038  27.390  25.182  1.00  0.00     0.018 A 
ATOM     13  C   UNL A   1      31.551  24.819  26.292  1.00  0.00     0.118 A 
ATOM     14  C   UNL A   1      32.787  25.439  26.457  1.00  0.00     0.047 A 
ATOM     15  C   UNL A   1      30.539  25.514  25.648  1.00  0.00     0.047 A 
ATOM     16  C   UNL A   1      33.032  26.703  25.897  1.00  0.00     0.015 A 
ATOM     17  C   UNL A   1      30.786  26.788  25.122  1.00  0.00     0.015 A 
BRANCH  13  18
ATOM     18  O   UNL A   1      31.416  23.568  26.823  1.00  0.00    -0.497 OA
ATOM     19  C   UNL A   1      30.072  23.119  26.982  1.00  0.00     0.278 C 
ENDBRANCH  13  18
ENDBRANCH  10  12
ENDBRANCH   9  10
ENDBRANCH   8   9
ENDBRANCH   7   8
ENDBRANCH   4   7
ENDBRANCH   2   3
ENDBRANCH   1   2
BRANCH   1  20
ATOM     20  C   UNL A   1      34.002  22.902  24.179  1.00  0.00     0.002 C 
BRANCH  20  21
ATOM     21  C   UNL A   1      35.358  23.324  23.596  1.00  0.00     0.002 C 
BRANCH  21  22
ATOM     22  C   UNL A   1      36.548  22.432  23.965  1.00  0.00     0.021 C 
BRANCH  22  23
ATOM     23  C   UNL A   1      36.902  22.402  25.449  1.00  0.00     0.116 C 
BRANCH  23  24
ATOM     24  N   UNL A   1      37.867  21.359  25.761  1.00  0.00    -0.352 N 
ATOM     25  C   UNL A   1      39.164  21.465  26.191  1.00  0.00     0.251 C 
ATOM     26  H   UNL A   1      37.538  20.438  25.648  1.00  0.00     0.163 HD
ATOM     27  O   UNL A   1      39.876  20.467  26.225  1.00  0.00    -0.269 OA
BRANCH  25  28
ATOM     28  C   UNL A   1      39.704  22.778  26.605  1.00  0.00     0.039 A 
ATOM     29  C   UNL A   1      40.528  22.842  27.732  1.00  0.00     0.014 A 
ATOM     30  C   UNL A   1      39.374  23.942  25.907  1.00  0.00     0.014 A 
ATOM     31  C   UNL A   1      41.050  24.071  28.138  1.00  0.00     0.010 A 
ATOM     32  C   UNL A   1      39.953  25.154  26.270  1.00  0.00     0.010 A 
ATOM     33  C   UNL A   1      40.780  25.235  27.399  1.00  0.00    -0.014 A 
BRANCH  33  34
ATOM     34  C   UNL A   1      41.333  26.550  27.808  1.00  0.00     0.031 A 
ATOM     35  C   UNL A   1      42.766  26.893  27.500  1.00  0.00     0.074 A 
ATOM     36  C   UNL A   1      40.569  27.402  28.520  1.00  0.00     0.049 A 
ATOM     37  N   UNL A   1      43.442  27.969  27.809  1.00  0.00    -0.248 NA
ATOM     38  C   UNL A   1      43.551  25.883  26.771  1.00  0.00     0.031 C 
ATOM     39  C   UNL A   1      39.191  27.150  28.943  1.00  0.00     0.029 A 
ATOM     40  N   UNL A   1      40.853  28.643  29.031  1.00  0.00    -0.354 N 
ATOM     41  C   UNL A   1      44.734  27.751  27.348  1.00  0.00     0.074 A 
ATOM     42  C   UNL A   1      44.760  26.424  26.773  1.00  0.00     0.031 C 
ATOM     43  C   UNL A   1      38.745  28.208  29.639  1.00  0.00     0.029 A 
ATOM     44  C   UNL A   1      39.810  29.202  29.733  1.00  0.00     0.049 A 
ATOM     45  H   UNL A   1      41.720  29.093  28.906  1.00  0.00     0.167 HD
ATOM     46  C   UNL A   1      45.798  28.591  27.366  1.00  0.00     0.034 A 
ATOM     47  C   UNL A   1      39.724  30.382  30.375  1.00  0.00     0.034 A 
ATOM     48  C   UNL A   1      45.754  29.926  27.899  1.00  0.00     0.049 A 
ATOM     49  C   UNL A   1      40.903  31.317  30.341  1.00  0.00     0.074 A 
ATOM     50  C   UNL A   1      46.750  30.885  27.902  1.00  0.00     0.029 A 
ATOM     51  N   UNL A   1      44.651  30.491  28.523  1.00  0.00    -0.354 N 
ATOM     52  N   UNL A   1      42.072  31.152  29.769  1.00  0.00    -0.248 NA
ATOM     53  C   UNL A   1      40.738  32.618  31.007  1.00  0.00     0.031 C 
ATOM     54  C   UNL A   1      46.253  32.028  28.541  1.00  0.00     0.029 A 
ATOM     55  C   UNL A   1      44.940  31.787  28.915  1.00  0.00     0.049 A 
ATOM     56  H   UNL A   1      43.790  30.037  28.666  1.00  0.00     0.167 HD
ATOM     57  C   UNL A   1      42.764  32.342  29.966  1.00  0.00     0.074 A 
ATOM     58  C   UNL A   1      41.876  33.224  30.697  1.00  0.00     0.031 C 
ATOM     59  C   UNL A   1      44.024  32.671  29.587  1.00  0.00     0.034 A 
BRANCH  46  60
ATOM     60  C   UNL A   1      47.078  28.106  26.737  1.00  0.00     0.023 A 
ATOM     61  C   UNL A   1      48.145  27.695  27.565  1.00  0.00     0.012 A 
ATOM     62  C   UNL A   1      47.222  28.024  25.338  1.00  0.00     0.148 A 
ATOM     63  C   UNL A   1      49.346  27.251  27.013  1.00  0.00     0.002 A 
ATOM     64  C   UNL A   1      48.407  27.536  24.796  1.00  0.00     0.091 A 
ATOM     65  F   UNL A   1      46.209  28.439  24.565  1.00  0.00    -0.205 F 
ATOM     66  C   UNL A   1      49.473  27.164  25.630  1.00  0.00     0.022 A 
BRANCH  64  67
ATOM     67  S   UNL A   1      48.639  27.310  23.028  1.00  0.00     0.127 S 
ATOM     68  O   UNL A   1      50.054  27.644  22.872  1.00  0.00    -0.237 OA
ATOM     69  O   UNL A   1      48.324  25.893  22.853  1.00  0.00    -0.237 OA
ATOM     70  O   UNL A   1      47.704  28.221  22.383  1.00  0.00    -0.744 OA
ENDBRANCH  64  67
ENDBRANCH  46  60
BRANCH  47  71
ATOM     71  C   UNL A   1      38.442  30.788  31.018  1.00  0.00     0.023 A 
ATOM     72  C   UNL A   1      38.240  30.500  32.383  1.00  0.00     0.012 A 
ATOM     73  C   UNL A   1      37.443  31.480  30.307  1.00  0.00     0.148 A 
ATOM     74  C   UNL A   1      37.053  30.865  33.020  1.00  0.00     0.002 A 
ATOM     75  C   UNL A   1      36.285  31.886  30.961  1.00  0.00     0.091 A 
ATOM     76  F   UNL A   1      37.652  31.737  29.008  1.00  0.00    -0.205 F 
ATOM     77  C   UNL A   1      36.081  31.566  32.313  1.00  0.00     0.022 A 
BRANCH  75  78
ATOM     78  S   UNL A   1      35.033  32.902  30.167  1.00  0.00     0.127 S 
ATOM     79  O   UNL A   1      34.535  32.004  29.129  1.00  0.00    -0.237 OA
ATOM     80  O   UNL A   1      34.102  33.148  31.269  1.00  0.00    -0.237 OA
ATOM     81  O   UNL A   1      35.733  34.089  29.694  1.00  0.00    -0.744 OA
ENDBRANCH  75  78
ENDBRANCH  47  71
BRANCH  59  82
ATOM     82  C   UNL A   1      44.508  34.060  29.912  1.00  0.00     0.023 A 
ATOM     83  C   UNL A   1      45.305  34.278  31.052  1.00  0.00     0.012 A 
ATOM     84  C   UNL A   1      44.232  35.135  29.043  1.00  0.00     0.148 A 
ATOM     85  C   UNL A   1      45.790  35.553  31.344  1.00  0.00     0.002 A 
ATOM     86  C   UNL A   1      44.760  36.392  29.313  1.00  0.00     0.091 A 
ATOM     87  F   UNL A   1      43.455  34.913  27.973  1.00  0.00    -0.205 F 
ATOM     88  C   UNL A   1      45.528  36.606  30.469  1.00  0.00     0.022 A 
BRANCH  86  89
ATOM     89  S   UNL A   1      44.555  37.779  28.191  1.00  0.00     0.127 S 
ATOM     90  O   UNL A   1      45.689  38.627  28.553  1.00  0.00    -0.237 OA
ATOM     91  O   UNL A   1      44.666  37.139  26.879  1.00  0.00    -0.237 OA
ATOM     92  O   UNL A   1      43.239  38.334  28.479  1.00  0.00    -0.744 OA
ENDBRANCH  86  89
ENDBRANCH  59  82
ENDBRANCH  33  34
ENDBRANCH  25  28
ENDBRANCH  23  24
ENDBRANCH  22  23
ENDBRANCH  21  22
ENDBRANCH  20  21
ENDBRANCH   1  20
TORSDOF 21
ENDMDL
MODEL 2
REMARK VINA RESULT:     -10.5      1.060      2.052
REMARK SMILES COc1ccc(C(=O)CCCC(=O)NCCCCCCNC(=O)c2ccc(-c3c4nc(c(-c5cccc(S(=O)(=O)[O-])c5F)c5ccc([nH]5)c(-c5cccc(S(=O)(=O)[O-])c5F)c5nc(c(-c6cccc(S(=O)(=O)[O-])c6F)c6ccc3[nH]6)C=C5)C=C4)cc2)cc1
REMARK SMILES IDX 16 1 15 2 14 3 12 4 13 5 11 7 10 8 9 9 7 10 8 11 6 12 3 13
REMARK SMILES IDX 4 14 88 15 5 16 87 17 2 18 1 19 17 20 18 21 19 22 20 23
REMARK SMILES IDX 21 24 22 25 23 27 24 28 25 29 86 30 26 31 85 32 27 33 28 34
REMARK SMILES IDX 29 35 79 36 30 37 84 38 78 39 80 40 31 41 83 42 77 43 76 44
REMARK SMILES IDX 32 46 64 47 44 48 63 49 45 50 48 51 62 52 81 53 46 54 47 55
REMARK SMILES IDX 61 57 82 58 49 59 33 60 34 61 42 62 35 63 37 64 43 65 36 66
REMARK SMILES IDX 38 67 39 68 40 69 41 70 65 71 66 72 74 73 67 74 69 75 75 76
REMARK SMILES IDX 68 77 70 78 71 79 72 80 73 81 50 82 51 83 59 84 52 85 54 86
REMARK SMILES IDX 60 87 53 88 55 89 56 90 57 91 58 92
REMARK H PARENT 14 6 21 26 80 45 48 56
REMARK Flexibility Score: inf
ROOT
ATOM      1  C   UNL A   1      32.993  21.914  23.363  1.00  0.00     0.021 C 
ENDROOT
BRANCH   1   2
ATOM      2  C   UNL A   1      31.912  22.989  23.433  1.00  0.00     0.116 C 
BRANCH   2   3
ATOM      3  N   UNL A   1      32.257  24.150  22.637  1.00  0.00    -0.356 N 
ATOM      4  C   UNL A   1      33.085  25.207  22.782  1.00  0.00     0.220 C 
ATOM      5  O   UNL A   1      33.135  25.969  21.805  1.00  0.00    -0.275 OA
ATOM      6  H   UNL A   1      31.770  24.173  21.781  1.00  0.00     0.163 HD
BRANCH   4   7
ATOM      7  C   UNL A   1      34.032  25.467  23.952  1.00  0.00     0.100 C 
BRANCH   7   8
ATOM      8  C   UNL A   1      33.708  25.132  25.404  1.00  0.00     0.018 C 
BRANCH   8   9
ATOM      9  C   UNL A   1      32.613  25.811  26.221  1.00  0.00     0.081 C 
BRANCH   9  10
ATOM     10  C   UNL A   1      31.150  25.959  25.770  1.00  0.00     0.162 C 
ATOM     11  O   UNL A   1      30.313  25.216  26.296  1.00  0.00    -0.294 OA
BRANCH  10  12
ATOM     12  C   UNL A   1      30.617  26.994  24.814  1.00  0.00     0.018 A 
ATOM     13  C   UNL A   1      29.662  29.090  23.150  1.00  0.00     0.118 A 
ATOM     14  C   UNL A   1      30.832  29.249  23.887  1.00  0.00     0.047 A 
ATOM     15  C   UNL A   1      29.017  27.864  23.181  1.00  0.00     0.047 A 
ATOM     16  C   UNL A   1      31.298  28.218  24.719  1.00  0.00     0.015 A 
ATOM     17  C   UNL A   1      29.508  26.833  23.992  1.00  0.00     0.015 A 
BRANCH  13  18
ATOM     18  O   UNL A   1      29.253  30.163  22.409  1.00  0.00    -0.497 OA
ATOM     19  C   UNL A   1      27.997  30.002  21.753  1.00  0.00     0.278 C 
ENDBRANCH  13  18
ENDBRANCH  10  12
ENDBRANCH   9  10
ENDBRANCH   8   9
ENDBRANCH   7   8
ENDBRANCH   4   7
ENDBRANCH   2   3
ENDBRANCH   1   2
BRANCH   1  20
ATOM     20  C   UNL A   1      33.405  21.402  24.744  1.00  0.00     0.002 C 
BRANCH  20  21
ATOM     21  C   UNL A   1      34.902  21.096  24.890  1.00  0.00     0.002 C 
BRANCH  21  22
ATOM     22  C   UNL A   1      35.673  21.994  25.862  1.00  0.00     0.021 C 
BRANCH  22  23
ATOM     23  C   UNL A   1      37.114  22.297  25.464  1.00  0.00     0.116 C 
BRANCH  23  24
ATOM     24  N   UNL A   1      38.032  21.251  25.888  1.00  0.00    -0.352 N 
ATOM     25  C   UNL A   1      39.306  21.351  26.385  1.00  0.00     0.251 C 
ATOM     26  H   UNL A   1      37.686  20.333  25.808  1.00  0.00     0.163 HD
ATOM     27  O   UNL A   1      39.988  20.339  26.514  1.00  0.00    -0.269 OA
BRANCH  25  28
ATOM     28  C   UNL A   1      39.857  22.672  26.755  1.00  0.00     0.039 A 
ATOM     29  C   UNL A   1      39.324  23.816  26.157  1.00  0.00     0.014 A 
ATOM     30  C   UNL A   1      40.917  22.778  27.661  1.00  0.00     0.014 A 
ATOM     31  C   UNL A   1      39.830  25.073  26.495  1.00  0.00     0.010 A 
ATOM     32  C   UNL A   1      41.370  24.035  28.050  1.00  0.00     0.010 A 
ATOM     33  C   UNL A   1      40.846  25.193  27.458  1.00  0.00    -0.014 A 
BRANCH  33  34
ATOM     34  C   UNL A   1      41.391  26.520  27.838  1.00  0.00     0.031 A 
ATOM     35  C   UNL A   1      42.821  26.866  27.520  1.00  0.00     0.074 A 
ATOM     36  C   UNL A   1      40.622  27.381  28.534  1.00  0.00     0.049 A 
ATOM     37  N   UNL A   1      43.489  27.952  27.805  1.00  0.00    -0.248 NA
ATOM     38  C   UNL A   1      43.611  25.846  26.811  1.00  0.00     0.031 C 
ATOM     39  C   UNL A   1      39.246  27.129  28.965  1.00  0.00     0.029 A 
ATOM     40  N   UNL A   1      40.899  28.634  29.018  1.00  0.00    -0.354 N 
ATOM     41  C   UNL A   1      44.783  27.733  27.346  1.00  0.00     0.074 A 
ATOM     42  C   UNL A   1      44.816  26.395  26.798  1.00  0.00     0.031 C 
ATOM     43  C   UNL A   1      38.795  28.198  29.640  1.00  0.00     0.029 A 
ATOM     44  C   UNL A   1      39.854  29.200  29.711  1.00  0.00     0.049 A 
ATOM     45  H   UNL A   1      41.762  29.087  28.882  1.00  0.00     0.167 HD
ATOM     46  C   UNL A   1      45.840  28.581  27.344  1.00  0.00     0.034 A 
ATOM     47  C   UNL A   1      39.761  30.393  30.329  1.00  0.00     0.034 A 
ATOM     48  C   UNL A   1      45.788  29.927  27.849  1.00  0.00     0.049 A 
ATOM     49  C   UNL A   1      40.933  31.335  30.273  1.00  0.00     0.074 A 
ATOM     50  C   UNL A   1      46.778  30.892  27.830  1.00  0.00     0.029 A 
ATOM     51  N   UNL A   1      44.683  30.497  28.464  1.00  0.00    -0.354 N 
ATOM     52  N   UNL A   1      42.102  31.166  29.702  1.00  0.00    -0.248 NA
ATOM     53  C   UNL A   1      40.761  32.648  30.912  1.00  0.00     0.031 C 
ATOM     54  C   UNL A   1      46.274  32.045  28.446  1.00  0.00     0.029 A 
ATOM     55  C   UNL A   1      44.964  31.802  28.828  1.00  0.00     0.049 A 
ATOM     56  H   UNL A   1      43.825  30.040  28.618  1.00  0.00     0.167 HD
ATOM     57  C   UNL A   1      42.787  32.364  29.872  1.00  0.00     0.074 A 
ATOM     58  C   UNL A   1      41.894  33.256  30.587  1.00  0.00     0.031 C 
ATOM     59  C   UNL A   1      44.043  32.694  29.484  1.00  0.00     0.034 A 
BRANCH  46  60
ATOM     60  C   UNL A   1      47.123  28.092  26.722  1.00  0.00     0.023 A 
ATOM     61  C   UNL A   1      48.177  27.662  27.556  1.00  0.00     0.012 A 
ATOM     62  C   UNL A   1      47.280  28.023  25.324  1.00  0.00     0.148 A 
ATOM     63  C   UNL A   1      49.380  27.214  27.011  1.00  0.00     0.002 A 
ATOM     64  C   UNL A   1      48.465  27.532  24.788  1.00  0.00     0.091 A 
ATOM     65  F   UNL A   1      46.277  28.456  24.545  1.00  0.00    -0.205 F 
ATOM     66  C   UNL A   1      49.520  27.141  25.628  1.00  0.00     0.022 A 
BRANCH  64  67
ATOM     67  S   UNL A   1      48.713  27.323  23.020  1.00  0.00     0.127 S 
ATOM     68  O   UNL A   1      50.163  27.472  22.906  1.00  0.00    -0.237 OA
ATOM     69  O   UNL A   1      48.221  25.963  22.797  1.00  0.00    -0.237 OA
ATOM     70  O   UNL A   1      47.922  28.364  22.381  1.00  0.00    -0.744 OA
ENDBRANCH  64  67
ENDBRANCH  46  60
BRANCH  47  71
ATOM     71  C   UNL A   1      38.477  30.803  30.966  1.00  0.00     0.023 A 
ATOM     72  C   UNL A   1      38.279  30.539  32.336  1.00  0.00     0.012 A 
ATOM     73  C   UNL A   1      37.474  31.477  30.245  1.00  0.00     0.148 A 
ATOM     74  C   UNL A   1      37.091  30.908  32.968  1.00  0.00     0.002 A 
ATOM     75  C   UNL A   1      36.315  31.889  30.892  1.00  0.00     0.091 A 
ATOM     76  F   UNL A   1      37.680  31.713  28.941  1.00  0.00    -0.205 F 
ATOM     77  C   UNL A   1      36.114  31.592  32.250  1.00  0.00     0.022 A 
BRANCH  75  78
ATOM     78  S   UNL A   1      35.057  32.884  30.082  1.00  0.00     0.127 S 
ATOM     79  O   UNL A   1      35.840  34.015  29.593  1.00  0.00    -0.237 OA
ATOM     80  O   UNL A   1      34.575  31.973  29.043  1.00  0.00    -0.237 OA
ATOM     81  O   UNL A   1      34.075  33.191  31.113  1.00  0.00    -0.744 OA
ENDBRANCH  75  78
ENDBRANCH  47  71
BRANCH  59  82
ATOM     82  C   UNL A   1      44.519  34.093  29.778  1.00  0.00     0.023 A 
ATOM     83  C   UNL A   1      45.178  34.371  30.991  1.00  0.00     0.012 A 
ATOM     84  C   UNL A   1      44.375  35.114  28.818  1.00  0.00     0.148 A 
ATOM     85  C   UNL A   1      45.655  35.653  31.260  1.00  0.00     0.002 A 
ATOM     86  C   UNL A   1      44.897  36.377  29.072  1.00  0.00     0.091 A 
ATOM     87  F   UNL A   1      43.727  34.837  27.677  1.00  0.00    -0.205 F 
ATOM     88  C   UNL A   1      45.526  36.652  30.297  1.00  0.00     0.022 A 
BRANCH  86  89
ATOM     89  S   UNL A   1      44.862  37.693  27.849  1.00  0.00     0.127 S 
ATOM     90  O   UNL A   1      45.470  38.800  28.584  1.00  0.00    -0.237 OA
ATOM     91  O   UNL A   1      45.693  37.144  26.776  1.00  0.00    -0.237 OA
ATOM     92  O   UNL A   1      43.461  37.869  27.494  1.00  0.00    -0.744 OA
ENDBRANCH  86  89
ENDBRANCH  59  82
ENDBRANCH  33  34
ENDBRANCH  25  28
ENDBRANCH  23  24
ENDBRANCH  22  23
ENDBRANCH  21  22
ENDBRANCH  20  21
ENDBRANCH   1  20
TORSDOF 21
ENDMDL
MODEL 3
REMARK VINA RESULT:     -10.3      2.081      3.132
REMARK SMILES COc1ccc(C(=O)CCCC(=O)NCCCCCCNC(=O)c2ccc(-c3c4nc(c(-c5cccc(S(=O)(=O)[O-])c5F)c5ccc([nH]5)c(-c5cccc(S(=O)(=O)[O-])c5F)c5nc(c(-c6cccc(S(=O)(=O)[O-])c6F)c6ccc3[nH]6)C=C5)C=C4)cc2)cc1
REMARK SMILES IDX 16 1 15 2 14 3 12 4 13 5 11 7 10 8 9 9 7 10 8 11 6 12 3 13
REMARK SMILES IDX 4 14 88 15 5 16 87 17 2 18 1 19 17 20 18 21 19 22 20 23
REMARK SMILES IDX 21 24 22 25 23 27 24 28 25 29 86 30 26 31 85 32 27 33 28 34
REMARK SMILES IDX 29 35 79 36 30 37 84 38 78 39 80 40 31 41 83 42 77 43 76 44
REMARK SMILES IDX 32 46 64 47 44 48 63 49 45 50 48 51 62 52 81 53 46 54 47 55
REMARK SMILES IDX 61 57 82 58 49 59 33 60 34 61 42 62 35 63 37 64 43 65 36 66
REMARK SMILES IDX 38 67 39 68 40 69 41 70 65 71 66 72 74 73 67 74 69 75 75 76
REMARK SMILES IDX 68 77 70 78 71 79 72 80 73 81 50 82 51 83 59 84 52 85 54 86
REMARK SMILES IDX 60 87 53 88 55 89 56 90 57 91 58 92
REMARK H PARENT 14 6 21 26 80 45 48 56
REMARK Flexibility Score: inf
ROOT
ATOM      1  C   UNL A   1      34.026  25.286  22.670  1.00  0.00     0.021 C 
ENDROOT
BRANCH   1   2
ATOM      2  C   UNL A   1      32.631  24.859  22.220  1.00  0.00     0.116 C 
BRANCH   2   3
ATOM      3  N   UNL A   1      32.517  23.417  22.121  1.00  0.00    -0.356 N 
ATOM      4  C   UNL A   1      32.076  22.427  22.926  1.00  0.00     0.220 C 
ATOM      5  O   UNL A   1      32.092  21.296  22.419  1.00  0.00    -0.275 OA
ATOM      6  H   UNL A   1      32.840  23.077  21.255  1.00  0.00     0.163 HD
BRANCH   4   7
ATOM      7  C   UNL A   1      31.455  22.591  24.313  1.00  0.00     0.100 C 
BRANCH   7   8
ATOM      8  C   UNL A   1      30.662  23.817  24.754  1.00  0.00     0.018 C 
BRANCH   8   9
ATOM      9  C   UNL A   1      30.947  24.617  26.021  1.00  0.00     0.081 C 
BRANCH   9  10
ATOM     10  C   UNL A   1      30.950  26.153  26.102  1.00  0.00     0.162 C 
ATOM     11  O   UNL A   1      31.225  26.665  27.194  1.00  0.00    -0.294 OA
BRANCH  10  12
ATOM     12  C   UNL A   1      30.747  27.102  24.951  1.00  0.00     0.018 A 
ATOM     13  C   UNL A   1      30.280  28.737  22.673  1.00  0.00     0.118 A 
ATOM     14  C   UNL A   1      29.338  27.792  23.071  1.00  0.00     0.047 A 
ATOM     15  C   UNL A   1      31.410  28.920  23.455  1.00  0.00     0.047 A 
ATOM     16  C   UNL A   1      29.574  26.975  24.189  1.00  0.00     0.015 A 
ATOM     17  C   UNL A   1      31.620  28.120  24.585  1.00  0.00     0.015 A 
BRANCH  13  18
ATOM     18  O   UNL A   1      29.995  29.451  21.544  1.00  0.00    -0.497 OA
ATOM     19  C   UNL A   1      28.960  30.421  21.687  1.00  0.00     0.278 C 
ENDBRANCH  13  18
ENDBRANCH  10  12
ENDBRANCH   9  10
ENDBRANCH   8   9
ENDBRANCH   7   8
ENDBRANCH   4   7
ENDBRANCH   2   3
ENDBRANCH   1   2
BRANCH   1  20
ATOM     20  C   UNL A   1      34.117  25.507  24.180  1.00  0.00     0.002 C 
BRANCH  20  21
ATOM     21  C   UNL A   1      34.459  24.249  24.989  1.00  0.00     0.002 C 
BRANCH  21  22
ATOM     22  C   UNL A   1      35.918  23.788  24.917  1.00  0.00     0.021 C 
BRANCH  22  23
ATOM     23  C   UNL A   1      36.579  23.510  26.265  1.00  0.00     0.116 C 
BRANCH  23  24
ATOM     24  N   UNL A   1      37.723  22.620  26.142  1.00  0.00    -0.352 N 
ATOM     25  C   UNL A   1      39.057  22.880  26.316  1.00  0.00     0.251 C 
ATOM     26  H   UNL A   1      37.506  21.691  25.898  1.00  0.00     0.163 HD
ATOM     27  O   UNL A   1      39.887  22.038  25.987  1.00  0.00    -0.269 OA
BRANCH  25  28
ATOM     28  C   UNL A   1      39.496  24.170  26.889  1.00  0.00     0.039 A 
ATOM     29  C   UNL A   1      40.072  25.121  26.044  1.00  0.00     0.014 A 
ATOM     30  C   UNL A   1      39.370  24.426  28.257  1.00  0.00     0.014 A 
ATOM     31  C   UNL A   1      40.490  26.347  26.566  1.00  0.00     0.010 A 
ATOM     32  C   UNL A   1      39.720  25.675  28.762  1.00  0.00     0.010 A 
ATOM     33  C   UNL A   1      40.301  26.639  27.927  1.00  0.00    -0.014 A 
BRANCH  33  34
ATOM     34  C   UNL A   1      40.730  27.940  28.499  1.00  0.00     0.031 A 
ATOM     35  C   UNL A   1      42.195  28.237  28.680  1.00  0.00     0.074 A 
ATOM     36  C   UNL A   1      39.802  28.820  28.924  1.00  0.00     0.049 A 
ATOM     37  N   UNL A   1      42.764  29.293  29.198  1.00  0.00    -0.248 NA
ATOM     38  C   UNL A   1      43.143  27.198  28.246  1.00  0.00     0.031 C 
ATOM     39  C   UNL A   1      38.353  28.613  28.871  1.00  0.00     0.029 A 
ATOM     40  N   UNL A   1      39.940  30.055  29.505  1.00  0.00    -0.354 N 
ATOM     41  C   UNL A   1      44.129  29.033  29.185  1.00  0.00     0.074 A 
ATOM     42  C   UNL A   1      44.301  27.702  28.646  1.00  0.00     0.031 C 
ATOM     43  C   UNL A   1      37.737  29.689  29.386  1.00  0.00     0.029 A 
ATOM     44  C   UNL A   1      38.743  30.650  29.827  1.00  0.00     0.049 A 
ATOM     45  H   UNL A   1      40.814  30.477  29.673  1.00  0.00     0.167 HD
ATOM     46  C   UNL A   1      45.153  29.840  29.555  1.00  0.00     0.034 A 
ATOM     47  C   UNL A   1      38.488  31.837  30.410  1.00  0.00     0.034 A 
ATOM     48  C   UNL A   1      44.979  31.180  30.048  1.00  0.00     0.049 A 
ATOM     49  C   UNL A   1      39.641  32.735  30.769  1.00  0.00     0.074 A 
ATOM     50  C   UNL A   1      45.948  32.108  30.382  1.00  0.00     0.029 A 
ATOM     51  N   UNL A   1      43.751  31.783  30.278  1.00  0.00    -0.354 N 
ATOM     52  N   UNL A   1      40.927  32.530  30.611  1.00  0.00    -0.248 NA
ATOM     53  C   UNL A   1      39.307  34.044  31.348  1.00  0.00     0.031 C 
ATOM     54  C   UNL A   1      45.305  33.270  30.825  1.00  0.00     0.029 A 
ATOM     55  C   UNL A   1      43.935  33.071  30.747  1.00  0.00     0.049 A 
ATOM     56  H   UNL A   1      42.876  31.356  30.128  1.00  0.00     0.167 HD
ATOM     57  C   UNL A   1      41.553  33.700  31.028  1.00  0.00     0.074 A 
ATOM     58  C   UNL A   1      40.503  34.614  31.431  1.00  0.00     0.031 C 
ATOM     59  C   UNL A   1      42.877  33.988  31.085  1.00  0.00     0.034 A 
BRANCH  46  60
ATOM     60  C   UNL A   1      46.554  29.312  29.379  1.00  0.00     0.023 A 
ATOM     61  C   UNL A   1      47.213  28.718  30.475  1.00  0.00     0.012 A 
ATOM     62  C   UNL A   1      47.208  29.371  28.132  1.00  0.00     0.148 A 
ATOM     63  C   UNL A   1      48.513  28.229  30.347  1.00  0.00     0.002 A 
ATOM     64  C   UNL A   1      48.487  28.839  28.000  1.00  0.00     0.091 A 
ATOM     65  F   UNL A   1      46.578  29.959  27.105  1.00  0.00    -0.205 F 
ATOM     66  C   UNL A   1      49.145  28.282  29.109  1.00  0.00     0.022 A 
BRANCH  64  67
ATOM     67  S   UNL A   1      49.355  28.788  26.428  1.00  0.00     0.127 S 
ATOM     68  O   UNL A   1      49.866  30.154  26.328  1.00  0.00    -0.237 OA
ATOM     69  O   UNL A   1      50.377  27.770  26.672  1.00  0.00    -0.237 OA
ATOM     70  O   UNL A   1      48.358  28.416  25.434  1.00  0.00    -0.744 OA
ENDBRANCH  64  67
ENDBRANCH  46  60
BRANCH  47  71
ATOM     71  C   UNL A   1      37.079  32.285  30.598  1.00  0.00     0.023 A 
ATOM     72  C   UNL A   1      36.461  32.093  31.850  1.00  0.00     0.012 A 
ATOM     73  C   UNL A   1      36.362  32.927  29.570  1.00  0.00     0.148 A 
ATOM     74  C   UNL A   1      35.144  32.500  32.065  1.00  0.00     0.002 A 
ATOM     75  C   UNL A   1      35.068  33.377  29.807  1.00  0.00     0.091 A 
ATOM     76  F   UNL A   1      36.966  33.093  28.385  1.00  0.00    -0.205 F 
ATOM     77  C   UNL A   1      34.451  33.151  31.048  1.00  0.00     0.022 A 
BRANCH  75  78
ATOM     78  S   UNL A   1      34.143  34.335  28.601  1.00  0.00     0.127 S 
ATOM     79  O   UNL A   1      34.942  35.554  28.511  1.00  0.00    -0.237 OA
ATOM     80  O   UNL A   1      34.202  33.471  27.421  1.00  0.00    -0.237 OA
ATOM     81  O   UNL A   1      32.809  34.493  29.164  1.00  0.00    -0.744 OA
ENDBRANCH  75  78
ENDBRANCH  47  71
BRANCH  59  82
ATOM     82  C   UNL A   1      43.271  35.364  31.555  1.00  0.00     0.023 A 
ATOM     83  C   UNL A   1      43.515  35.596  32.923  1.00  0.00     0.012 A 
ATOM     84  C   UNL A   1      43.469  36.407  30.629  1.00  0.00     0.148 A 
ATOM     85  C   UNL A   1      43.916  36.856  33.366  1.00  0.00     0.002 A 
ATOM     86  C   UNL A   1      43.917  37.646  31.072  1.00  0.00     0.091 A 
ATOM     87  F   UNL A   1      43.212  36.173  29.334  1.00  0.00    -0.205 F 
ATOM     88  C   UNL A   1      44.128  37.876  32.441  1.00  0.00     0.022 A 
BRANCH  86  89
ATOM     89  S   UNL A   1      44.309  38.984  29.940  1.00  0.00     0.127 S 
ATOM     90  O   UNL A   1      45.417  38.414  29.176  1.00  0.00    -0.237 OA
ATOM     91  O   UNL A   1      43.063  39.134  29.188  1.00  0.00    -0.237 OA
ATOM     92  O   UNL A   1      44.647  40.128  30.777  1.00  0.00    -0.744 OA
ENDBRANCH  86  89
ENDBRANCH  59  82
ENDBRANCH  33  34
ENDBRANCH  25  28
ENDBRANCH  23  24
ENDBRANCH  22  23
ENDBRANCH  21  22
ENDBRANCH  20  21
ENDBRANCH   1  20
TORSDOF 21
ENDMDL
