MODEL 1
REMARK VINA RESULT:     -12.2      0.000      0.000
REMARK SMILES CC1(C)[C@H](C(=O)NCCCCCCNC(=O)c2ccc(-c3c4nc(c(-c5cccc(S(=O)(=O)[O-])c5F)c5ccc([nH]5)c(-c5cccc(S(=O)(=O)[O-])c5F)c5nc(c(-c6cccc(S(=O)(=O)[O-])c6F)c6ccc3[nH]6)C=C5)C=C4)cc2)[C@@H]1c1nc2ccc(F)cc2s1
REMARK SMILES IDX 11 1 10 2 9 3 8 4 7 5 5 6 6 7 4 9 1 10 2 11 3 12 80 13 81 14
REMARK SMILES IDX 82 15 90 16 83 17 89 18 84 19 88 20 85 21 86 22 87 23 12 24
REMARK SMILES IDX 13 25 14 26 15 27 16 29 17 30 18 31 79 32 19 33 78 34 20 35
REMARK SMILES IDX 21 36 22 37 72 38 23 39 77 40 71 41 73 42 24 43 76 44 70 45
REMARK SMILES IDX 69 46 25 48 57 49 37 50 56 51 38 52 41 53 55 54 74 55 39 56
REMARK SMILES IDX 40 57 54 59 75 60 42 61 26 62 27 63 35 64 28 65 30 66 36 67
REMARK SMILES IDX 29 68 31 69 32 70 33 71 34 72 58 73 59 74 67 75 60 76 62 77
REMARK SMILES IDX 68 78 61 79 63 80 64 81 65 82 66 83 43 84 44 85 52 86 45 87
REMARK SMILES IDX 47 88 53 89 46 90 48 91 49 92 50 93 51 94
REMARK H PARENT 7 8 14 28 73 47 41 58
REMARK Flexibility Score: inf
ROOT
ATOM      1  C   UNL A   1      30.949  28.476  23.786  1.00  0.00     0.002 C 
ENDROOT
BRANCH   1   2
ATOM      2  C   UNL A   1      31.942  27.880  22.782  1.00  0.00     0.002 C 
BRANCH   2   3
ATOM      3  C   UNL A   1      31.456  26.637  22.036  1.00  0.00     0.021 C 
BRANCH   3   4
ATOM      4  C   UNL A   1      32.496  25.997  21.124  1.00  0.00     0.116 C 
BRANCH   4   5
ATOM      5  N   UNL A   1      32.571  24.570  21.276  1.00  0.00    -0.356 N 
ATOM      6  C   UNL A   1      33.132  23.756  22.217  1.00  0.00     0.224 C 
ATOM      7  O   UNL A   1      32.992  22.548  22.009  1.00  0.00    -0.275 OA
ATOM      8  H   UNL A   1      32.125  24.076  20.551  1.00  0.00     0.163 HD
BRANCH   6   9
ATOM      9  C   UNL A   1      33.893  24.127  23.442  1.00  0.00     0.095 C 
ATOM     10  C   UNL A   1      34.019  25.848  25.346  1.00  0.00     0.013 C 
ATOM     11  C   UNL A   1      33.365  24.587  24.811  1.00  0.00    -0.013 C 
ATOM     12  C   UNL A   1      31.894  24.555  25.129  1.00  0.00     0.013 C 
ATOM     13  C   UNL A   1      34.252  23.355  24.673  1.00  0.00     0.068 C 
BRANCH  13  14
ATOM     14  C   UNL A   1      33.978  21.870  24.829  1.00  0.00     0.098 A 
ATOM     15  N   UNL A   1      34.993  21.039  24.746  1.00  0.00    -0.241 NA
ATOM     16  S   UNL A   1      32.487  21.159  25.281  1.00  0.00    -0.118 S 
ATOM     17  C   UNL A   1      34.535  19.736  24.795  1.00  0.00     0.082 A 
ATOM     18  C   UNL A   1      33.158  19.596  24.995  1.00  0.00     0.057 A 
ATOM     19  C   UNL A   1      35.323  18.580  24.625  1.00  0.00     0.033 A 
ATOM     20  C   UNL A   1      32.528  18.342  24.957  1.00  0.00     0.060 A 
ATOM     21  C   UNL A   1      34.708  17.326  24.582  1.00  0.00     0.041 A 
ATOM     22  C   UNL A   1      33.331  17.225  24.724  1.00  0.00     0.124 A 
ATOM     23  F   UNL A   1      32.758  16.019  24.624  1.00  0.00    -0.207 F 
ENDBRANCH  13  14
ENDBRANCH   6   9
ENDBRANCH   4   5
ENDBRANCH   3   4
ENDBRANCH   2   3
ENDBRANCH   1   2
BRANCH   1  24
ATOM     24  C   UNL A   1      31.427  28.544  25.240  1.00  0.00     0.021 C 
BRANCH  24  25
ATOM     25  C   UNL A   1      32.608  29.477  25.497  1.00  0.00     0.116 C 
BRANCH  25  26
ATOM     26  N   UNL A   1      32.181  30.804  25.908  1.00  0.00    -0.352 N 
ATOM     27  C   UNL A   1      32.670  31.613  26.903  1.00  0.00     0.251 C 
ATOM     28  H   UNL A   1      31.428  31.179  25.396  1.00  0.00     0.163 HD
ATOM     29  O   UNL A   1      32.059  32.631  27.214  1.00  0.00    -0.269 OA
BRANCH  27  30
ATOM     30  C   UNL A   1      33.924  31.259  27.605  1.00  0.00     0.039 A 
ATOM     31  C   UNL A   1      34.838  32.274  27.901  1.00  0.00     0.014 A 
ATOM     32  C   UNL A   1      34.217  29.935  27.941  1.00  0.00     0.014 A 
ATOM     33  C   UNL A   1      36.025  31.968  28.571  1.00  0.00     0.010 A 
ATOM     34  C   UNL A   1      35.369  29.640  28.668  1.00  0.00     0.010 A 
ATOM     35  C   UNL A   1      36.290  30.651  28.980  1.00  0.00    -0.014 A 
BRANCH  35  36
ATOM     36  C   UNL A   1      37.527  30.315  29.732  1.00  0.00     0.031 A 
ATOM     37  C   UNL A   1      38.546  29.378  29.142  1.00  0.00     0.074 A 
ATOM     38  C   UNL A   1      37.696  30.793  30.980  1.00  0.00     0.049 A 
ATOM     39  N   UNL A   1      39.660  28.935  29.665  1.00  0.00    -0.248 NA
ATOM     40  C   UNL A   1      38.263  28.844  27.798  1.00  0.00     0.031 C 
ATOM     41  C   UNL A   1      36.742  31.644  31.697  1.00  0.00     0.029 A 
ATOM     42  N   UNL A   1      38.716  30.611  31.881  1.00  0.00    -0.354 N 
ATOM     43  C   UNL A   1      40.191  28.048  28.737  1.00  0.00     0.074 A 
ATOM     44  C   UNL A   1      39.262  27.989  27.630  1.00  0.00     0.031 C 
ATOM     45  C   UNL A   1      37.222  31.909  32.922  1.00  0.00     0.029 A 
ATOM     46  C   UNL A   1      38.504  31.232  33.089  1.00  0.00     0.049 A 
ATOM     47  H   UNL A   1      39.523  30.083  31.680  1.00  0.00     0.167 HD
ATOM     48  C   UNL A   1      41.361  27.367  28.786  1.00  0.00     0.034 A 
ATOM     49  C   UNL A   1      39.256  31.252  34.206  1.00  0.00     0.034 A 
ATOM     50  C   UNL A   1      42.308  27.469  29.864  1.00  0.00     0.049 A 
ATOM     51  C   UNL A   1      40.581  30.538  34.210  1.00  0.00     0.074 A 
ATOM     52  C   UNL A   1      43.562  26.892  29.965  1.00  0.00     0.029 A 
ATOM     53  N   UNL A   1      42.106  28.193  31.028  1.00  0.00    -0.354 N 
ATOM     54  N   UNL A   1      41.143  29.836  33.254  1.00  0.00    -0.248 NA
ATOM     55  C   UNL A   1      41.396  30.652  35.428  1.00  0.00     0.031 C 
ATOM     56  C   UNL A   1      44.113  27.255  31.199  1.00  0.00     0.029 A 
ATOM     57  C   UNL A   1      43.210  28.076  31.856  1.00  0.00     0.049 A 
ATOM     58  H   UNL A   1      41.298  28.714  31.236  1.00  0.00     0.167 HD
ATOM     59  C   UNL A   1      42.389  29.458  33.741  1.00  0.00     0.074 A 
ATOM     60  C   UNL A   1      42.509  30.028  35.067  1.00  0.00     0.031 C 
ATOM     61  C   UNL A   1      43.341  28.695  33.150  1.00  0.00     0.034 A 
BRANCH  48  62
ATOM     62  C   UNL A   1      41.715  26.493  27.610  1.00  0.00     0.023 A 
ATOM     63  C   UNL A   1      42.405  27.052  26.515  1.00  0.00     0.012 A 
ATOM     64  C   UNL A   1      41.427  25.115  27.613  1.00  0.00     0.148 A 
ATOM     65  C   UNL A   1      42.772  26.262  25.427  1.00  0.00     0.002 A 
ATOM     66  C   UNL A   1      41.835  24.324  26.545  1.00  0.00     0.091 A 
ATOM     67  F   UNL A   1      40.752  24.605  28.653  1.00  0.00    -0.205 F 
ATOM     68  C   UNL A   1      42.497  24.898  25.447  1.00  0.00     0.022 A 
BRANCH  66  69
ATOM     69  S   UNL A   1      41.596  22.544  26.510  1.00  0.00     0.127 S 
ATOM     70  O   UNL A   1      42.368  22.166  25.328  1.00  0.00    -0.237 OA
ATOM     71  O   UNL A   1      42.188  22.128  27.783  1.00  0.00    -0.237 OA
ATOM     72  O   UNL A   1      40.159  22.333  26.413  1.00  0.00    -0.744 OA
ENDBRANCH  66  69
ENDBRANCH  48  62
BRANCH  49  73
ATOM     73  C   UNL A   1      38.809  32.039  35.390  1.00  0.00     0.023 A 
ATOM     74  C   UNL A   1      38.943  33.441  35.378  1.00  0.00     0.012 A 
ATOM     75  C   UNL A   1      38.228  31.414  36.510  1.00  0.00     0.148 A 
ATOM     76  C   UNL A   1      38.538  34.204  36.474  1.00  0.00     0.002 A 
ATOM     77  C   UNL A   1      37.776  32.185  37.575  1.00  0.00     0.091 A 
ATOM     78  F   UNL A   1      38.121  30.079  36.510  1.00  0.00    -0.205 F 
ATOM     79  C   UNL A   1      37.945  33.579  37.567  1.00  0.00     0.022 A 
BRANCH  77  80
ATOM     80  S   UNL A   1      36.884  31.474  38.963  1.00  0.00     0.127 S 
ATOM     81  O   UNL A   1      35.697  32.322  39.022  1.00  0.00    -0.237 OA
ATOM     82  O   UNL A   1      36.643  30.106  38.502  1.00  0.00    -0.237 OA
ATOM     83  O   UNL A   1      37.792  31.569  40.098  1.00  0.00    -0.744 OA
ENDBRANCH  77  80
ENDBRANCH  49  73
BRANCH  61  84
ATOM     84  C   UNL A   1      44.618  28.458  33.912  1.00  0.00     0.023 A 
ATOM     85  C   UNL A   1      45.695  29.355  33.769  1.00  0.00     0.012 A 
ATOM     86  C   UNL A   1      44.726  27.387  34.821  1.00  0.00     0.148 A 
ATOM     87  C   UNL A   1      46.871  29.172  34.495  1.00  0.00     0.002 A 
ATOM     88  C   UNL A   1      45.882  27.238  35.575  1.00  0.00     0.091 A 
ATOM     89  F   UNL A   1      43.699  26.531  34.927  1.00  0.00    -0.205 F 
ATOM     90  C   UNL A   1      46.960  28.121  35.406  1.00  0.00     0.022 A 
BRANCH  88  91
ATOM     91  S   UNL A   1      46.045  25.971  36.840  1.00  0.00     0.127 S 
ATOM     92  O   UNL A   1      44.933  26.295  37.731  1.00  0.00    -0.237 OA
ATOM     93  O   UNL A   1      45.872  24.738  36.072  1.00  0.00    -0.237 OA
ATOM     94  O   UNL A   1      47.376  26.145  37.406  1.00  0.00    -0.744 OA
ENDBRANCH  88  91
ENDBRANCH  61  84
ENDBRANCH  35  36
ENDBRANCH  27  30
ENDBRANCH  25  26
ENDBRANCH  24  25
ENDBRANCH   1  24
TORSDOF 17
ENDMDL
MODEL 2
REMARK VINA RESULT:     -12.1      1.523      7.608
REMARK SMILES CC1(C)[C@H](C(=O)NCCCCCCNC(=O)c2ccc(-c3c4nc(c(-c5cccc(S(=O)(=O)[O-])c5F)c5ccc([nH]5)c(-c5cccc(S(=O)(=O)[O-])c5F)c5nc(c(-c6cccc(S(=O)(=O)[O-])c6F)c6ccc3[nH]6)C=C5)C=C4)cc2)[C@@H]1c1nc2ccc(F)cc2s1
REMARK SMILES IDX 11 1 10 2 9 3 8 4 7 5 5 6 6 7 4 9 1 10 2 11 3 12 80 13 81 14
REMARK SMILES IDX 82 15 90 16 83 17 89 18 84 19 88 20 85 21 86 22 87 23 12 24
REMARK SMILES IDX 13 25 14 26 15 27 16 29 17 30 18 31 79 32 19 33 78 34 20 35
REMARK SMILES IDX 21 36 22 37 72 38 23 39 77 40 71 41 73 42 24 43 76 44 70 45
REMARK SMILES IDX 69 46 25 48 57 49 37 50 56 51 38 52 41 53 55 54 74 55 39 56
REMARK SMILES IDX 40 57 54 59 75 60 42 61 26 62 27 63 35 64 28 65 30 66 36 67
REMARK SMILES IDX 29 68 31 69 32 70 33 71 34 72 58 73 59 74 67 75 60 76 62 77
REMARK SMILES IDX 68 78 61 79 63 80 64 81 65 82 66 83 43 84 44 85 52 86 45 87
REMARK SMILES IDX 47 88 53 89 46 90 48 91 49 92 50 93 51 94
REMARK H PARENT 7 8 14 28 73 47 41 58
REMARK Flexibility Score: inf
ROOT
ATOM      1  C   UNL A   1      31.305  28.610  23.850  1.00  0.00     0.002 C 
ENDROOT
BRANCH   1   2
ATOM      2  C   UNL A   1      32.207  27.877  22.851  1.00  0.00     0.002 C 
BRANCH   2   3
ATOM      3  C   UNL A   1      31.604  26.623  22.218  1.00  0.00     0.021 C 
BRANCH   3   4
ATOM      4  C   UNL A   1      32.504  25.929  21.203  1.00  0.00     0.116 C 
BRANCH   4   5
ATOM      5  N   UNL A   1      32.527  24.500  21.362  1.00  0.00    -0.356 N 
ATOM      6  C   UNL A   1      33.085  23.668  22.288  1.00  0.00     0.224 C 
ATOM      7  O   UNL A   1      32.890  22.466  22.092  1.00  0.00    -0.275 OA
ATOM      8  H   UNL A   1      32.038  24.022  20.654  1.00  0.00     0.163 HD
BRANCH   6   9
ATOM      9  C   UNL A   1      33.900  24.014  23.486  1.00  0.00     0.095 C 
ATOM     10  C   UNL A   1      34.134  25.716  25.396  1.00  0.00     0.013 C 
ATOM     11  C   UNL A   1      33.435  24.472  24.878  1.00  0.00    -0.013 C 
ATOM     12  C   UNL A   1      31.977  24.466  25.252  1.00  0.00     0.013 C 
ATOM     13  C   UNL A   1      34.291  23.225  24.696  1.00  0.00     0.068 C 
BRANCH  13  14
ATOM     14  C   UNL A   1      33.993  21.744  24.851  1.00  0.00     0.098 A 
ATOM     15  N   UNL A   1      34.993  20.896  24.753  1.00  0.00    -0.241 NA
ATOM     16  S   UNL A   1      32.496  21.057  25.318  1.00  0.00    -0.118 S 
ATOM     17  C   UNL A   1      34.514  19.601  24.805  1.00  0.00     0.082 A 
ATOM     18  C   UNL A   1      33.137  19.483  25.021  1.00  0.00     0.057 A 
ATOM     19  C   UNL A   1      35.281  18.432  24.622  1.00  0.00     0.033 A 
ATOM     20  C   UNL A   1      32.486  18.240  24.986  1.00  0.00     0.060 A 
ATOM     21  C   UNL A   1      34.643  17.189  24.583  1.00  0.00     0.041 A 
ATOM     22  C   UNL A   1      33.267  17.111  24.741  1.00  0.00     0.124 A 
ATOM     23  F   UNL A   1      32.672  15.915  24.644  1.00  0.00    -0.207 F 
ENDBRANCH  13  14
ENDBRANCH   6   9
ENDBRANCH   4   5
ENDBRANCH   3   4
ENDBRANCH   2   3
ENDBRANCH   1   2
BRANCH   1  24
ATOM     24  C   UNL A   1      31.728  28.530  25.320  1.00  0.00     0.021 C 
BRANCH  24  25
ATOM     25  C   UNL A   1      32.985  29.317  25.682  1.00  0.00     0.116 C 
BRANCH  25  26
ATOM     26  N   UNL A   1      32.686  30.689  26.057  1.00  0.00    -0.352 N 
ATOM     27  C   UNL A   1      33.252  31.475  27.030  1.00  0.00     0.251 C 
ATOM     28  H   UNL A   1      31.970  31.119  25.536  1.00  0.00     0.163 HD
ATOM     29  O   UNL A   1      32.740  32.553  27.314  1.00  0.00    -0.269 OA
BRANCH  27  30
ATOM     30  C   UNL A   1      34.469  31.023  27.741  1.00  0.00     0.039 A 
ATOM     31  C   UNL A   1      35.508  31.937  27.940  1.00  0.00     0.014 A 
ATOM     32  C   UNL A   1      34.605  29.703  28.178  1.00  0.00     0.014 A 
ATOM     33  C   UNL A   1      36.664  31.538  28.616  1.00  0.00     0.010 A 
ATOM     34  C   UNL A   1      35.729  29.325  28.910  1.00  0.00     0.010 A 
ATOM     35  C   UNL A   1      36.775  30.235  29.127  1.00  0.00    -0.014 A 
BRANCH  35  36
ATOM     36  C   UNL A   1      37.979  29.808  29.885  1.00  0.00     0.031 A 
ATOM     37  C   UNL A   1      38.241  30.347  31.266  1.00  0.00     0.074 A 
ATOM     38  C   UNL A   1      38.878  28.993  29.299  1.00  0.00     0.049 A 
ATOM     39  N   UNL A   1      39.256  30.124  32.059  1.00  0.00    -0.248 NA
ATOM     40  C   UNL A   1      37.246  31.283  31.817  1.00  0.00     0.031 C 
ATOM     41  C   UNL A   1      38.781  28.468  27.935  1.00  0.00     0.029 A 
ATOM     42  N   UNL A   1      40.065  28.485  29.765  1.00  0.00    -0.354 N 
ATOM     43  C   UNL A   1      39.043  30.914  33.183  1.00  0.00     0.074 A 
ATOM     44  C   UNL A   1      37.818  31.648  32.955  1.00  0.00     0.031 C 
ATOM     45  C   UNL A   1      39.861  27.714  27.675  1.00  0.00     0.029 A 
ATOM     46  C   UNL A   1      40.737  27.717  28.843  1.00  0.00     0.049 A 
ATOM     47  H   UNL A   1      40.404  28.655  30.674  1.00  0.00     0.167 HD
ATOM     48  C   UNL A   1      39.784  30.999  34.314  1.00  0.00     0.034 A 
ATOM     49  C   UNL A   1      41.926  27.088  28.926  1.00  0.00     0.034 A 
ATOM     50  C   UNL A   1      40.973  30.228  34.559  1.00  0.00     0.049 A 
ATOM     51  C   UNL A   1      42.696  27.149  30.218  1.00  0.00     0.074 A 
ATOM     52  C   UNL A   1      41.741  30.174  35.708  1.00  0.00     0.029 A 
ATOM     53  N   UNL A   1      41.568  29.378  33.639  1.00  0.00    -0.354 N 
ATOM     54  N   UNL A   1      42.392  27.773  31.331  1.00  0.00    -0.248 NA
ATOM     55  C   UNL A   1      43.951  26.386  30.282  1.00  0.00     0.031 C 
ATOM     56  C   UNL A   1      42.811  29.302  35.478  1.00  0.00     0.029 A 
ATOM     57  C   UNL A   1      42.696  28.797  34.193  1.00  0.00     0.049 A 
ATOM     58  H   UNL A   1      41.237  29.213  32.727  1.00  0.00     0.167 HD
ATOM     59  C   UNL A   1      43.396  27.448  32.236  1.00  0.00     0.074 A 
ATOM     60  C   UNL A   1      44.305  26.554  31.548  1.00  0.00     0.031 C 
ATOM     61  C   UNL A   1      43.560  27.864  33.516  1.00  0.00     0.034 A 
BRANCH  48  62
ATOM     62  C   UNL A   1      39.295  31.918  35.405  1.00  0.00     0.023 A 
ATOM     63  C   UNL A   1      38.362  31.439  36.347  1.00  0.00     0.012 A 
ATOM     64  C   UNL A   1      39.804  33.224  35.539  1.00  0.00     0.148 A 
ATOM     65  C   UNL A   1      37.916  32.256  37.384  1.00  0.00     0.002 A 
ATOM     66  C   UNL A   1      39.388  34.018  36.602  1.00  0.00     0.091 A 
ATOM     67  F   UNL A   1      40.675  33.669  34.622  1.00  0.00    -0.205 F 
ATOM     68  C   UNL A   1      38.437  33.540  37.518  1.00  0.00     0.022 A 
BRANCH  66  69
ATOM     69  S   UNL A   1      40.056  35.658  36.906  1.00  0.00     0.127 S 
ATOM     70  O   UNL A   1      39.651  36.371  35.695  1.00  0.00    -0.237 OA
ATOM     71  O   UNL A   1      39.342  36.062  38.118  1.00  0.00    -0.237 OA
ATOM     72  O   UNL A   1      41.490  35.481  37.079  1.00  0.00    -0.744 OA
ENDBRANCH  66  69
ENDBRANCH  48  62
BRANCH  49  73
ATOM     73  C   UNL A   1      42.424  26.282  27.776  1.00  0.00     0.023 A 
ATOM     74  C   UNL A   1      43.346  26.855  26.879  1.00  0.00     0.012 A 
ATOM     75  C   UNL A   1      42.016  24.948  27.583  1.00  0.00     0.148 A 
ATOM     76  C   UNL A   1      43.826  26.127  25.791  1.00  0.00     0.002 A 
ATOM     77  C   UNL A   1      42.541  24.210  26.529  1.00  0.00     0.091 A 
ATOM     78  F   UNL A   1      41.129  24.424  28.440  1.00  0.00    -0.205 F 
ATOM     79  C   UNL A   1      43.433  24.802  25.621  1.00  0.00     0.022 A 
BRANCH  77  80
ATOM     80  S   UNL A   1      42.190  22.462  26.314  1.00  0.00     0.127 S 
ATOM     81  O   UNL A   1      42.664  21.903  27.577  1.00  0.00    -0.237 OA
ATOM     82  O   UNL A   1      40.737  22.460  26.146  1.00  0.00    -0.237 OA
ATOM     83  O   UNL A   1      42.928  22.061  25.123  1.00  0.00    -0.744 OA
ENDBRANCH  77  80
ENDBRANCH  49  73
BRANCH  61  84
ATOM     84  C   UNL A   1      44.745  27.331  34.278  1.00  0.00     0.023 A 
ATOM     85  C   UNL A   1      45.940  28.075  34.322  1.00  0.00     0.012 A 
ATOM     86  C   UNL A   1      44.651  26.129  35.007  1.00  0.00     0.148 A 
ATOM     87  C   UNL A   1      47.035  27.615  35.053  1.00  0.00     0.002 A 
ATOM     88  C   UNL A   1      45.728  25.701  35.771  1.00  0.00     0.091 A 
ATOM     89  F   UNL A   1      43.512  25.424  34.936  1.00  0.00    -0.205 F 
ATOM     90  C   UNL A   1      46.925  26.435  35.787  1.00  0.00     0.022 A 
BRANCH  88  91
ATOM     91  S   UNL A   1      45.641  24.246  36.822  1.00  0.00     0.127 S 
ATOM     92  O   UNL A   1      45.122  24.809  38.068  1.00  0.00    -0.237 OA
ATOM     93  O   UNL A   1      44.697  23.394  36.098  1.00  0.00    -0.237 OA
ATOM     94  O   UNL A   1      46.998  23.721  36.886  1.00  0.00    -0.744 OA
ENDBRANCH  88  91
ENDBRANCH  61  84
ENDBRANCH  35  36
ENDBRANCH  27  30
ENDBRANCH  25  26
ENDBRANCH  24  25
ENDBRANCH   1  24
TORSDOF 17
ENDMDL
MODEL 3
REMARK VINA RESULT:     -11.9      2.650      7.845
REMARK SMILES CC1(C)[C@H](C(=O)NCCCCCCNC(=O)c2ccc(-c3c4nc(c(-c5cccc(S(=O)(=O)[O-])c5F)c5ccc([nH]5)c(-c5cccc(S(=O)(=O)[O-])c5F)c5nc(c(-c6cccc(S(=O)(=O)[O-])c6F)c6ccc3[nH]6)C=C5)C=C4)cc2)[C@@H]1c1nc2ccc(F)cc2s1
REMARK SMILES IDX 11 1 10 2 9 3 8 4 7 5 5 6 6 7 4 9 1 10 2 11 3 12 80 13 81 14
REMARK SMILES IDX 82 15 90 16 83 17 89 18 84 19 88 20 85 21 86 22 87 23 12 24
REMARK SMILES IDX 13 25 14 26 15 27 16 29 17 30 18 31 79 32 19 33 78 34 20 35
REMARK SMILES IDX 21 36 22 37 72 38 23 39 77 40 71 41 73 42 24 43 76 44 70 45
REMARK SMILES IDX 69 46 25 48 57 49 37 50 56 51 38 52 41 53 55 54 74 55 39 56
REMARK SMILES IDX 40 57 54 59 75 60 42 61 26 62 27 63 35 64 28 65 30 66 36 67
REMARK SMILES IDX 29 68 31 69 32 70 33 71 34 72 58 73 59 74 67 75 60 76 62 77
REMARK SMILES IDX 68 78 61 79 63 80 64 81 65 82 66 83 43 84 44 85 52 86 45 87
REMARK SMILES IDX 47 88 53 89 46 90 48 91 49 92 50 93 51 94
REMARK H PARENT 7 8 14 28 73 47 41 58
REMARK Flexibility Score: inf
ROOT
ATOM      1  C   UNL A   1      31.553  28.164  25.992  1.00  0.00     0.002 C 
ENDROOT
BRANCH   1   2
ATOM      2  C   UNL A   1      31.714  27.665  24.552  1.00  0.00     0.002 C 
BRANCH   2   3
ATOM      3  C   UNL A   1      30.941  26.391  24.207  1.00  0.00     0.021 C 
BRANCH   3   4
ATOM      4  C   UNL A   1      31.169  25.875  22.791  1.00  0.00     0.116 C 
BRANCH   4   5
ATOM      5  N   UNL A   1      31.233  24.441  22.723  1.00  0.00    -0.356 N 
ATOM      6  C   UNL A   1      32.141  23.521  23.159  1.00  0.00     0.224 C 
ATOM      7  O   UNL A   1      31.850  22.347  22.914  1.00  0.00    -0.275 OA
ATOM      8  H   UNL A   1      30.459  24.038  22.266  1.00  0.00     0.163 HD
BRANCH   6   9
ATOM      9  C   UNL A   1      33.428  23.743  23.874  1.00  0.00     0.095 C 
ATOM     10  C   UNL A   1      34.610  25.283  25.557  1.00  0.00     0.013 C 
ATOM     11  C   UNL A   1      33.670  24.111  25.347  1.00  0.00    -0.013 C 
ATOM     12  C   UNL A   1      32.538  24.131  26.340  1.00  0.00     0.013 C 
ATOM     13  C   UNL A   1      34.265  22.849  24.734  1.00  0.00     0.068 C 
BRANCH  13  14
ATOM     14  C   UNL A   1      33.969  21.373  24.931  1.00  0.00     0.098 A 
ATOM     15  N   UNL A   1      34.893  20.503  24.589  1.00  0.00    -0.241 NA
ATOM     16  S   UNL A   1      32.603  20.714  25.725  1.00  0.00    -0.118 S 
ATOM     17  C   UNL A   1      34.401  19.220  24.730  1.00  0.00     0.082 A 
ATOM     18  C   UNL A   1      33.110  19.131  25.260  1.00  0.00     0.057 A 
ATOM     19  C   UNL A   1      35.069  18.036  24.354  1.00  0.00     0.033 A 
ATOM     20  C   UNL A   1      32.432  17.906  25.359  1.00  0.00     0.060 A 
ATOM     21  C   UNL A   1      34.404  16.811  24.445  1.00  0.00     0.041 A 
ATOM     22  C   UNL A   1      33.101  16.763  24.920  1.00  0.00     0.124 A 
ATOM     23  F   UNL A   1      32.465  15.585  24.945  1.00  0.00    -0.207 F 
ENDBRANCH  13  14
ENDBRANCH   6   9
ENDBRANCH   4   5
ENDBRANCH   3   4
ENDBRANCH   2   3
ENDBRANCH   1   2
BRANCH   1  24
ATOM     24  C   UNL A   1      32.825  28.170  26.845  1.00  0.00     0.021 C 
BRANCH  24  25
ATOM     25  C   UNL A   1      33.960  29.047  26.321  1.00  0.00     0.116 C 
BRANCH  25  26
ATOM     26  N   UNL A   1      33.807  30.438  26.713  1.00  0.00    -0.352 N 
ATOM     27  C   UNL A   1      34.534  31.180  27.610  1.00  0.00     0.251 C 
ATOM     28  H   UNL A   1      33.073  30.920  26.270  1.00  0.00     0.163 HD
ATOM     29  O   UNL A   1      34.139  32.294  27.938  1.00  0.00    -0.269 OA
BRANCH  27  30
ATOM     30  C   UNL A   1      35.785  30.639  28.187  1.00  0.00     0.039 A 
ATOM     31  C   UNL A   1      35.697  29.686  29.205  1.00  0.00     0.014 A 
ATOM     32  C   UNL A   1      37.036  31.090  27.757  1.00  0.00     0.014 A 
ATOM     33  C   UNL A   1      36.863  29.153  29.762  1.00  0.00     0.010 A 
ATOM     34  C   UNL A   1      38.197  30.509  28.266  1.00  0.00     0.010 A 
ATOM     35  C   UNL A   1      38.123  29.544  29.280  1.00  0.00    -0.014 A 
BRANCH  35  36
ATOM     36  C   UNL A   1      39.371  28.956  29.831  1.00  0.00     0.031 A 
ATOM     37  C   UNL A   1      40.015  29.545  31.056  1.00  0.00     0.074 A 
ATOM     38  C   UNL A   1      39.968  27.937  29.180  1.00  0.00     0.049 A 
ATOM     39  N   UNL A   1      41.125  29.196  31.654  1.00  0.00    -0.248 NA
ATOM     40  C   UNL A   1      39.340  30.698  31.677  1.00  0.00     0.031 C 
ATOM     41  C   UNL A   1      39.488  27.331  27.936  1.00  0.00     0.029 A 
ATOM     42  N   UNL A   1      41.123  27.249  29.458  1.00  0.00    -0.354 N 
ATOM     43  C   UNL A   1      41.301  30.102  32.693  1.00  0.00     0.074 A 
ATOM     44  C   UNL A   1      40.199  31.037  32.627  1.00  0.00     0.031 C 
ATOM     45  C   UNL A   1      40.340  26.364  27.560  1.00  0.00     0.029 A 
ATOM     46  C   UNL A   1      41.436  26.293  28.521  1.00  0.00     0.049 A 
ATOM     47  H   UNL A   1      41.676  27.425  30.255  1.00  0.00     0.167 HD
ATOM     48  C   UNL A   1      42.272  30.134  33.636  1.00  0.00     0.034 A 
ATOM     49  C   UNL A   1      42.489  25.456  28.442  1.00  0.00     0.034 A 
ATOM     50  C   UNL A   1      43.336  29.171  33.731  1.00  0.00     0.049 A 
ATOM     51  C   UNL A   1      43.521  25.473  29.538  1.00  0.00     0.074 A 
ATOM     52  C   UNL A   1      44.315  29.063  34.703  1.00  0.00     0.029 A 
ATOM     53  N   UNL A   1      43.562  28.150  32.821  1.00  0.00    -0.354 N 
ATOM     54  N   UNL A   1      43.577  26.232  30.606  1.00  0.00    -0.248 NA
ATOM     55  C   UNL A   1      44.609  24.489  29.443  1.00  0.00     0.031 C 
ATOM     56  C   UNL A   1      45.143  27.985  34.372  1.00  0.00     0.029 A 
ATOM     57  C   UNL A   1      44.666  27.409  33.206  1.00  0.00     0.049 A 
ATOM     58  H   UNL A   1      43.018  27.977  32.020  1.00  0.00     0.167 HD
ATOM     59  C   UNL A   1      44.683  25.794  31.327  1.00  0.00     0.074 A 
ATOM     60  C   UNL A   1      45.253  24.689  30.585  1.00  0.00     0.031 C 
ATOM     61  C   UNL A   1      45.190  26.274  32.489  1.00  0.00     0.034 A 
BRANCH  48  62
ATOM     62  C   UNL A   1      42.198  31.216  34.683  1.00  0.00     0.023 A 
ATOM     63  C   UNL A   1      41.536  30.956  35.900  1.00  0.00     0.012 A 
ATOM     64  C   UNL A   1      42.834  32.458  34.494  1.00  0.00     0.148 A 
ATOM     65  C   UNL A   1      41.478  31.927  36.899  1.00  0.00     0.002 A 
ATOM     66  C   UNL A   1      42.810  33.405  35.512  1.00  0.00     0.091 A 
ATOM     67  F   UNL A   1      43.441  32.694  33.323  1.00  0.00    -0.205 F 
ATOM     68  C   UNL A   1      42.123  33.145  36.710  1.00  0.00     0.022 A 
BRANCH  66  69
ATOM     69  S   UNL A   1      43.676  34.975  35.396  1.00  0.00     0.127 S 
ATOM     70  O   UNL A   1      45.053  34.537  35.179  1.00  0.00    -0.237 OA
ATOM     71  O   UNL A   1      43.041  35.592  34.230  1.00  0.00    -0.237 OA
ATOM     72  O   UNL A   1      43.429  35.663  36.655  1.00  0.00    -0.744 OA
ENDBRANCH  66  69
ENDBRANCH  48  62
BRANCH  49  73
ATOM     73  C   UNL A   1      42.579  24.478  27.322  1.00  0.00     0.023 A 
ATOM     74  C   UNL A   1      43.259  24.839  26.142  1.00  0.00     0.012 A 
ATOM     75  C   UNL A   1      42.026  23.187  27.428  1.00  0.00     0.148 A 
ATOM     76  C   UNL A   1      43.356  23.946  25.075  1.00  0.00     0.002 A 
ATOM     77  C   UNL A   1      42.174  22.283  26.383  1.00  0.00     0.091 A 
ATOM     78  F   UNL A   1      41.371  22.866  28.552  1.00  0.00    -0.205 F 
ATOM     79  C   UNL A   1      42.823  22.665  25.198  1.00  0.00     0.022 A 
BRANCH  77  80
ATOM     80  S   UNL A   1      41.634  20.575  26.509  1.00  0.00     0.127 S 
ATOM     81  O   UNL A   1      40.181  20.716  26.493  1.00  0.00    -0.237 OA
ATOM     82  O   UNL A   1      42.209  19.983  25.301  1.00  0.00    -0.237 OA
ATOM     83  O   UNL A   1      42.212  20.075  27.750  1.00  0.00    -0.744 OA
ENDBRANCH  77  80
ENDBRANCH  49  73
BRANCH  61  84
ATOM     84  C   UNL A   1      46.403  25.587  33.059  1.00  0.00     0.023 A 
ATOM     85  C   UNL A   1      47.689  26.081  32.767  1.00  0.00     0.012 A 
ATOM     86  C   UNL A   1      46.264  24.496  33.940  1.00  0.00     0.148 A 
ATOM     87  C   UNL A   1      48.821  25.480  33.315  1.00  0.00     0.002 A 
ATOM     88  C   UNL A   1      47.393  23.932  34.520  1.00  0.00     0.091 A 
ATOM     89  F   UNL A   1      45.033  24.026  34.189  1.00  0.00    -0.205 F 
ATOM     90  C   UNL A   1      48.672  24.414  34.201  1.00  0.00     0.022 A 
BRANCH  88  91
ATOM     91  S   UNL A   1      47.288  22.620  35.744  1.00  0.00     0.127 S 
ATOM     92  O   UNL A   1      48.698  22.309  35.969  1.00  0.00    -0.237 OA
ATOM     93  O   UNL A   1      46.625  23.289  36.864  1.00  0.00    -0.237 OA
ATOM     94  O   UNL A   1      46.501  21.562  35.125  1.00  0.00    -0.744 OA
ENDBRANCH  88  91
ENDBRANCH  61  84
ENDBRANCH  35  36
ENDBRANCH  27  30
ENDBRANCH  25  26
ENDBRANCH  24  25
ENDBRANCH   1  24
TORSDOF 17
ENDMDL
