MODEL 1
REMARK VINA RESULT:     -12.1      0.000      0.000
REMARK SMILES Cc1ccc(S(=O)(=O)n2cc(C(=O)C(=O)NCC(=O)N[C@H](Cc3c[nH]c4ccccc34)C(=O)NCCCCCCNC(=O)c3ccc(-c4c5nc(c(-c6cccc(S(=O)(=O)[O-])c6F)c6ccc([nH]6)c(-c6cccc(S(=O)(=O)[O-])c6F)c6nc(c(-c7cccc(S(=O)(=O)[O-])c7F)c7ccc4[nH]7)C=C6)C=C5)cc3)c3ccccc32)cc1
REMARK SMILES IDX 35 1 34 2 32 3 33 4 21 6 20 7 18 8 19 9 17 11 16 12 14 13
REMARK SMILES IDX 15 14 12 16 13 17 11 18 9 19 10 20 112 21 107 22 111 23
REMARK SMILES IDX 108 24 110 25 109 26 6 27 7 28 8 29 5 30 1 31 2 32 3 33
REMARK SMILES IDX 114 34 4 35 113 36 22 37 23 38 24 39 31 40 25 41 26 42 30 43
REMARK SMILES IDX 27 45 29 46 28 47 36 48 37 49 38 50 39 51 40 52 41 53 42 54
REMARK SMILES IDX 43 56 44 57 45 58 106 59 46 60 105 61 47 62 48 63 49 64
REMARK SMILES IDX 99 65 50 66 104 67 98 68 100 69 51 70 103 71 97 72 96 73
REMARK SMILES IDX 52 75 84 76 64 77 83 78 65 79 68 80 82 81 101 82 66 83 67 84
REMARK SMILES IDX 81 86 102 87 69 88 53 89 54 90 62 91 55 92 57 93 63 94 56 95
REMARK SMILES IDX 58 96 59 97 60 98 61 99 85 100 86 101 94 102 87 103 89 104
REMARK SMILES IDX 95 105 88 106 90 107 91 108 92 109 93 110 70 111 71 112
REMARK SMILES IDX 79 113 72 114 74 115 80 116 73 117 75 118 76 119 77 120
REMARK SMILES IDX 78 121
REMARK H PARENT 34 5 20 10 16 15 25 44 41 55 100 74 68 85
REMARK Flexibility Score: inf
ROOT
ATOM      1  C   UNL A   1      38.591  28.168  29.762  1.00  0.00     0.116 C 
ENDROOT
BRANCH   1   2
ATOM      2  N   UNL A   1      37.758  28.533  30.893  1.00  0.00    -0.354 N 
ATOM      3  C   UNL A   1      36.919  29.579  31.108  1.00  0.00     0.242 C 
ATOM      4  O   UNL A   1      36.579  29.768  32.282  1.00  0.00    -0.273 OA
ATOM      5  H   UNL A   1      37.810  27.903  31.646  1.00  0.00     0.163 HD
BRANCH   3   6
ATOM      6  C   UNL A   1      36.403  30.515  30.004  1.00  0.00     0.175 C 
BRANCH   6   7
ATOM      7  N   UNL A   1      36.706  29.868  28.717  1.00  0.00    -0.342 N 
ATOM      8  C   UNL A   1      35.845  29.529  27.713  1.00  0.00     0.240 C 
ATOM      9  O   UNL A   1      36.288  28.817  26.806  1.00  0.00    -0.273 OA
ATOM     10  H   UNL A   1      37.655  29.653  28.558  1.00  0.00     0.164 HD
BRANCH   8  11
ATOM     11  C   UNL A   1      34.434  30.156  27.604  1.00  0.00     0.216 C 
BRANCH  11  12
ATOM     12  N   UNL A   1      33.802  30.241  26.288  1.00  0.00    -0.340 N 
ATOM     13  C   UNL A   1      32.775  29.471  25.756  1.00  0.00     0.292 C 
ATOM     14  O   UNL A   1      32.260  29.726  24.674  1.00  0.00    -0.265 OA
ATOM     15  H   UNL A   1      34.154  30.945  25.695  1.00  0.00     0.164 HD
BRANCH  13  16
ATOM     16  C   UNL A   1      32.222  28.310  26.573  1.00  0.00     0.252 C 
ATOM     17  O   UNL A   1      31.483  28.627  27.507  1.00  0.00    -0.283 OA
BRANCH  16  18
ATOM     18  C   UNL A   1      32.666  26.918  26.376  1.00  0.00     0.054 A 
ATOM     19  N   UNL A   1      33.787  24.972  26.026  1.00  0.00    -0.240 N 
ATOM     20  C   UNL A   1      33.923  26.366  26.090  1.00  0.00     0.117 A 
ATOM     21  C   UNL A   1      32.503  24.669  26.527  1.00  0.00     0.065 A 
ATOM     22  C   UNL A   1      31.751  25.825  26.346  1.00  0.00     0.012 A 
ATOM     23  C   UNL A   1      31.889  23.426  26.777  1.00  0.00     0.028 A 
ATOM     24  C   UNL A   1      30.351  25.706  26.215  1.00  0.00     0.011 A 
ATOM     25  C   UNL A   1      30.520  23.318  26.535  1.00  0.00     0.002 A 
ATOM     26  C   UNL A   1      29.764  24.438  26.219  1.00  0.00     0.001 A 
BRANCH  19  27
ATOM     27  S   UNL A   1      34.137  23.955  24.637  1.00  0.00     0.268 S 
ATOM     28  O   UNL A   1      35.560  24.176  24.424  1.00  0.00    -0.201 OA
ATOM     29  O   UNL A   1      33.154  24.431  23.670  1.00  0.00    -0.201 OA
BRANCH  27  30
ATOM     30  C   UNL A   1      33.931  22.221  24.443  1.00  0.00     0.088 A 
ATOM     31  C   UNL A   1      32.332  18.280  23.647  1.00  0.00     0.044 C 
ATOM     32  C   UNL A   1      32.951  19.624  23.900  1.00  0.00    -0.051 A 
ATOM     33  C   UNL A   1      32.337  20.719  23.314  1.00  0.00     0.005 A 
ATOM     34  C   UNL A   1      34.073  19.838  24.736  1.00  0.00     0.005 A 
ATOM     35  C   UNL A   1      32.832  21.982  23.572  1.00  0.00     0.022 A 
ATOM     36  C   UNL A   1      34.570  21.141  25.022  1.00  0.00     0.022 A 
ENDBRANCH  27  30
ENDBRANCH  19  27
ENDBRANCH  16  18
ENDBRANCH  13  16
ENDBRANCH  11  12
ENDBRANCH   8  11
ENDBRANCH   6   7
BRANCH   6  37
ATOM     37  C   UNL A   1      36.829  32.004  30.058  1.00  0.00     0.072 C 
BRANCH  37  38
ATOM     38  C   UNL A   1      36.036  33.083  29.352  1.00  0.00    -0.020 A 
ATOM     39  C   UNL A   1      36.011  33.439  28.017  1.00  0.00     0.087 A 
ATOM     40  C   UNL A   1      35.084  33.971  29.986  1.00  0.00     0.003 A 
ATOM     41  N   UNL A   1      34.912  34.223  27.786  1.00  0.00    -0.361 N 
ATOM     42  C   UNL A   1      34.347  34.587  28.974  1.00  0.00     0.046 A 
ATOM     43  C   UNL A   1      34.747  34.288  31.320  1.00  0.00     0.010 A 
ATOM     44  H   UNL A   1      34.580  34.484  26.897  1.00  0.00     0.166 HD
ATOM     45  C   UNL A   1      33.246  35.414  29.206  1.00  0.00     0.026 A 
ATOM     46  C   UNL A   1      33.699  35.190  31.573  1.00  0.00     0.001 A 
ATOM     47  C   UNL A   1      32.943  35.719  30.530  1.00  0.00     0.002 A 
ENDBRANCH  37  38
ENDBRANCH   6  37
ENDBRANCH   3   6
ENDBRANCH   1   2
BRANCH   1  48
ATOM     48  C   UNL A   1      38.868  26.667  29.721  1.00  0.00     0.021 C 
BRANCH  48  49
ATOM     49  C   UNL A   1      39.887  26.238  28.654  1.00  0.00     0.002 C 
BRANCH  49  50
ATOM     50  C   UNL A   1      39.366  26.233  27.211  1.00  0.00     0.002 C 
BRANCH  50  51
ATOM     51  C   UNL A   1      39.088  24.851  26.626  1.00  0.00     0.021 C 
BRANCH  51  52
ATOM     52  C   UNL A   1      39.326  23.713  27.605  1.00  0.00     0.116 C 
BRANCH  52  53
ATOM     53  N   UNL A   1      40.357  22.814  27.153  1.00  0.00    -0.352 N 
ATOM     54  C   UNL A   1      41.659  23.149  26.813  1.00  0.00     0.251 C 
ATOM     55  H   UNL A   1      40.112  21.864  27.079  1.00  0.00     0.163 HD
ATOM     56  O   UNL A   1      42.181  22.597  25.870  1.00  0.00    -0.269 OA
BRANCH  54  57
ATOM     57  C   UNL A   1      42.435  23.992  27.767  1.00  0.00     0.039 A 
ATOM     58  C   UNL A   1      42.745  25.286  27.323  1.00  0.00     0.014 A 
ATOM     59  C   UNL A   1      43.114  23.450  28.854  1.00  0.00     0.014 A 
ATOM     60  C   UNL A   1      43.902  25.910  27.775  1.00  0.00     0.010 A 
ATOM     61  C   UNL A   1      44.298  24.023  29.248  1.00  0.00     0.010 A 
ATOM     62  C   UNL A   1      44.723  25.210  28.647  1.00  0.00    -0.014 A 
BRANCH  62  63
ATOM     63  C   UNL A   1      46.060  25.609  29.031  1.00  0.00     0.031 A 
ATOM     64  C   UNL A   1      47.188  25.238  28.164  1.00  0.00     0.074 A 
ATOM     65  C   UNL A   1      46.177  26.520  30.021  1.00  0.00     0.049 A 
ATOM     66  N   UNL A   1      48.423  25.333  28.508  1.00  0.00    -0.248 NA
ATOM     67  C   UNL A   1      46.993  24.707  26.819  1.00  0.00     0.031 C 
ATOM     68  C   UNL A   1      47.299  27.411  30.283  1.00  0.00     0.029 A 
ATOM     69  N   UNL A   1      45.338  26.691  31.131  1.00  0.00    -0.354 N 
ATOM     70  C   UNL A   1      49.179  25.138  27.372  1.00  0.00     0.074 A 
ATOM     71  C   UNL A   1      48.250  24.690  26.363  1.00  0.00     0.031 C 
ATOM     72  C   UNL A   1      47.235  27.817  31.561  1.00  0.00     0.029 A 
ATOM     73  C   UNL A   1      46.179  27.047  32.198  1.00  0.00     0.049 A 
ATOM     74  H   UNL A   1      44.360  26.584  31.155  1.00  0.00     0.167 HD
ATOM     75  C   UNL A   1      50.482  25.530  27.377  1.00  0.00     0.034 A 
ATOM     76  C   UNL A   1      46.328  26.285  33.322  1.00  0.00     0.034 A 
ATOM     77  C   UNL A   1      50.855  26.060  28.692  1.00  0.00     0.049 A 
ATOM     78  C   UNL A   1      47.763  25.826  33.526  1.00  0.00     0.074 A 
ATOM     79  C   UNL A   1      50.844  27.342  29.219  1.00  0.00     0.029 A 
ATOM     80  N   UNL A   1      50.964  25.192  29.768  1.00  0.00    -0.354 N 
ATOM     81  N   UNL A   1      48.699  25.944  32.624  1.00  0.00    -0.248 NA
ATOM     82  C   UNL A   1      48.256  25.194  34.745  1.00  0.00     0.031 C 
ATOM     83  C   UNL A   1      50.847  27.231  30.634  1.00  0.00     0.029 A 
ATOM     84  C   UNL A   1      50.892  25.888  30.966  1.00  0.00     0.049 A 
ATOM     85  H   UNL A   1      51.077  24.216  29.693  1.00  0.00     0.167 HD
ATOM     86  C   UNL A   1      49.849  25.340  33.055  1.00  0.00     0.074 A 
ATOM     87  C   UNL A   1      49.538  24.945  34.419  1.00  0.00     0.031 C 
ATOM     88  C   UNL A   1      50.933  25.171  32.236  1.00  0.00     0.034 A 
BRANCH  75  89
ATOM     89  C   UNL A   1      51.308  25.746  26.125  1.00  0.00     0.023 A 
ATOM     90  C   UNL A   1      52.458  24.938  25.970  1.00  0.00     0.012 A 
ATOM     91  C   UNL A   1      51.075  26.707  25.115  1.00  0.00     0.148 A 
ATOM     92  C   UNL A   1      53.373  25.123  24.930  1.00  0.00     0.002 A 
ATOM     93  C   UNL A   1      52.021  26.934  24.108  1.00  0.00     0.091 A 
ATOM     94  F   UNL A   1      49.908  27.360  25.081  1.00  0.00    -0.205 F 
ATOM     95  C   UNL A   1      53.172  26.144  24.016  1.00  0.00     0.022 A 
BRANCH  93  96
ATOM     96  S   UNL A   1      51.886  28.293  22.933  1.00  0.00     0.127 S 
ATOM     97  O   UNL A   1      52.587  29.375  23.629  1.00  0.00    -0.237 OA
ATOM     98  O   UNL A   1      52.591  27.771  21.764  1.00  0.00    -0.237 OA
ATOM     99  O   UNL A   1      50.459  28.531  22.758  1.00  0.00    -0.744 OA
ENDBRANCH  93  96
ENDBRANCH  75  89
BRANCH  76 100
ATOM    100  C   UNL A   1      45.100  25.513  33.682  1.00  0.00     0.023 A 
ATOM    101  C   UNL A   1      45.218  24.101  33.669  1.00  0.00     0.012 A 
ATOM    102  C   UNL A   1      44.054  26.097  34.417  1.00  0.00     0.148 A 
ATOM    103  C   UNL A   1      44.427  23.307  34.502  1.00  0.00     0.002 A 
ATOM    104  C   UNL A   1      43.263  25.295  35.239  1.00  0.00     0.091 A 
ATOM    105  F   UNL A   1      43.903  27.427  34.371  1.00  0.00    -0.205 F 
ATOM    106  C   UNL A   1      43.480  23.909  35.318  1.00  0.00     0.022 A 
BRANCH 104 107
ATOM    107  S   UNL A   1      42.028  26.005  36.338  1.00  0.00     0.127 S 
ATOM    108  O   UNL A   1      41.447  24.808  36.936  1.00  0.00    -0.237 OA
ATOM    109  O   UNL A   1      42.840  26.813  37.247  1.00  0.00    -0.237 OA
ATOM    110  O   UNL A   1      41.159  26.782  35.466  1.00  0.00    -0.744 OA
ENDBRANCH 104 107
ENDBRANCH  76 100
BRANCH  88 111
ATOM    111  C   UNL A   1      52.139  24.304  32.541  1.00  0.00     0.023 A 
ATOM    112  C   UNL A   1      53.450  24.816  32.542  1.00  0.00     0.012 A 
ATOM    113  C   UNL A   1      51.974  22.973  33.007  1.00  0.00     0.148 A 
ATOM    114  C   UNL A   1      54.546  24.037  32.928  1.00  0.00     0.002 A 
ATOM    115  C   UNL A   1      53.051  22.246  33.504  1.00  0.00     0.091 A 
ATOM    116  F   UNL A   1      50.766  22.391  32.958  1.00  0.00    -0.205 F 
ATOM    117  C   UNL A   1      54.346  22.761  33.435  1.00  0.00     0.022 A 
BRANCH 115 118
ATOM    118  S   UNL A   1      52.792  20.709  34.403  1.00  0.00     0.127 S 
ATOM    119  O   UNL A   1      51.888  21.129  35.471  1.00  0.00    -0.237 OA
ATOM    120  O   UNL A   1      52.178  19.849  33.389  1.00  0.00    -0.237 OA
ATOM    121  O   UNL A   1      54.123  20.285  34.815  1.00  0.00    -0.744 OA
ENDBRANCH 115 118
ENDBRANCH  88 111
ENDBRANCH  62  63
ENDBRANCH  54  57
ENDBRANCH  52  53
ENDBRANCH  51  52
ENDBRANCH  50  51
ENDBRANCH  49  50
ENDBRANCH  48  49
ENDBRANCH   1  48
TORSDOF 25
ENDMDL
MODEL 2
REMARK VINA RESULT:     -11.3      4.958     14.591
REMARK SMILES Cc1ccc(S(=O)(=O)n2cc(C(=O)C(=O)NCC(=O)N[C@H](Cc3c[nH]c4ccccc34)C(=O)NCCCCCCNC(=O)c3ccc(-c4c5nc(c(-c6cccc(S(=O)(=O)[O-])c6F)c6ccc([nH]6)c(-c6cccc(S(=O)(=O)[O-])c6F)c6nc(c(-c7cccc(S(=O)(=O)[O-])c7F)c7ccc4[nH]7)C=C6)C=C5)cc3)c3ccccc32)cc1
REMARK SMILES IDX 35 1 34 2 32 3 33 4 21 6 20 7 18 8 19 9 17 11 16 12 14 13
REMARK SMILES IDX 15 14 12 16 13 17 11 18 9 19 10 20 112 21 107 22 111 23
REMARK SMILES IDX 108 24 110 25 109 26 6 27 7 28 8 29 5 30 1 31 2 32 3 33
REMARK SMILES IDX 114 34 4 35 113 36 22 37 23 38 24 39 31 40 25 41 26 42 30 43
REMARK SMILES IDX 27 45 29 46 28 47 36 48 37 49 38 50 39 51 40 52 41 53 42 54
REMARK SMILES IDX 43 56 44 57 45 58 106 59 46 60 105 61 47 62 48 63 49 64
REMARK SMILES IDX 99 65 50 66 104 67 98 68 100 69 51 70 103 71 97 72 96 73
REMARK SMILES IDX 52 75 84 76 64 77 83 78 65 79 68 80 82 81 101 82 66 83 67 84
REMARK SMILES IDX 81 86 102 87 69 88 53 89 54 90 62 91 55 92 57 93 63 94 56 95
REMARK SMILES IDX 58 96 59 97 60 98 61 99 85 100 86 101 94 102 87 103 89 104
REMARK SMILES IDX 95 105 88 106 90 107 91 108 92 109 93 110 70 111 71 112
REMARK SMILES IDX 79 113 72 114 74 115 80 116 73 117 75 118 76 119 77 120
REMARK SMILES IDX 78 121
REMARK H PARENT 34 5 20 10 16 15 25 44 41 55 100 74 68 85
REMARK Flexibility Score: inf
ROOT
ATOM      1  C   UNL A   1      43.750  23.531  30.589  1.00  0.00     0.116 C 
ENDROOT
BRANCH   1   2
ATOM      2  N   UNL A   1      44.625  24.325  31.432  1.00  0.00    -0.354 N 
ATOM      3  C   UNL A   1      44.920  24.262  32.756  1.00  0.00     0.242 C 
ATOM      4  O   UNL A   1      45.475  25.258  33.236  1.00  0.00    -0.273 OA
ATOM      5  H   UNL A   1      45.095  25.044  30.953  1.00  0.00     0.163 HD
BRANCH   3   6
ATOM      6  C   UNL A   1      44.595  23.061  33.659  1.00  0.00     0.175 C 
BRANCH   6   7
ATOM      7  N   UNL A   1      43.205  23.231  34.114  1.00  0.00    -0.342 N 
ATOM      8  C   UNL A   1      42.753  23.831  35.255  1.00  0.00     0.240 C 
ATOM      9  O   UNL A   1      41.557  23.687  35.531  1.00  0.00    -0.273 OA
ATOM     10  H   UNL A   1      42.510  22.867  33.518  1.00  0.00     0.164 HD
BRANCH   8  11
ATOM     11  C   UNL A   1      43.638  24.804  36.069  1.00  0.00     0.216 C 
BRANCH  11  12
ATOM     12  N   UNL A   1      43.763  26.188  35.615  1.00  0.00    -0.340 N 
ATOM     13  C   UNL A   1      44.437  27.249  36.208  1.00  0.00     0.292 C 
ATOM     14  O   UNL A   1      44.557  28.337  35.657  1.00  0.00    -0.265 OA
ATOM     15  H   UNL A   1      43.305  26.399  34.769  1.00  0.00     0.164 HD
BRANCH  13  16
ATOM     16  C   UNL A   1      45.109  27.036  37.558  1.00  0.00     0.252 C 
ATOM     17  O   UNL A   1      44.446  27.381  38.538  1.00  0.00    -0.283 OA
BRANCH  16  18
ATOM     18  C   UNL A   1      46.514  26.608  37.688  1.00  0.00     0.054 A 
ATOM     19  N   UNL A   1      48.623  25.801  37.431  1.00  0.00    -0.240 N 
ATOM     20  C   UNL A   1      47.377  25.943  36.805  1.00  0.00     0.117 A 
ATOM     21  C   UNL A   1      48.586  26.605  38.590  1.00  0.00     0.065 A 
ATOM     22  C   UNL A   1      47.238  26.736  38.909  1.00  0.00     0.012 A 
ATOM     23  C   UNL A   1      49.595  26.907  39.526  1.00  0.00     0.028 A 
ATOM     24  C   UNL A   1      46.883  26.983  40.253  1.00  0.00     0.011 A 
ATOM     25  C   UNL A   1      49.220  27.040  40.863  1.00  0.00     0.002 A 
ATOM     26  C   UNL A   1      47.881  27.039  41.229  1.00  0.00     0.001 A 
BRANCH  19  27
ATOM     27  S   UNL A   1      49.442  24.287  37.786  1.00  0.00     0.268 S 
ATOM     28  O   UNL A   1      48.848  23.887  39.052  1.00  0.00    -0.201 OA
ATOM     29  O   UNL A   1      50.843  24.689  37.711  1.00  0.00    -0.201 OA
BRANCH  27  30
ATOM     30  C   UNL A   1      49.505  22.806  36.845  1.00  0.00     0.088 A 
ATOM     31  C   UNL A   1      49.047  19.810  33.755  1.00  0.00     0.044 C 
ATOM     32  C   UNL A   1      49.271  20.821  34.843  1.00  0.00    -0.051 A 
ATOM     33  C   UNL A   1      49.149  22.156  34.494  1.00  0.00     0.005 A 
ATOM     34  C   UNL A   1      49.537  20.491  36.193  1.00  0.00     0.005 A 
ATOM     35  C   UNL A   1      49.281  23.119  35.475  1.00  0.00     0.022 A 
ATOM     36  C   UNL A   1      49.650  21.480  37.210  1.00  0.00     0.022 A 
ENDBRANCH  27  30
ENDBRANCH  19  27
ENDBRANCH  16  18
ENDBRANCH  13  16
ENDBRANCH  11  12
ENDBRANCH   8  11
ENDBRANCH   6   7
BRANCH   6  37
ATOM     37  C   UNL A   1      45.580  22.729  34.808  1.00  0.00     0.072 C 
BRANCH  37  38
ATOM     38  C   UNL A   1      45.615  21.361  35.453  1.00  0.00    -0.020 A 
ATOM     39  C   UNL A   1      45.404  20.111  34.903  1.00  0.00     0.087 A 
ATOM     40  C   UNL A   1      45.920  21.101  36.845  1.00  0.00     0.003 A 
ATOM     41  N   UNL A   1      45.868  19.158  35.770  1.00  0.00    -0.361 N 
ATOM     42  C   UNL A   1      46.160  19.732  36.974  1.00  0.00     0.046 A 
ATOM     43  C   UNL A   1      46.053  21.895  38.005  1.00  0.00     0.010 A 
ATOM     44  H   UNL A   1      45.975  18.203  35.557  1.00  0.00     0.166 HD
ATOM     45  C   UNL A   1      46.613  19.128  38.149  1.00  0.00     0.026 A 
ATOM     46  C   UNL A   1      46.421  21.290  39.219  1.00  0.00     0.001 A 
ATOM     47  C   UNL A   1      46.725  19.933  39.279  1.00  0.00     0.002 A 
ENDBRANCH  37  38
ENDBRANCH   6  37
ENDBRANCH   3   6
ENDBRANCH   1   2
BRANCH   1  48
ATOM     48  C   UNL A   1      44.466  23.033  29.336  1.00  0.00     0.021 C 
BRANCH  48  49
ATOM     49  C   UNL A   1      44.330  23.957  28.116  1.00  0.00     0.002 C 
BRANCH  49  50
ATOM     50  C   UNL A   1      45.399  23.776  27.031  1.00  0.00     0.002 C 
BRANCH  50  51
ATOM     51  C   UNL A   1      44.882  23.262  25.690  1.00  0.00     0.021 C 
BRANCH  51  52
ATOM     52  C   UNL A   1      43.635  23.979  25.200  1.00  0.00     0.116 C 
BRANCH  52  53
ATOM     53  N   UNL A   1      42.511  23.088  25.068  1.00  0.00    -0.352 N 
ATOM     54  C   UNL A   1      41.484  22.906  25.982  1.00  0.00     0.251 C 
ATOM     55  H   UNL A   1      42.466  22.553  24.242  1.00  0.00     0.163 HD
ATOM     56  O   UNL A   1      41.048  21.791  26.163  1.00  0.00    -0.269 OA
BRANCH  54  57
ATOM     57  C   UNL A   1      40.805  24.120  26.520  1.00  0.00     0.039 A 
ATOM     58  C   UNL A   1      40.997  25.300  25.787  1.00  0.00     0.014 A 
ATOM     59  C   UNL A   1      40.319  24.183  27.822  1.00  0.00     0.014 A 
ATOM     60  C   UNL A   1      40.974  26.528  26.440  1.00  0.00     0.010 A 
ATOM     61  C   UNL A   1      40.371  25.381  28.492  1.00  0.00     0.010 A 
ATOM     62  C   UNL A   1      40.777  26.532  27.813  1.00  0.00    -0.014 A 
BRANCH  62  63
ATOM     63  C   UNL A   1      40.951  27.682  28.674  1.00  0.00     0.031 A 
ATOM     64  C   UNL A   1      39.936  28.746  28.651  1.00  0.00     0.074 A 
ATOM     65  C   UNL A   1      41.894  27.601  29.638  1.00  0.00     0.049 A 
ATOM     66  N   UNL A   1      40.092  29.902  29.189  1.00  0.00    -0.248 NA
ATOM     67  C   UNL A   1      38.645  28.575  27.991  1.00  0.00     0.031 C 
ATOM     68  C   UNL A   1      41.968  28.364  30.876  1.00  0.00     0.029 A 
ATOM     69  N   UNL A   1      43.110  26.909  29.589  1.00  0.00    -0.354 N 
ATOM     70  C   UNL A   1      38.861  30.523  29.185  1.00  0.00     0.074 A 
ATOM     71  C   UNL A   1      38.010  29.687  28.375  1.00  0.00     0.031 C 
ATOM     72  C   UNL A   1      43.233  28.330  31.326  1.00  0.00     0.029 A 
ATOM     73  C   UNL A   1      44.035  27.703  30.287  1.00  0.00     0.049 A 
ATOM     74  H   UNL A   1      43.282  26.042  29.154  1.00  0.00     0.167 HD
ATOM     75  C   UNL A   1      38.665  31.595  30.001  1.00  0.00     0.034 A 
ATOM     76  C   UNL A   1      45.141  28.256  29.705  1.00  0.00     0.034 A 
ATOM     77  C   UNL A   1      39.899  31.927  30.719  1.00  0.00     0.049 A 
ATOM     78  C   UNL A   1      45.140  29.774  29.783  1.00  0.00     0.074 A 
ATOM     79  C   UNL A   1      40.394  31.537  31.953  1.00  0.00     0.029 A 
ATOM     80  N   UNL A   1      40.966  32.473  30.020  1.00  0.00    -0.354 N 
ATOM     81  N   UNL A   1      44.107  30.483  30.151  1.00  0.00    -0.248 NA
ATOM     82  C   UNL A   1      46.286  30.612  29.448  1.00  0.00     0.031 C 
ATOM     83  C   UNL A   1      41.796  31.764  31.951  1.00  0.00     0.029 A 
ATOM     84  C   UNL A   1      42.146  32.319  30.733  1.00  0.00     0.049 A 
ATOM     85  H   UNL A   1      40.896  32.910  29.140  1.00  0.00     0.167 HD
ATOM     86  C   UNL A   1      44.377  31.817  30.011  1.00  0.00     0.074 A 
ATOM     87  C   UNL A   1      45.781  31.846  29.632  1.00  0.00     0.031 C 
ATOM     88  C   UNL A   1      43.411  32.775  30.167  1.00  0.00     0.034 A 
BRANCH  75  89
ATOM     89  C   UNL A   1      37.301  32.122  30.397  1.00  0.00     0.023 A 
ATOM     90  C   UNL A   1      36.773  31.669  31.628  1.00  0.00     0.012 A 
ATOM     91  C   UNL A   1      36.477  32.986  29.641  1.00  0.00     0.148 A 
ATOM     92  C   UNL A   1      35.476  31.976  32.049  1.00  0.00     0.002 A 
ATOM     93  C   UNL A   1      35.157  33.244  30.031  1.00  0.00     0.091 A 
ATOM     94  F   UNL A   1      36.983  33.617  28.576  1.00  0.00    -0.205 F 
ATOM     95  C   UNL A   1      34.654  32.737  31.234  1.00  0.00     0.022 A 
BRANCH  93  96
ATOM     96  S   UNL A   1      33.993  34.147  28.994  1.00  0.00     0.127 S 
ATOM     97  O   UNL A   1      32.975  34.566  29.962  1.00  0.00    -0.237 OA
ATOM     98  O   UNL A   1      34.814  35.236  28.473  1.00  0.00    -0.237 OA
ATOM     99  O   UNL A   1      33.509  33.189  28.007  1.00  0.00    -0.744 OA
ENDBRANCH  93  96
ENDBRANCH  75  89
BRANCH  76 100
ATOM    100  C   UNL A   1      45.694  27.434  28.586  1.00  0.00     0.023 A 
ATOM    101  C   UNL A   1      45.178  27.703  27.294  1.00  0.00     0.012 A 
ATOM    102  C   UNL A   1      46.933  26.781  28.698  1.00  0.00     0.148 A 
ATOM    103  C   UNL A   1      45.952  27.486  26.153  1.00  0.00     0.002 A 
ATOM    104  C   UNL A   1      47.697  26.560  27.551  1.00  0.00     0.091 A 
ATOM    105  F   UNL A   1      47.385  26.467  29.918  1.00  0.00    -0.205 F 
ATOM    106  C   UNL A   1      47.229  26.955  26.287  1.00  0.00     0.022 A 
BRANCH 104 107
ATOM    107  S   UNL A   1      49.365  25.894  27.647  1.00  0.00     0.127 S 
ATOM    108  O   UNL A   1      49.866  26.534  28.858  1.00  0.00    -0.237 OA
ATOM    109  O   UNL A   1      49.125  24.457  27.767  1.00  0.00    -0.237 OA
ATOM    110  O   UNL A   1      49.994  26.290  26.395  1.00  0.00    -0.744 OA
ENDBRANCH 104 107
ENDBRANCH  76 100
BRANCH  88 111
ATOM    111  C   UNL A   1      43.553  34.236  29.790  1.00  0.00     0.023 A 
ATOM    112  C   UNL A   1      43.046  34.752  28.583  1.00  0.00     0.012 A 
ATOM    113  C   UNL A   1      44.053  35.180  30.725  1.00  0.00     0.148 A 
ATOM    114  C   UNL A   1      43.085  36.120  28.289  1.00  0.00     0.002 A 
ATOM    115  C   UNL A   1      43.978  36.548  30.479  1.00  0.00     0.091 A 
ATOM    116  F   UNL A   1      44.626  34.757  31.863  1.00  0.00    -0.205 F 
ATOM    117  C   UNL A   1      43.527  37.021  29.247  1.00  0.00     0.022 A 
BRANCH 115 118
ATOM    118  S   UNL A   1      44.291  37.741  31.790  1.00  0.00     0.127 S 
ATOM    119  O   UNL A   1      43.484  37.208  32.885  1.00  0.00    -0.237 OA
ATOM    120  O   UNL A   1      45.737  37.623  31.986  1.00  0.00    -0.237 OA
ATOM    121  O   UNL A   1      43.868  39.021  31.240  1.00  0.00    -0.744 OA
ENDBRANCH 115 118
ENDBRANCH  88 111
ENDBRANCH  62  63
ENDBRANCH  54  57
ENDBRANCH  52  53
ENDBRANCH  51  52
ENDBRANCH  50  51
ENDBRANCH  49  50
ENDBRANCH  48  49
ENDBRANCH   1  48
TORSDOF 25
ENDMDL
MODEL 3
REMARK VINA RESULT:     -11.2      3.923      7.561
REMARK SMILES Cc1ccc(S(=O)(=O)n2cc(C(=O)C(=O)NCC(=O)N[C@H](Cc3c[nH]c4ccccc34)C(=O)NCCCCCCNC(=O)c3ccc(-c4c5nc(c(-c6cccc(S(=O)(=O)[O-])c6F)c6ccc([nH]6)c(-c6cccc(S(=O)(=O)[O-])c6F)c6nc(c(-c7cccc(S(=O)(=O)[O-])c7F)c7ccc4[nH]7)C=C6)C=C5)cc3)c3ccccc32)cc1
REMARK SMILES IDX 35 1 34 2 32 3 33 4 21 6 20 7 18 8 19 9 17 11 16 12 14 13
REMARK SMILES IDX 15 14 12 16 13 17 11 18 9 19 10 20 112 21 107 22 111 23
REMARK SMILES IDX 108 24 110 25 109 26 6 27 7 28 8 29 5 30 1 31 2 32 3 33
REMARK SMILES IDX 114 34 4 35 113 36 22 37 23 38 24 39 31 40 25 41 26 42 30 43
REMARK SMILES IDX 27 45 29 46 28 47 36 48 37 49 38 50 39 51 40 52 41 53 42 54
REMARK SMILES IDX 43 56 44 57 45 58 106 59 46 60 105 61 47 62 48 63 49 64
REMARK SMILES IDX 99 65 50 66 104 67 98 68 100 69 51 70 103 71 97 72 96 73
REMARK SMILES IDX 52 75 84 76 64 77 83 78 65 79 68 80 82 81 101 82 66 83 67 84
REMARK SMILES IDX 81 86 102 87 69 88 53 89 54 90 62 91 55 92 57 93 63 94 56 95
REMARK SMILES IDX 58 96 59 97 60 98 61 99 85 100 86 101 94 102 87 103 89 104
REMARK SMILES IDX 95 105 88 106 90 107 91 108 92 109 93 110 70 111 71 112
REMARK SMILES IDX 79 113 72 114 74 115 80 116 73 117 75 118 76 119 77 120
REMARK SMILES IDX 78 121
REMARK H PARENT 34 5 20 10 16 15 25 44 41 55 100 74 68 85
REMARK Flexibility Score: inf
ROOT
ATOM      1  C   UNL A   1      42.678  30.627  29.755  1.00  0.00     0.116 C 
ENDROOT
BRANCH   1   2
ATOM      2  N   UNL A   1      42.294  29.538  30.635  1.00  0.00    -0.354 N 
ATOM      3  C   UNL A   1      41.144  29.269  31.304  1.00  0.00     0.242 C 
ATOM      4  O   UNL A   1      41.225  28.422  32.202  1.00  0.00    -0.273 OA
ATOM      5  H   UNL A   1      43.000  28.868  30.772  1.00  0.00     0.163 HD
BRANCH   3   6
ATOM      6  C   UNL A   1      39.797  29.952  31.019  1.00  0.00     0.175 C 
BRANCH   6   7
ATOM      7  N   UNL A   1      38.745  29.054  31.525  1.00  0.00    -0.342 N 
ATOM      8  C   UNL A   1      38.086  29.108  32.720  1.00  0.00     0.240 C 
ATOM      9  O   UNL A   1      37.381  28.139  33.019  1.00  0.00    -0.273 OA
ATOM     10  H   UNL A   1      38.481  28.320  30.923  1.00  0.00     0.164 HD
BRANCH   8  11
ATOM     11  C   UNL A   1      38.061  30.394  33.580  1.00  0.00     0.216 C 
BRANCH  11  12
ATOM     12  N   UNL A   1      38.214  30.274  35.029  1.00  0.00    -0.340 N 
ATOM     13  C   UNL A   1      38.077  31.249  36.010  1.00  0.00     0.292 C 
ATOM     14  O   UNL A   1      38.120  30.985  37.205  1.00  0.00    -0.265 OA
ATOM     15  H   UNL A   1      38.446  29.375  35.357  1.00  0.00     0.164 HD
BRANCH  13  16
ATOM     16  C   UNL A   1      37.795  32.687  35.590  1.00  0.00     0.252 C 
ATOM     17  O   UNL A   1      36.620  33.047  35.697  1.00  0.00    -0.283 OA
BRANCH  16  18
ATOM     18  C   UNL A   1      38.809  33.538  34.942  1.00  0.00     0.054 A 
ATOM     19  N   UNL A   1      40.123  34.753  33.541  1.00  0.00    -0.240 N 
ATOM     20  C   UNL A   1      39.016  33.895  33.602  1.00  0.00     0.117 A 
ATOM     21  C   UNL A   1      40.425  35.117  34.872  1.00  0.00     0.065 A 
ATOM     22  C   UNL A   1      39.905  34.097  35.662  1.00  0.00     0.012 A 
ATOM     23  C   UNL A   1      41.372  36.029  35.378  1.00  0.00     0.028 A 
ATOM     24  C   UNL A   1      40.488  33.859  36.925  1.00  0.00     0.011 A 
ATOM     25  C   UNL A   1      42.004  35.706  36.578  1.00  0.00     0.002 A 
ATOM     26  C   UNL A   1      41.595  34.611  37.326  1.00  0.00     0.001 A 
BRANCH  19  27
ATOM     27  S   UNL A   1      41.612  34.470  32.652  1.00  0.00     0.268 S 
ATOM     28  O   UNL A   1      42.391  35.665  32.938  1.00  0.00    -0.201 OA
ATOM     29  O   UNL A   1      41.106  34.211  31.309  1.00  0.00    -0.201 OA
BRANCH  27  30
ATOM     30  C   UNL A   1      42.764  33.152  32.797  1.00  0.00     0.088 A 
ATOM     31  C   UNL A   1      45.058  29.759  34.193  1.00  0.00     0.044 C 
ATOM     32  C   UNL A   1      44.270  30.911  33.641  1.00  0.00    -0.051 A 
ATOM     33  C   UNL A   1      43.016  31.133  34.187  1.00  0.00     0.005 A 
ATOM     34  C   UNL A   1      44.750  31.803  32.652  1.00  0.00     0.005 A 
ATOM     35  C   UNL A   1      42.281  32.221  33.757  1.00  0.00     0.022 A 
ATOM     36  C   UNL A   1      44.005  32.938  32.225  1.00  0.00     0.022 A 
ENDBRANCH  27  30
ENDBRANCH  19  27
ENDBRANCH  16  18
ENDBRANCH  13  16
ENDBRANCH  11  12
ENDBRANCH   8  11
ENDBRANCH   6   7
BRANCH   6  37
ATOM     37  C   UNL A   1      39.530  30.457  29.578  1.00  0.00     0.072 C 
BRANCH  37  38
ATOM     38  C   UNL A   1      38.146  30.424  28.968  1.00  0.00    -0.020 A 
ATOM     39  C   UNL A   1      37.410  29.357  28.489  1.00  0.00     0.087 A 
ATOM     40  C   UNL A   1      37.281  31.572  28.792  1.00  0.00     0.003 A 
ATOM     41  N   UNL A   1      36.103  29.742  28.353  1.00  0.00    -0.361 N 
ATOM     42  C   UNL A   1      36.003  31.095  28.502  1.00  0.00     0.046 A 
ATOM     43  C   UNL A   1      37.447  32.971  28.887  1.00  0.00     0.010 A 
ATOM     44  H   UNL A   1      35.350  29.134  28.174  1.00  0.00     0.166 HD
ATOM     45  C   UNL A   1      34.873  31.910  28.397  1.00  0.00     0.026 A 
ATOM     46  C   UNL A   1      36.338  33.813  28.694  1.00  0.00     0.001 A 
ATOM     47  C   UNL A   1      35.066  33.285  28.483  1.00  0.00     0.002 A 
ENDBRANCH  37  38
ENDBRANCH   6  37
ENDBRANCH   3   6
ENDBRANCH   1   2
BRANCH   1  48
ATOM     48  C   UNL A   1      43.046  30.128  28.360  1.00  0.00     0.021 C 
BRANCH  48  49
ATOM     49  C   UNL A   1      42.537  28.715  28.035  1.00  0.00     0.002 C 
BRANCH  49  50
ATOM     50  C   UNL A   1      41.449  28.638  26.958  1.00  0.00     0.002 C 
BRANCH  50  51
ATOM     51  C   UNL A   1      40.285  27.704  27.277  1.00  0.00     0.021 C 
BRANCH  51  52
ATOM     52  C   UNL A   1      40.431  26.976  28.604  1.00  0.00     0.116 C 
BRANCH  52  53
ATOM     53  N   UNL A   1      39.946  25.621  28.537  1.00  0.00    -0.352 N 
ATOM     54  C   UNL A   1      40.392  24.622  27.685  1.00  0.00     0.251 C 
ATOM     55  H   UNL A   1      39.225  25.379  29.161  1.00  0.00     0.163 HD
ATOM     56  O   UNL A   1      39.587  23.856  27.205  1.00  0.00    -0.269 OA
BRANCH  54  57
ATOM     57  C   UNL A   1      41.862  24.388  27.591  1.00  0.00     0.039 A 
ATOM     58  C   UNL A   1      42.429  23.648  28.639  1.00  0.00     0.014 A 
ATOM     59  C   UNL A   1      42.679  25.131  26.745  1.00  0.00     0.014 A 
ATOM     60  C   UNL A   1      43.751  23.874  29.005  1.00  0.00     0.010 A 
ATOM     61  C   UNL A   1      43.960  25.420  27.146  1.00  0.00     0.010 A 
ATOM     62  C   UNL A   1      44.460  24.850  28.319  1.00  0.00    -0.014 A 
BRANCH  62  63
ATOM     63  C   UNL A   1      45.752  25.370  28.713  1.00  0.00     0.031 A 
ATOM     64  C   UNL A   1      46.924  25.062  27.881  1.00  0.00     0.074 A 
ATOM     65  C   UNL A   1      45.774  26.320  29.672  1.00  0.00     0.049 A 
ATOM     66  N   UNL A   1      48.140  25.269  28.243  1.00  0.00    -0.248 NA
ATOM     67  C   UNL A   1      46.801  24.472  26.551  1.00  0.00     0.031 C 
ATOM     68  C   UNL A   1      46.815  27.308  29.922  1.00  0.00     0.029 A 
ATOM     69  N   UNL A   1      44.901  26.460  30.759  1.00  0.00    -0.354 N 
ATOM     70  C   UNL A   1      48.932  25.098  27.128  1.00  0.00     0.074 A 
ATOM     71  C   UNL A   1      48.064  24.541  26.119  1.00  0.00     0.031 C 
ATOM     72  C   UNL A   1      46.692  27.751  31.184  1.00  0.00     0.029 A 
ATOM     73  C   UNL A   1      45.688  26.919  31.829  1.00  0.00     0.049 A 
ATOM     74  H   UNL A   1      43.935  26.274  30.770  1.00  0.00     0.167 HD
ATOM     75  C   UNL A   1      50.199  25.595  27.142  1.00  0.00     0.034 A 
ATOM     76  C   UNL A   1      45.875  26.210  32.982  1.00  0.00     0.034 A 
ATOM     77  C   UNL A   1      50.500  26.198  28.444  1.00  0.00     0.049 A 
ATOM     78  C   UNL A   1      47.338  25.877  33.227  1.00  0.00     0.074 A 
ATOM     79  C   UNL A   1      50.375  27.492  28.925  1.00  0.00     0.029 A 
ATOM     80  N   UNL A   1      50.657  25.378  29.553  1.00  0.00    -0.354 N 
ATOM     81  N   UNL A   1      48.280  26.040  32.338  1.00  0.00    -0.248 NA
ATOM     82  C   UNL A   1      47.855  25.329  34.477  1.00  0.00     0.031 C 
ATOM     83  C   UNL A   1      50.358  27.429  30.343  1.00  0.00     0.029 A 
ATOM     84  C   UNL A   1      50.504  26.106  30.723  1.00  0.00     0.049 A 
ATOM     85  H   UNL A   1      50.850  24.413  29.514  1.00  0.00     0.167 HD
ATOM     86  C   UNL A   1      49.465  25.547  32.811  1.00  0.00     0.074 A 
ATOM     87  C   UNL A   1      49.159  25.174  34.183  1.00  0.00     0.031 C 
ATOM     88  C   UNL A   1      50.577  25.439  32.019  1.00  0.00     0.034 A 
BRANCH  75  89
ATOM     89  C   UNL A   1      51.031  25.834  25.899  1.00  0.00     0.023 A 
ATOM     90  C   UNL A   1      52.250  25.126  25.798  1.00  0.00     0.012 A 
ATOM     91  C   UNL A   1      50.737  26.731  24.847  1.00  0.00     0.148 A 
ATOM     92  C   UNL A   1      53.169  25.351  24.770  1.00  0.00     0.002 A 
ATOM     93  C   UNL A   1      51.683  27.002  23.849  1.00  0.00     0.091 A 
ATOM     94  F   UNL A   1      49.519  27.277  24.765  1.00  0.00    -0.205 F 
ATOM     95  C   UNL A   1      52.900  26.314  23.811  1.00  0.00     0.022 A 
BRANCH  93  96
ATOM     96  S   UNL A   1      51.456  28.297  22.618  1.00  0.00     0.127 S 
ATOM     97  O   UNL A   1      52.634  28.123  21.764  1.00  0.00    -0.237 OA
ATOM     98  O   UNL A   1      50.193  27.918  21.990  1.00  0.00    -0.237 OA
ATOM     99  O   UNL A   1      51.444  29.554  23.357  1.00  0.00    -0.744 OA
ENDBRANCH  93  96
ENDBRANCH  75  89
BRANCH  76 100
ATOM    100  C   UNL A   1      44.706  25.354  33.346  1.00  0.00     0.023 A 
ATOM    101  C   UNL A   1      44.892  23.953  33.231  1.00  0.00     0.012 A 
ATOM    102  C   UNL A   1      43.672  25.834  34.168  1.00  0.00     0.148 A 
ATOM    103  C   UNL A   1      44.184  23.066  34.045  1.00  0.00     0.002 A 
ATOM    104  C   UNL A   1      42.964  24.939  34.971  1.00  0.00     0.091 A 
ATOM    105  F   UNL A   1      43.455  27.153  34.221  1.00  0.00    -0.205 F 
ATOM    106  C   UNL A   1      43.252  23.564  34.945  1.00  0.00     0.022 A 
BRANCH 104 107
ATOM    107  S   UNL A   1      41.754  25.510  36.174  1.00  0.00     0.127 S 
ATOM    108  O   UNL A   1      42.588  26.299  37.074  1.00  0.00    -0.237 OA
ATOM    109  O   UNL A   1      40.832  26.290  35.350  1.00  0.00    -0.237 OA
ATOM    110  O   UNL A   1      41.177  24.293  36.725  1.00  0.00    -0.744 OA
ENDBRANCH 104 107
ENDBRANCH  76 100
BRANCH  88 111
ATOM    111  C   UNL A   1      51.841  24.683  32.375  1.00  0.00     0.023 A 
ATOM    112  C   UNL A   1      53.089  25.324  32.495  1.00  0.00     0.012 A 
ATOM    113  C   UNL A   1      51.784  23.322  32.774  1.00  0.00     0.148 A 
ATOM    114  C   UNL A   1      54.231  24.642  32.928  1.00  0.00     0.002 A 
ATOM    115  C   UNL A   1      52.894  22.683  33.319  1.00  0.00     0.091 A 
ATOM    116  F   UNL A   1      50.649  22.624  32.613  1.00  0.00    -0.205 F 
ATOM    117  C   UNL A   1      54.130  23.329  33.366  1.00  0.00     0.022 A 
BRANCH 115 118
ATOM    118  S   UNL A   1      52.734  21.086  34.133  1.00  0.00     0.127 S 
ATOM    119  O   UNL A   1      54.012  20.454  33.818  1.00  0.00    -0.237 OA
ATOM    120  O   UNL A   1      52.571  21.463  35.539  1.00  0.00    -0.237 OA
ATOM    121  O   UNL A   1      51.551  20.479  33.539  1.00  0.00    -0.744 OA
ENDBRANCH 115 118
ENDBRANCH  88 111
ENDBRANCH  62  63
ENDBRANCH  54  57
ENDBRANCH  52  53
ENDBRANCH  51  52
ENDBRANCH  50  51
ENDBRANCH  49  50
ENDBRANCH  48  49
ENDBRANCH   1  48
TORSDOF 25
ENDMDL
