MODEL 1
REMARK VINA RESULT:     -12.6      0.000      0.000
REMARK SMILES O=C(NCCCCCCNC(=O)[C@@H]1CCn2c(C(=O)c3ccccc3)ccc21)c1ccc(-c2c3nc(c(-c4cccc(S(=O)(=O)[O-])c4F)c4ccc([nH]4)c(-c4cccc(S(=O)(=O)[O-])c4F)c4nc(c(-c5cccc(S(=O)(=O)[O-])c5F)c5ccc2[nH]5)C=C4)C=C3)cc1
REMARK SMILES IDX 6 1 5 2 4 3 3 4 1 5 2 6 29 8 30 9 91 10 31 11 90 12 32 13
REMARK SMILES IDX 33 14 34 15 84 16 35 17 89 18 83 19 85 20 36 21 88 22 82 23
REMARK SMILES IDX 81 24 37 26 69 27 49 28 68 29 50 30 53 31 67 32 86 33 51 34
REMARK SMILES IDX 52 35 66 37 87 38 54 39 38 40 39 41 47 42 40 43 42 44 48 45
REMARK SMILES IDX 41 46 43 47 44 48 45 49 46 50 70 51 71 52 79 53 72 54 74 55
REMARK SMILES IDX 80 56 73 57 75 58 76 59 77 60 78 61 55 62 56 63 64 64 57 65
REMARK SMILES IDX 59 66 65 67 58 68 60 69 61 70 62 71 63 72 7 73 8 74 9 75
REMARK SMILES IDX 10 76 11 77 12 79 13 80 14 81 28 82 15 83 16 84 27 85 17 86
REMARK SMILES IDX 26 87 18 88 19 89 20 90 21 91 25 92 22 93 24 94 23 95
REMARK H PARENT 3 7 85 25 53 36 10 78
REMARK Flexibility Score: inf
ROOT
ATOM      1  C   UNL A   1      31.078  28.599  24.044  1.00  0.00     0.002 C 
ENDROOT
BRANCH   1   2
ATOM      2  C   UNL A   1      32.479  28.143  24.447  1.00  0.00     0.021 C 
BRANCH   2   3
ATOM      3  C   UNL A   1      33.401  29.226  24.988  1.00  0.00     0.116 C 
BRANCH   3   4
ATOM      4  N   UNL A   1      32.700  30.314  25.644  1.00  0.00    -0.352 N 
ATOM      5  O   UNL A   1      32.295  31.844  27.250  1.00  0.00    -0.269 OA
ATOM      6  C   UNL A   1      33.064  31.021  26.771  1.00  0.00     0.251 C 
ATOM      7  H   UNL A   1      31.849  30.583  25.229  1.00  0.00     0.163 HD
BRANCH   6   8
ATOM      8  C   UNL A   1      34.370  30.747  27.418  1.00  0.00     0.039 A 
ATOM      9  C   UNL A   1      34.706  29.458  27.835  1.00  0.00     0.014 A 
ATOM     10  C   UNL A   1      35.266  31.801  27.626  1.00  0.00     0.014 A 
ATOM     11  C   UNL A   1      35.853  29.253  28.594  1.00  0.00     0.010 A 
ATOM     12  C   UNL A   1      36.467  31.573  28.309  1.00  0.00     0.010 A 
ATOM     13  C   UNL A   1      36.756  30.304  28.830  1.00  0.00    -0.014 A 
BRANCH  13  14
ATOM     14  C   UNL A   1      38.024  30.009  29.551  1.00  0.00     0.031 A 
ATOM     15  C   UNL A   1      38.305  30.555  30.924  1.00  0.00     0.074 A 
ATOM     16  C   UNL A   1      38.917  29.194  28.954  1.00  0.00     0.049 A 
ATOM     17  N   UNL A   1      39.321  30.302  31.712  1.00  0.00    -0.248 NA
ATOM     18  C   UNL A   1      37.337  31.509  31.488  1.00  0.00     0.031 C 
ATOM     19  C   UNL A   1      38.785  28.658  27.596  1.00  0.00     0.029 A 
ATOM     20  N   UNL A   1      40.096  28.662  29.406  1.00  0.00    -0.354 N 
ATOM     21  C   UNL A   1      39.132  31.082  32.846  1.00  0.00     0.074 A 
ATOM     22  C   UNL A   1      37.909  31.829  32.642  1.00  0.00     0.031 C 
ATOM     23  C   UNL A   1      39.815  27.840  27.342  1.00  0.00     0.029 A 
ATOM     24  C   UNL A   1      40.705  27.827  28.497  1.00  0.00     0.049 A 
ATOM     25  H   UNL A   1      40.471  28.858  30.295  1.00  0.00     0.167 HD
ATOM     26  C   UNL A   1      39.897  31.153  33.964  1.00  0.00     0.034 A 
ATOM     27  C   UNL A   1      41.853  27.128  28.578  1.00  0.00     0.034 A 
ATOM     28  C   UNL A   1      41.098  30.386  34.175  1.00  0.00     0.049 A 
ATOM     29  C   UNL A   1      42.643  27.179  29.852  1.00  0.00     0.074 A 
ATOM     30  C   UNL A   1      41.919  30.361  35.290  1.00  0.00     0.029 A 
ATOM     31  N   UNL A   1      41.651  29.507  33.256  1.00  0.00    -0.354 N 
ATOM     32  N   UNL A   1      42.376  27.825  30.961  1.00  0.00    -0.248 NA
ATOM     33  C   UNL A   1      43.878  26.384  29.899  1.00  0.00     0.031 C 
ATOM     34  C   UNL A   1      42.970  29.470  35.043  1.00  0.00     0.029 A 
ATOM     35  C   UNL A   1      42.799  28.932  33.777  1.00  0.00     0.049 A 
ATOM     36  H   UNL A   1      41.283  29.320  32.362  1.00  0.00     0.167 HD
ATOM     37  C   UNL A   1      43.405  27.510  31.839  1.00  0.00     0.074 A 
ATOM     38  C   UNL A   1      44.273  26.577  31.149  1.00  0.00     0.031 C 
ATOM     39  C   UNL A   1      43.630  27.976  33.093  1.00  0.00     0.034 A 
BRANCH  26  40
ATOM     40  C   UNL A   1      39.430  32.047  35.083  1.00  0.00     0.023 A 
ATOM     41  C   UNL A   1      39.590  33.442  34.960  1.00  0.00     0.012 A 
ATOM     42  C   UNL A   1      38.756  31.527  36.207  1.00  0.00     0.148 A 
ATOM     43  C   UNL A   1      39.105  34.304  35.943  1.00  0.00     0.002 A 
ATOM     44  C   UNL A   1      38.245  32.395  37.165  1.00  0.00     0.091 A 
ATOM     45  F   UNL A   1      38.629  30.197  36.315  1.00  0.00    -0.205 F 
ATOM     46  C   UNL A   1      38.424  33.782  37.039  1.00  0.00     0.022 A 
BRANCH  44  47
ATOM     47  S   UNL A   1      37.291  31.828  38.580  1.00  0.00     0.127 S 
ATOM     48  O   UNL A   1      36.121  32.703  38.515  1.00  0.00    -0.237 OA
ATOM     49  O   UNL A   1      37.028  30.431  38.235  1.00  0.00    -0.237 OA
ATOM     50  O   UNL A   1      38.148  32.015  39.742  1.00  0.00    -0.744 OA
ENDBRANCH  44  47
ENDBRANCH  26  40
BRANCH  27  51
ATOM     51  C   UNL A   1      42.280  26.282  27.429  1.00  0.00     0.023 A 
ATOM     52  C   UNL A   1      43.145  26.815  26.455  1.00  0.00     0.012 A 
ATOM     53  C   UNL A   1      41.885  24.934  27.333  1.00  0.00     0.148 A 
ATOM     54  C   UNL A   1      43.591  26.025  25.394  1.00  0.00     0.002 A 
ATOM     55  C   UNL A   1      42.384  24.137  26.311  1.00  0.00     0.091 A 
ATOM     56  F   UNL A   1      41.042  24.449  28.256  1.00  0.00    -0.205 F 
ATOM     57  C   UNL A   1      43.223  24.683  25.330  1.00  0.00     0.022 A 
BRANCH  55  58
ATOM     58  S   UNL A   1      42.080  22.367  26.278  1.00  0.00     0.127 S 
ATOM     59  O   UNL A   1      42.824  21.955  25.092  1.00  0.00    -0.237 OA
ATOM     60  O   UNL A   1      42.655  21.926  27.551  1.00  0.00    -0.237 OA
ATOM     61  O   UNL A   1      40.630  22.238  26.210  1.00  0.00    -0.744 OA
ENDBRANCH  55  58
ENDBRANCH  27  51
BRANCH  39  62
ATOM     62  C   UNL A   1      44.869  27.487  33.791  1.00  0.00     0.023 A 
ATOM     63  C   UNL A   1      46.076  28.198  33.632  1.00  0.00     0.012 A 
ATOM     64  C   UNL A   1      44.837  26.355  34.626  1.00  0.00     0.148 A 
ATOM     65  C   UNL A   1      47.241  27.767  34.265  1.00  0.00     0.002 A 
ATOM     66  C   UNL A   1      45.994  25.956  35.287  1.00  0.00     0.091 A 
ATOM     67  F   UNL A   1      43.686  25.677  34.745  1.00  0.00    -0.205 F 
ATOM     68  C   UNL A   1      47.198  26.653  35.099  1.00  0.00     0.022 A 
BRANCH  66  69
ATOM     69  S   UNL A   1      45.999  24.579  36.441  1.00  0.00     0.127 S 
ATOM     70  O   UNL A   1      47.225  24.825  37.196  1.00  0.00    -0.237 OA
ATOM     71  O   UNL A   1      44.764  24.793  37.196  1.00  0.00    -0.237 OA
ATOM     72  O   UNL A   1      45.993  23.377  35.616  1.00  0.00    -0.744 OA
ENDBRANCH  66  69
ENDBRANCH  39  62
ENDBRANCH  13  14
ENDBRANCH   6   8
ENDBRANCH   3   4
ENDBRANCH   2   3
ENDBRANCH   1   2
BRANCH   1  73
ATOM     73  C   UNL A   1      30.210  27.570  23.315  1.00  0.00     0.002 C 
BRANCH  73  74
ATOM     74  C   UNL A   1      29.658  26.411  24.150  1.00  0.00     0.021 C 
BRANCH  74  75
ATOM     75  C   UNL A   1      29.920  26.467  25.651  1.00  0.00     0.116 C 
BRANCH  75  76
ATOM     76  N   UNL A   1      29.799  25.184  26.306  1.00  0.00    -0.356 N 
ATOM     77  C   UNL A   1      30.711  24.194  26.503  1.00  0.00     0.229 C 
ATOM     78  H   UNL A   1      28.905  24.994  26.670  1.00  0.00     0.163 HD
ATOM     79  O   UNL A   1      30.342  23.228  27.182  1.00  0.00    -0.274 OA
BRANCH  77  80
ATOM     80  C   UNL A   1      32.124  24.218  25.921  1.00  0.00     0.127 C 
ATOM     81  C   UNL A   1      32.268  24.136  24.387  1.00  0.00     0.042 C 
ATOM     82  C   UNL A   1      32.954  23.089  26.407  1.00  0.00     0.031 A 
ATOM     83  C   UNL A   1      33.202  22.943  24.081  1.00  0.00     0.124 C 
ATOM     84  N   UNL A   1      33.551  22.405  25.384  1.00  0.00    -0.341 N 
ATOM     85  C   UNL A   1      33.343  22.535  27.593  1.00  0.00     0.025 A 
ATOM     86  C   UNL A   1      34.306  21.369  25.853  1.00  0.00     0.090 A 
ATOM     87  C   UNL A   1      34.192  21.454  27.246  1.00  0.00     0.032 A 
BRANCH  86  88
ATOM     88  C   UNL A   1      35.060  20.338  25.155  1.00  0.00     0.209 C 
ATOM     89  O   UNL A   1      36.280  20.401  25.000  1.00  0.00    -0.287 OA
BRANCH  88  90
ATOM     90  C   UNL A   1      34.409  19.123  24.627  1.00  0.00     0.024 A 
ATOM     91  C   UNL A   1      35.152  17.938  24.583  1.00  0.00     0.012 A 
ATOM     92  C   UNL A   1      33.118  19.168  24.097  1.00  0.00     0.012 A 
ATOM     93  C   UNL A   1      34.577  16.781  24.059  1.00  0.00     0.001 A 
ATOM     94  C   UNL A   1      32.541  18.003  23.588  1.00  0.00     0.001 A 
ATOM     95  C   UNL A   1      33.269  16.811  23.574  1.00  0.00     0.000 A 
ENDBRANCH  88  90
ENDBRANCH  86  88
ENDBRANCH  77  80
ENDBRANCH  75  76
ENDBRANCH  74  75
ENDBRANCH  73  74
ENDBRANCH   1  73
TORSDOF 18
ENDMDL
MODEL 2
REMARK VINA RESULT:     -12.3      2.368      3.080
REMARK SMILES O=C(NCCCCCCNC(=O)[C@@H]1CCn2c(C(=O)c3ccccc3)ccc21)c1ccc(-c2c3nc(c(-c4cccc(S(=O)(=O)[O-])c4F)c4ccc([nH]4)c(-c4cccc(S(=O)(=O)[O-])c4F)c4nc(c(-c5cccc(S(=O)(=O)[O-])c5F)c5ccc2[nH]5)C=C4)C=C3)cc1
REMARK SMILES IDX 6 1 5 2 4 3 3 4 1 5 2 6 29 8 30 9 91 10 31 11 90 12 32 13
REMARK SMILES IDX 33 14 34 15 84 16 35 17 89 18 83 19 85 20 36 21 88 22 82 23
REMARK SMILES IDX 81 24 37 26 69 27 49 28 68 29 50 30 53 31 67 32 86 33 51 34
REMARK SMILES IDX 52 35 66 37 87 38 54 39 38 40 39 41 47 42 40 43 42 44 48 45
REMARK SMILES IDX 41 46 43 47 44 48 45 49 46 50 70 51 71 52 79 53 72 54 74 55
REMARK SMILES IDX 80 56 73 57 75 58 76 59 77 60 78 61 55 62 56 63 64 64 57 65
REMARK SMILES IDX 59 66 65 67 58 68 60 69 61 70 62 71 63 72 7 73 8 74 9 75
REMARK SMILES IDX 10 76 11 77 12 79 13 80 14 81 28 82 15 83 16 84 27 85 17 86
REMARK SMILES IDX 26 87 18 88 19 89 20 90 21 91 25 92 22 93 24 94 23 95
REMARK H PARENT 3 7 85 25 53 36 10 78
REMARK Flexibility Score: inf
ROOT
ATOM      1  C   UNL A   1      32.413  28.783  23.551  1.00  0.00     0.002 C 
ENDROOT
BRANCH   1   2
ATOM      2  C   UNL A   1      33.765  28.459  24.184  1.00  0.00     0.021 C 
BRANCH   2   3
ATOM      3  C   UNL A   1      33.903  28.788  25.664  1.00  0.00     0.116 C 
BRANCH   3   4
ATOM      4  N   UNL A   1      33.297  30.052  26.039  1.00  0.00    -0.352 N 
ATOM      5  O   UNL A   1      32.999  31.919  27.266  1.00  0.00    -0.269 OA
ATOM      6  C   UNL A   1      33.694  30.944  27.012  1.00  0.00     0.251 C 
ATOM      7  H   UNL A   1      32.493  30.306  25.530  1.00  0.00     0.163 HD
BRANCH   6   8
ATOM      8  C   UNL A   1      34.942  30.692  27.773  1.00  0.00     0.039 A 
ATOM      9  C   UNL A   1      35.130  29.492  28.461  1.00  0.00     0.014 A 
ATOM     10  C   UNL A   1      35.932  31.680  27.812  1.00  0.00     0.014 A 
ATOM     11  C   UNL A   1      36.223  29.345  29.308  1.00  0.00     0.010 A 
ATOM     12  C   UNL A   1      37.079  31.489  28.593  1.00  0.00     0.010 A 
ATOM     13  C   UNL A   1      37.219  30.335  29.377  1.00  0.00    -0.014 A 
BRANCH  13  14
ATOM     14  C   UNL A   1      38.423  30.081  30.212  1.00  0.00     0.031 A 
ATOM     15  C   UNL A   1      38.594  30.699  31.572  1.00  0.00     0.074 A 
ATOM     16  C   UNL A   1      39.360  29.237  29.732  1.00  0.00     0.049 A 
ATOM     17  N   UNL A   1      39.542  30.489  32.452  1.00  0.00    -0.248 NA
ATOM     18  C   UNL A   1      37.586  31.678  32.006  1.00  0.00     0.031 C 
ATOM     19  C   UNL A   1      39.337  28.630  28.398  1.00  0.00     0.029 A 
ATOM     20  N   UNL A   1      40.498  28.732  30.305  1.00  0.00    -0.354 N 
ATOM     21  C   UNL A   1      39.264  31.327  33.525  1.00  0.00     0.074 A 
ATOM     22  C   UNL A   1      38.063  32.059  33.184  1.00  0.00     0.031 C 
ATOM     23  C   UNL A   1      40.383  27.803  28.271  1.00  0.00     0.029 A 
ATOM     24  C   UNL A   1      41.176  27.852  29.494  1.00  0.00     0.049 A 
ATOM     25  H   UNL A   1      40.800  28.975  31.211  1.00  0.00     0.167 HD
ATOM     26  C   UNL A   1      39.937  31.458  34.695  1.00  0.00     0.034 A 
ATOM     27  C   UNL A   1      42.313  27.161  29.704  1.00  0.00     0.034 A 
ATOM     28  C   UNL A   1      41.115  30.705  35.043  1.00  0.00     0.049 A 
ATOM     29  C   UNL A   1      42.997  27.280  31.034  1.00  0.00     0.074 A 
ATOM     30  C   UNL A   1      41.843  30.741  36.220  1.00  0.00     0.029 A 
ATOM     31  N   UNL A   1      41.739  29.781  34.219  1.00  0.00    -0.354 N 
ATOM     32  N   UNL A   1      42.643  27.982  32.082  1.00  0.00    -0.248 NA
ATOM     33  C   UNL A   1      44.222  26.491  31.221  1.00  0.00     0.031 C 
ATOM     34  C   UNL A   1      42.909  29.840  36.106  1.00  0.00     0.029 A 
ATOM     35  C   UNL A   1      42.839  29.237  34.861  1.00  0.00     0.049 A 
ATOM     36  H   UNL A   1      41.443  29.546  33.309  1.00  0.00     0.167 HD
ATOM     37  C   UNL A   1      43.596  27.716  33.055  1.00  0.00     0.074 A 
ATOM     38  C   UNL A   1      44.516  26.750  32.487  1.00  0.00     0.031 C 
ATOM     39  C   UNL A   1      43.720  28.248  34.297  1.00  0.00     0.034 A 
BRANCH  26  40
ATOM     40  C   UNL A   1      39.383  32.409  35.725  1.00  0.00     0.023 A 
ATOM     41  C   UNL A   1      38.403  31.947  36.628  1.00  0.00     0.012 A 
ATOM     42  C   UNL A   1      39.886  33.718  35.864  1.00  0.00     0.148 A 
ATOM     43  C   UNL A   1      37.920  32.777  37.639  1.00  0.00     0.002 A 
ATOM     44  C   UNL A   1      39.425  34.527  36.897  1.00  0.00     0.091 A 
ATOM     45  F   UNL A   1      40.805  34.145  34.985  1.00  0.00    -0.205 F 
ATOM     46  C   UNL A   1      38.438  34.061  37.780  1.00  0.00     0.022 A 
BRANCH  44  47
ATOM     47  S   UNL A   1      40.078  36.173  37.208  1.00  0.00     0.127 S 
ATOM     48  O   UNL A   1      39.826  36.835  35.928  1.00  0.00    -0.237 OA
ATOM     49  O   UNL A   1      39.233  36.636  38.310  1.00  0.00    -0.237 OA
ATOM     50  O   UNL A   1      41.479  35.990  37.554  1.00  0.00    -0.744 OA
ENDBRANCH  44  47
ENDBRANCH  26  40
BRANCH  27  51
ATOM     51  C   UNL A   1      42.829  26.256  28.640  1.00  0.00     0.023 A 
ATOM     52  C   UNL A   1      42.228  24.998  28.442  1.00  0.00     0.012 A 
ATOM     53  C   UNL A   1      43.869  26.663  27.782  1.00  0.00     0.148 A 
ATOM     54  C   UNL A   1      42.670  24.154  27.422  1.00  0.00     0.002 A 
ATOM     55  C   UNL A   1      44.259  25.844  26.729  1.00  0.00     0.091 A 
ATOM     56  F   UNL A   1      44.446  27.853  27.998  1.00  0.00    -0.205 F 
ATOM     57  C   UNL A   1      43.674  24.583  26.556  1.00  0.00     0.022 A 
BRANCH  55  58
ATOM     58  S   UNL A   1      45.424  26.417  25.487  1.00  0.00     0.127 S 
ATOM     59  O   UNL A   1      44.724  27.568  24.926  1.00  0.00    -0.237 OA
ATOM     60  O   UNL A   1      46.603  26.745  26.291  1.00  0.00    -0.237 OA
ATOM     61  O   UNL A   1      45.613  25.278  24.598  1.00  0.00    -0.744 OA
ENDBRANCH  55  58
ENDBRANCH  27  51
BRANCH  39  62
ATOM     62  C   UNL A   1      44.898  27.798  35.117  1.00  0.00     0.023 A 
ATOM     63  C   UNL A   1      46.142  28.438  34.946  1.00  0.00     0.012 A 
ATOM     64  C   UNL A   1      44.772  26.776  36.076  1.00  0.00     0.148 A 
ATOM     65  C   UNL A   1      47.252  28.042  35.691  1.00  0.00     0.002 A 
ATOM     66  C   UNL A   1      45.873  26.415  36.845  1.00  0.00     0.091 A 
ATOM     67  F   UNL A   1      43.587  26.162  36.208  1.00  0.00    -0.205 F 
ATOM     68  C   UNL A   1      47.116  27.038  36.646  1.00  0.00     0.022 A 
BRANCH  66  69
ATOM     69  S   UNL A   1      45.756  25.186  38.150  1.00  0.00     0.127 S 
ATOM     70  O   UNL A   1      44.732  25.767  39.017  1.00  0.00    -0.237 OA
ATOM     71  O   UNL A   1      45.332  23.990  37.422  1.00  0.00    -0.237 OA
ATOM     72  O   UNL A   1      47.093  25.094  38.722  1.00  0.00    -0.744 OA
ENDBRANCH  66  69
ENDBRANCH  39  62
ENDBRANCH  13  14
ENDBRANCH   6   8
ENDBRANCH   3   4
ENDBRANCH   2   3
ENDBRANCH   1   2
BRANCH   1  73
ATOM     73  C   UNL A   1      31.704  27.633  22.831  1.00  0.00     0.002 C 
BRANCH  73  74
ATOM     74  C   UNL A   1      30.179  27.571  22.957  1.00  0.00     0.021 C 
BRANCH  74  75
ATOM     75  C   UNL A   1      29.620  26.591  23.982  1.00  0.00     0.116 C 
BRANCH  75  76
ATOM     76  N   UNL A   1      30.315  26.623  25.250  1.00  0.00    -0.356 N 
ATOM     77  C   UNL A   1      31.134  25.712  25.841  1.00  0.00     0.229 C 
ATOM     78  H   UNL A   1      30.171  27.444  25.773  1.00  0.00     0.163 HD
ATOM     79  O   UNL A   1      31.663  26.053  26.907  1.00  0.00    -0.274 OA
BRANCH  77  80
ATOM     80  C   UNL A   1      31.402  24.321  25.270  1.00  0.00     0.127 C 
ATOM     81  C   UNL A   1      31.307  23.120  26.234  1.00  0.00     0.042 C 
ATOM     82  C   UNL A   1      32.765  24.198  24.699  1.00  0.00     0.031 A 
ATOM     83  C   UNL A   1      32.649  22.359  26.147  1.00  0.00     0.124 C 
ATOM     84  N   UNL A   1      33.435  23.107  25.181  1.00  0.00    -0.341 N 
ATOM     85  C   UNL A   1      33.561  24.836  23.790  1.00  0.00     0.025 A 
ATOM     86  C   UNL A   1      34.687  23.017  24.646  1.00  0.00     0.090 A 
ATOM     87  C   UNL A   1      34.768  24.095  23.757  1.00  0.00     0.032 A 
BRANCH  86  88
ATOM     88  C   UNL A   1      35.774  22.082  24.901  1.00  0.00     0.209 C 
ATOM     89  O   UNL A   1      35.710  20.893  24.589  1.00  0.00    -0.287 OA
BRANCH  88  90
ATOM     90  C   UNL A   1      37.045  22.516  25.512  1.00  0.00     0.024 A 
ATOM     91  C   UNL A   1      38.092  21.591  25.595  1.00  0.00     0.012 A 
ATOM     92  C   UNL A   1      37.177  23.786  26.079  1.00  0.00     0.012 A 
ATOM     93  C   UNL A   1      39.295  21.960  26.197  1.00  0.00     0.001 A 
ATOM     94  C   UNL A   1      38.388  24.155  26.667  1.00  0.00     0.001 A 
ATOM     95  C   UNL A   1      39.446  23.246  26.720  1.00  0.00     0.000 A 
ENDBRANCH  88  90
ENDBRANCH  86  88
ENDBRANCH  77  80
ENDBRANCH  75  76
ENDBRANCH  74  75
ENDBRANCH  73  74
ENDBRANCH   1  73
TORSDOF 18
ENDMDL
MODEL 3
REMARK VINA RESULT:     -12.3      5.464      8.773
REMARK SMILES O=C(NCCCCCCNC(=O)[C@@H]1CCn2c(C(=O)c3ccccc3)ccc21)c1ccc(-c2c3nc(c(-c4cccc(S(=O)(=O)[O-])c4F)c4ccc([nH]4)c(-c4cccc(S(=O)(=O)[O-])c4F)c4nc(c(-c5cccc(S(=O)(=O)[O-])c5F)c5ccc2[nH]5)C=C4)C=C3)cc1
REMARK SMILES IDX 6 1 5 2 4 3 3 4 1 5 2 6 29 8 30 9 91 10 31 11 90 12 32 13
REMARK SMILES IDX 33 14 34 15 84 16 35 17 89 18 83 19 85 20 36 21 88 22 82 23
REMARK SMILES IDX 81 24 37 26 69 27 49 28 68 29 50 30 53 31 67 32 86 33 51 34
REMARK SMILES IDX 52 35 66 37 87 38 54 39 38 40 39 41 47 42 40 43 42 44 48 45
REMARK SMILES IDX 41 46 43 47 44 48 45 49 46 50 70 51 71 52 79 53 72 54 74 55
REMARK SMILES IDX 80 56 73 57 75 58 76 59 77 60 78 61 55 62 56 63 64 64 57 65
REMARK SMILES IDX 59 66 65 67 58 68 60 69 61 70 62 71 63 72 7 73 8 74 9 75
REMARK SMILES IDX 10 76 11 77 12 79 13 80 14 81 28 82 15 83 16 84 27 85 17 86
REMARK SMILES IDX 26 87 18 88 19 89 20 90 21 91 25 92 22 93 24 94 23 95
REMARK H PARENT 3 7 85 25 53 36 10 78
REMARK Flexibility Score: inf
ROOT
ATOM      1  C   UNL A   1      37.343  20.741  24.556  1.00  0.00     0.002 C 
ENDROOT
BRANCH   1   2
ATOM      2  C   UNL A   1      38.263  19.630  25.058  1.00  0.00     0.021 C 
BRANCH   2   3
ATOM      3  C   UNL A   1      39.289  20.038  26.105  1.00  0.00     0.116 C 
BRANCH   3   4
ATOM      4  N   UNL A   1      40.419  19.132  26.198  1.00  0.00    -0.352 N 
ATOM      5  O   UNL A   1      42.590  18.537  26.307  1.00  0.00    -0.269 OA
ATOM      6  C   UNL A   1      41.755  19.431  26.354  1.00  0.00     0.251 C 
ATOM      7  H   UNL A   1      40.200  18.173  26.140  1.00  0.00     0.163 HD
BRANCH   6   8
ATOM      8  C   UNL A   1      42.175  20.842  26.536  1.00  0.00     0.039 A 
ATOM      9  C   UNL A   1      42.411  21.359  27.811  1.00  0.00     0.014 A 
ATOM     10  C   UNL A   1      42.318  21.664  25.414  1.00  0.00     0.014 A 
ATOM     11  C   UNL A   1      42.631  22.722  27.975  1.00  0.00     0.010 A 
ATOM     12  C   UNL A   1      42.634  23.019  25.577  1.00  0.00     0.010 A 
ATOM     13  C   UNL A   1      42.758  23.569  26.861  1.00  0.00    -0.014 A 
BRANCH  13  14
ATOM     14  C   UNL A   1      43.105  24.998  27.085  1.00  0.00     0.031 A 
ATOM     15  C   UNL A   1      42.168  25.946  27.782  1.00  0.00     0.074 A 
ATOM     16  C   UNL A   1      44.317  25.427  26.677  1.00  0.00     0.049 A 
ATOM     17  N   UNL A   1      42.377  27.190  28.135  1.00  0.00    -0.248 NA
ATOM     18  C   UNL A   1      40.828  25.446  28.125  1.00  0.00     0.031 C 
ATOM     19  C   UNL A   1      45.284  24.619  25.929  1.00  0.00     0.029 A 
ATOM     20  N   UNL A   1      44.950  26.631  26.841  1.00  0.00    -0.354 N 
ATOM     21  C   UNL A   1      41.192  27.631  28.712  1.00  0.00     0.074 A 
ATOM     22  C   UNL A   1      40.261  26.525  28.652  1.00  0.00     0.031 C 
ATOM     23  C   UNL A   1      46.402  25.331  25.738  1.00  0.00     0.029 A 
ATOM     24  C   UNL A   1      46.219  26.661  26.308  1.00  0.00     0.049 A 
ATOM     25  H   UNL A   1      44.538  27.401  27.298  1.00  0.00     0.167 HD
ATOM     26  C   UNL A   1      40.913  28.840  29.258  1.00  0.00     0.034 A 
ATOM     27  C   UNL A   1      47.135  27.647  26.277  1.00  0.00     0.034 A 
ATOM     28  C   UNL A   1      41.853  29.929  29.342  1.00  0.00     0.049 A 
ATOM     29  C   UNL A   1      46.819  28.952  26.947  1.00  0.00     0.074 A 
ATOM     30  C   UNL A   1      41.675  31.178  29.912  1.00  0.00     0.029 A 
ATOM     31  N   UNL A   1      43.147  29.901  28.843  1.00  0.00    -0.354 N 
ATOM     32  N   UNL A   1      45.737  29.301  27.599  1.00  0.00    -0.248 NA
ATOM     33  C   UNL A   1      47.859  29.988  26.902  1.00  0.00     0.031 C 
ATOM     34  C   UNL A   1      42.860  31.906  29.755  1.00  0.00     0.029 A 
ATOM     35  C   UNL A   1      43.780  31.108  29.095  1.00  0.00     0.049 A 
ATOM     36  H   UNL A   1      43.556  29.137  28.377  1.00  0.00     0.167 HD
ATOM     37  C   UNL A   1      45.967  30.595  28.047  1.00  0.00     0.074 A 
ATOM     38  C   UNL A   1      47.311  30.948  27.634  1.00  0.00     0.031 C 
ATOM     39  C   UNL A   1      45.130  31.429  28.712  1.00  0.00     0.034 A 
BRANCH  26  40
ATOM     40  C   UNL A   1      39.552  29.040  29.873  1.00  0.00     0.023 A 
ATOM     41  C   UNL A   1      39.322  28.596  31.191  1.00  0.00     0.012 A 
ATOM     42  C   UNL A   1      38.534  29.741  29.194  1.00  0.00     0.148 A 
ATOM     43  C   UNL A   1      38.099  28.828  31.817  1.00  0.00     0.002 A 
ATOM     44  C   UNL A   1      37.329  29.999  29.838  1.00  0.00     0.091 A 
ATOM     45  F   UNL A   1      38.765  30.140  27.935  1.00  0.00    -0.205 F 
ATOM     46  C   UNL A   1      37.107  29.538  31.146  1.00  0.00     0.022 A 
BRANCH  44  47
ATOM     47  S   UNL A   1      36.012  30.965  29.087  1.00  0.00     0.127 S 
ATOM     48  O   UNL A   1      35.185  31.288  30.249  1.00  0.00    -0.237 OA
ATOM     49  O   UNL A   1      36.745  32.100  28.525  1.00  0.00    -0.237 OA
ATOM     50  O   UNL A   1      35.391  30.095  28.098  1.00  0.00    -0.744 OA
ENDBRANCH  44  47
ENDBRANCH  26  40
BRANCH  27  51
ATOM     51  C   UNL A   1      48.455  27.402  25.631  1.00  0.00     0.023 A 
ATOM     52  C   UNL A   1      49.530  26.922  26.403  1.00  0.00     0.012 A 
ATOM     53  C   UNL A   1      48.631  27.581  24.246  1.00  0.00     0.148 A 
ATOM     54  C   UNL A   1      50.762  26.646  25.809  1.00  0.00     0.002 A 
ATOM     55  C   UNL A   1      49.840  27.242  23.651  1.00  0.00     0.091 A 
ATOM     56  F   UNL A   1      47.604  28.061  23.528  1.00  0.00    -0.205 F 
ATOM     57  C   UNL A   1      50.913  26.791  24.431  1.00  0.00     0.022 A 
BRANCH  55  58
ATOM     58  S   UNL A   1      50.032  27.248  21.865  1.00  0.00     0.127 S 
ATOM     59  O   UNL A   1      51.369  26.687  21.704  1.00  0.00    -0.237 OA
ATOM     60  O   UNL A   1      48.940  26.375  21.429  1.00  0.00    -0.237 OA
ATOM     61  O   UNL A   1      49.864  28.643  21.475  1.00  0.00    -0.744 OA
ENDBRANCH  55  58
ENDBRANCH  27  51
BRANCH  39  62
ATOM     62  C   UNL A   1      45.646  32.807  29.026  1.00  0.00     0.023 A 
ATOM     63  C   UNL A   1      46.353  33.021  30.226  1.00  0.00     0.012 A 
ATOM     64  C   UNL A   1      45.467  33.875  28.128  1.00  0.00     0.148 A 
ATOM     65  C   UNL A   1      46.842  34.287  30.545  1.00  0.00     0.002 A 
ATOM     66  C   UNL A   1      45.993  35.126  28.434  1.00  0.00     0.091 A 
ATOM     67  F   UNL A   1      44.770  33.658  27.003  1.00  0.00    -0.205 F 
ATOM     68  C   UNL A   1      46.671  35.336  29.645  1.00  0.00     0.022 A 
BRANCH  66  69
ATOM     69  S   UNL A   1      45.882  36.506  27.290  1.00  0.00     0.127 S 
ATOM     70  O   UNL A   1      46.600  37.554  28.013  1.00  0.00    -0.237 OA
ATOM     71  O   UNL A   1      46.578  35.995  26.108  1.00  0.00    -0.237 OA
ATOM     72  O   UNL A   1      44.457  36.736  27.090  1.00  0.00    -0.744 OA
ENDBRANCH  66  69
ENDBRANCH  39  62
ENDBRANCH  13  14
ENDBRANCH   6   8
ENDBRANCH   3   4
ENDBRANCH   2   3
ENDBRANCH   1   2
BRANCH   1  73
ATOM     73  C   UNL A   1      35.899  20.713  25.063  1.00  0.00     0.002 C 
BRANCH  73  74
ATOM     74  C   UNL A   1      35.524  21.731  26.144  1.00  0.00     0.021 C 
BRANCH  74  75
ATOM     75  C   UNL A   1      34.151  21.567  26.787  1.00  0.00     0.116 C 
BRANCH  75  76
ATOM     76  N   UNL A   1      33.452  20.376  26.357  1.00  0.00    -0.356 N 
ATOM     77  C   UNL A   1      32.548  20.184  25.359  1.00  0.00     0.229 C 
ATOM     78  H   UNL A   1      33.667  19.568  26.876  1.00  0.00     0.163 HD
ATOM     79  O   UNL A   1      32.176  19.020  25.165  1.00  0.00    -0.274 OA
BRANCH  77  80
ATOM     80  C   UNL A   1      31.978  21.316  24.507  1.00  0.00     0.127 C 
ATOM     81  C   UNL A   1      32.935  22.028  23.527  1.00  0.00     0.042 C 
ATOM     82  C   UNL A   1      31.438  22.426  25.329  1.00  0.00     0.031 A 
ATOM     83  C   UNL A   1      32.875  23.538  23.850  1.00  0.00     0.124 C 
ATOM     84  N   UNL A   1      31.931  23.643  24.948  1.00  0.00    -0.341 N 
ATOM     85  C   UNL A   1      30.550  22.611  26.351  1.00  0.00     0.025 A 
ATOM     86  C   UNL A   1      31.424  24.648  25.720  1.00  0.00     0.090 A 
ATOM     87  C   UNL A   1      30.542  24.006  26.598  1.00  0.00     0.032 A 
BRANCH  86  88
ATOM     88  C   UNL A   1      31.701  26.078  25.737  1.00  0.00     0.209 C 
ATOM     89  O   UNL A   1      32.569  26.574  26.456  1.00  0.00    -0.287 OA
BRANCH  88  90
ATOM     90  C   UNL A   1      30.985  27.018  24.854  1.00  0.00     0.024 A 
ATOM     91  C   UNL A   1      31.375  28.362  24.859  1.00  0.00     0.012 A 
ATOM     92  C   UNL A   1      29.884  26.605  24.101  1.00  0.00     0.012 A 
ATOM     93  C   UNL A   1      30.697  29.282  24.061  1.00  0.00     0.001 A 
ATOM     94  C   UNL A   1      29.217  27.527  23.292  1.00  0.00     0.001 A 
ATOM     95  C   UNL A   1      29.627  28.861  23.269  1.00  0.00     0.000 A 
ENDBRANCH  88  90
ENDBRANCH  86  88
ENDBRANCH  77  80
ENDBRANCH  75  76
ENDBRANCH  74  75
ENDBRANCH  73  74
ENDBRANCH   1  73
TORSDOF 18
ENDMDL
