MODEL 1
REMARK VINA RESULT:     -11.4      0.000      0.000
REMARK SMILES CCn1cc(CNC(=O)[C@H]2CC=CC[C@@H]2C(=O)NCCCCCCNC(=O)c2ccc(-c3c4nc(c(-c5cccc(S(=O)(=O)[O-])c5F)c5ccc([nH]5)c(-c5cccc(S(=O)(=O)[O-])c5F)c5nc(c(-c6cccc(S(=O)(=O)[O-])c6F)c6ccc3[nH]6)C=C5)C=C4)cc2)cn1
REMARK SMILES IDX 21 1 20 2 19 3 18 4 16 5 17 6 15 8 10 9 11 10 12 11 14 12
REMARK SMILES IDX 13 13 8 14 7 15 9 17 6 18 5 19 3 20 4 21 92 22 91 23 2 24
REMARK SMILES IDX 1 25 22 26 23 27 24 28 25 29 26 30 27 32 28 33 29 34 90 35
REMARK SMILES IDX 30 36 89 37 31 38 32 39 33 40 83 41 34 42 88 43 82 44 84 45
REMARK SMILES IDX 35 46 87 47 81 48 80 49 36 51 68 52 48 53 67 54 49 55 52 56
REMARK SMILES IDX 66 57 85 58 50 59 51 60 65 62 86 63 53 64 37 65 38 66 46 67
REMARK SMILES IDX 39 68 41 69 47 70 40 71 42 72 43 73 44 74 45 75 69 76 70 77
REMARK SMILES IDX 78 78 71 79 73 80 79 81 72 82 74 83 75 84 76 85 77 86 54 87
REMARK SMILES IDX 55 88 63 89 56 90 58 91 64 92 57 93 59 94 60 95 61 96 62 97
REMARK H PARENT 18 7 7 16 25 31 84 50 52 61
REMARK Flexibility Score: inf
ROOT
ATOM      1  C   UNL A   1      34.666  19.130  24.755  1.00  0.00     0.002 C 
ENDROOT
BRANCH   1   2
ATOM      2  C   UNL A   1      33.462  19.926  24.250  1.00  0.00     0.021 C 
BRANCH   2   3
ATOM      3  C   UNL A   1      32.467  20.281  25.346  1.00  0.00     0.116 C 
BRANCH   3   4
ATOM      4  N   UNL A   1      33.021  21.191  26.318  1.00  0.00    -0.356 N 
ATOM      5  C   UNL A   1      33.287  22.524  26.261  1.00  0.00     0.224 C 
ATOM      6  O   UNL A   1      33.665  23.029  27.324  1.00  0.00    -0.275 OA
ATOM      7  H   UNL A   1      33.247  20.771  27.180  1.00  0.00     0.163 HD
BRANCH   5   8
ATOM      8  C   UNL A   1      32.989  23.370  25.009  1.00  0.00     0.095 C 
ATOM      9  C   UNL A   1      33.625  24.779  24.978  1.00  0.00     0.095 C 
ATOM     10  C   UNL A   1      33.014  25.688  26.067  1.00  0.00     0.041 C 
ATOM     11  C   UNL A   1      31.534  25.517  26.256  1.00  0.00    -0.030 C 
ATOM     12  C   UNL A   1      31.457  23.489  24.810  1.00  0.00     0.041 C 
ATOM     13  C   UNL A   1      30.825  24.544  25.670  1.00  0.00    -0.030 C 
BRANCH   9  14
ATOM     14  C   UNL A   1      33.503  25.399  23.576  1.00  0.00     0.224 C 
ATOM     15  N   UNL A   1      33.617  26.747  23.391  1.00  0.00    -0.352 N 
ATOM     16  H   UNL A   1      33.541  27.034  22.452  1.00  0.00     0.163 HD
ATOM     17  O   UNL A   1      33.333  24.725  22.559  1.00  0.00    -0.275 OA
BRANCH  15  18
ATOM     18  C   UNL A   1      33.831  27.826  24.320  1.00  0.00     0.155 C 
BRANCH  18  19
ATOM     19  C   UNL A   1      32.639  28.710  24.372  1.00  0.00     0.009 A 
ATOM     20  N   UNL A   1      30.697  29.676  23.983  1.00  0.00    -0.273 N 
ATOM     21  C   UNL A   1      31.559  28.728  23.512  1.00  0.00     0.114 A 
ATOM     22  N   UNL A   1      31.126  30.255  25.122  1.00  0.00    -0.181 NA
ATOM     23  C   UNL A   1      32.307  29.677  25.348  1.00  0.00     0.140 A 
BRANCH  20  24
ATOM     24  C   UNL A   1      29.437  30.125  23.423  1.00  0.00     0.141 C 
ATOM     25  C   UNL A   1      29.379  30.229  21.907  1.00  0.00     0.029 C 
ENDBRANCH  20  24
ENDBRANCH  18  19
ENDBRANCH  15  18
ENDBRANCH   9  14
ENDBRANCH   5   8
ENDBRANCH   3   4
ENDBRANCH   2   3
ENDBRANCH   1   2
BRANCH   1  26
ATOM     26  C   UNL A   1      35.959  19.935  24.953  1.00  0.00     0.002 C 
BRANCH  26  27
ATOM     27  C   UNL A   1      37.273  19.137  24.975  1.00  0.00     0.021 C 
BRANCH  27  28
ATOM     28  C   UNL A   1      38.500  19.974  25.303  1.00  0.00     0.116 C 
BRANCH  28  29
ATOM     29  N   UNL A   1      39.673  19.136  25.552  1.00  0.00    -0.352 N 
ATOM     30  C   UNL A   1      40.945  19.499  25.954  1.00  0.00     0.251 C 
ATOM     31  H   UNL A   1      39.537  18.171  25.413  1.00  0.00     0.163 HD
ATOM     32  O   UNL A   1      41.888  18.745  25.787  1.00  0.00    -0.269 OA
BRANCH  30  33
ATOM     33  C   UNL A   1      41.138  20.812  26.596  1.00  0.00     0.039 A 
ATOM     34  C   UNL A   1      40.818  21.013  27.943  1.00  0.00     0.014 A 
ATOM     35  C   UNL A   1      41.655  21.845  25.823  1.00  0.00     0.014 A 
ATOM     36  C   UNL A   1      41.093  22.250  28.521  1.00  0.00     0.010 A 
ATOM     37  C   UNL A   1      42.078  22.997  26.428  1.00  0.00     0.010 A 
ATOM     38  C   UNL A   1      41.732  23.231  27.755  1.00  0.00    -0.014 A 
BRANCH  38  39
ATOM     39  C   UNL A   1      42.151  24.502  28.332  1.00  0.00     0.031 A 
ATOM     40  C   UNL A   1      41.208  25.627  28.092  1.00  0.00     0.074 A 
ATOM     41  C   UNL A   1      43.135  24.558  29.254  1.00  0.00     0.049 A 
ATOM     42  N   UNL A   1      41.393  26.684  27.374  1.00  0.00    -0.248 NA
ATOM     43  C   UNL A   1      39.827  25.471  28.575  1.00  0.00     0.031 C 
ATOM     44  C   UNL A   1      43.875  23.429  29.838  1.00  0.00     0.029 A 
ATOM     45  N   UNL A   1      43.550  25.609  30.010  1.00  0.00    -0.354 N 
ATOM     46  C   UNL A   1      40.236  27.449  27.535  1.00  0.00     0.074 A 
ATOM     47  C   UNL A   1      39.242  26.539  28.031  1.00  0.00     0.031 C 
ATOM     48  C   UNL A   1      44.418  23.809  31.012  1.00  0.00     0.029 A 
ATOM     49  C   UNL A   1      44.216  25.235  31.175  1.00  0.00     0.049 A 
ATOM     50  H   UNL A   1      43.394  26.547  29.757  1.00  0.00     0.167 HD
ATOM     51  C   UNL A   1      40.289  28.813  27.547  1.00  0.00     0.034 A 
ATOM     52  C   UNL A   1      44.518  26.032  32.227  1.00  0.00     0.034 A 
ATOM     53  C   UNL A   1      41.576  29.270  27.067  1.00  0.00     0.049 A 
ATOM     54  C   UNL A   1      44.437  27.430  31.751  1.00  0.00     0.074 A 
ATOM     55  C   UNL A   1      42.313  29.115  25.911  1.00  0.00     0.029 A 
ATOM     56  N   UNL A   1      42.462  29.704  28.026  1.00  0.00    -0.354 N 
ATOM     57  N   UNL A   1      45.247  27.938  30.865  1.00  0.00    -0.248 NA
ATOM     58  C   UNL A   1      43.188  28.148  31.942  1.00  0.00     0.031 C 
ATOM     59  C   UNL A   1      43.670  29.031  26.345  1.00  0.00     0.029 A 
ATOM     60  C   UNL A   1      43.699  29.207  27.731  1.00  0.00     0.049 A 
ATOM     61  H   UNL A   1      42.242  30.276  28.796  1.00  0.00     0.167 HD
ATOM     62  C   UNL A   1      44.429  28.729  30.068  1.00  0.00     0.074 A 
ATOM     63  C   UNL A   1      43.215  28.929  30.858  1.00  0.00     0.031 C 
ATOM     64  C   UNL A   1      44.689  28.882  28.735  1.00  0.00     0.034 A 
BRANCH  51  65
ATOM     65  C   UNL A   1      39.414  29.739  28.397  1.00  0.00     0.023 A 
ATOM     66  C   UNL A   1      39.816  29.915  29.745  1.00  0.00     0.012 A 
ATOM     67  C   UNL A   1      38.113  30.188  28.075  1.00  0.00     0.148 A 
ATOM     68  C   UNL A   1      38.932  30.354  30.736  1.00  0.00     0.002 A 
ATOM     69  C   UNL A   1      37.249  30.670  29.053  1.00  0.00     0.091 A 
ATOM     70  F   UNL A   1      37.646  30.088  26.834  1.00  0.00    -0.205 F 
ATOM     71  C   UNL A   1      37.638  30.715  30.393  1.00  0.00     0.022 A 
BRANCH  69  72
ATOM     72  S   UNL A   1      35.569  31.187  28.659  1.00  0.00     0.127 S 
ATOM     73  O   UNL A   1      35.075  31.584  29.974  1.00  0.00    -0.237 OA
ATOM     74  O   UNL A   1      35.810  32.287  27.726  1.00  0.00    -0.237 OA
ATOM     75  O   UNL A   1      34.922  30.026  28.062  1.00  0.00    -0.744 OA
ENDBRANCH  69  72
ENDBRANCH  51  65
BRANCH  52  76
ATOM     76  C   UNL A   1      44.652  25.698  33.663  1.00  0.00     0.023 A 
ATOM     77  C   UNL A   1      45.924  25.413  34.195  1.00  0.00     0.012 A 
ATOM     78  C   UNL A   1      43.587  25.922  34.564  1.00  0.00     0.148 A 
ATOM     79  C   UNL A   1      46.140  25.388  35.578  1.00  0.00     0.002 A 
ATOM     80  C   UNL A   1      43.803  25.887  35.938  1.00  0.00     0.091 A 
ATOM     81  F   UNL A   1      42.387  26.261  34.075  1.00  0.00    -0.205 F 
ATOM     82  C   UNL A   1      45.082  25.634  36.450  1.00  0.00     0.022 A 
BRANCH  80  83
ATOM     83  S   UNL A   1      42.491  26.223  37.122  1.00  0.00     0.127 S 
ATOM     84  O   UNL A   1      41.693  24.999  37.043  1.00  0.00    -0.237 OA
ATOM     85  O   UNL A   1      43.243  26.388  38.362  1.00  0.00    -0.237 OA
ATOM     86  O   UNL A   1      41.809  27.416  36.634  1.00  0.00    -0.744 OA
ENDBRANCH  80  83
ENDBRANCH  52  76
BRANCH  64  87
ATOM     87  C   UNL A   1      46.034  28.439  28.218  1.00  0.00     0.023 A 
ATOM     88  C   UNL A   1      47.194  29.234  28.337  1.00  0.00     0.012 A 
ATOM     89  C   UNL A   1      46.162  27.117  27.764  1.00  0.00     0.148 A 
ATOM     90  C   UNL A   1      48.449  28.724  27.994  1.00  0.00     0.002 A 
ATOM     91  C   UNL A   1      47.416  26.598  27.471  1.00  0.00     0.091 A 
ATOM     92  F   UNL A   1      45.049  26.374  27.655  1.00  0.00    -0.205 F 
ATOM     93  C   UNL A   1      48.562  27.401  27.576  1.00  0.00     0.022 A 
BRANCH  91  94
ATOM     94  S   UNL A   1      47.634  24.866  27.060  1.00  0.00     0.127 S 
ATOM     95  O   UNL A   1      47.348  24.853  25.627  1.00  0.00    -0.237 OA
ATOM     96  O   UNL A   1      49.037  24.632  27.406  1.00  0.00    -0.237 OA
ATOM     97  O   UNL A   1      46.690  24.135  27.897  1.00  0.00    -0.744 OA
ENDBRANCH  91  94
ENDBRANCH  64  87
ENDBRANCH  38  39
ENDBRANCH  30  33
ENDBRANCH  28  29
ENDBRANCH  27  28
ENDBRANCH  26  27
ENDBRANCH   1  26
TORSDOF 20
ENDMDL
MODEL 2
REMARK VINA RESULT:     -11.3      2.238      2.676
REMARK SMILES CCn1cc(CNC(=O)[C@H]2CC=CC[C@@H]2C(=O)NCCCCCCNC(=O)c2ccc(-c3c4nc(c(-c5cccc(S(=O)(=O)[O-])c5F)c5ccc([nH]5)c(-c5cccc(S(=O)(=O)[O-])c5F)c5nc(c(-c6cccc(S(=O)(=O)[O-])c6F)c6ccc3[nH]6)C=C5)C=C4)cc2)cn1
REMARK SMILES IDX 21 1 20 2 19 3 18 4 16 5 17 6 15 8 10 9 11 10 12 11 14 12
REMARK SMILES IDX 13 13 8 14 7 15 9 17 6 18 5 19 3 20 4 21 92 22 91 23 2 24
REMARK SMILES IDX 1 25 22 26 23 27 24 28 25 29 26 30 27 32 28 33 29 34 90 35
REMARK SMILES IDX 30 36 89 37 31 38 32 39 33 40 83 41 34 42 88 43 82 44 84 45
REMARK SMILES IDX 35 46 87 47 81 48 80 49 36 51 68 52 48 53 67 54 49 55 52 56
REMARK SMILES IDX 66 57 85 58 50 59 51 60 65 62 86 63 53 64 37 65 38 66 46 67
REMARK SMILES IDX 39 68 41 69 47 70 40 71 42 72 43 73 44 74 45 75 69 76 70 77
REMARK SMILES IDX 78 78 71 79 73 80 79 81 72 82 74 83 75 84 76 85 77 86 54 87
REMARK SMILES IDX 55 88 63 89 56 90 58 91 64 92 57 93 59 94 60 95 61 96 62 97
REMARK H PARENT 18 7 7 16 25 31 84 50 52 61
REMARK Flexibility Score: inf
ROOT
ATOM      1  C   UNL A   1      33.722  19.147  25.027  1.00  0.00     0.002 C 
ENDROOT
BRANCH   1   2
ATOM      2  C   UNL A   1      32.780  19.234  23.825  1.00  0.00     0.021 C 
BRANCH   2   3
ATOM      3  C   UNL A   1      32.001  20.541  23.759  1.00  0.00     0.116 C 
BRANCH   3   4
ATOM      4  N   UNL A   1      32.791  21.626  23.231  1.00  0.00    -0.356 N 
ATOM      5  C   UNL A   1      32.837  22.948  23.546  1.00  0.00     0.224 C 
ATOM      6  O   UNL A   1      33.717  23.595  22.967  1.00  0.00    -0.275 OA
ATOM      7  H   UNL A   1      33.409  21.360  22.512  1.00  0.00     0.163 HD
BRANCH   5   8
ATOM      8  C   UNL A   1      31.962  23.561  24.654  1.00  0.00     0.095 C 
ATOM      9  C   UNL A   1      32.423  24.933  25.200  1.00  0.00     0.095 C 
ATOM     10  C   UNL A   1      33.764  24.807  25.956  1.00  0.00     0.041 C 
ATOM     11  C   UNL A   1      33.888  23.567  26.793  1.00  0.00    -0.030 C 
ATOM     12  C   UNL A   1      31.824  22.557  25.827  1.00  0.00     0.041 C 
ATOM     13  C   UNL A   1      33.002  22.563  26.757  1.00  0.00    -0.030 C 
BRANCH   9  14
ATOM     14  C   UNL A   1      31.327  25.566  26.073  1.00  0.00     0.224 C 
ATOM     15  N   UNL A   1      31.144  26.920  26.099  1.00  0.00    -0.352 N 
ATOM     16  H   UNL A   1      30.405  27.216  26.677  1.00  0.00     0.163 HD
ATOM     17  O   UNL A   1      30.549  24.902  26.758  1.00  0.00    -0.275 OA
BRANCH  15  18
ATOM     18  C   UNL A   1      31.836  27.992  25.432  1.00  0.00     0.155 C 
BRANCH  18  19
ATOM     19  C   UNL A   1      31.131  28.366  24.181  1.00  0.00     0.009 A 
ATOM     20  N   UNL A   1      30.061  29.461  22.595  1.00  0.00    -0.273 N 
ATOM     21  C   UNL A   1      30.546  29.576  23.866  1.00  0.00     0.114 A 
ATOM     22  N   UNL A   1      30.328  28.263  22.040  1.00  0.00    -0.181 NA
ATOM     23  C   UNL A   1      30.965  27.598  23.006  1.00  0.00     0.140 A 
BRANCH  20  24
ATOM     24  C   UNL A   1      29.316  30.426  21.810  1.00  0.00     0.141 C 
ATOM     25  C   UNL A   1      27.876  30.058  21.490  1.00  0.00     0.029 C 
ENDBRANCH  20  24
ENDBRANCH  18  19
ENDBRANCH  15  18
ENDBRANCH   9  14
ENDBRANCH   5   8
ENDBRANCH   3   4
ENDBRANCH   2   3
ENDBRANCH   1   2
BRANCH   1  26
ATOM     26  C   UNL A   1      35.207  19.401  24.726  1.00  0.00     0.002 C 
BRANCH  26  27
ATOM     27  C   UNL A   1      35.772  20.768  25.145  1.00  0.00     0.021 C 
BRANCH  27  28
ATOM     28  C   UNL A   1      37.248  20.953  24.826  1.00  0.00     0.116 C 
BRANCH  28  29
ATOM     29  N   UNL A   1      38.025  19.758  25.158  1.00  0.00    -0.352 N 
ATOM     30  C   UNL A   1      39.293  19.657  25.697  1.00  0.00     0.251 C 
ATOM     31  H   UNL A   1      37.579  18.902  24.970  1.00  0.00     0.163 HD
ATOM     32  O   UNL A   1      39.929  18.621  25.596  1.00  0.00    -0.269 OA
BRANCH  30  33
ATOM     33  C   UNL A   1      39.860  20.820  26.403  1.00  0.00     0.039 A 
ATOM     34  C   UNL A   1      40.866  20.664  27.362  1.00  0.00     0.014 A 
ATOM     35  C   UNL A   1      39.368  22.080  26.082  1.00  0.00     0.014 A 
ATOM     36  C   UNL A   1      41.422  21.801  27.944  1.00  0.00     0.010 A 
ATOM     37  C   UNL A   1      40.025  23.195  26.524  1.00  0.00     0.010 A 
ATOM     38  C   UNL A   1      40.999  23.062  27.509  1.00  0.00    -0.014 A 
BRANCH  38  39
ATOM     39  C   UNL A   1      41.622  24.288  27.991  1.00  0.00     0.031 A 
ATOM     40  C   UNL A   1      40.685  25.432  28.150  1.00  0.00     0.074 A 
ATOM     41  C   UNL A   1      42.857  24.275  28.536  1.00  0.00     0.049 A 
ATOM     42  N   UNL A   1      40.651  26.535  27.478  1.00  0.00    -0.248 NA
ATOM     43  C   UNL A   1      39.537  25.252  29.053  1.00  0.00     0.031 C 
ATOM     44  C   UNL A   1      43.716  23.105  28.769  1.00  0.00     0.029 A 
ATOM     45  N   UNL A   1      43.528  25.270  29.175  1.00  0.00    -0.354 N 
ATOM     46  C   UNL A   1      39.635  27.293  28.062  1.00  0.00     0.074 A 
ATOM     47  C   UNL A   1      38.836  26.358  28.802  1.00  0.00     0.031 C 
ATOM     48  C   UNL A   1      44.628  23.400  29.717  1.00  0.00     0.029 A 
ATOM     49  C   UNL A   1      44.531  24.813  30.026  1.00  0.00     0.049 A 
ATOM     50  H   UNL A   1      43.323  26.224  29.047  1.00  0.00     0.167 HD
ATOM     51  C   UNL A   1      39.727  28.654  28.141  1.00  0.00     0.034 A 
ATOM     52  C   UNL A   1      45.188  25.534  30.966  1.00  0.00     0.034 A 
ATOM     53  C   UNL A   1      40.795  29.135  27.290  1.00  0.00     0.049 A 
ATOM     54  C   UNL A   1      44.993  26.962  30.631  1.00  0.00     0.074 A 
ATOM     55  C   UNL A   1      41.103  29.054  25.947  1.00  0.00     0.029 A 
ATOM     56  N   UNL A   1      41.961  29.496  27.924  1.00  0.00    -0.354 N 
ATOM     57  N   UNL A   1      45.478  27.525  29.560  1.00  0.00    -0.248 NA
ATOM     58  C   UNL A   1      43.898  27.673  31.271  1.00  0.00     0.031 C 
ATOM     59  C   UNL A   1      42.524  28.932  25.899  1.00  0.00     0.029 A 
ATOM     60  C   UNL A   1      43.016  29.013  27.204  1.00  0.00     0.049 A 
ATOM     61  H   UNL A   1      42.024  30.016  28.758  1.00  0.00     0.167 HD
ATOM     62  C   UNL A   1      44.465  28.373  29.131  1.00  0.00     0.074 A 
ATOM     63  C   UNL A   1      43.587  28.526  30.291  1.00  0.00     0.031 C 
ATOM     64  C   UNL A   1      44.273  28.615  27.800  1.00  0.00     0.034 A 
BRANCH  51  65
ATOM     65  C   UNL A   1      39.210  29.524  29.289  1.00  0.00     0.023 A 
ATOM     66  C   UNL A   1      38.474  30.677  28.918  1.00  0.00     0.012 A 
ATOM     67  C   UNL A   1      39.633  29.467  30.637  1.00  0.00     0.148 A 
ATOM     68  C   UNL A   1      38.311  31.767  29.778  1.00  0.00     0.002 A 
ATOM     69  C   UNL A   1      39.428  30.534  31.508  1.00  0.00     0.091 A 
ATOM     70  F   UNL A   1      40.313  28.419  31.094  1.00  0.00    -0.205 F 
ATOM     71  C   UNL A   1      38.806  31.704  31.071  1.00  0.00     0.022 A 
BRANCH  69  72
ATOM     72  S   UNL A   1      40.018  30.492  33.209  1.00  0.00     0.127 S 
ATOM     73  O   UNL A   1      41.453  30.314  33.011  1.00  0.00    -0.237 OA
ATOM     74  O   UNL A   1      39.614  31.811  33.694  1.00  0.00    -0.237 OA
ATOM     75  O   UNL A   1      39.323  29.381  33.847  1.00  0.00    -0.744 OA
ENDBRANCH  69  72
ENDBRANCH  51  65
BRANCH  52  76
ATOM     76  C   UNL A   1      45.780  25.103  32.252  1.00  0.00     0.023 A 
ATOM     77  C   UNL A   1      46.943  25.738  32.729  1.00  0.00     0.012 A 
ATOM     78  C   UNL A   1      45.065  24.267  33.138  1.00  0.00     0.148 A 
ATOM     79  C   UNL A   1      47.361  25.577  34.056  1.00  0.00     0.002 A 
ATOM     80  C   UNL A   1      45.490  24.100  34.452  1.00  0.00     0.091 A 
ATOM     81  F   UNL A   1      43.922  23.709  32.719  1.00  0.00    -0.205 F 
ATOM     82  C   UNL A   1      46.630  24.766  34.920  1.00  0.00     0.022 A 
BRANCH  80  83
ATOM     83  S   UNL A   1      44.580  23.092  35.632  1.00  0.00     0.127 S 
ATOM     84  O   UNL A   1      45.332  23.319  36.866  1.00  0.00    -0.237 OA
ATOM     85  O   UNL A   1      43.258  23.709  35.595  1.00  0.00    -0.237 OA
ATOM     86  O   UNL A   1      44.653  21.725  35.128  1.00  0.00    -0.744 OA
ENDBRANCH  80  83
ENDBRANCH  52  76
BRANCH  64  87
ATOM     87  C   UNL A   1      45.357  28.201  26.838  1.00  0.00     0.023 A 
ATOM     88  C   UNL A   1      46.495  28.996  26.587  1.00  0.00     0.012 A 
ATOM     89  C   UNL A   1      45.311  26.898  26.317  1.00  0.00     0.148 A 
ATOM     90  C   UNL A   1      47.554  28.507  25.817  1.00  0.00     0.002 A 
ATOM     91  C   UNL A   1      46.386  26.398  25.594  1.00  0.00     0.091 A 
ATOM     92  F   UNL A   1      44.222  26.154  26.564  1.00  0.00    -0.205 F 
ATOM     93  C   UNL A   1      47.507  27.202  25.334  1.00  0.00     0.022 A 
BRANCH  91  94
ATOM     94  S   UNL A   1      46.436  24.685  25.065  1.00  0.00     0.127 S 
ATOM     95  O   UNL A   1      45.071  24.471  24.590  1.00  0.00    -0.237 OA
ATOM     96  O   UNL A   1      47.455  24.708  24.013  1.00  0.00    -0.237 OA
ATOM     97  O   UNL A   1      46.820  23.915  26.242  1.00  0.00    -0.744 OA
ENDBRANCH  91  94
ENDBRANCH  64  87
ENDBRANCH  38  39
ENDBRANCH  30  33
ENDBRANCH  28  29
ENDBRANCH  27  28
ENDBRANCH  26  27
ENDBRANCH   1  26
TORSDOF 20
ENDMDL
MODEL 3
REMARK VINA RESULT:     -11.0      3.143      8.689
REMARK SMILES CCn1cc(CNC(=O)[C@H]2CC=CC[C@@H]2C(=O)NCCCCCCNC(=O)c2ccc(-c3c4nc(c(-c5cccc(S(=O)(=O)[O-])c5F)c5ccc([nH]5)c(-c5cccc(S(=O)(=O)[O-])c5F)c5nc(c(-c6cccc(S(=O)(=O)[O-])c6F)c6ccc3[nH]6)C=C5)C=C4)cc2)cn1
REMARK SMILES IDX 21 1 20 2 19 3 18 4 16 5 17 6 15 8 10 9 11 10 12 11 14 12
REMARK SMILES IDX 13 13 8 14 7 15 9 17 6 18 5 19 3 20 4 21 92 22 91 23 2 24
REMARK SMILES IDX 1 25 22 26 23 27 24 28 25 29 26 30 27 32 28 33 29 34 90 35
REMARK SMILES IDX 30 36 89 37 31 38 32 39 33 40 83 41 34 42 88 43 82 44 84 45
REMARK SMILES IDX 35 46 87 47 81 48 80 49 36 51 68 52 48 53 67 54 49 55 52 56
REMARK SMILES IDX 66 57 85 58 50 59 51 60 65 62 86 63 53 64 37 65 38 66 46 67
REMARK SMILES IDX 39 68 41 69 47 70 40 71 42 72 43 73 44 74 45 75 69 76 70 77
REMARK SMILES IDX 78 78 71 79 73 80 79 81 72 82 74 83 75 84 76 85 77 86 54 87
REMARK SMILES IDX 55 88 63 89 56 90 58 91 64 92 57 93 59 94 60 95 61 96 62 97
REMARK H PARENT 18 7 7 16 25 31 84 50 52 61
REMARK Flexibility Score: inf
ROOT
ATOM      1  C   UNL A   1      34.356  30.964  27.171  1.00  0.00     0.002 C 
ENDROOT
BRANCH   1   2
ATOM      2  C   UNL A   1      34.716  29.581  27.713  1.00  0.00     0.021 C 
BRANCH   2   3
ATOM      3  C   UNL A   1      34.248  28.439  26.821  1.00  0.00     0.116 C 
BRANCH   3   4
ATOM      4  N   UNL A   1      34.204  28.812  25.429  1.00  0.00    -0.356 N 
ATOM      5  C   UNL A   1      33.224  28.699  24.492  1.00  0.00     0.224 C 
ATOM      6  O   UNL A   1      33.476  29.225  23.403  1.00  0.00    -0.275 OA
ATOM      7  H   UNL A   1      35.034  29.224  25.096  1.00  0.00     0.163 HD
BRANCH   5   8
ATOM      8  C   UNL A   1      31.843  28.098  24.815  1.00  0.00     0.095 C 
ATOM      9  C   UNL A   1      31.364  26.963  23.880  1.00  0.00     0.095 C 
ATOM     10  C   UNL A   1      31.099  27.493  22.454  1.00  0.00     0.041 C 
ATOM     11  C   UNL A   1      30.456  28.848  22.407  1.00  0.00    -0.030 C 
ATOM     12  C   UNL A   1      30.778  29.223  24.850  1.00  0.00     0.041 C 
ATOM     13  C   UNL A   1      30.285  29.619  23.489  1.00  0.00    -0.030 C 
BRANCH   9  14
ATOM     14  C   UNL A   1      30.132  26.257  24.470  1.00  0.00     0.224 C 
ATOM     15  N   UNL A   1      30.244  25.442  25.561  1.00  0.00    -0.352 N 
ATOM     16  H   UNL A   1      29.391  25.056  25.866  1.00  0.00     0.163 HD
ATOM     17  O   UNL A   1      28.995  26.409  24.023  1.00  0.00    -0.275 OA
BRANCH  15  18
ATOM     18  C   UNL A   1      31.384  25.047  26.347  1.00  0.00     0.155 C 
BRANCH  18  19
ATOM     19  C   UNL A   1      32.060  23.879  25.729  1.00  0.00     0.009 A 
ATOM     20  N   UNL A   1      32.492  21.972  24.712  1.00  0.00    -0.273 N 
ATOM     21  C   UNL A   1      31.478  22.743  25.202  1.00  0.00     0.114 A 
ATOM     22  N   UNL A   1      33.702  22.550  24.847  1.00  0.00    -0.181 NA
ATOM     23  C   UNL A   1      33.439  23.698  25.475  1.00  0.00     0.140 A 
BRANCH  20  24
ATOM     24  C   UNL A   1      32.429  20.659  24.101  1.00  0.00     0.141 C 
ATOM     25  C   UNL A   1      33.493  19.665  24.538  1.00  0.00     0.029 C 
ENDBRANCH  20  24
ENDBRANCH  18  19
ENDBRANCH  15  18
ENDBRANCH   9  14
ENDBRANCH   5   8
ENDBRANCH   3   4
ENDBRANCH   2   3
ENDBRANCH   1   2
BRANCH   1  26
ATOM     26  C   UNL A   1      32.905  31.412  27.407  1.00  0.00     0.002 C 
BRANCH  26  27
ATOM     27  C   UNL A   1      32.651  32.928  27.454  1.00  0.00     0.021 C 
BRANCH  27  28
ATOM     28  C   UNL A   1      33.870  33.749  27.843  1.00  0.00     0.116 C 
BRANCH  28  29
ATOM     29  N   UNL A   1      33.732  34.319  29.184  1.00  0.00    -0.352 N 
ATOM     30  C   UNL A   1      34.401  33.995  30.349  1.00  0.00     0.251 C 
ATOM     31  H   UNL A   1      33.065  35.037  29.268  1.00  0.00     0.163 HD
ATOM     32  O   UNL A   1      33.942  34.309  31.435  1.00  0.00    -0.269 OA
BRANCH  30  33
ATOM     33  C   UNL A   1      35.681  33.272  30.256  1.00  0.00     0.039 A 
ATOM     34  C   UNL A   1      36.861  33.933  29.900  1.00  0.00     0.014 A 
ATOM     35  C   UNL A   1      35.683  31.911  30.540  1.00  0.00     0.014 A 
ATOM     36  C   UNL A   1      38.058  33.220  29.902  1.00  0.00     0.010 A 
ATOM     37  C   UNL A   1      36.872  31.256  30.706  1.00  0.00     0.010 A 
ATOM     38  C   UNL A   1      38.052  31.884  30.316  1.00  0.00    -0.014 A 
BRANCH  38  39
ATOM     39  C   UNL A   1      39.283  31.117  30.453  1.00  0.00     0.031 A 
ATOM     40  C   UNL A   1      39.857  31.115  31.825  1.00  0.00     0.074 A 
ATOM     41  C   UNL A   1      39.672  30.246  29.498  1.00  0.00     0.049 A 
ATOM     42  N   UNL A   1      40.962  31.649  32.228  1.00  0.00    -0.248 NA
ATOM     43  C   UNL A   1      39.012  30.603  32.915  1.00  0.00     0.031 C 
ATOM     44  C   UNL A   1      38.954  29.900  28.261  1.00  0.00     0.029 A 
ATOM     45  N   UNL A   1      40.686  29.341  29.517  1.00  0.00    -0.354 N 
ATOM     46  C   UNL A   1      41.069  31.305  33.577  1.00  0.00     0.074 A 
ATOM     47  C   UNL A   1      39.744  30.927  33.982  1.00  0.00     0.031 C 
ATOM     48  C   UNL A   1      39.386  28.704  27.813  1.00  0.00     0.029 A 
ATOM     49  C   UNL A   1      40.518  28.290  28.618  1.00  0.00     0.049 A 
ATOM     50  H   UNL A   1      41.466  29.421  30.111  1.00  0.00     0.167 HD
ATOM     51  C   UNL A   1      42.285  31.061  34.148  1.00  0.00     0.034 A 
ATOM     52  C   UNL A   1      41.218  27.131  28.585  1.00  0.00     0.034 A 
ATOM     53  C   UNL A   1      43.349  31.515  33.277  1.00  0.00     0.049 A 
ATOM     54  C   UNL A   1      42.465  27.356  29.349  1.00  0.00     0.074 A 
ATOM     55  C   UNL A   1      43.709  32.714  32.696  1.00  0.00     0.029 A 
ATOM     56  N   UNL A   1      44.017  30.539  32.575  1.00  0.00    -0.354 N 
ATOM     57  N   UNL A   1      43.404  28.179  28.972  1.00  0.00    -0.248 NA
ATOM     58  C   UNL A   1      42.484  26.986  30.755  1.00  0.00     0.031 C 
ATOM     59  C   UNL A   1      44.212  32.364  31.407  1.00  0.00     0.029 A 
ATOM     60  C   UNL A   1      44.199  30.972  31.294  1.00  0.00     0.049 A 
ATOM     61  H   UNL A   1      44.313  29.672  32.936  1.00  0.00     0.167 HD
ATOM     62  C   UNL A   1      43.817  28.788  30.149  1.00  0.00     0.074 A 
ATOM     63  C   UNL A   1      43.321  27.920  31.216  1.00  0.00     0.031 C 
ATOM     64  C   UNL A   1      44.247  30.086  30.151  1.00  0.00     0.034 A 
BRANCH  51  65
ATOM     65  C   UNL A   1      42.575  30.025  35.237  1.00  0.00     0.023 A 
ATOM     66  C   UNL A   1      43.507  30.408  36.233  1.00  0.00     0.012 A 
ATOM     67  C   UNL A   1      42.247  28.650  35.190  1.00  0.00     0.148 A 
ATOM     68  C   UNL A   1      44.189  29.471  37.017  1.00  0.00     0.002 A 
ATOM     69  C   UNL A   1      42.892  27.723  36.005  1.00  0.00     0.091 A 
ATOM     70  F   UNL A   1      41.367  28.188  34.308  1.00  0.00    -0.205 F 
ATOM     71  C   UNL A   1      43.894  28.123  36.890  1.00  0.00     0.022 A 
BRANCH  69  72
ATOM     72  S   UNL A   1      42.523  25.963  35.909  1.00  0.00     0.127 S 
ATOM     73  O   UNL A   1      43.087  25.623  34.606  1.00  0.00    -0.237 OA
ATOM     74  O   UNL A   1      43.258  25.444  37.061  1.00  0.00    -0.237 OA
ATOM     75  O   UNL A   1      41.074  25.850  36.022  1.00  0.00    -0.744 OA
ENDBRANCH  69  72
ENDBRANCH  51  65
BRANCH  52  76
ATOM     76  C   UNL A   1      40.801  25.782  28.142  1.00  0.00     0.023 A 
ATOM     77  C   UNL A   1      39.430  25.466  28.074  1.00  0.00     0.012 A 
ATOM     78  C   UNL A   1      41.720  24.900  27.531  1.00  0.00     0.148 A 
ATOM     79  C   UNL A   1      38.985  24.329  27.388  1.00  0.00     0.002 A 
ATOM     80  C   UNL A   1      41.275  23.766  26.860  1.00  0.00     0.091 A 
ATOM     81  F   UNL A   1      43.021  25.222  27.530  1.00  0.00    -0.205 F 
ATOM     82  C   UNL A   1      39.905  23.485  26.774  1.00  0.00     0.022 A 
BRANCH  80  83
ATOM     83  S   UNL A   1      42.404  22.646  26.019  1.00  0.00     0.127 S 
ATOM     84  O   UNL A   1      43.313  22.265  27.100  1.00  0.00    -0.237 OA
ATOM     85  O   UNL A   1      41.500  21.590  25.574  1.00  0.00    -0.237 OA
ATOM     86  O   UNL A   1      43.028  23.431  24.960  1.00  0.00    -0.744 OA
ENDBRANCH  80  83
ENDBRANCH  52  76
BRANCH  64  87
ATOM     87  C   UNL A   1      44.555  30.734  28.825  1.00  0.00     0.023 A 
ATOM     88  C   UNL A   1      43.558  31.307  28.009  1.00  0.00     0.012 A 
ATOM     89  C   UNL A   1      45.904  30.928  28.485  1.00  0.00     0.148 A 
ATOM     90  C   UNL A   1      43.900  32.040  26.869  1.00  0.00     0.002 A 
ATOM     91  C   UNL A   1      46.242  31.698  27.380  1.00  0.00     0.091 A 
ATOM     92  F   UNL A   1      46.841  30.376  29.272  1.00  0.00    -0.205 F 
ATOM     93  C   UNL A   1      45.242  32.249  26.563  1.00  0.00     0.022 A 
BRANCH  91  94
ATOM     94  S   UNL A   1      47.949  32.111  27.020  1.00  0.00     0.127 S 
ATOM     95  O   UNL A   1      48.415  32.633  28.302  1.00  0.00    -0.237 OA
ATOM     96  O   UNL A   1      48.516  30.814  26.644  1.00  0.00    -0.237 OA
ATOM     97  O   UNL A   1      47.904  33.074  25.927  1.00  0.00    -0.744 OA
ENDBRANCH  91  94
ENDBRANCH  64  87
ENDBRANCH  38  39
ENDBRANCH  30  33
ENDBRANCH  28  29
ENDBRANCH  27  28
ENDBRANCH  26  27
ENDBRANCH   1  26
TORSDOF 20
ENDMDL
