MODEL 1
REMARK VINA RESULT:     -10.5      0.000      0.000
REMARK SMILES O=C(CNc1cc(N2CCCC2)c2noc3c2c1C(=O)c1ccccc1-3)NCCCCCCNC(=O)c1ccc(-c2c3nc(c(-c4cccc(S(=O)(=O)[O-])c4F)c4ccc([nH]4)c(-c4cccc(S(=O)(=O)[O-])c4F)c4nc(c(-c5cccc(S(=O)(=O)[O-])c5F)c5ccc2[nH]5)C=C4)C=C3)cc1
REMARK SMILES IDX 30 1 29 2 28 3 27 4 1 5 2 6 3 8 4 9 5 11 6 12 18 13 7 14
REMARK SMILES IDX 17 15 19 16 13 17 16 18 20 19 21 20 14 21 15 22 26 23 22 24
REMARK SMILES IDX 25 25 23 26 24 27 8 28 9 29 12 30 10 31 11 32 31 33 32 34
REMARK SMILES IDX 33 35 34 36 35 37 36 39 37 40 38 41 99 42 39 43 98 44 40 45
REMARK SMILES IDX 41 46 42 47 92 48 43 49 97 50 91 51 93 52 44 53 96 54 90 55
REMARK SMILES IDX 89 56 45 58 77 59 57 60 76 61 58 62 61 63 75 64 94 65 59 66
REMARK SMILES IDX 60 67 74 69 95 70 62 71 46 72 47 73 55 74 48 75 50 76 56 77
REMARK SMILES IDX 49 78 51 79 52 80 53 81 54 82 78 83 79 84 87 85 80 86 82 87
REMARK SMILES IDX 88 88 81 89 83 90 84 91 85 92 86 93 63 94 64 95 72 96 65 97
REMARK SMILES IDX 67 98 73 99 66 100 68 101 69 102 70 103 71 104
REMARK H PARENT 27 7 4 10 34 38 93 57 61 68
REMARK Flexibility Score: inf
ROOT
ATOM      1  C   UNL A   1      41.532  27.101  34.885  1.00  0.00     0.002 C 
ENDROOT
BRANCH   1   2
ATOM      2  C   UNL A   1      41.518  28.456  35.612  1.00  0.00     0.021 C 
BRANCH   2   3
ATOM      3  C   UNL A   1      41.265  29.654  34.696  1.00  0.00     0.116 C 
BRANCH   3   4
ATOM      4  N   UNL A   1      40.245  30.511  35.252  1.00  0.00    -0.355 N 
ATOM      5  O   UNL A   1      38.472  29.724  34.010  1.00  0.00    -0.273 OA
ATOM      6  C   UNL A   1      38.929  30.508  34.835  1.00  0.00     0.239 C 
ATOM      7  H   UNL A   1      40.503  31.132  35.969  1.00  0.00     0.163 HD
BRANCH   6   8
ATOM      8  C   UNL A   1      38.113  31.669  35.423  1.00  0.00     0.213 C 
BRANCH   8   9
ATOM      9  N   UNL A   1      38.566  32.949  34.873  1.00  0.00    -0.375 N 
ATOM     10  H   UNL A   1      38.938  33.602  35.511  1.00  0.00     0.161 HD
BRANCH   9  11
ATOM     11  C   UNL A   1      38.521  33.331  33.540  1.00  0.00     0.049 A 
ATOM     12  C   UNL A   1      37.166  33.539  33.032  1.00  0.00     0.054 A 
ATOM     13  C   UNL A   1      39.632  33.618  32.716  1.00  0.00     0.059 A 
ATOM     14  C   UNL A   1      36.774  34.006  31.735  1.00  0.00     0.069 A 
ATOM     15  C   UNL A   1      39.213  34.072  31.476  1.00  0.00     0.065 A 
ATOM     16  C   UNL A   1      41.108  33.455  32.922  1.00  0.00     0.196 C 
ATOM     17  C   UNL A   1      37.914  34.271  30.937  1.00  0.00     0.138 A 
ATOM     18  C   UNL A   1      40.105  34.473  30.540  1.00  0.00     0.176 A 
ATOM     19  O   UNL A   1      41.583  32.852  33.875  1.00  0.00    -0.288 OA
ATOM     20  C   UNL A   1      42.048  34.016  31.884  1.00  0.00     0.034 A 
ATOM     21  N   UNL A   1      38.060  34.734  29.670  1.00  0.00    -0.077 NA
ATOM     22  O   UNL A   1      39.434  34.873  29.438  1.00  0.00    -0.355 OA
ATOM     23  C   UNL A   1      41.536  34.521  30.668  1.00  0.00     0.032 A 
ATOM     24  C   UNL A   1      43.425  34.033  32.123  1.00  0.00     0.013 A 
ATOM     25  C   UNL A   1      42.401  35.046  29.709  1.00  0.00     0.013 A 
ATOM     26  C   UNL A   1      44.286  34.561  31.161  1.00  0.00     0.001 A 
ATOM     27  C   UNL A   1      43.776  35.066  29.961  1.00  0.00     0.001 A 
BRANCH  14  28
ATOM     28  N   UNL A   1      35.465  34.156  31.365  1.00  0.00    -0.370 N 
ATOM     29  C   UNL A   1      34.894  33.683  30.109  1.00  0.00     0.116 C 
ATOM     30  C   UNL A   1      34.617  35.150  32.013  1.00  0.00     0.116 C 
ATOM     31  C   UNL A   1      33.877  34.761  29.761  1.00  0.00     0.023 C 
ATOM     32  C   UNL A   1      33.370  35.206  31.126  1.00  0.00     0.023 C 
ENDBRANCH  14  28
ENDBRANCH   9  11
ENDBRANCH   8   9
ENDBRANCH   6   8
ENDBRANCH   3   4
ENDBRANCH   2   3
ENDBRANCH   1   2
BRANCH   1  33
ATOM     33  C   UNL A   1      42.785  26.241  35.103  1.00  0.00     0.002 C 
BRANCH  33  34
ATOM     34  C   UNL A   1      42.739  25.315  36.322  1.00  0.00     0.021 C 
BRANCH  34  35
ATOM     35  C   UNL A   1      44.110  25.017  36.925  1.00  0.00     0.116 C 
BRANCH  35  36
ATOM     36  N   UNL A   1      44.510  23.627  36.784  1.00  0.00    -0.352 N 
ATOM     37  C   UNL A   1      44.982  22.974  35.664  1.00  0.00     0.251 C 
ATOM     38  H   UNL A   1      44.433  23.077  37.596  1.00  0.00     0.163 HD
ATOM     39  O   UNL A   1      45.214  21.776  35.696  1.00  0.00    -0.269 OA
BRANCH  37  40
ATOM     40  C   UNL A   1      45.172  23.753  34.424  1.00  0.00     0.039 A 
ATOM     41  C   UNL A   1      46.165  24.734  34.364  1.00  0.00     0.014 A 
ATOM     42  C   UNL A   1      44.305  23.542  33.349  1.00  0.00     0.014 A 
ATOM     43  C   UNL A   1      46.199  25.605  33.285  1.00  0.00     0.010 A 
ATOM     44  C   UNL A   1      44.372  24.386  32.242  1.00  0.00     0.010 A 
ATOM     45  C   UNL A   1      45.290  25.443  32.231  1.00  0.00    -0.014 A 
BRANCH  45  46
ATOM     46  C   UNL A   1      45.403  26.391  31.117  1.00  0.00     0.031 A 
ATOM     47  C   UNL A   1      45.473  25.760  29.770  1.00  0.00     0.074 A 
ATOM     48  C   UNL A   1      44.935  27.653  31.211  1.00  0.00     0.049 A 
ATOM     49  N   UNL A   1      44.413  25.402  29.108  1.00  0.00    -0.248 NA
ATOM     50  C   UNL A   1      46.726  25.254  29.212  1.00  0.00     0.031 C 
ATOM     51  C   UNL A   1      43.761  28.040  32.005  1.00  0.00     0.029 A 
ATOM     52  N   UNL A   1      45.227  28.767  30.464  1.00  0.00    -0.354 N 
ATOM     53  C   UNL A   1      44.835  24.560  28.097  1.00  0.00     0.074 A 
ATOM     54  C   UNL A   1      46.279  24.515  28.185  1.00  0.00     0.031 C 
ATOM     55  C   UNL A   1      43.317  29.233  31.557  1.00  0.00     0.029 A 
ATOM     56  C   UNL A   1      44.264  29.764  30.585  1.00  0.00     0.049 A 
ATOM     57  H   UNL A   1      46.031  28.851  29.903  1.00  0.00     0.167 HD
ATOM     58  C   UNL A   1      43.980  23.924  27.253  1.00  0.00     0.034 A 
ATOM     59  C   UNL A   1      43.995  30.700  29.635  1.00  0.00     0.034 A 
ATOM     60  C   UNL A   1      42.589  24.212  27.443  1.00  0.00     0.049 A 
ATOM     61  C   UNL A   1      43.276  29.853  28.610  1.00  0.00     0.074 A 
ATOM     62  C   UNL A   1      41.523  23.633  28.096  1.00  0.00     0.029 A 
ATOM     63  N   UNL A   1      42.106  25.412  26.975  1.00  0.00    -0.354 N 
ATOM     64  N   UNL A   1      42.034  29.446  28.686  1.00  0.00    -0.248 NA
ATOM     65  C   UNL A   1      44.100  29.110  27.654  1.00  0.00     0.031 C 
ATOM     66  C   UNL A   1      40.605  24.699  28.360  1.00  0.00     0.029 A 
ATOM     67  C   UNL A   1      41.185  25.873  27.882  1.00  0.00     0.049 A 
ATOM     68  H   UNL A   1      42.374  25.860  26.139  1.00  0.00     0.167 HD
ATOM     69  C   UNL A   1      42.015  28.204  28.044  1.00  0.00     0.074 A 
ATOM     70  C   UNL A   1      43.310  28.073  27.408  1.00  0.00     0.031 C 
ATOM     71  C   UNL A   1      41.027  27.276  28.208  1.00  0.00     0.034 A 
BRANCH  58  72
ATOM     72  C   UNL A   1      44.434  23.117  26.102  1.00  0.00     0.023 A 
ATOM     73  C   UNL A   1      44.996  23.815  25.016  1.00  0.00     0.012 A 
ATOM     74  C   UNL A   1      44.204  21.735  26.000  1.00  0.00     0.148 A 
ATOM     75  C   UNL A   1      45.298  23.156  23.828  1.00  0.00     0.002 A 
ATOM     76  C   UNL A   1      44.510  21.081  24.809  1.00  0.00     0.091 A 
ATOM     77  F   UNL A   1      43.666  21.094  27.047  1.00  0.00    -0.205 F 
ATOM     78  C   UNL A   1      45.048  21.793  23.722  1.00  0.00     0.022 A 
BRANCH  76  79
ATOM     79  S   UNL A   1      44.234  19.324  24.551  1.00  0.00     0.127 S 
ATOM     80  O   UNL A   1      42.822  19.185  24.904  1.00  0.00    -0.237 OA
ATOM     81  O   UNL A   1      44.522  19.180  23.124  1.00  0.00    -0.237 OA
ATOM     82  O   UNL A   1      45.170  18.637  25.429  1.00  0.00    -0.744 OA
ENDBRANCH  76  79
ENDBRANCH  58  72
BRANCH  59  83
ATOM     83  C   UNL A   1      45.162  31.601  29.330  1.00  0.00     0.023 A 
ATOM     84  C   UNL A   1      46.269  31.527  30.215  1.00  0.00     0.012 A 
ATOM     85  C   UNL A   1      45.265  32.487  28.245  1.00  0.00     0.148 A 
ATOM     86  C   UNL A   1      47.465  32.203  29.968  1.00  0.00     0.002 A 
ATOM     87  C   UNL A   1      46.477  33.122  27.970  1.00  0.00     0.091 A 
ATOM     88  F   UNL A   1      44.192  32.698  27.473  1.00  0.00    -0.205 F 
ATOM     89  C   UNL A   1      47.579  32.978  28.825  1.00  0.00     0.022 A 
BRANCH  87  90
ATOM     90  S   UNL A   1      46.744  34.081  26.472  1.00  0.00     0.127 S 
ATOM     91  O   UNL A   1      48.193  33.983  26.295  1.00  0.00    -0.237 OA
ATOM     92  O   UNL A   1      45.953  33.326  25.504  1.00  0.00    -0.237 OA
ATOM     93  O   UNL A   1      46.255  35.420  26.772  1.00  0.00    -0.744 OA
ENDBRANCH  87  90
ENDBRANCH  59  83
BRANCH  71  94
ATOM     94  C   UNL A   1      39.795  27.728  28.930  1.00  0.00     0.023 A 
ATOM     95  C   UNL A   1      39.576  27.236  30.231  1.00  0.00     0.012 A 
ATOM     96  C   UNL A   1      38.911  28.689  28.400  1.00  0.00     0.148 A 
ATOM     97  C   UNL A   1      38.516  27.707  31.003  1.00  0.00     0.002 A 
ATOM     98  C   UNL A   1      37.871  29.177  29.186  1.00  0.00     0.091 A 
ATOM     99  F   UNL A   1      39.116  29.139  27.153  1.00  0.00    -0.205 F 
ATOM    100  C   UNL A   1      37.673  28.686  30.487  1.00  0.00     0.022 A 
BRANCH  98 101
ATOM    101  S   UNL A   1      36.755  30.476  28.637  1.00  0.00     0.127 S 
ATOM    102  O   UNL A   1      37.680  31.554  28.288  1.00  0.00    -0.237 OA
ATOM    103  O   UNL A   1      36.100  29.846  27.490  1.00  0.00    -0.237 OA
ATOM    104  O   UNL A   1      35.880  30.773  29.764  1.00  0.00    -0.744 OA
ENDBRANCH  98 101
ENDBRANCH  71  94
ENDBRANCH  45  46
ENDBRANCH  37  40
ENDBRANCH  35  36
ENDBRANCH  34  35
ENDBRANCH  33  34
ENDBRANCH   1  33
TORSDOF 19
ENDMDL
MODEL 2
REMARK VINA RESULT:      -9.8      2.918      8.930
REMARK SMILES O=C(CNc1cc(N2CCCC2)c2noc3c2c1C(=O)c1ccccc1-3)NCCCCCCNC(=O)c1ccc(-c2c3nc(c(-c4cccc(S(=O)(=O)[O-])c4F)c4ccc([nH]4)c(-c4cccc(S(=O)(=O)[O-])c4F)c4nc(c(-c5cccc(S(=O)(=O)[O-])c5F)c5ccc2[nH]5)C=C4)C=C3)cc1
REMARK SMILES IDX 30 1 29 2 28 3 27 4 1 5 2 6 3 8 4 9 5 11 6 12 18 13 7 14
REMARK SMILES IDX 17 15 19 16 13 17 16 18 20 19 21 20 14 21 15 22 26 23 22 24
REMARK SMILES IDX 25 25 23 26 24 27 8 28 9 29 12 30 10 31 11 32 31 33 32 34
REMARK SMILES IDX 33 35 34 36 35 37 36 39 37 40 38 41 99 42 39 43 98 44 40 45
REMARK SMILES IDX 41 46 42 47 92 48 43 49 97 50 91 51 93 52 44 53 96 54 90 55
REMARK SMILES IDX 89 56 45 58 77 59 57 60 76 61 58 62 61 63 75 64 94 65 59 66
REMARK SMILES IDX 60 67 74 69 95 70 62 71 46 72 47 73 55 74 48 75 50 76 56 77
REMARK SMILES IDX 49 78 51 79 52 80 53 81 54 82 78 83 79 84 87 85 80 86 82 87
REMARK SMILES IDX 88 88 81 89 83 90 84 91 85 92 86 93 63 94 64 95 72 96 65 97
REMARK SMILES IDX 67 98 73 99 66 100 68 101 69 102 70 103 71 104
REMARK H PARENT 27 7 4 10 34 38 93 57 61 68
REMARK Flexibility Score: inf
ROOT
ATOM      1  C   UNL A   1      42.469  31.854  32.594  1.00  0.00     0.002 C 
ENDROOT
BRANCH   1   2
ATOM      2  C   UNL A   1      41.085  31.586  31.980  1.00  0.00     0.021 C 
BRANCH   2   3
ATOM      3  C   UNL A   1      40.130  32.778  32.049  1.00  0.00     0.116 C 
BRANCH   3   4
ATOM      4  N   UNL A   1      38.921  32.418  32.752  1.00  0.00    -0.355 N 
ATOM      5  O   UNL A   1      37.873  34.465  32.625  1.00  0.00    -0.273 OA
ATOM      6  C   UNL A   1      37.899  33.305  33.023  1.00  0.00     0.239 C 
ATOM      7  H   UNL A   1      38.821  31.488  33.055  1.00  0.00     0.163 HD
BRANCH   6   8
ATOM      8  C   UNL A   1      36.844  32.727  33.978  1.00  0.00     0.213 C 
BRANCH   8   9
ATOM      9  N   UNL A   1      35.796  32.029  33.228  1.00  0.00    -0.375 N 
ATOM     10  H   UNL A   1      35.070  31.619  33.753  1.00  0.00     0.161 HD
BRANCH   9  11
ATOM     11  C   UNL A   1      35.730  31.887  31.850  1.00  0.00     0.049 A 
ATOM     12  C   UNL A   1      35.033  32.983  31.177  1.00  0.00     0.054 A 
ATOM     13  C   UNL A   1      36.345  30.871  31.084  1.00  0.00     0.059 A 
ATOM     14  C   UNL A   1      34.858  33.182  29.769  1.00  0.00     0.069 A 
ATOM     15  C   UNL A   1      36.159  31.102  29.731  1.00  0.00     0.065 A 
ATOM     16  C   UNL A   1      37.064  29.614  31.471  1.00  0.00     0.196 C 
ATOM     17  C   UNL A   1      35.476  32.138  29.039  1.00  0.00     0.138 A 
ATOM     18  C   UNL A   1      36.717  30.293  28.801  1.00  0.00     0.176 A 
ATOM     19  O   UNL A   1      37.086  29.188  32.618  1.00  0.00    -0.288 OA
ATOM     20  C   UNL A   1      37.750  28.813  30.392  1.00  0.00     0.034 A 
ATOM     21  N   UNL A   1      35.596  31.893  27.710  1.00  0.00    -0.077 NA
ATOM     22  O   UNL A   1      36.388  30.746  27.572  1.00  0.00    -0.355 OA
ATOM     23  C   UNL A   1      37.561  29.153  29.034  1.00  0.00     0.032 A 
ATOM     24  C   UNL A   1      38.568  27.733  30.736  1.00  0.00     0.013 A 
ATOM     25  C   UNL A   1      38.198  28.419  28.034  1.00  0.00     0.013 A 
ATOM     26  C   UNL A   1      39.205  27.004  29.731  1.00  0.00     0.001 A 
ATOM     27  C   UNL A   1      39.021  27.346  28.388  1.00  0.00     0.001 A 
BRANCH  14  28
ATOM     28  N   UNL A   1      34.175  34.249  29.251  1.00  0.00    -0.370 N 
ATOM     29  C   UNL A   1      34.462  34.879  27.967  1.00  0.00     0.116 C 
ATOM     30  C   UNL A   1      33.362  35.102  30.111  1.00  0.00     0.116 C 
ATOM     31  C   UNL A   1      34.187  36.353  28.234  1.00  0.00     0.023 C 
ATOM     32  C   UNL A   1      33.037  36.311  29.230  1.00  0.00     0.023 C 
ENDBRANCH  14  28
ENDBRANCH   9  11
ENDBRANCH   8   9
ENDBRANCH   6   8
ENDBRANCH   3   4
ENDBRANCH   2   3
ENDBRANCH   1   2
BRANCH   1  33
ATOM     33  C   UNL A   1      42.479  32.713  33.866  1.00  0.00     0.002 C 
BRANCH  33  34
ATOM     34  C   UNL A   1      41.829  32.071  35.095  1.00  0.00     0.021 C 
BRANCH  34  35
ATOM     35  C   UNL A   1      42.810  31.330  35.999  1.00  0.00     0.116 C 
BRANCH  35  36
ATOM     36  N   UNL A   1      42.230  30.164  36.645  1.00  0.00    -0.352 N 
ATOM     37  C   UNL A   1      41.881  28.953  36.086  1.00  0.00     0.251 C 
ATOM     38  H   UNL A   1      42.063  30.251  37.611  1.00  0.00     0.163 HD
ATOM     39  O   UNL A   1      41.338  28.091  36.760  1.00  0.00    -0.269 OA
BRANCH  37  40
ATOM     40  C   UNL A   1      42.152  28.736  34.651  1.00  0.00     0.039 A 
ATOM     41  C   UNL A   1      41.095  28.485  33.772  1.00  0.00     0.014 A 
ATOM     42  C   UNL A   1      43.476  28.716  34.205  1.00  0.00     0.014 A 
ATOM     43  C   UNL A   1      41.368  28.071  32.477  1.00  0.00     0.010 A 
ATOM     44  C   UNL A   1      43.748  28.347  32.888  1.00  0.00     0.010 A 
ATOM     45  C   UNL A   1      42.696  27.984  32.039  1.00  0.00    -0.014 A 
BRANCH  45  46
ATOM     46  C   UNL A   1      42.901  27.557  30.651  1.00  0.00     0.031 A 
ATOM     47  C   UNL A   1      42.955  28.669  29.661  1.00  0.00     0.074 A 
ATOM     48  C   UNL A   1      43.526  26.400  30.351  1.00  0.00     0.049 A 
ATOM     49  N   UNL A   1      44.043  29.336  29.416  1.00  0.00    -0.248 NA
ATOM     50  C   UNL A   1      41.747  29.267  29.096  1.00  0.00     0.031 C 
ATOM     51  C   UNL A   1      44.602  25.810  31.158  1.00  0.00     0.029 A 
ATOM     52  N   UNL A   1      43.522  25.662  29.193  1.00  0.00    -0.354 N 
ATOM     53  C   UNL A   1      43.670  30.481  28.739  1.00  0.00     0.074 A 
ATOM     54  C   UNL A   1      42.239  30.385  28.542  1.00  0.00     0.031 C 
ATOM     55  C   UNL A   1      45.281  24.933  30.390  1.00  0.00     0.029 A 
ATOM     56  C   UNL A   1      44.587  24.771  29.118  1.00  0.00     0.049 A 
ATOM     57  H   UNL A   1      42.838  25.754  28.491  1.00  0.00     0.167 HD
ATOM     58  C   UNL A   1      44.546  31.461  28.394  1.00  0.00     0.034 A 
ATOM     59  C   UNL A   1      45.138  24.316  27.960  1.00  0.00     0.034 A 
ATOM     60  C   UNL A   1      45.916  31.220  28.739  1.00  0.00     0.049 A 
ATOM     61  C   UNL A   1      45.879  25.552  27.504  1.00  0.00     0.074 A 
ATOM     62  C   UNL A   1      46.769  31.562  29.766  1.00  0.00     0.029 A 
ATOM     63  N   UNL A   1      46.637  30.346  27.959  1.00  0.00    -0.354 N 
ATOM     64  N   UNL A   1      47.021  25.980  27.981  1.00  0.00    -0.248 NA
ATOM     65  C   UNL A   1      45.119  26.556  26.757  1.00  0.00     0.031 C 
ATOM     66  C   UNL A   1      47.778  30.547  29.784  1.00  0.00     0.029 A 
ATOM     67  C   UNL A   1      47.459  29.626  28.789  1.00  0.00     0.049 A 
ATOM     68  H   UNL A   1      46.573  30.254  26.980  1.00  0.00     0.167 HD
ATOM     69  C   UNL A   1      46.961  27.374  27.878  1.00  0.00     0.074 A 
ATOM     70  C   UNL A   1      45.779  27.658  27.091  1.00  0.00     0.031 C 
ATOM     71  C   UNL A   1      47.765  28.225  28.580  1.00  0.00     0.034 A 
BRANCH  58  72
ATOM     72  C   UNL A   1      44.169  32.628  27.570  1.00  0.00     0.023 A 
ATOM     73  C   UNL A   1      44.424  32.543  26.189  1.00  0.00     0.012 A 
ATOM     74  C   UNL A   1      43.707  33.835  28.122  1.00  0.00     0.148 A 
ATOM     75  C   UNL A   1      44.254  33.652  25.365  1.00  0.00     0.002 A 
ATOM     76  C   UNL A   1      43.536  34.940  27.292  1.00  0.00     0.091 A 
ATOM     77  F   UNL A   1      43.472  33.891  29.441  1.00  0.00    -0.205 F 
ATOM     78  C   UNL A   1      43.818  34.850  25.918  1.00  0.00     0.022 A 
BRANCH  76  79
ATOM     79  S   UNL A   1      42.978  36.542  27.887  1.00  0.00     0.127 S 
ATOM     80  O   UNL A   1      41.680  36.210  28.474  1.00  0.00    -0.237 OA
ATOM     81  O   UNL A   1      44.018  36.881  28.859  1.00  0.00    -0.237 OA
ATOM     82  O   UNL A   1      42.934  37.411  26.720  1.00  0.00    -0.744 OA
ENDBRANCH  76  79
ENDBRANCH  58  72
BRANCH  59  83
ATOM     83  C   UNL A   1      44.178  23.534  27.105  1.00  0.00     0.023 A 
ATOM     84  C   UNL A   1      44.219  23.787  25.709  1.00  0.00     0.012 A 
ATOM     85  C   UNL A   1      43.265  22.565  27.555  1.00  0.00     0.148 A 
ATOM     86  C   UNL A   1      43.483  23.033  24.794  1.00  0.00     0.002 A 
ATOM     87  C   UNL A   1      42.569  21.776  26.637  1.00  0.00     0.091 A 
ATOM     88  F   UNL A   1      43.088  22.400  28.871  1.00  0.00    -0.205 F 
ATOM     89  C   UNL A   1      42.679  22.004  25.258  1.00  0.00     0.022 A 
BRANCH  87  90
ATOM     90  S   UNL A   1      41.567  20.371  27.140  1.00  0.00     0.127 S 
ATOM     91  O   UNL A   1      41.057  19.880  25.861  1.00  0.00    -0.237 OA
ATOM     92  O   UNL A   1      42.569  19.516  27.773  1.00  0.00    -0.237 OA
ATOM     93  O   UNL A   1      40.553  20.912  28.035  1.00  0.00    -0.744 OA
ENDBRANCH  87  90
ENDBRANCH  59  83
BRANCH  71  94
ATOM     94  C   UNL A   1      48.919  27.609  29.311  1.00  0.00     0.023 A 
ATOM     95  C   UNL A   1      50.172  27.593  28.670  1.00  0.00     0.012 A 
ATOM     96  C   UNL A   1      48.817  27.139  30.636  1.00  0.00     0.148 A 
ATOM     97  C   UNL A   1      51.310  27.144  29.338  1.00  0.00     0.002 A 
ATOM     98  C   UNL A   1      49.961  26.719  31.308  1.00  0.00     0.091 A 
ATOM     99  F   UNL A   1      47.616  27.140  31.233  1.00  0.00    -0.205 F 
ATOM    100  C   UNL A   1      51.207  26.721  30.660  1.00  0.00     0.022 A 
BRANCH  98 101
ATOM    101  S   UNL A   1      49.951  26.200  33.030  1.00  0.00     0.127 S 
ATOM    102  O   UNL A   1      51.114  25.315  33.095  1.00  0.00    -0.237 OA
ATOM    103  O   UNL A   1      50.120  27.474  33.730  1.00  0.00    -0.237 OA
ATOM    104  O   UNL A   1      48.673  25.536  33.254  1.00  0.00    -0.744 OA
ENDBRANCH  98 101
ENDBRANCH  71  94
ENDBRANCH  45  46
ENDBRANCH  37  40
ENDBRANCH  35  36
ENDBRANCH  34  35
ENDBRANCH  33  34
ENDBRANCH   1  33
TORSDOF 19
ENDMDL
MODEL 3
REMARK VINA RESULT:      -9.7      1.717      3.614
REMARK SMILES O=C(CNc1cc(N2CCCC2)c2noc3c2c1C(=O)c1ccccc1-3)NCCCCCCNC(=O)c1ccc(-c2c3nc(c(-c4cccc(S(=O)(=O)[O-])c4F)c4ccc([nH]4)c(-c4cccc(S(=O)(=O)[O-])c4F)c4nc(c(-c5cccc(S(=O)(=O)[O-])c5F)c5ccc2[nH]5)C=C4)C=C3)cc1
REMARK SMILES IDX 30 1 29 2 28 3 27 4 1 5 2 6 3 8 4 9 5 11 6 12 18 13 7 14
REMARK SMILES IDX 17 15 19 16 13 17 16 18 20 19 21 20 14 21 15 22 26 23 22 24
REMARK SMILES IDX 25 25 23 26 24 27 8 28 9 29 12 30 10 31 11 32 31 33 32 34
REMARK SMILES IDX 33 35 34 36 35 37 36 39 37 40 38 41 99 42 39 43 98 44 40 45
REMARK SMILES IDX 41 46 42 47 92 48 43 49 97 50 91 51 93 52 44 53 96 54 90 55
REMARK SMILES IDX 89 56 45 58 77 59 57 60 76 61 58 62 61 63 75 64 94 65 59 66
REMARK SMILES IDX 60 67 74 69 95 70 62 71 46 72 47 73 55 74 48 75 50 76 56 77
REMARK SMILES IDX 49 78 51 79 52 80 53 81 54 82 78 83 79 84 87 85 80 86 82 87
REMARK SMILES IDX 88 88 81 89 83 90 84 91 85 92 86 93 63 94 64 95 72 96 65 97
REMARK SMILES IDX 67 98 73 99 66 100 68 101 69 102 70 103 71 104
REMARK H PARENT 27 7 4 10 34 38 93 57 61 68
REMARK Flexibility Score: inf
ROOT
ATOM      1  C   UNL A   1      41.499  27.933  34.909  1.00  0.00     0.002 C 
ENDROOT
BRANCH   1   2
ATOM      2  C   UNL A   1      41.973  29.055  35.847  1.00  0.00     0.021 C 
BRANCH   2   3
ATOM      3  C   UNL A   1      42.990  30.008  35.219  1.00  0.00     0.116 C 
BRANCH   3   4
ATOM      4  N   UNL A   1      42.534  31.374  35.322  1.00  0.00    -0.355 N 
ATOM      5  O   UNL A   1      44.512  32.401  34.740  1.00  0.00    -0.273 OA
ATOM      6  C   UNL A   1      43.346  32.471  35.113  1.00  0.00     0.239 C 
ATOM      7  H   UNL A   1      41.592  31.532  35.553  1.00  0.00     0.163 HD
BRANCH   6   8
ATOM      8  C   UNL A   1      42.676  33.795  35.511  1.00  0.00     0.213 C 
BRANCH   8   9
ATOM      9  N   UNL A   1      41.480  34.032  34.698  1.00  0.00    -0.375 N 
ATOM     10  H   UNL A   1      40.609  33.941  35.149  1.00  0.00     0.161 HD
BRANCH   9  11
ATOM     11  C   UNL A   1      41.456  34.371  33.353  1.00  0.00     0.049 A 
ATOM     12  C   UNL A   1      42.717  34.926  32.862  1.00  0.00     0.054 A 
ATOM     13  C   UNL A   1      40.395  34.134  32.450  1.00  0.00     0.059 A 
ATOM     14  C   UNL A   1      43.050  35.303  31.521  1.00  0.00     0.069 A 
ATOM     15  C   UNL A   1      40.758  34.504  31.166  1.00  0.00     0.065 A 
ATOM     16  C   UNL A   1      38.994  33.643  32.651  1.00  0.00     0.196 C 
ATOM     17  C   UNL A   1      41.959  35.062  30.651  1.00  0.00     0.138 A 
ATOM     18  C   UNL A   1      39.922  34.306  30.119  1.00  0.00     0.176 A 
ATOM     19  O   UNL A   1      38.488  33.509  33.758  1.00  0.00    -0.288 OA
ATOM     20  C   UNL A   1      38.151  33.347  31.434  1.00  0.00     0.034 A 
ATOM     21  N   UNL A   1      41.793  35.236  29.316  1.00  0.00    -0.077 NA
ATOM     22  O   UNL A   1      40.522  34.745  28.991  1.00  0.00    -0.355 OA
ATOM     23  C   UNL A   1      38.621  33.697  30.150  1.00  0.00     0.032 A 
ATOM     24  C   UNL A   1      36.905  32.730  31.580  1.00  0.00     0.013 A 
ATOM     25  C   UNL A   1      37.848  33.420  29.022  1.00  0.00     0.013 A 
ATOM     26  C   UNL A   1      36.137  32.453  30.448  1.00  0.00     0.001 A 
ATOM     27  C   UNL A   1      36.607  32.796  29.177  1.00  0.00     0.001 A 
BRANCH  14  28
ATOM     28  N   UNL A   1      44.269  35.823  31.178  1.00  0.00    -0.370 N 
ATOM     29  C   UNL A   1      45.083  35.372  30.054  1.00  0.00     0.116 C 
ATOM     30  C   UNL A   1      45.044  36.600  32.139  1.00  0.00     0.116 C 
ATOM     31  C   UNL A   1      46.506  35.503  30.581  1.00  0.00     0.023 C 
ATOM     32  C   UNL A   1      46.424  36.723  31.488  1.00  0.00     0.023 C 
ENDBRANCH  14  28
ENDBRANCH   9  11
ENDBRANCH   8   9
ENDBRANCH   6   8
ENDBRANCH   3   4
ENDBRANCH   2   3
ENDBRANCH   1   2
BRANCH   1  33
ATOM     33  C   UNL A   1      42.434  26.721  34.793  1.00  0.00     0.002 C 
BRANCH  33  34
ATOM     34  C   UNL A   1      42.220  25.626  35.842  1.00  0.00     0.021 C 
BRANCH  34  35
ATOM     35  C   UNL A   1      43.424  25.397  36.753  1.00  0.00     0.116 C 
BRANCH  35  36
ATOM     36  N   UNL A   1      43.899  24.023  36.743  1.00  0.00    -0.352 N 
ATOM     37  C   UNL A   1      44.543  23.340  35.733  1.00  0.00     0.251 C 
ATOM     38  H   UNL A   1      43.738  23.512  37.568  1.00  0.00     0.163 HD
ATOM     39  O   UNL A   1      44.820  22.158  35.861  1.00  0.00    -0.269 OA
BRANCH  37  40
ATOM     40  C   UNL A   1      44.861  24.064  34.486  1.00  0.00     0.039 A 
ATOM     41  C   UNL A   1      45.856  25.045  34.486  1.00  0.00     0.014 A 
ATOM     42  C   UNL A   1      44.110  23.803  33.337  1.00  0.00     0.014 A 
ATOM     43  C   UNL A   1      46.003  25.868  33.379  1.00  0.00     0.010 A 
ATOM     44  C   UNL A   1      44.293  24.598  32.207  1.00  0.00     0.010 A 
ATOM     45  C   UNL A   1      45.209  25.656  32.244  1.00  0.00    -0.014 A 
BRANCH  45  46
ATOM     46  C   UNL A   1      45.437  26.555  31.108  1.00  0.00     0.031 A 
ATOM     47  C   UNL A   1      45.489  25.878  29.782  1.00  0.00     0.074 A 
ATOM     48  C   UNL A   1      45.082  27.856  31.151  1.00  0.00     0.049 A 
ATOM     49  N   UNL A   1      44.422  25.594  29.098  1.00  0.00    -0.248 NA
ATOM     50  C   UNL A   1      46.708  25.246  29.279  1.00  0.00     0.031 C 
ATOM     51  C   UNL A   1      43.925  28.370  31.895  1.00  0.00     0.029 A 
ATOM     52  N   UNL A   1      45.492  28.915  30.381  1.00  0.00    -0.354 N 
ATOM     53  C   UNL A   1      44.795  24.687  28.126  1.00  0.00     0.074 A 
ATOM     54  C   UNL A   1      46.226  24.518  28.260  1.00  0.00     0.031 C 
ATOM     55  C   UNL A   1      43.601  29.583  31.399  1.00  0.00     0.029 A 
ATOM     56  C   UNL A   1      44.620  29.997  30.442  1.00  0.00     0.049 A 
ATOM     57  H   UNL A   1      46.317  28.910  29.843  1.00  0.00     0.167 HD
ATOM     58  C   UNL A   1      43.911  24.102  27.274  1.00  0.00     0.034 A 
ATOM     59  C   UNL A   1      44.463  30.923  29.458  1.00  0.00     0.034 A 
ATOM     60  C   UNL A   1      42.547  24.518  27.412  1.00  0.00     0.049 A 
ATOM     61  C   UNL A   1      43.701  30.110  28.436  1.00  0.00     0.074 A 
ATOM     62  C   UNL A   1      41.415  24.057  28.048  1.00  0.00     0.029 A 
ATOM     63  N   UNL A   1      42.187  25.741  26.895  1.00  0.00    -0.354 N 
ATOM     64  N   UNL A   1      42.426  29.818  28.484  1.00  0.00    -0.248 NA
ATOM     65  C   UNL A   1      44.482  29.267  27.527  1.00  0.00     0.031 C 
ATOM     66  C   UNL A   1      40.589  25.207  28.251  1.00  0.00     0.029 A 
ATOM     67  C   UNL A   1      41.285  26.310  27.758  1.00  0.00     0.049 A 
ATOM     68  H   UNL A   1      42.517  26.136  26.055  1.00  0.00     0.167 HD
ATOM     69  C   UNL A   1      42.315  28.562  27.878  1.00  0.00     0.074 A 
ATOM     70  C   UNL A   1      43.610  28.297  27.288  1.00  0.00     0.031 C 
ATOM     71  C   UNL A   1      41.244  27.731  28.038  1.00  0.00     0.034 A 
BRANCH  58  72
ATOM     72  C   UNL A   1      44.324  23.223  26.161  1.00  0.00     0.023 A 
ATOM     73  C   UNL A   1      44.896  23.844  25.035  1.00  0.00     0.012 A 
ATOM     74  C   UNL A   1      44.048  21.845  26.134  1.00  0.00     0.148 A 
ATOM     75  C   UNL A   1      45.160  23.115  23.880  1.00  0.00     0.002 A 
ATOM     76  C   UNL A   1      44.317  21.121  24.976  1.00  0.00     0.091 A 
ATOM     77  F   UNL A   1      43.502  21.277  27.219  1.00  0.00    -0.205 F 
ATOM     78  C   UNL A   1      44.865  21.757  23.848  1.00  0.00     0.022 A 
BRANCH  76  79
ATOM     79  S   UNL A   1      43.981  19.363  24.813  1.00  0.00     0.127 S 
ATOM     80  O   UNL A   1      44.893  18.788  25.800  1.00  0.00    -0.237 OA
ATOM     81  O   UNL A   1      42.565  19.292  25.177  1.00  0.00    -0.237 OA
ATOM     82  O   UNL A   1      44.266  19.026  23.425  1.00  0.00    -0.744 OA
ENDBRANCH  76  79
ENDBRANCH  58  72
BRANCH  59  83
ATOM     83  C   UNL A   1      45.713  31.707  29.164  1.00  0.00     0.023 A 
ATOM     84  C   UNL A   1      46.805  31.518  30.052  1.00  0.00     0.012 A 
ATOM     85  C   UNL A   1      45.908  32.586  28.085  1.00  0.00     0.148 A 
ATOM     86  C   UNL A   1      48.062  32.076  29.814  1.00  0.00     0.002 A 
ATOM     87  C   UNL A   1      47.178  33.101  27.819  1.00  0.00     0.091 A 
ATOM     88  F   UNL A   1      44.864  32.906  27.311  1.00  0.00    -0.205 F 
ATOM     89  C   UNL A   1      48.256  32.844  28.678  1.00  0.00     0.022 A 
BRANCH  87  90
ATOM     90  S   UNL A   1      47.544  34.039  26.330  1.00  0.00     0.127 S 
ATOM     91  O   UNL A   1      47.776  35.383  26.859  1.00  0.00    -0.237 OA
ATOM     92  O   UNL A   1      48.739  33.353  25.845  1.00  0.00    -0.237 OA
ATOM     93  O   UNL A   1      46.364  33.911  25.486  1.00  0.00    -0.744 OA
ENDBRANCH  87  90
ENDBRANCH  59  83
BRANCH  71  94
ATOM     94  C   UNL A   1      40.036  28.313  28.708  1.00  0.00     0.023 A 
ATOM     95  C   UNL A   1      39.003  28.806  27.891  1.00  0.00     0.012 A 
ATOM     96  C   UNL A   1      39.861  28.296  30.106  1.00  0.00     0.148 A 
ATOM     97  C   UNL A   1      37.804  29.250  28.446  1.00  0.00     0.002 A 
ATOM     98  C   UNL A   1      38.651  28.714  30.654  1.00  0.00     0.091 A 
ATOM     99  F   UNL A   1      40.858  27.842  30.880  1.00  0.00    -0.205 F 
ATOM    100  C   UNL A   1      37.623  29.192  29.825  1.00  0.00     0.022 A 
BRANCH  98 101
ATOM    101  S   UNL A   1      38.293  28.634  32.414  1.00  0.00     0.127 S 
ATOM    102  O   UNL A   1      39.166  29.677  32.956  1.00  0.00    -0.237 OA
ATOM    103  O   UNL A   1      36.867  28.962  32.448  1.00  0.00    -0.237 OA
ATOM    104  O   UNL A   1      38.628  27.283  32.844  1.00  0.00    -0.744 OA
ENDBRANCH  98 101
ENDBRANCH  71  94
ENDBRANCH  45  46
ENDBRANCH  37  40
ENDBRANCH  35  36
ENDBRANCH  34  35
ENDBRANCH  33  34
ENDBRANCH   1  33
TORSDOF 19
ENDMDL
