MODEL 1
REMARK VINA RESULT:     -10.3      0.000      0.000
REMARK SMILES CCN(CC(=O)NC(C)C)C(=O)N[C@H]1C=C[C@H](C(=O)NCCCCCCNC(=O)c2ccc(-c3c4nc(c(-c5cccc(S(=O)(=O)[O-])c5F)c5ccc([nH]5)c(-c5cccc(S(=O)(=O)[O-])c5F)c5nc(c(-c6cccc(S(=O)(=O)[O-])c6F)c6ccc3[nH]6)C=C5)C=C4)cc2)C1
REMARK SMILES IDX 22 1 21 2 20 3 18 4 19 5 17 7 14 8 15 9 93 10 16 11 13 12
REMARK SMILES IDX 11 13 12 14 3 16 2 17 1 18 4 19 5 20 6 21 7 22 8 24 9 25
REMARK SMILES IDX 10 26 23 27 24 28 25 29 26 30 27 31 28 32 29 34 30 35 31 36
REMARK SMILES IDX 92 37 32 38 91 39 33 40 34 41 35 42 85 43 36 44 90 45 84 46
REMARK SMILES IDX 86 47 37 48 89 49 83 50 82 51 38 53 70 54 50 55 69 56 51 57
REMARK SMILES IDX 54 58 68 59 87 60 52 61 53 62 67 64 88 65 55 66 39 67 40 68
REMARK SMILES IDX 48 69 41 70 43 71 49 72 42 73 44 74 45 75 46 76 47 77 71 78
REMARK SMILES IDX 72 79 80 80 73 81 75 82 81 83 74 84 76 85 77 86 78 87 79 88
REMARK SMILES IDX 56 89 57 90 65 91 58 92 60 93 66 94 59 95 61 96 62 97 63 98
REMARK SMILES IDX 64 99
REMARK H PARENT 20 6 13 15 7 23 27 33 86 52 54 63
REMARK Flexibility Score: inf
ROOT
ATOM      1  C   UNL A   1      33.100  28.609  26.260  1.00  0.00     0.021 C 
ENDROOT
BRANCH   1   2
ATOM      2  C   UNL A   1      32.760  28.476  24.775  1.00  0.00     0.116 C 
BRANCH   2   3
ATOM      3  N   UNL A   1      31.600  27.622  24.580  1.00  0.00    -0.356 N 
ATOM      4  C   UNL A   1      31.432  26.336  24.192  1.00  0.00     0.227 C 
ATOM      5  O   UNL A   1      30.256  25.962  24.068  1.00  0.00    -0.274 OA
ATOM      6  H   UNL A   1      30.751  28.079  24.775  1.00  0.00     0.163 HD
BRANCH   4   7
ATOM      7  C   UNL A   1      32.566  25.318  23.933  1.00  0.00     0.103 C 
ATOM      8  C   UNL A   1      33.165  24.503  26.115  1.00  0.00     0.107 C 
ATOM      9  C   UNL A   1      34.331  25.184  25.475  1.00  0.00    -0.006 C 
ATOM     10  C   UNL A   1      32.348  24.118  24.881  1.00  0.00     0.047 C 
ATOM     11  C   UNL A   1      33.993  25.638  24.260  1.00  0.00    -0.016 C 
BRANCH   8  12
ATOM     12  N   UNL A   1      33.614  23.388  26.899  1.00  0.00    -0.332 N 
ATOM     13  C   UNL A   1      34.252  22.228  26.679  1.00  0.00     0.318 C 
ATOM     14  O   UNL A   1      34.450  21.553  27.698  1.00  0.00    -0.249 OA
ATOM     15  H   UNL A   1      33.399  23.507  27.852  1.00  0.00     0.165 HD
BRANCH  13  16
ATOM     16  N   UNL A   1      34.682  21.794  25.453  1.00  0.00    -0.316 N 
BRANCH  16  17
ATOM     17  C   UNL A   1      36.060  22.158  25.093  1.00  0.00     0.118 C 
ATOM     18  C   UNL A   1      36.204  22.610  23.645  1.00  0.00     0.027 C 
ENDBRANCH  16  17
BRANCH  16  19
ATOM     19  C   UNL A   1      33.896  21.126  24.405  1.00  0.00     0.221 C 
BRANCH  19  20
ATOM     20  C   UNL A   1      32.829  20.103  24.855  1.00  0.00     0.239 C 
ATOM     21  O   UNL A   1      31.683  20.478  25.133  1.00  0.00    -0.273 OA
ATOM     22  N   UNL A   1      33.057  18.763  24.844  1.00  0.00    -0.352 N 
ATOM     23  H   UNL A   1      32.541  18.236  25.496  1.00  0.00     0.163 HD
BRANCH  22  24
ATOM     24  C   UNL A   1      33.962  18.007  23.997  1.00  0.00     0.075 C 
ATOM     25  C   UNL A   1      35.345  17.900  24.620  1.00  0.00     0.030 C 
ATOM     26  C   UNL A   1      33.358  16.625  23.746  1.00  0.00     0.030 C 
ENDBRANCH  22  24
ENDBRANCH  19  20
ENDBRANCH  16  19
ENDBRANCH  13  16
ENDBRANCH   8  12
ENDBRANCH   4   7
ENDBRANCH   2   3
ENDBRANCH   1   2
BRANCH   1  27
ATOM     27  C   UNL A   1      32.942  30.024  26.831  1.00  0.00     0.002 C 
BRANCH  27  28
ATOM     28  C   UNL A   1      31.633  30.740  26.479  1.00  0.00     0.002 C 
BRANCH  28  29
ATOM     29  C   UNL A   1      31.610  32.248  26.744  1.00  0.00     0.021 C 
BRANCH  29  30
ATOM     30  C   UNL A   1      32.894  32.821  27.334  1.00  0.00     0.116 C 
BRANCH  30  31
ATOM     31  N   UNL A   1      32.744  34.207  27.759  1.00  0.00    -0.352 N 
ATOM     32  C   UNL A   1      33.380  34.867  28.784  1.00  0.00     0.251 C 
ATOM     33  H   UNL A   1      32.099  34.743  27.243  1.00  0.00     0.163 HD
ATOM     34  O   UNL A   1      33.025  35.996  29.109  1.00  0.00    -0.269 OA
BRANCH  32  35
ATOM     35  C   UNL A   1      34.481  34.197  29.509  1.00  0.00     0.039 A 
ATOM     36  C   UNL A   1      34.181  33.385  30.605  1.00  0.00     0.014 A 
ATOM     37  C   UNL A   1      35.804  34.351  29.086  1.00  0.00     0.014 A 
ATOM     38  C   UNL A   1      35.202  32.666  31.235  1.00  0.00     0.010 A 
ATOM     39  C   UNL A   1      36.808  33.587  29.673  1.00  0.00     0.010 A 
ATOM     40  C   UNL A   1      36.517  32.733  30.749  1.00  0.00    -0.014 A 
BRANCH  40  41
ATOM     41  C   UNL A   1      37.609  31.903  31.320  1.00  0.00     0.031 A 
ATOM     42  C   UNL A   1      38.189  32.242  32.665  1.00  0.00     0.074 A 
ATOM     43  C   UNL A   1      38.173  30.938  30.567  1.00  0.00     0.049 A 
ATOM     44  N   UNL A   1      39.234  31.733  33.265  1.00  0.00    -0.248 NA
ATOM     45  C   UNL A   1      37.530  33.321  33.417  1.00  0.00     0.031 C 
ATOM     46  C   UNL A   1      37.760  30.577  29.209  1.00  0.00     0.029 A 
ATOM     47  N   UNL A   1      39.251  30.123  30.814  1.00  0.00    -0.354 N 
ATOM     48  C   UNL A   1      39.390  32.462  34.436  1.00  0.00     0.074 A 
ATOM     49  C   UNL A   1      38.343  33.463  34.453  1.00  0.00     0.031 C 
ATOM     50  C   UNL A   1      38.588  29.633  28.736  1.00  0.00     0.029 A 
ATOM     51  C   UNL A   1      39.606  29.342  29.740  1.00  0.00     0.049 A 
ATOM     52  H   UNL A   1      39.722  30.100  31.679  1.00  0.00     0.167 HD
ATOM     53  C   UNL A   1      40.305  32.300  35.422  1.00  0.00     0.034 A 
ATOM     54  C   UNL A   1      40.648  28.503  29.569  1.00  0.00     0.034 A 
ATOM     55  C   UNL A   1      41.307  31.270  35.427  1.00  0.00     0.049 A 
ATOM     56  C   UNL A   1      41.608  28.285  30.706  1.00  0.00     0.074 A 
ATOM     57  C   UNL A   1      42.202  30.945  36.431  1.00  0.00     0.029 A 
ATOM     58  N   UNL A   1      41.554  30.401  34.376  1.00  0.00    -0.354 N 
ATOM     59  N   UNL A   1      41.630  28.859  31.885  1.00  0.00    -0.248 NA
ATOM     60  C   UNL A   1      42.660  27.277  30.509  1.00  0.00     0.031 C 
ATOM     61  C   UNL A   1      43.003  29.891  35.978  1.00  0.00     0.029 A 
ATOM     62  C   UNL A   1      42.594  29.546  34.700  1.00  0.00     0.049 A 
ATOM     63  H   UNL A   1      41.063  30.393  33.522  1.00  0.00     0.167 HD
ATOM     64  C   UNL A   1      42.676  28.262  32.581  1.00  0.00     0.074 A 
ATOM     65  C   UNL A   1      43.252  27.270  31.697  1.00  0.00     0.031 C 
ATOM     66  C   UNL A   1      43.125  28.524  33.833  1.00  0.00     0.034 A 
BRANCH  53  67
ATOM     67  C   UNL A   1      40.230  33.234  36.601  1.00  0.00     0.023 A 
ATOM     68  C   UNL A   1      39.231  33.042  37.579  1.00  0.00     0.012 A 
ATOM     69  C   UNL A   1      41.164  34.275  36.765  1.00  0.00     0.148 A 
ATOM     70  C   UNL A   1      39.135  33.897  38.675  1.00  0.00     0.002 A 
ATOM     71  C   UNL A   1      41.090  35.096  37.885  1.00  0.00     0.091 A 
ATOM     72  F   UNL A   1      42.092  34.460  35.816  1.00  0.00    -0.205 F 
ATOM     73  C   UNL A   1      40.069  34.917  38.833  1.00  0.00     0.022 A 
BRANCH  71  74
ATOM     74  S   UNL A   1      42.298  36.385  38.210  1.00  0.00     0.127 S 
ATOM     75  O   UNL A   1      42.427  37.009  36.894  1.00  0.00    -0.237 OA
ATOM     76  O   UNL A   1      41.616  37.208  39.210  1.00  0.00    -0.237 OA
ATOM     77  O   UNL A   1      43.484  35.698  38.704  1.00  0.00    -0.744 OA
ENDBRANCH  71  74
ENDBRANCH  53  67
BRANCH  54  78
ATOM     78  C   UNL A   1      40.788  27.767  28.282  1.00  0.00     0.023 A 
ATOM     79  C   UNL A   1      41.424  28.393  27.193  1.00  0.00     0.012 A 
ATOM     80  C   UNL A   1      40.364  26.429  28.154  1.00  0.00     0.148 A 
ATOM     81  C   UNL A   1      41.619  27.708  25.994  1.00  0.00     0.002 A 
ATOM     82  C   UNL A   1      40.612  25.734  26.977  1.00  0.00     0.091 A 
ATOM     83  F   UNL A   1      39.753  25.855  29.200  1.00  0.00    -0.205 F 
ATOM     84  C   UNL A   1      41.225  26.375  25.889  1.00  0.00     0.022 A 
BRANCH  82  85
ATOM     85  S   UNL A   1      40.271  23.978  26.802  1.00  0.00     0.127 S 
ATOM     86  O   UNL A   1      38.910  23.987  26.277  1.00  0.00    -0.237 OA
ATOM     87  O   UNL A   1      41.300  23.564  25.845  1.00  0.00    -0.237 OA
ATOM     88  O   UNL A   1      40.432  23.409  28.133  1.00  0.00    -0.744 OA
ENDBRANCH  82  85
ENDBRANCH  54  78
BRANCH  66  89
ATOM     89  C   UNL A   1      44.281  27.710  34.351  1.00  0.00     0.023 A 
ATOM     90  C   UNL A   1      45.595  28.199  34.219  1.00  0.00     0.012 A 
ATOM     91  C   UNL A   1      44.056  26.508  35.053  1.00  0.00     0.148 A 
ATOM     92  C   UNL A   1      46.671  27.494  34.758  1.00  0.00     0.002 A 
ATOM     93  C   UNL A   1      45.129  25.835  35.626  1.00  0.00     0.091 A 
ATOM     94  F   UNL A   1      42.801  26.049  35.149  1.00  0.00    -0.205 F 
ATOM     95  C   UNL A   1      46.437  26.320  35.472  1.00  0.00     0.022 A 
BRANCH  93  96
ATOM     96  S   UNL A   1      44.910  24.369  36.642  1.00  0.00     0.127 S 
ATOM     97  O   UNL A   1      44.094  23.523  35.773  1.00  0.00    -0.237 OA
ATOM     98  O   UNL A   1      46.286  23.908  36.825  1.00  0.00    -0.237 OA
ATOM     99  O   UNL A   1      44.259  24.822  37.864  1.00  0.00    -0.744 OA
ENDBRANCH  93  96
ENDBRANCH  66  89
ENDBRANCH  40  41
ENDBRANCH  32  35
ENDBRANCH  30  31
ENDBRANCH  29  30
ENDBRANCH  28  29
ENDBRANCH  27  28
ENDBRANCH   1  27
TORSDOF 22
ENDMDL
MODEL 2
REMARK VINA RESULT:     -10.2      1.822      2.174
REMARK SMILES CCN(CC(=O)NC(C)C)C(=O)N[C@H]1C=C[C@H](C(=O)NCCCCCCNC(=O)c2ccc(-c3c4nc(c(-c5cccc(S(=O)(=O)[O-])c5F)c5ccc([nH]5)c(-c5cccc(S(=O)(=O)[O-])c5F)c5nc(c(-c6cccc(S(=O)(=O)[O-])c6F)c6ccc3[nH]6)C=C5)C=C4)cc2)C1
REMARK SMILES IDX 22 1 21 2 20 3 18 4 19 5 17 7 14 8 15 9 93 10 16 11 13 12
REMARK SMILES IDX 11 13 12 14 3 16 2 17 1 18 4 19 5 20 6 21 7 22 8 24 9 25
REMARK SMILES IDX 10 26 23 27 24 28 25 29 26 30 27 31 28 32 29 34 30 35 31 36
REMARK SMILES IDX 92 37 32 38 91 39 33 40 34 41 35 42 85 43 36 44 90 45 84 46
REMARK SMILES IDX 86 47 37 48 89 49 83 50 82 51 38 53 70 54 50 55 69 56 51 57
REMARK SMILES IDX 54 58 68 59 87 60 52 61 53 62 67 64 88 65 55 66 39 67 40 68
REMARK SMILES IDX 48 69 41 70 43 71 49 72 42 73 44 74 45 75 46 76 47 77 71 78
REMARK SMILES IDX 72 79 80 80 73 81 75 82 81 83 74 84 76 85 77 86 78 87 79 88
REMARK SMILES IDX 56 89 57 90 65 91 58 92 60 93 66 94 59 95 61 96 62 97 63 98
REMARK SMILES IDX 64 99
REMARK H PARENT 20 6 13 15 7 23 27 33 86 52 54 63
REMARK Flexibility Score: inf
ROOT
ATOM      1  C   UNL A   1      32.800  28.817  26.915  1.00  0.00     0.021 C 
ENDROOT
BRANCH   1   2
ATOM      2  C   UNL A   1      32.370  28.552  25.471  1.00  0.00     0.116 C 
BRANCH   2   3
ATOM      3  N   UNL A   1      31.219  27.667  25.424  1.00  0.00    -0.356 N 
ATOM      4  C   UNL A   1      31.017  26.409  24.964  1.00  0.00     0.227 C 
ATOM      5  O   UNL A   1      29.850  25.994  25.030  1.00  0.00    -0.274 OA
ATOM      6  H   UNL A   1      30.409  28.069  25.812  1.00  0.00     0.163 HD
BRANCH   4   7
ATOM      7  C   UNL A   1      32.110  25.466  24.412  1.00  0.00     0.103 C 
ATOM      8  C   UNL A   1      33.094  24.461  26.363  1.00  0.00     0.107 C 
ATOM      9  C   UNL A   1      34.118  25.246  25.609  1.00  0.00    -0.006 C 
ATOM     10  C   UNL A   1      32.084  24.170  25.252  1.00  0.00     0.047 C 
ATOM     11  C   UNL A   1      33.566  25.806  24.523  1.00  0.00    -0.016 C 
BRANCH   8  12
ATOM     12  N   UNL A   1      33.695  23.291  26.938  1.00  0.00    -0.332 N 
ATOM     13  C   UNL A   1      34.291  22.175  26.493  1.00  0.00     0.318 C 
ATOM     14  O   UNL A   1      34.685  21.415  27.386  1.00  0.00    -0.249 OA
ATOM     15  H   UNL A   1      33.661  23.315  27.921  1.00  0.00     0.165 HD
BRANCH  13  16
ATOM     16  N   UNL A   1      34.487  21.869  25.171  1.00  0.00    -0.316 N 
BRANCH  16  17
ATOM     17  C   UNL A   1      35.648  22.504  24.533  1.00  0.00     0.118 C 
ATOM     18  C   UNL A   1      35.389  22.917  23.088  1.00  0.00     0.027 C 
ENDBRANCH  16  17
BRANCH  16  19
ATOM     19  C   UNL A   1      33.608  21.091  24.286  1.00  0.00     0.221 C 
BRANCH  19  20
ATOM     20  C   UNL A   1      32.431  20.330  24.936  1.00  0.00     0.239 C 
ATOM     21  O   UNL A   1      31.410  20.938  25.280  1.00  0.00    -0.273 OA
ATOM     22  N   UNL A   1      32.411  18.974  25.040  1.00  0.00    -0.352 N 
ATOM     23  H   UNL A   1      31.884  18.611  25.788  1.00  0.00     0.163 HD
BRANCH  22  24
ATOM     24  C   UNL A   1      33.064  17.993  24.194  1.00  0.00     0.075 C 
ATOM     25  C   UNL A   1      32.656  18.156  22.738  1.00  0.00     0.030 C 
ATOM     26  C   UNL A   1      34.577  18.128  24.364  1.00  0.00     0.030 C 
ENDBRANCH  22  24
ENDBRANCH  19  20
ENDBRANCH  16  19
ENDBRANCH  13  16
ENDBRANCH   8  12
ENDBRANCH   4   7
ENDBRANCH   2   3
ENDBRANCH   1   2
BRANCH   1  27
ATOM     27  C   UNL A   1      32.760  30.291  27.337  1.00  0.00     0.002 C 
BRANCH  27  28
ATOM     28  C   UNL A   1      31.674  31.145  26.670  1.00  0.00     0.002 C 
BRANCH  28  29
ATOM     29  C   UNL A   1      31.955  32.648  26.612  1.00  0.00     0.021 C 
BRANCH  29  30
ATOM     30  C   UNL A   1      32.955  33.161  27.643  1.00  0.00     0.116 C 
BRANCH  30  31
ATOM     31  N   UNL A   1      32.628  34.497  28.122  1.00  0.00    -0.352 N 
ATOM     32  C   UNL A   1      33.116  35.160  29.223  1.00  0.00     0.251 C 
ATOM     33  H   UNL A   1      31.969  34.992  27.585  1.00  0.00     0.163 HD
ATOM     34  O   UNL A   1      32.621  36.227  29.575  1.00  0.00    -0.269 OA
BRANCH  32  35
ATOM     35  C   UNL A   1      34.228  34.567  29.997  1.00  0.00     0.039 A 
ATOM     36  C   UNL A   1      33.952  33.932  31.211  1.00  0.00     0.014 A 
ATOM     37  C   UNL A   1      35.536  34.616  29.508  1.00  0.00     0.014 A 
ATOM     38  C   UNL A   1      34.978  33.279  31.900  1.00  0.00     0.010 A 
ATOM     39  C   UNL A   1      36.542  33.912  30.163  1.00  0.00     0.010 A 
ATOM     40  C   UNL A   1      36.274  33.233  31.362  1.00  0.00    -0.014 A 
BRANCH  40  41
ATOM     41  C   UNL A   1      37.366  32.459  32.007  1.00  0.00     0.031 A 
ATOM     42  C   UNL A   1      37.957  32.930  33.306  1.00  0.00     0.074 A 
ATOM     43  C   UNL A   1      37.920  31.420  31.353  1.00  0.00     0.049 A 
ATOM     44  N   UNL A   1      39.004  32.479  33.948  1.00  0.00    -0.248 NA
ATOM     45  C   UNL A   1      37.309  34.084  33.948  1.00  0.00     0.031 C 
ATOM     46  C   UNL A   1      37.495  30.924  30.042  1.00  0.00     0.029 A 
ATOM     47  N   UNL A   1      38.995  30.628  31.674  1.00  0.00    -0.354 N 
ATOM     48  C   UNL A   1      39.172  33.323  35.037  1.00  0.00     0.074 A 
ATOM     49  C   UNL A   1      38.131  34.327  34.959  1.00  0.00     0.031 C 
ATOM     50  C   UNL A   1      38.314  29.931  29.661  1.00  0.00     0.029 A 
ATOM     51  C   UNL A   1      39.339  29.739  30.683  1.00  0.00     0.049 A 
ATOM     52  H   UNL A   1      39.473  30.691  32.533  1.00  0.00     0.167 HD
ATOM     53  C   UNL A   1      40.094  33.258  36.028  1.00  0.00     0.034 A 
ATOM     54  C   UNL A   1      40.375  28.881  30.591  1.00  0.00     0.034 A 
ATOM     55  C   UNL A   1      41.091  32.228  36.131  1.00  0.00     0.049 A 
ATOM     56  C   UNL A   1      41.342  28.775  31.738  1.00  0.00     0.074 A 
ATOM     57  C   UNL A   1      41.992  32.002  37.157  1.00  0.00     0.029 A 
ATOM     58  N   UNL A   1      41.326  31.255  35.173  1.00  0.00    -0.354 N 
ATOM     59  N   UNL A   1      41.376  29.466  32.852  1.00  0.00    -0.248 NA
ATOM     60  C   UNL A   1      42.388  27.746  31.637  1.00  0.00     0.031 C 
ATOM     61  C   UNL A   1      42.784  30.903  36.808  1.00  0.00     0.029 A 
ATOM     62  C   UNL A   1      42.364  30.431  35.575  1.00  0.00     0.049 A 
ATOM     63  H   UNL A   1      40.828  31.163  34.328  1.00  0.00     0.167 HD
ATOM     64  C   UNL A   1      42.424  28.938  33.598  1.00  0.00     0.074 A 
ATOM     65  C   UNL A   1      42.988  27.857  32.816  1.00  0.00     0.031 C 
ATOM     66  C   UNL A   1      42.884  29.324  34.814  1.00  0.00     0.034 A 
BRANCH  53  67
ATOM     67  C   UNL A   1      40.032  34.307  37.107  1.00  0.00     0.023 A 
ATOM     68  C   UNL A   1      40.482  35.615  36.832  1.00  0.00     0.012 A 
ATOM     69  C   UNL A   1      39.498  34.014  38.377  1.00  0.00     0.148 A 
ATOM     70  C   UNL A   1      40.444  36.602  37.817  1.00  0.00     0.002 A 
ATOM     71  C   UNL A   1      39.421  35.015  39.339  1.00  0.00     0.091 A 
ATOM     72  F   UNL A   1      39.097  32.760  38.630  1.00  0.00    -0.205 F 
ATOM     73  C   UNL A   1      39.905  36.305  39.065  1.00  0.00     0.022 A 
BRANCH  71  74
ATOM     74  S   UNL A   1      38.670  34.742  40.947  1.00  0.00     0.127 S 
ATOM     75  O   UNL A   1      38.407  36.111  41.388  1.00  0.00    -0.237 OA
ATOM     76  O   UNL A   1      37.472  33.971  40.607  1.00  0.00    -0.237 OA
ATOM     77  O   UNL A   1      39.658  34.005  41.724  1.00  0.00    -0.744 OA
ENDBRANCH  71  74
ENDBRANCH  53  67
BRANCH  54  78
ATOM     78  C   UNL A   1      40.502  28.017  29.385  1.00  0.00     0.023 A 
ATOM     79  C   UNL A   1      39.608  26.944  29.206  1.00  0.00     0.012 A 
ATOM     80  C   UNL A   1      41.450  28.296  28.381  1.00  0.00     0.148 A 
ATOM     81  C   UNL A   1      39.669  26.152  28.059  1.00  0.00     0.002 A 
ATOM     82  C   UNL A   1      41.468  27.541  27.215  1.00  0.00     0.091 A 
ATOM     83  F   UNL A   1      42.297  29.318  28.575  1.00  0.00    -0.205 F 
ATOM     84  C   UNL A   1      40.589  26.457  27.058  1.00  0.00     0.022 A 
BRANCH  82  85
ATOM     85  S   UNL A   1      42.518  27.949  25.815  1.00  0.00     0.127 S 
ATOM     86  O   UNL A   1      43.853  27.788  26.383  1.00  0.00    -0.237 OA
ATOM     87  O   UNL A   1      42.134  26.925  24.841  1.00  0.00    -0.237 OA
ATOM     88  O   UNL A   1      42.153  29.305  25.429  1.00  0.00    -0.744 OA
ENDBRANCH  82  85
ENDBRANCH  54  78
BRANCH  66  89
ATOM     89  C   UNL A   1      44.039  28.560  35.404  1.00  0.00     0.023 A 
ATOM     90  C   UNL A   1      45.356  28.872  35.013  1.00  0.00     0.012 A 
ATOM     91  C   UNL A   1      43.826  27.602  36.415  1.00  0.00     0.148 A 
ATOM     92  C   UNL A   1      46.442  28.226  35.603  1.00  0.00     0.002 A 
ATOM     93  C   UNL A   1      44.915  26.995  37.031  1.00  0.00     0.091 A 
ATOM     94  F   UNL A   1      42.565  27.304  36.759  1.00  0.00    -0.205 F 
ATOM     95  C   UNL A   1      46.223  27.299  36.620  1.00  0.00     0.022 A 
BRANCH  93  96
ATOM     96  S   UNL A   1      44.729  25.862  38.413  1.00  0.00     0.127 S 
ATOM     97  O   UNL A   1      44.202  24.670  37.751  1.00  0.00    -0.237 OA
ATOM     98  O   UNL A   1      46.104  25.733  38.897  1.00  0.00    -0.237 OA
ATOM     99  O   UNL A   1      43.821  26.514  39.346  1.00  0.00    -0.744 OA
ENDBRANCH  93  96
ENDBRANCH  66  89
ENDBRANCH  40  41
ENDBRANCH  32  35
ENDBRANCH  30  31
ENDBRANCH  29  30
ENDBRANCH  28  29
ENDBRANCH  27  28
ENDBRANCH   1  27
TORSDOF 22
ENDMDL
MODEL 3
REMARK VINA RESULT:      -9.9      2.120      2.899
REMARK SMILES CCN(CC(=O)NC(C)C)C(=O)N[C@H]1C=C[C@H](C(=O)NCCCCCCNC(=O)c2ccc(-c3c4nc(c(-c5cccc(S(=O)(=O)[O-])c5F)c5ccc([nH]5)c(-c5cccc(S(=O)(=O)[O-])c5F)c5nc(c(-c6cccc(S(=O)(=O)[O-])c6F)c6ccc3[nH]6)C=C5)C=C4)cc2)C1
REMARK SMILES IDX 22 1 21 2 20 3 18 4 19 5 17 7 14 8 15 9 93 10 16 11 13 12
REMARK SMILES IDX 11 13 12 14 3 16 2 17 1 18 4 19 5 20 6 21 7 22 8 24 9 25
REMARK SMILES IDX 10 26 23 27 24 28 25 29 26 30 27 31 28 32 29 34 30 35 31 36
REMARK SMILES IDX 92 37 32 38 91 39 33 40 34 41 35 42 85 43 36 44 90 45 84 46
REMARK SMILES IDX 86 47 37 48 89 49 83 50 82 51 38 53 70 54 50 55 69 56 51 57
REMARK SMILES IDX 54 58 68 59 87 60 52 61 53 62 67 64 88 65 55 66 39 67 40 68
REMARK SMILES IDX 48 69 41 70 43 71 49 72 42 73 44 74 45 75 46 76 47 77 71 78
REMARK SMILES IDX 72 79 80 80 73 81 75 82 81 83 74 84 76 85 77 86 78 87 79 88
REMARK SMILES IDX 56 89 57 90 65 91 58 92 60 93 66 94 59 95 61 96 62 97 63 98
REMARK SMILES IDX 64 99
REMARK H PARENT 20 6 13 15 7 23 27 33 86 52 54 63
REMARK Flexibility Score: inf
ROOT
ATOM      1  C   UNL A   1      32.873  28.833  26.705  1.00  0.00     0.021 C 
ENDROOT
BRANCH   1   2
ATOM      2  C   UNL A   1      32.093  28.339  25.486  1.00  0.00     0.116 C 
BRANCH   2   3
ATOM      3  N   UNL A   1      31.188  27.261  25.849  1.00  0.00    -0.356 N 
ATOM      4  C   UNL A   1      30.545  26.296  25.149  1.00  0.00     0.227 C 
ATOM      5  O   UNL A   1      29.777  25.578  25.806  1.00  0.00    -0.274 OA
ATOM      6  H   UNL A   1      31.003  27.223  26.814  1.00  0.00     0.163 HD
BRANCH   4   7
ATOM      7  C   UNL A   1      30.719  26.010  23.640  1.00  0.00     0.103 C 
ATOM      8  C   UNL A   1      31.569  23.763  23.538  1.00  0.00     0.107 C 
ATOM      9  C   UNL A   1      32.552  24.718  22.944  1.00  0.00    -0.006 C 
ATOM     10  C   UNL A   1      30.270  24.555  23.381  1.00  0.00     0.047 C 
ATOM     11  C   UNL A   1      32.076  25.970  23.003  1.00  0.00    -0.016 C 
BRANCH   8  12
ATOM     12  N   UNL A   1      31.594  22.519  22.822  1.00  0.00    -0.332 N 
ATOM     13  C   UNL A   1      32.234  21.343  22.920  1.00  0.00     0.318 C 
ATOM     14  O   UNL A   1      31.921  20.518  22.053  1.00  0.00    -0.249 OA
ATOM     15  H   UNL A   1      30.978  22.532  22.055  1.00  0.00     0.165 HD
BRANCH  13  16
ATOM     16  N   UNL A   1      33.149  21.031  23.892  1.00  0.00    -0.316 N 
BRANCH  16  17
ATOM     17  C   UNL A   1      32.700  20.068  24.907  1.00  0.00     0.118 C 
ATOM     18  C   UNL A   1      32.993  18.620  24.533  1.00  0.00     0.027 C 
ENDBRANCH  16  17
BRANCH  16  19
ATOM     19  C   UNL A   1      34.469  21.638  24.115  1.00  0.00     0.221 C 
BRANCH  19  20
ATOM     20  C   UNL A   1      35.239  21.225  25.390  1.00  0.00     0.239 C 
ATOM     21  O   UNL A   1      36.164  20.407  25.322  1.00  0.00    -0.273 OA
ATOM     22  N   UNL A   1      35.026  21.822  26.593  1.00  0.00    -0.352 N 
ATOM     23  H   UNL A   1      35.215  21.269  27.385  1.00  0.00     0.163 HD
BRANCH  22  24
ATOM     24  C   UNL A   1      34.556  23.169  26.863  1.00  0.00     0.075 C 
ATOM     25  C   UNL A   1      35.070  24.155  25.826  1.00  0.00     0.030 C 
ATOM     26  C   UNL A   1      33.028  23.155  26.906  1.00  0.00     0.030 C 
ENDBRANCH  22  24
ENDBRANCH  19  20
ENDBRANCH  16  19
ENDBRANCH  13  16
ENDBRANCH   8  12
ENDBRANCH   4   7
ENDBRANCH   2   3
ENDBRANCH   1   2
BRANCH   1  27
ATOM     27  C   UNL A   1      32.851  30.353  26.909  1.00  0.00     0.002 C 
BRANCH  27  28
ATOM     28  C   UNL A   1      31.542  31.056  26.528  1.00  0.00     0.002 C 
BRANCH  28  29
ATOM     29  C   UNL A   1      31.555  32.583  26.631  1.00  0.00     0.021 C 
BRANCH  29  30
ATOM     30  C   UNL A   1      32.742  33.171  27.386  1.00  0.00     0.116 C 
BRANCH  30  31
ATOM     31  N   UNL A   1      32.492  34.530  27.850  1.00  0.00    -0.352 N 
ATOM     32  C   UNL A   1      33.065  35.198  28.906  1.00  0.00     0.251 C 
ATOM     33  H   UNL A   1      31.823  35.038  27.337  1.00  0.00     0.163 HD
ATOM     34  O   UNL A   1      32.630  36.291  29.258  1.00  0.00    -0.269 OA
BRANCH  32  35
ATOM     35  C   UNL A   1      34.196  34.580  29.632  1.00  0.00     0.039 A 
ATOM     36  C   UNL A   1      33.948  33.894  30.824  1.00  0.00     0.014 A 
ATOM     37  C   UNL A   1      35.493  34.657  29.119  1.00  0.00     0.014 A 
ATOM     38  C   UNL A   1      34.991  33.220  31.464  1.00  0.00     0.010 A 
ATOM     39  C   UNL A   1      36.516  33.933  29.724  1.00  0.00     0.010 A 
ATOM     40  C   UNL A   1      36.275  33.203  30.899  1.00  0.00    -0.014 A 
BRANCH  40  41
ATOM     41  C   UNL A   1      37.384  32.410  31.489  1.00  0.00     0.031 A 
ATOM     42  C   UNL A   1      37.909  32.749  32.857  1.00  0.00     0.074 A 
ATOM     43  C   UNL A   1      38.012  31.484  30.738  1.00  0.00     0.049 A 
ATOM     44  N   UNL A   1      38.956  32.274  33.480  1.00  0.00    -0.248 NA
ATOM     45  C   UNL A   1      37.182  33.786  33.605  1.00  0.00     0.031 C 
ATOM     46  C   UNL A   1      37.655  31.129  29.363  1.00  0.00     0.029 A 
ATOM     47  N   UNL A   1      39.115  30.711  31.005  1.00  0.00    -0.354 N 
ATOM     48  C   UNL A   1      39.045  32.988  34.667  1.00  0.00     0.074 A 
ATOM     49  C   UNL A   1      37.957  33.944  34.668  1.00  0.00     0.031 C 
ATOM     50  C   UNL A   1      38.536  30.229  28.899  1.00  0.00     0.029 A 
ATOM     51  C   UNL A   1      39.536  29.964  29.929  1.00  0.00     0.049 A 
ATOM     52  H   UNL A   1      39.561  30.692  31.883  1.00  0.00     0.167 HD
ATOM     53  C   UNL A   1      39.936  32.849  35.678  1.00  0.00     0.034 A 
ATOM     54  C   UNL A   1      40.617  29.173  29.777  1.00  0.00     0.034 A 
ATOM     55  C   UNL A   1      40.981  31.861  35.697  1.00  0.00     0.049 A 
ATOM     56  C   UNL A   1      41.551  28.976  30.939  1.00  0.00     0.074 A 
ATOM     57  C   UNL A   1      41.859  31.557  36.722  1.00  0.00     0.029 A 
ATOM     58  N   UNL A   1      41.297  31.023  34.639  1.00  0.00    -0.354 N 
ATOM     59  N   UNL A   1      41.514  29.529  32.127  1.00  0.00    -0.248 NA
ATOM     60  C   UNL A   1      42.651  28.017  30.758  1.00  0.00     0.031 C 
ATOM     61  C   UNL A   1      42.718  30.546  36.277  1.00  0.00     0.029 A 
ATOM     62  C   UNL A   1      42.362  30.207  34.981  1.00  0.00     0.049 A 
ATOM     63  H   UNL A   1      40.832  31.009  33.771  1.00  0.00     0.167 HD
ATOM     64  C   UNL A   1      42.562  28.965  32.845  1.00  0.00     0.074 A 
ATOM     65  C   UNL A   1      43.207  28.013  31.963  1.00  0.00     0.031 C 
ATOM     66  C   UNL A   1      42.962  29.224  34.115  1.00  0.00     0.034 A 
BRANCH  53  67
ATOM     67  C   UNL A   1      39.786  33.757  36.870  1.00  0.00     0.023 A 
ATOM     68  C   UNL A   1      40.282  35.075  36.807  1.00  0.00     0.012 A 
ATOM     69  C   UNL A   1      39.125  33.323  38.036  1.00  0.00     0.148 A 
ATOM     70  C   UNL A   1      40.164  35.933  37.900  1.00  0.00     0.002 A 
ATOM     71  C   UNL A   1      38.970  34.199  39.105  1.00  0.00     0.091 A 
ATOM     72  F   UNL A   1      38.680  32.060  38.089  1.00  0.00    -0.205 F 
ATOM     73  C   UNL A   1      39.500  35.498  39.044  1.00  0.00     0.022 A 
BRANCH  71  74
ATOM     74  S   UNL A   1      38.060  33.750  40.587  1.00  0.00     0.127 S 
ATOM     75  O   UNL A   1      37.939  35.040  41.263  1.00  0.00    -0.237 OA
ATOM     76  O   UNL A   1      36.806  33.230  40.038  1.00  0.00    -0.237 OA
ATOM     77  O   UNL A   1      38.878  32.753  41.265  1.00  0.00    -0.744 OA
ENDBRANCH  71  74
ENDBRANCH  53  67
BRANCH  54  78
ATOM     78  C   UNL A   1      40.827  28.466  28.483  1.00  0.00     0.023 A 
ATOM     79  C   UNL A   1      41.473  29.136  27.426  1.00  0.00     0.012 A 
ATOM     80  C   UNL A   1      40.460  27.116  28.318  1.00  0.00     0.148 A 
ATOM     81  C   UNL A   1      41.732  28.480  26.223  1.00  0.00     0.002 A 
ATOM     82  C   UNL A   1      40.772  26.452  27.139  1.00  0.00     0.091 A 
ATOM     83  F   UNL A   1      39.838  26.499  29.334  1.00  0.00    -0.205 F 
ATOM     84  C   UNL A   1      41.394  27.136  26.082  1.00  0.00     0.022 A 
BRANCH  82  85
ATOM     85  S   UNL A   1      40.506  24.688  26.923  1.00  0.00     0.127 S 
ATOM     86  O   UNL A   1      39.106  24.643  26.511  1.00  0.00    -0.237 OA
ATOM     87  O   UNL A   1      41.470  24.363  25.870  1.00  0.00    -0.237 OA
ATOM     88  O   UNL A   1      40.805  24.081  28.213  1.00  0.00    -0.744 OA
ENDBRANCH  82  85
ENDBRANCH  54  78
BRANCH  66  89
ATOM     89  C   UNL A   1      44.136  28.450  34.655  1.00  0.00     0.023 A 
ATOM     90  C   UNL A   1      43.923  27.210  35.288  1.00  0.00     0.012 A 
ATOM     91  C   UNL A   1      45.453  28.906  34.448  1.00  0.00     0.148 A 
ATOM     92  C   UNL A   1      45.004  26.445  35.728  1.00  0.00     0.002 A 
ATOM     93  C   UNL A   1      46.526  28.117  34.849  1.00  0.00     0.091 A 
ATOM     94  F   UNL A   1      45.634  30.098  33.863  1.00  0.00    -0.205 F 
ATOM     95  C   UNL A   1      46.303  26.891  35.497  1.00  0.00     0.022 A 
BRANCH  93  96
ATOM     96  S   UNL A   1      48.231  28.568  34.506  1.00  0.00     0.127 S 
ATOM     97  O   UNL A   1      48.208  28.739  33.054  1.00  0.00    -0.237 OA
ATOM     98  O   UNL A   1      48.382  29.811  35.264  1.00  0.00    -0.237 OA
ATOM     99  O   UNL A   1      49.044  27.463  34.995  1.00  0.00    -0.744 OA
ENDBRANCH  93  96
ENDBRANCH  66  89
ENDBRANCH  40  41
ENDBRANCH  32  35
ENDBRANCH  30  31
ENDBRANCH  29  30
ENDBRANCH  28  29
ENDBRANCH  27  28
ENDBRANCH   1  27
TORSDOF 22
ENDMDL
