MODEL 1
REMARK VINA RESULT:     -11.8      0.000      0.000
REMARK SMILES NC(=O)C[C@H](NC(=O)c1cccc2[nH]ccc12)C(=O)NCCCCCCNC(=O)c1ccc(-c2c3nc(c(-c4cccc(S(=O)(=O)[O-])c4F)c4ccc([nH]4)c(-c4cccc(S(=O)(=O)[O-])c4F)c4nc(c(-c5cccc(S(=O)(=O)[O-])c5F)c5ccc2[nH]5)C=C4)C=C3)cc1
REMARK SMILES IDX 24 1 23 2 22 3 21 4 20 5 18 6 19 7 5 9 4 10 2 11 1 12 3 15
REMARK SMILES IDX 6 16 7 17 8 19 9 20 10 21 17 22 11 23 13 24 16 25 12 26
REMARK SMILES IDX 14 27 15 28 25 30 26 31 27 32 28 33 29 35 30 36 31 37 92 38
REMARK SMILES IDX 32 39 91 40 33 41 34 42 35 43 85 44 36 45 90 46 84 47 86 48
REMARK SMILES IDX 37 49 89 50 83 51 82 52 38 54 70 55 50 56 69 57 51 58 54 59
REMARK SMILES IDX 68 60 87 61 52 62 53 63 67 65 88 66 55 67 39 68 40 69 48 70
REMARK SMILES IDX 41 71 43 72 49 73 42 74 44 75 45 76 46 77 47 78 71 79 72 80
REMARK SMILES IDX 80 81 73 82 75 83 81 84 74 85 76 86 77 87 78 88 79 89 56 90
REMARK SMILES IDX 57 91 65 92 58 93 60 94 66 95 59 96 61 97 62 98 63 99 64 100
REMARK H PARENT 20 8 1 13 1 14 6 18 14 29 27 34 86 53 54 64
REMARK Flexibility Score: inf
ROOT
ATOM      1  C   UNL A   1      34.971  20.958  24.852  1.00  0.00     0.002 C 
ENDROOT
BRANCH   1   2
ATOM      2  C   UNL A   1      33.712  21.403  24.106  1.00  0.00     0.002 C 
BRANCH   2   3
ATOM      3  C   UNL A   1      33.928  22.496  23.053  1.00  0.00     0.021 C 
BRANCH   3   4
ATOM      4  C   UNL A   1      32.682  23.296  22.676  1.00  0.00     0.116 C 
BRANCH   4   5
ATOM      5  N   UNL A   1      32.881  24.193  21.555  1.00  0.00    -0.354 N 
ATOM      6  C   UNL A   1      32.700  25.538  21.463  1.00  0.00     0.243 C 
ATOM      7  O   UNL A   1      33.077  26.098  20.429  1.00  0.00    -0.273 OA
ATOM      8  H   UNL A   1      33.197  23.760  20.729  1.00  0.00     0.163 HD
BRANCH   6   9
ATOM      9  C   UNL A   1      32.182  26.370  22.650  1.00  0.00     0.180 C 
BRANCH   9  10
ATOM     10  C   UNL A   1      31.096  27.321  22.093  1.00  0.00     0.134 C 
BRANCH  10  11
ATOM     11  C   UNL A   1      31.057  28.713  22.669  1.00  0.00     0.220 C 
ATOM     12  N   UNL A   1      31.171  29.727  21.768  1.00  0.00    -0.370 N 
ATOM     13  H   UNL A   1      31.153  30.663  22.074  1.00  0.00     0.159 HD
ATOM     14  H   UNL A   1      31.271  29.525  20.810  1.00  0.00     0.159 HD
ATOM     15  O   UNL A   1      30.915  28.946  23.862  1.00  0.00    -0.275 OA
ENDBRANCH  10  11
ENDBRANCH   9  10
BRANCH   9  16
ATOM     16  N   UNL A   1      33.192  26.985  23.524  1.00  0.00    -0.340 N 
ATOM     17  C   UNL A   1      33.417  26.795  24.873  1.00  0.00     0.252 C 
ATOM     18  H   UNL A   1      33.796  27.626  23.083  1.00  0.00     0.164 HD
ATOM     19  O   UNL A   1      34.002  27.679  25.496  1.00  0.00    -0.269 OA
BRANCH  17  20
ATOM     20  C   UNL A   1      33.011  25.551  25.573  1.00  0.00     0.049 A 
ATOM     21  C   UNL A   1      33.977  24.679  26.093  1.00  0.00     0.014 A 
ATOM     22  C   UNL A   1      31.659  25.297  25.898  1.00  0.00     0.012 A 
ATOM     23  C   UNL A   1      33.642  23.519  26.784  1.00  0.00     0.003 A 
ATOM     24  C   UNL A   1      31.347  24.130  26.608  1.00  0.00     0.046 A 
ATOM     25  C   UNL A   1      30.426  25.987  25.700  1.00  0.00     0.029 A 
ATOM     26  C   UNL A   1      32.311  23.209  27.034  1.00  0.00     0.027 A 
ATOM     27  N   UNL A   1      29.984  24.114  26.797  1.00  0.00    -0.361 N 
ATOM     28  C   UNL A   1      29.421  25.244  26.274  1.00  0.00     0.083 A 
ATOM     29  H   UNL A   1      29.487  23.391  27.245  1.00  0.00     0.166 HD
ENDBRANCH  17  20
ENDBRANCH   9  16
ENDBRANCH   6   9
ENDBRANCH   4   5
ENDBRANCH   3   4
ENDBRANCH   2   3
ENDBRANCH   1   2
BRANCH   1  30
ATOM     30  C   UNL A   1      36.234  21.748  24.513  1.00  0.00     0.021 C 
BRANCH  30  31
ATOM     31  C   UNL A   1      37.095  22.111  25.715  1.00  0.00     0.116 C 
BRANCH  31  32
ATOM     32  N   UNL A   1      38.127  21.118  25.965  1.00  0.00    -0.352 N 
ATOM     33  C   UNL A   1      39.431  21.313  26.350  1.00  0.00     0.251 C 
ATOM     34  H   UNL A   1      37.855  20.180  25.841  1.00  0.00     0.163 HD
ATOM     35  O   UNL A   1      40.230  20.384  26.324  1.00  0.00    -0.269 OA
BRANCH  33  36
ATOM     36  C   UNL A   1      39.866  22.660  26.779  1.00  0.00     0.039 A 
ATOM     37  C   UNL A   1      40.815  22.774  27.797  1.00  0.00     0.014 A 
ATOM     38  C   UNL A   1      39.348  23.806  26.166  1.00  0.00     0.014 A 
ATOM     39  C   UNL A   1      41.285  24.037  28.164  1.00  0.00     0.010 A 
ATOM     40  C   UNL A   1      39.874  25.056  26.480  1.00  0.00     0.010 A 
ATOM     41  C   UNL A   1      40.840  25.186  27.488  1.00  0.00    -0.014 A 
BRANCH  41  42
ATOM     42  C   UNL A   1      41.380  26.531  27.818  1.00  0.00     0.031 A 
ATOM     43  C   UNL A   1      42.811  26.872  27.500  1.00  0.00     0.074 A 
ATOM     44  C   UNL A   1      40.608  27.414  28.482  1.00  0.00     0.049 A 
ATOM     45  N   UNL A   1      43.471  27.973  27.755  1.00  0.00    -0.248 NA
ATOM     46  C   UNL A   1      43.616  25.834  26.836  1.00  0.00     0.031 C 
ATOM     47  C   UNL A   1      39.234  27.168  28.928  1.00  0.00     0.029 A 
ATOM     48  N   UNL A   1      40.879  28.683  28.930  1.00  0.00    -0.354 N 
ATOM     49  C   UNL A   1      44.772  27.745  27.325  1.00  0.00     0.074 A 
ATOM     50  C   UNL A   1      44.818  26.392  26.814  1.00  0.00     0.031 C 
ATOM     51  C   UNL A   1      38.785  28.249  29.587  1.00  0.00     0.029 A 
ATOM     52  C   UNL A   1      39.844  29.252  29.635  1.00  0.00     0.049 A 
ATOM     53  H   UNL A   1      41.733  29.142  28.762  1.00  0.00     0.167 HD
ATOM     54  C   UNL A   1      45.828  28.593  27.329  1.00  0.00     0.034 A 
ATOM     55  C   UNL A   1      39.761  30.443  30.263  1.00  0.00     0.034 A 
ATOM     56  C   UNL A   1      45.765  29.953  27.788  1.00  0.00     0.049 A 
ATOM     57  C   UNL A   1      40.931  31.388  30.196  1.00  0.00     0.074 A 
ATOM     58  C   UNL A   1      46.748  30.926  27.729  1.00  0.00     0.029 A 
ATOM     59  N   UNL A   1      44.667  30.532  28.403  1.00  0.00    -0.354 N 
ATOM     60  N   UNL A   1      42.095  31.220  29.620  1.00  0.00    -0.248 NA
ATOM     61  C   UNL A   1      40.760  32.702  30.833  1.00  0.00     0.031 C 
ATOM     62  C   UNL A   1      46.253  32.085  28.336  1.00  0.00     0.029 A 
ATOM     63  C   UNL A   1      44.951  31.844  28.742  1.00  0.00     0.049 A 
ATOM     64  H   UNL A   1      43.810  30.078  28.574  1.00  0.00     0.167 HD
ATOM     65  C   UNL A   1      42.782  32.416  29.791  1.00  0.00     0.074 A 
ATOM     66  C   UNL A   1      41.894  33.309  30.507  1.00  0.00     0.031 C 
ATOM     67  C   UNL A   1      44.040  32.741  29.404  1.00  0.00     0.034 A 
BRANCH  54  68
ATOM     68  C   UNL A   1      47.137  28.094  26.776  1.00  0.00     0.023 A 
ATOM     69  C   UNL A   1      48.137  27.632  27.657  1.00  0.00     0.012 A 
ATOM     70  C   UNL A   1      47.347  28.008  25.386  1.00  0.00     0.148 A 
ATOM     71  C   UNL A   1      49.336  27.121  27.164  1.00  0.00     0.002 A 
ATOM     72  C   UNL A   1      48.527  27.453  24.901  1.00  0.00     0.091 A 
ATOM     73  F   UNL A   1      46.394  28.470  24.565  1.00  0.00    -0.205 F 
ATOM     74  C   UNL A   1      49.526  27.020  25.788  1.00  0.00     0.022 A 
BRANCH  72  75
ATOM     75  S   UNL A   1      48.832  27.201  23.149  1.00  0.00     0.127 S 
ATOM     76  O   UNL A   1      50.294  27.169  23.107  1.00  0.00    -0.237 OA
ATOM     77  O   UNL A   1      48.188  25.910  22.907  1.00  0.00    -0.237 OA
ATOM     78  O   UNL A   1      48.213  28.328  22.466  1.00  0.00    -0.744 OA
ENDBRANCH  72  75
ENDBRANCH  54  68
BRANCH  55  79
ATOM     79  C   UNL A   1      38.503  30.832  30.960  1.00  0.00     0.023 A 
ATOM     80  C   UNL A   1      38.349  30.544  32.331  1.00  0.00     0.012 A 
ATOM     81  C   UNL A   1      37.467  31.501  30.280  1.00  0.00     0.148 A 
ATOM     82  C   UNL A   1      37.173  30.881  33.002  1.00  0.00     0.002 A 
ATOM     83  C   UNL A   1      36.322  31.886  30.968  1.00  0.00     0.091 A 
ATOM     84  F   UNL A   1      37.626  31.756  28.974  1.00  0.00    -0.205 F 
ATOM     85  C   UNL A   1      36.165  31.560  32.324  1.00  0.00     0.022 A 
BRANCH  83  86
ATOM     86  S   UNL A   1      35.033  32.878  30.208  1.00  0.00     0.127 S 
ATOM     87  O   UNL A   1      34.527  31.975  29.178  1.00  0.00    -0.237 OA
ATOM     88  O   UNL A   1      34.123  33.104  31.332  1.00  0.00    -0.237 OA
ATOM     89  O   UNL A   1      35.699  34.081  29.726  1.00  0.00    -0.744 OA
ENDBRANCH  83  86
ENDBRANCH  55  79
BRANCH  67  90
ATOM     90  C   UNL A   1      44.529  34.134  29.704  1.00  0.00     0.023 A 
ATOM     91  C   UNL A   1      45.208  34.396  30.910  1.00  0.00     0.012 A 
ATOM     92  C   UNL A   1      44.385  35.164  28.753  1.00  0.00     0.148 A 
ATOM     93  C   UNL A   1      45.707  35.671  31.179  1.00  0.00     0.002 A 
ATOM     94  C   UNL A   1      44.929  36.416  29.005  1.00  0.00     0.091 A 
ATOM     95  F   UNL A   1      43.720  34.898  27.619  1.00  0.00    -0.205 F 
ATOM     96  C   UNL A   1      45.579  36.676  30.222  1.00  0.00     0.022 A 
BRANCH  94  97
ATOM     97  S   UNL A   1      44.899  37.741  27.791  1.00  0.00     0.127 S 
ATOM     98  O   UNL A   1      45.628  37.139  26.677  1.00  0.00    -0.237 OA
ATOM     99  O   UNL A   1      43.465  37.916  27.559  1.00  0.00    -0.237 OA
ATOM    100  O   UNL A   1      45.553  38.879  28.424  1.00  0.00    -0.744 OA
ENDBRANCH  94  97
ENDBRANCH  67  90
ENDBRANCH  41  42
ENDBRANCH  33  36
ENDBRANCH  31  32
ENDBRANCH  30  31
ENDBRANCH   1  30
TORSDOF 20
ENDMDL
MODEL 2
REMARK VINA RESULT:     -11.8      4.958      9.512
REMARK SMILES NC(=O)C[C@H](NC(=O)c1cccc2[nH]ccc12)C(=O)NCCCCCCNC(=O)c1ccc(-c2c3nc(c(-c4cccc(S(=O)(=O)[O-])c4F)c4ccc([nH]4)c(-c4cccc(S(=O)(=O)[O-])c4F)c4nc(c(-c5cccc(S(=O)(=O)[O-])c5F)c5ccc2[nH]5)C=C4)C=C3)cc1
REMARK SMILES IDX 24 1 23 2 22 3 21 4 20 5 18 6 19 7 5 9 4 10 2 11 1 12 3 15
REMARK SMILES IDX 6 16 7 17 8 19 9 20 10 21 17 22 11 23 13 24 16 25 12 26
REMARK SMILES IDX 14 27 15 28 25 30 26 31 27 32 28 33 29 35 30 36 31 37 92 38
REMARK SMILES IDX 32 39 91 40 33 41 34 42 35 43 85 44 36 45 90 46 84 47 86 48
REMARK SMILES IDX 37 49 89 50 83 51 82 52 38 54 70 55 50 56 69 57 51 58 54 59
REMARK SMILES IDX 68 60 87 61 52 62 53 63 67 65 88 66 55 67 39 68 40 69 48 70
REMARK SMILES IDX 41 71 43 72 49 73 42 74 44 75 45 76 46 77 47 78 71 79 72 80
REMARK SMILES IDX 80 81 73 82 75 83 81 84 74 85 76 86 77 87 78 88 79 89 56 90
REMARK SMILES IDX 57 91 65 92 58 93 60 94 66 95 59 96 61 97 62 98 63 99 64 100
REMARK H PARENT 20 8 1 13 1 14 6 18 14 29 27 34 86 53 54 64
REMARK Flexibility Score: inf
ROOT
ATOM      1  C   UNL A   1      32.351  27.088  25.754  1.00  0.00     0.002 C 
ENDROOT
BRANCH   1   2
ATOM      2  C   UNL A   1      31.019  26.814  26.453  1.00  0.00     0.002 C 
BRANCH   2   3
ATOM      3  C   UNL A   1      30.189  25.673  25.855  1.00  0.00     0.021 C 
BRANCH   3   4
ATOM      4  C   UNL A   1      30.825  24.286  25.940  1.00  0.00     0.116 C 
BRANCH   4   5
ATOM      5  N   UNL A   1      30.564  23.451  24.785  1.00  0.00    -0.354 N 
ATOM      6  C   UNL A   1      31.194  23.394  23.582  1.00  0.00     0.243 C 
ATOM      7  O   UNL A   1      30.869  22.489  22.806  1.00  0.00    -0.273 OA
ATOM      8  H   UNL A   1      29.810  22.826  24.888  1.00  0.00     0.163 HD
BRANCH   6   9
ATOM      9  C   UNL A   1      32.374  24.321  23.238  1.00  0.00     0.180 C 
BRANCH   9  10
ATOM     10  C   UNL A   1      31.807  25.470  22.373  1.00  0.00     0.134 C 
BRANCH  10  11
ATOM     11  C   UNL A   1      32.755  26.106  21.388  1.00  0.00     0.220 C 
ATOM     12  N   UNL A   1      33.269  27.311  21.758  1.00  0.00    -0.370 N 
ATOM     13  H   UNL A   1      33.895  27.783  21.162  1.00  0.00     0.159 HD
ATOM     14  H   UNL A   1      33.015  27.710  22.621  1.00  0.00     0.159 HD
ATOM     15  O   UNL A   1      33.072  25.588  20.326  1.00  0.00    -0.275 OA
ENDBRANCH  10  11
ENDBRANCH   9  10
BRANCH   9  16
ATOM     16  N   UNL A   1      33.601  23.681  22.740  1.00  0.00    -0.340 N 
ATOM     17  C   UNL A   1      34.643  23.114  23.445  1.00  0.00     0.252 C 
ATOM     18  H   UNL A   1      33.692  23.654  21.760  1.00  0.00     0.164 HD
ATOM     19  O   UNL A   1      35.737  23.019  22.892  1.00  0.00    -0.269 OA
BRANCH  17  20
ATOM     20  C   UNL A   1      34.471  22.589  24.822  1.00  0.00     0.049 A 
ATOM     21  C   UNL A   1      34.747  23.398  25.933  1.00  0.00     0.014 A 
ATOM     22  C   UNL A   1      33.860  21.337  25.061  1.00  0.00     0.012 A 
ATOM     23  C   UNL A   1      34.570  22.957  27.241  1.00  0.00     0.003 A 
ATOM     24  C   UNL A   1      33.678  20.921  26.387  1.00  0.00     0.046 A 
ATOM     25  C   UNL A   1      33.308  20.310  24.240  1.00  0.00     0.029 A 
ATOM     26  C   UNL A   1      34.052  21.693  27.493  1.00  0.00     0.027 A 
ATOM     27  N   UNL A   1      33.071  19.687  26.353  1.00  0.00    -0.361 N 
ATOM     28  C   UNL A   1      32.819  19.319  25.061  1.00  0.00     0.083 A 
ATOM     29  H   UNL A   1      32.849  19.147  27.146  1.00  0.00     0.166 HD
ENDBRANCH  17  20
ENDBRANCH   9  16
ENDBRANCH   6   9
ENDBRANCH   4   5
ENDBRANCH   3   4
ENDBRANCH   2   3
ENDBRANCH   1   2
BRANCH   1  30
ATOM     30  C   UNL A   1      32.825  28.539  25.815  1.00  0.00     0.021 C 
BRANCH  30  31
ATOM     31  C   UNL A   1      33.581  28.906  27.084  1.00  0.00     0.116 C 
BRANCH  31  32
ATOM     32  N   UNL A   1      33.662  30.345  27.272  1.00  0.00    -0.352 N 
ATOM     33  C   UNL A   1      34.627  31.073  27.926  1.00  0.00     0.251 C 
ATOM     34  H   UNL A   1      32.927  30.869  26.878  1.00  0.00     0.163 HD
ATOM     35  O   UNL A   1      34.447  32.261  28.170  1.00  0.00    -0.269 OA
BRANCH  33  36
ATOM     36  C   UNL A   1      35.876  30.404  28.349  1.00  0.00     0.039 A 
ATOM     37  C   UNL A   1      36.997  30.474  27.519  1.00  0.00     0.014 A 
ATOM     38  C   UNL A   1      35.943  29.722  29.569  1.00  0.00     0.014 A 
ATOM     39  C   UNL A   1      38.202  29.907  27.938  1.00  0.00     0.010 A 
ATOM     40  C   UNL A   1      37.164  29.226  30.017  1.00  0.00     0.010 A 
ATOM     41  C   UNL A   1      38.303  29.303  29.203  1.00  0.00    -0.014 A 
BRANCH  41  42
ATOM     42  C   UNL A   1      39.594  28.755  29.694  1.00  0.00     0.031 A 
ATOM     43  C   UNL A   1      40.339  29.448  30.804  1.00  0.00     0.074 A 
ATOM     44  C   UNL A   1      40.139  27.685  29.081  1.00  0.00     0.049 A 
ATOM     45  N   UNL A   1      41.498  29.145  31.331  1.00  0.00    -0.248 NA
ATOM     46  C   UNL A   1      39.717  30.651  31.381  1.00  0.00     0.031 C 
ATOM     47  C   UNL A   1      39.560  26.981  27.934  1.00  0.00     0.029 A 
ATOM     48  N   UNL A   1      41.319  27.024  29.314  1.00  0.00    -0.354 N 
ATOM     49  C   UNL A   1      41.762  30.141  32.263  1.00  0.00     0.074 A 
ATOM     50  C   UNL A   1      40.656  31.071  32.215  1.00  0.00     0.031 C 
ATOM     51  C   UNL A   1      40.387  25.991  27.563  1.00  0.00     0.029 A 
ATOM     52  C   UNL A   1      41.566  26.004  28.424  1.00  0.00     0.049 A 
ATOM     53  H   UNL A   1      41.932  27.257  30.049  1.00  0.00     0.167 HD
ATOM     54  C   UNL A   1      42.818  30.258  33.103  1.00  0.00     0.034 A 
ATOM     55  C   UNL A   1      42.626  25.180  28.305  1.00  0.00     0.034 A 
ATOM     56  C   UNL A   1      43.891  29.303  33.185  1.00  0.00     0.049 A 
ATOM     57  C   UNL A   1      43.756  25.296  29.293  1.00  0.00     0.074 A 
ATOM     58  C   UNL A   1      44.945  29.272  34.081  1.00  0.00     0.029 A 
ATOM     59  N   UNL A   1      44.054  28.221  32.336  1.00  0.00    -0.354 N 
ATOM     60  N   UNL A   1      43.898  26.134  30.289  1.00  0.00    -0.248 NA
ATOM     61  C   UNL A   1      44.853  24.325  29.164  1.00  0.00     0.031 C 
ATOM     62  C   UNL A   1      45.764  28.186  33.752  1.00  0.00     0.029 A 
ATOM     63  C   UNL A   1      45.200  27.523  32.675  1.00  0.00     0.049 A 
ATOM     64  H   UNL A   1      43.445  27.983  31.600  1.00  0.00     0.167 HD
ATOM     65  C   UNL A   1      45.078  25.772  30.928  1.00  0.00     0.074 A 
ATOM     66  C   UNL A   1      45.601  24.623  30.219  1.00  0.00     0.031 C 
ATOM     67  C   UNL A   1      45.682  26.347  31.997  1.00  0.00     0.034 A 
BRANCH  54  68
ATOM     68  C   UNL A   1      42.849  31.435  34.042  1.00  0.00     0.023 A 
ATOM     69  C   UNL A   1      43.389  32.662  33.605  1.00  0.00     0.012 A 
ATOM     70  C   UNL A   1      42.272  31.351  35.324  1.00  0.00     0.148 A 
ATOM     71  C   UNL A   1      43.382  33.778  34.441  1.00  0.00     0.002 A 
ATOM     72  C   UNL A   1      42.226  32.480  36.133  1.00  0.00     0.091 A 
ATOM     73  F   UNL A   1      41.781  30.170  35.729  1.00  0.00    -0.205 F 
ATOM     74  C   UNL A   1      42.790  33.691  35.698  1.00  0.00     0.022 A 
BRANCH  72  75
ATOM     75  S   UNL A   1      41.412  32.495  37.735  1.00  0.00     0.127 S 
ATOM     76  O   UNL A   1      41.502  33.908  38.098  1.00  0.00    -0.237 OA
ATOM     77  O   UNL A   1      40.063  32.037  37.398  1.00  0.00    -0.237 OA
ATOM     78  O   UNL A   1      42.170  31.584  38.581  1.00  0.00    -0.744 OA
ENDBRANCH  72  75
ENDBRANCH  54  68
BRANCH  55  79
ATOM     79  C   UNL A   1      42.644  24.136  27.242  1.00  0.00     0.023 A 
ATOM     80  C   UNL A   1      43.306  24.393  26.025  1.00  0.00     0.012 A 
ATOM     81  C   UNL A   1      42.026  22.885  27.436  1.00  0.00     0.148 A 
ATOM     82  C   UNL A   1      43.321  23.438  25.007  1.00  0.00     0.002 A 
ATOM     83  C   UNL A   1      42.094  21.917  26.441  1.00  0.00     0.091 A 
ATOM     84  F   UNL A   1      41.392  22.664  28.596  1.00  0.00    -0.205 F 
ATOM     85  C   UNL A   1      42.725  22.198  25.218  1.00  0.00     0.022 A 
BRANCH  83  86
ATOM     86  S   UNL A   1      41.470  20.251  26.678  1.00  0.00     0.127 S 
ATOM     87  O   UNL A   1      40.039  20.488  26.848  1.00  0.00    -0.237 OA
ATOM     88  O   UNL A   1      41.843  19.605  25.417  1.00  0.00    -0.237 OA
ATOM     89  O   UNL A   1      42.172  19.733  27.845  1.00  0.00    -0.744 OA
ENDBRANCH  83  86
ENDBRANCH  55  79
BRANCH  67  90
ATOM     90  C   UNL A   1      46.958  25.726  32.501  1.00  0.00     0.023 A 
ATOM     91  C   UNL A   1      48.196  26.123  31.959  1.00  0.00     0.012 A 
ATOM     92  C   UNL A   1      46.933  24.806  33.568  1.00  0.00     0.148 A 
ATOM     93  C   UNL A   1      49.388  25.590  32.449  1.00  0.00     0.002 A 
ATOM     94  C   UNL A   1      48.126  24.318  34.086  1.00  0.00     0.091 A 
ATOM     95  F   UNL A   1      45.744  24.427  34.059  1.00  0.00    -0.205 F 
ATOM     96  C   UNL A   1      49.354  24.699  33.519  1.00  0.00     0.022 A 
BRANCH  94  97
ATOM     97  S   UNL A   1      48.184  23.245  35.526  1.00  0.00     0.127 S 
ATOM     98  O   UNL A   1      47.516  22.045  35.029  1.00  0.00    -0.237 OA
ATOM     99  O   UNL A   1      49.624  23.096  35.743  1.00  0.00    -0.237 OA
ATOM    100  O   UNL A   1      47.483  23.958  36.586  1.00  0.00    -0.744 OA
ENDBRANCH  94  97
ENDBRANCH  67  90
ENDBRANCH  41  42
ENDBRANCH  33  36
ENDBRANCH  31  32
ENDBRANCH  30  31
ENDBRANCH   1  30
TORSDOF 20
ENDMDL
MODEL 3
REMARK VINA RESULT:     -11.6      2.090      3.294
REMARK SMILES NC(=O)C[C@H](NC(=O)c1cccc2[nH]ccc12)C(=O)NCCCCCCNC(=O)c1ccc(-c2c3nc(c(-c4cccc(S(=O)(=O)[O-])c4F)c4ccc([nH]4)c(-c4cccc(S(=O)(=O)[O-])c4F)c4nc(c(-c5cccc(S(=O)(=O)[O-])c5F)c5ccc2[nH]5)C=C4)C=C3)cc1
REMARK SMILES IDX 24 1 23 2 22 3 21 4 20 5 18 6 19 7 5 9 4 10 2 11 1 12 3 15
REMARK SMILES IDX 6 16 7 17 8 19 9 20 10 21 17 22 11 23 13 24 16 25 12 26
REMARK SMILES IDX 14 27 15 28 25 30 26 31 27 32 28 33 29 35 30 36 31 37 92 38
REMARK SMILES IDX 32 39 91 40 33 41 34 42 35 43 85 44 36 45 90 46 84 47 86 48
REMARK SMILES IDX 37 49 89 50 83 51 82 52 38 54 70 55 50 56 69 57 51 58 54 59
REMARK SMILES IDX 68 60 87 61 52 62 53 63 67 65 88 66 55 67 39 68 40 69 48 70
REMARK SMILES IDX 41 71 43 72 49 73 42 74 44 75 45 76 46 77 47 78 71 79 72 80
REMARK SMILES IDX 80 81 73 82 75 83 81 84 74 85 76 86 77 87 78 88 79 89 56 90
REMARK SMILES IDX 57 91 65 92 58 93 60 94 66 95 59 96 61 97 62 98 63 99 64 100
REMARK H PARENT 20 8 1 13 1 14 6 18 14 29 27 34 86 53 54 64
REMARK Flexibility Score: inf
ROOT
ATOM      1  C   UNL A   1      35.509  22.158  24.159  1.00  0.00     0.002 C 
ENDROOT
BRANCH   1   2
ATOM      2  C   UNL A   1      35.218  23.298  23.183  1.00  0.00     0.002 C 
BRANCH   2   3
ATOM      3  C   UNL A   1      33.802  23.311  22.595  1.00  0.00     0.021 C 
BRANCH   3   4
ATOM      4  C   UNL A   1      33.195  24.697  22.381  1.00  0.00     0.116 C 
BRANCH   4   5
ATOM      5  N   UNL A   1      31.746  24.709  22.395  1.00  0.00    -0.354 N 
ATOM      6  C   UNL A   1      30.877  24.671  23.441  1.00  0.00     0.243 C 
ATOM      7  O   UNL A   1      29.678  24.837  23.196  1.00  0.00    -0.273 OA
ATOM      8  H   UNL A   1      31.323  24.750  21.507  1.00  0.00     0.163 HD
BRANCH   6   9
ATOM      9  C   UNL A   1      31.364  24.575  24.898  1.00  0.00     0.180 C 
BRANCH   9  10
ATOM     10  C   UNL A   1      31.179  23.104  25.338  1.00  0.00     0.134 C 
BRANCH  10  11
ATOM     11  C   UNL A   1      31.051  22.852  26.819  1.00  0.00     0.220 C 
ATOM     12  N   UNL A   1      32.101  22.212  27.401  1.00  0.00    -0.370 N 
ATOM     13  H   UNL A   1      32.084  22.015  28.366  1.00  0.00     0.159 HD
ATOM     14  H   UNL A   1      32.878  21.946  26.858  1.00  0.00     0.159 HD
ATOM     15  O   UNL A   1      30.084  23.204  27.482  1.00  0.00    -0.275 OA
ENDBRANCH  10  11
ENDBRANCH   9  10
BRANCH   9  16
ATOM     16  N   UNL A   1      30.872  25.596  25.834  1.00  0.00    -0.340 N 
ATOM     17  C   UNL A   1      31.320  26.885  26.041  1.00  0.00     0.252 C 
ATOM     18  H   UNL A   1      30.112  25.320  26.395  1.00  0.00     0.164 HD
ATOM     19  O   UNL A   1      31.075  27.421  27.119  1.00  0.00    -0.269 OA
BRANCH  17  20
ATOM     20  C   UNL A   1      32.049  27.645  24.994  1.00  0.00     0.049 A 
ATOM     21  C   UNL A   1      33.449  27.614  24.936  1.00  0.00     0.014 A 
ATOM     22  C   UNL A   1      31.364  28.269  23.926  1.00  0.00     0.012 A 
ATOM     23  C   UNL A   1      34.171  28.286  23.955  1.00  0.00     0.003 A 
ATOM     24  C   UNL A   1      32.114  28.925  22.941  1.00  0.00     0.046 A 
ATOM     25  C   UNL A   1      29.997  28.393  23.539  1.00  0.00     0.029 A 
ATOM     26  C   UNL A   1      33.511  28.978  22.947  1.00  0.00     0.027 A 
ATOM     27  N   UNL A   1      31.227  29.443  22.025  1.00  0.00    -0.361 N 
ATOM     28  C   UNL A   1      29.946  29.105  22.363  1.00  0.00     0.083 A 
ATOM     29  H   UNL A   1      31.479  29.979  21.238  1.00  0.00     0.166 HD
ENDBRANCH  17  20
ENDBRANCH   9  16
ENDBRANCH   6   9
ENDBRANCH   4   5
ENDBRANCH   3   4
ENDBRANCH   2   3
ENDBRANCH   1   2
BRANCH   1  30
ATOM     30  C   UNL A   1      35.515  22.557  25.633  1.00  0.00     0.021 C 
BRANCH  30  31
ATOM     31  C   UNL A   1      36.757  23.316  26.079  1.00  0.00     0.116 C 
BRANCH  31  32
ATOM     32  N   UNL A   1      37.932  22.461  26.121  1.00  0.00    -0.352 N 
ATOM     33  C   UNL A   1      39.237  22.806  26.380  1.00  0.00     0.251 C 
ATOM     34  H   UNL A   1      37.772  21.507  25.939  1.00  0.00     0.163 HD
ATOM     35  O   UNL A   1      40.141  22.002  26.180  1.00  0.00    -0.269 OA
BRANCH  33  36
ATOM     36  C   UNL A   1      39.541  24.162  26.885  1.00  0.00     0.039 A 
ATOM     37  C   UNL A   1      39.309  24.452  28.231  1.00  0.00     0.014 A 
ATOM     38  C   UNL A   1      40.067  25.139  26.034  1.00  0.00     0.014 A 
ATOM     39  C   UNL A   1      39.656  25.706  28.737  1.00  0.00     0.010 A 
ATOM     40  C   UNL A   1      40.483  26.360  26.557  1.00  0.00     0.010 A 
ATOM     41  C   UNL A   1      40.274  26.661  27.911  1.00  0.00    -0.014 A 
BRANCH  41  42
ATOM     42  C   UNL A   1      40.713  27.975  28.447  1.00  0.00     0.031 A 
ATOM     43  C   UNL A   1      42.178  28.270  28.625  1.00  0.00     0.074 A 
ATOM     44  C   UNL A   1      39.791  28.868  28.857  1.00  0.00     0.049 A 
ATOM     45  N   UNL A   1      42.748  29.339  29.120  1.00  0.00    -0.248 NA
ATOM     46  C   UNL A   1      43.128  27.221  28.219  1.00  0.00     0.031 C 
ATOM     47  C   UNL A   1      38.340  28.663  28.824  1.00  0.00     0.029 A 
ATOM     48  N   UNL A   1      39.935  30.114  29.416  1.00  0.00    -0.354 N 
ATOM     49  C   UNL A   1      44.112  29.073  29.128  1.00  0.00     0.074 A 
ATOM     50  C   UNL A   1      44.285  27.734  28.610  1.00  0.00     0.031 C 
ATOM     51  C   UNL A   1      37.731  29.742  29.340  1.00  0.00     0.029 A 
ATOM     52  C   UNL A   1      38.743  30.704  29.768  1.00  0.00     0.049 A 
ATOM     53  H   UNL A   1      40.810  30.545  29.551  1.00  0.00     0.167 HD
ATOM     54  C   UNL A   1      45.132  29.880  29.506  1.00  0.00     0.034 A 
ATOM     55  C   UNL A   1      38.492  31.879  30.378  1.00  0.00     0.034 A 
ATOM     56  C   UNL A   1      44.959  31.230  29.971  1.00  0.00     0.049 A 
ATOM     57  C   UNL A   1      39.644  32.781  30.730  1.00  0.00     0.074 A 
ATOM     58  C   UNL A   1      45.934  32.166  30.269  1.00  0.00     0.029 A 
ATOM     59  N   UNL A   1      43.737  31.833  30.217  1.00  0.00    -0.354 N 
ATOM     60  N   UNL A   1      40.928  32.585  30.557  1.00  0.00    -0.248 NA
ATOM     61  C   UNL A   1      39.311  34.084  31.325  1.00  0.00     0.031 C 
ATOM     62  C   UNL A   1      45.299  33.326  30.726  1.00  0.00     0.029 A 
ATOM     63  C   UNL A   1      43.930  33.123  30.678  1.00  0.00     0.049 A 
ATOM     64  H   UNL A   1      42.859  31.407  30.083  1.00  0.00     0.167 HD
ATOM     65  C   UNL A   1      41.554  33.749  30.987  1.00  0.00     0.074 A 
ATOM     66  C   UNL A   1      40.506  34.655  31.408  1.00  0.00     0.031 C 
ATOM     67  C   UNL A   1      42.878  34.037  31.042  1.00  0.00     0.034 A 
BRANCH  54  68
ATOM     68  C   UNL A   1      46.536  29.348  29.390  1.00  0.00     0.023 A 
ATOM     69  C   UNL A   1      47.103  28.635  30.466  1.00  0.00     0.012 A 
ATOM     70  C   UNL A   1      47.261  29.482  28.191  1.00  0.00     0.148 A 
ATOM     71  C   UNL A   1      48.382  28.091  30.361  1.00  0.00     0.002 A 
ATOM     72  C   UNL A   1      48.517  28.897  28.077  1.00  0.00     0.091 A 
ATOM     73  F   UNL A   1      46.713  30.181  27.186  1.00  0.00    -0.205 F 
ATOM     74  C   UNL A   1      49.084  28.211  29.164  1.00  0.00     0.022 A 
BRANCH  72  75
ATOM     75  S   UNL A   1      49.465  28.922  26.552  1.00  0.00     0.127 S 
ATOM     76  O   UNL A   1      50.521  27.953  26.844  1.00  0.00    -0.237 OA
ATOM     77  O   UNL A   1      48.479  28.471  25.569  1.00  0.00    -0.237 OA
ATOM     78  O   UNL A   1      49.912  30.297  26.377  1.00  0.00    -0.744 OA
ENDBRANCH  72  75
ENDBRANCH  54  68
BRANCH  55  79
ATOM     79  C   UNL A   1      37.086  32.296  30.643  1.00  0.00     0.023 A 
ATOM     80  C   UNL A   1      36.546  32.140  31.935  1.00  0.00     0.012 A 
ATOM     81  C   UNL A   1      36.289  32.864  29.630  1.00  0.00     0.148 A 
ATOM     82  C   UNL A   1      35.226  32.506  32.203  1.00  0.00     0.002 A 
ATOM     83  C   UNL A   1      34.994  33.280  29.919  1.00  0.00     0.091 A 
ATOM     84  F   UNL A   1      36.817  32.994  28.405  1.00  0.00    -0.205 F 
ATOM     85  C   UNL A   1      34.454  33.084  31.200  1.00  0.00     0.022 A 
BRANCH  83  86
ATOM     86  S   UNL A   1      33.977  34.153  28.724  1.00  0.00     0.127 S 
ATOM     87  O   UNL A   1      34.867  35.233  28.306  1.00  0.00    -0.237 OA
ATOM     88  O   UNL A   1      33.743  33.120  27.713  1.00  0.00    -0.237 OA
ATOM     89  O   UNL A   1      32.782  34.559  29.451  1.00  0.00    -0.744 OA
ENDBRANCH  83  86
ENDBRANCH  55  79
BRANCH  67  90
ATOM     90  C   UNL A   1      43.279  35.402  31.535  1.00  0.00     0.023 A 
ATOM     91  C   UNL A   1      43.507  35.614  32.909  1.00  0.00     0.012 A 
ATOM     92  C   UNL A   1      43.509  36.453  30.626  1.00  0.00     0.148 A 
ATOM     93  C   UNL A   1      43.925  36.861  33.374  1.00  0.00     0.002 A 
ATOM     94  C   UNL A   1      43.975  37.677  31.089  1.00  0.00     0.091 A 
ATOM     95  F   UNL A   1      43.270  36.237  29.324  1.00  0.00    -0.205 F 
ATOM     96  C   UNL A   1      44.171  37.887  32.464  1.00  0.00     0.022 A 
BRANCH  94  97
ATOM     97  S   UNL A   1      44.413  39.023  29.983  1.00  0.00     0.127 S 
ATOM     98  O   UNL A   1      44.864  40.046  30.923  1.00  0.00    -0.237 OA
ATOM     99  O   UNL A   1      45.477  38.425  29.174  1.00  0.00    -0.237 OA
ATOM    100  O   UNL A   1      43.199  39.344  29.243  1.00  0.00    -0.744 OA
ENDBRANCH  94  97
ENDBRANCH  67  90
ENDBRANCH  41  42
ENDBRANCH  33  36
ENDBRANCH  31  32
ENDBRANCH  30  31
ENDBRANCH   1  30
TORSDOF 20
ENDMDL
