MODEL 1
REMARK VINA RESULT:     -11.1      0.000      0.000
REMARK SMILES N#Cc1ccccc1S(=O)(=O)N1CCC(C(=O)NCCCCCCNC(=O)c2ccc(-c3c4nc(c(-c5cccc(S(=O)(=O)[O-])c5F)c5ccc([nH]5)c(-c5cccc(S(=O)(=O)[O-])c5F)c5nc(c(-c6cccc(S(=O)(=O)[O-])c6F)c6ccc3[nH]6)C=C5)C=C4)cc2)CC1
REMARK SMILES IDX 21 1 20 2 19 3 18 4 16 5 17 6 15 8 12 9 13 10 92 11 14 12
REMARK SMILES IDX 91 13 9 14 10 15 11 16 8 17 3 18 4 19 5 20 7 21 6 22 2 23
REMARK SMILES IDX 1 24 22 25 23 26 24 27 25 28 26 29 27 31 28 32 29 33 90 34
REMARK SMILES IDX 30 35 89 36 31 37 32 38 33 39 83 40 34 41 88 42 82 43 84 44
REMARK SMILES IDX 35 45 87 46 81 47 80 48 36 50 68 51 48 52 67 53 49 54 52 55
REMARK SMILES IDX 66 56 85 57 50 58 51 59 65 61 86 62 53 63 37 64 38 65 46 66
REMARK SMILES IDX 39 67 41 68 47 69 40 70 42 71 43 72 44 73 45 74 69 75 70 76
REMARK SMILES IDX 78 77 71 78 73 79 79 80 72 81 74 82 75 83 76 84 77 85 54 86
REMARK SMILES IDX 55 87 63 88 56 89 58 90 64 91 57 92 59 93 60 94 61 95 62 96
REMARK H PARENT 18 7 25 30 84 49 52 60
REMARK Flexibility Score: inf
ROOT
ATOM      1  C   UNL A   1      33.843  21.506  27.112  1.00  0.00     0.002 C 
ENDROOT
BRANCH   1   2
ATOM      2  C   UNL A   1      33.662  20.954  25.696  1.00  0.00     0.021 C 
BRANCH   2   3
ATOM      3  C   UNL A   1      32.214  20.986  25.217  1.00  0.00     0.116 C 
BRANCH   3   4
ATOM      4  N   UNL A   1      31.368  21.671  26.180  1.00  0.00    -0.356 N 
ATOM      5  C   UNL A   1      31.088  22.993  26.325  1.00  0.00     0.223 C 
ATOM      6  O   UNL A   1      30.401  23.340  27.288  1.00  0.00    -0.275 OA
ATOM      7  H   UNL A   1      30.927  21.082  26.834  1.00  0.00     0.163 HD
BRANCH   5   8
ATOM      8  C   UNL A   1      31.585  24.009  25.310  1.00  0.00     0.081 C 
ATOM      9  N   UNL A   1      31.369  26.522  23.860  1.00  0.00    -0.198 NA
ATOM     10  C   UNL A   1      30.772  25.329  23.239  1.00  0.00     0.103 C 
ATOM     11  C   UNL A   1      32.212  26.464  25.061  1.00  0.00     0.103 C 
ATOM     12  C   UNL A   1      30.654  24.095  24.109  1.00  0.00     0.030 C 
ATOM     13  C   UNL A   1      31.883  25.331  26.002  1.00  0.00     0.030 C 
BRANCH   9  14
ATOM     14  S   UNL A   1      31.553  27.874  22.860  1.00  0.00     0.244 S 
ATOM     15  O   UNL A   1      30.714  27.660  21.699  1.00  0.00    -0.207 OA
ATOM     16  O   UNL A   1      32.970  28.135  22.727  1.00  0.00    -0.207 OA
BRANCH  14  17
ATOM     17  C   UNL A   1      30.884  29.333  23.643  1.00  0.00     0.100 A 
ATOM     18  C   UNL A   1      31.386  30.032  24.742  1.00  0.00     0.072 A 
ATOM     19  C   UNL A   1      30.673  31.145  25.232  1.00  0.00     0.021 A 
ATOM     20  C   UNL A   1      29.494  31.576  24.632  1.00  0.00     0.001 A 
ATOM     21  C   UNL A   1      29.690  29.785  23.038  1.00  0.00     0.023 A 
ATOM     22  C   UNL A   1      29.005  30.898  23.525  1.00  0.00     0.001 A 
BRANCH  18  23
ATOM     23  C   UNL A   1      32.597  29.770  25.450  1.00  0.00     0.101 C 
ATOM     24  N   UNL A   1      33.508  29.547  26.127  1.00  0.00    -0.192 NA
ENDBRANCH  18  23
ENDBRANCH  14  17
ENDBRANCH   9  14
ENDBRANCH   5   8
ENDBRANCH   3   4
ENDBRANCH   2   3
ENDBRANCH   1   2
BRANCH   1  25
ATOM     25  C   UNL A   1      34.910  22.600  27.230  1.00  0.00     0.002 C 
BRANCH  25  26
ATOM     26  C   UNL A   1      35.124  23.419  25.956  1.00  0.00     0.021 C 
BRANCH  26  27
ATOM     27  C   UNL A   1      36.574  23.817  25.710  1.00  0.00     0.116 C 
BRANCH  27  28
ATOM     28  N   UNL A   1      37.484  22.721  25.997  1.00  0.00    -0.352 N 
ATOM     29  C   UNL A   1      38.789  22.777  26.415  1.00  0.00     0.251 C 
ATOM     30  H   UNL A   1      37.115  21.816  25.875  1.00  0.00     0.163 HD
ATOM     31  O   UNL A   1      39.490  21.770  26.392  1.00  0.00    -0.269 OA
BRANCH  29  32
ATOM     32  C   UNL A   1      39.341  24.065  26.879  1.00  0.00     0.039 A 
ATOM     33  C   UNL A   1      39.943  24.917  25.952  1.00  0.00     0.014 A 
ATOM     34  C   UNL A   1      39.249  24.431  28.225  1.00  0.00     0.014 A 
ATOM     35  C   UNL A   1      40.413  26.162  26.370  1.00  0.00     0.010 A 
ATOM     36  C   UNL A   1      39.642  25.704  28.622  1.00  0.00     0.010 A 
ATOM     37  C   UNL A   1      40.240  26.577  27.702  1.00  0.00    -0.014 A 
BRANCH  37  38
ATOM     38  C   UNL A   1      40.677  27.924  28.149  1.00  0.00     0.031 A 
ATOM     39  C   UNL A   1      42.139  28.276  28.175  1.00  0.00     0.074 A 
ATOM     40  C   UNL A   1      39.763  28.801  28.604  1.00  0.00     0.049 A 
ATOM     41  N   UNL A   1      42.713  29.382  28.570  1.00  0.00    -0.248 NA
ATOM     42  C   UNL A   1      43.084  27.239  27.726  1.00  0.00     0.031 C 
ATOM     43  C   UNL A   1      38.324  28.547  28.703  1.00  0.00     0.029 A 
ATOM     44  N   UNL A   1      39.909  30.073  29.094  1.00  0.00    -0.354 N 
ATOM     45  C   UNL A   1      44.080  29.164  28.452  1.00  0.00     0.074 A 
ATOM     46  C   UNL A   1      44.252  27.806  27.987  1.00  0.00     0.031 C 
ATOM     47  C   UNL A   1      37.720  29.630  29.213  1.00  0.00     0.029 A 
ATOM     48  C   UNL A   1      38.728  30.642  29.511  1.00  0.00     0.049 A 
ATOM     49  H   UNL A   1      40.776  30.537  29.143  1.00  0.00     0.167 HD
ATOM     50  C   UNL A   1      45.100  30.024  28.685  1.00  0.00     0.034 A 
ATOM     51  C   UNL A   1      38.485  31.839  30.082  1.00  0.00     0.034 A 
ATOM     52  C   UNL A   1      44.920  31.383  29.121  1.00  0.00     0.049 A 
ATOM     53  C   UNL A   1      39.631  32.786  30.305  1.00  0.00     0.074 A 
ATOM     54  C   UNL A   1      45.880  32.363  29.300  1.00  0.00     0.029 A 
ATOM     55  N   UNL A   1      43.702  31.950  29.465  1.00  0.00    -0.354 N 
ATOM     56  N   UNL A   1      40.904  32.620  30.038  1.00  0.00    -0.248 NA
ATOM     57  C   UNL A   1      39.304  34.102  30.874  1.00  0.00     0.031 C 
ATOM     58  C   UNL A   1      45.248  33.509  29.791  1.00  0.00     0.029 A 
ATOM     59  C   UNL A   1      43.887  33.259  29.873  1.00  0.00     0.049 A 
ATOM     60  H   UNL A   1      42.834  31.487  29.425  1.00  0.00     0.167 HD
ATOM     61  C   UNL A   1      41.524  33.819  30.371  1.00  0.00     0.074 A 
ATOM     62  C   UNL A   1      40.483  34.708  30.842  1.00  0.00     0.031 C 
ATOM     63  C   UNL A   1      42.837  34.150  30.301  1.00  0.00     0.034 A 
BRANCH  50  64
ATOM     64  C   UNL A   1      46.502  29.528  28.440  1.00  0.00     0.023 A 
ATOM     65  C   UNL A   1      47.108  29.726  27.182  1.00  0.00     0.012 A 
ATOM     66  C   UNL A   1      47.237  28.901  29.467  1.00  0.00     0.148 A 
ATOM     67  C   UNL A   1      48.401  29.269  26.934  1.00  0.00     0.002 A 
ATOM     68  C   UNL A   1      48.545  28.496  29.228  1.00  0.00     0.091 A 
ATOM     69  F   UNL A   1      46.641  28.703  30.651  1.00  0.00    -0.205 F 
ATOM     70  C   UNL A   1      49.123  28.664  27.959  1.00  0.00     0.022 A 
BRANCH  68  71
ATOM     71  S   UNL A   1      49.586  27.783  30.506  1.00  0.00     0.127 S 
ATOM     72  O   UNL A   1      48.923  26.502  30.746  1.00  0.00    -0.237 OA
ATOM     73  O   UNL A   1      50.879  27.682  29.827  1.00  0.00    -0.237 OA
ATOM     74  O   UNL A   1      49.555  28.720  31.619  1.00  0.00    -0.744 OA
ENDBRANCH  68  71
ENDBRANCH  50  64
BRANCH  51  75
ATOM     75  C   UNL A   1      37.089  32.224  30.428  1.00  0.00     0.023 A 
ATOM     76  C   UNL A   1      36.610  32.002  31.733  1.00  0.00     0.012 A 
ATOM     77  C   UNL A   1      36.247  32.840  29.482  1.00  0.00     0.148 A 
ATOM     78  C   UNL A   1      35.308  32.361  32.083  1.00  0.00     0.002 A 
ATOM     79  C   UNL A   1      34.972  33.247  29.854  1.00  0.00     0.091 A 
ATOM     80  F   UNL A   1      36.721  33.037  28.244  1.00  0.00    -0.205 F 
ATOM     81  C   UNL A   1      34.493  32.992  31.149  1.00  0.00     0.022 A 
BRANCH  79  82
ATOM     82  S   UNL A   1      33.900  34.184  28.759  1.00  0.00     0.127 S 
ATOM     83  O   UNL A   1      34.782  35.266  28.331  1.00  0.00    -0.237 OA
ATOM     84  O   UNL A   1      33.589  33.196  27.726  1.00  0.00    -0.237 OA
ATOM     85  O   UNL A   1      32.759  34.586  29.571  1.00  0.00    -0.744 OA
ENDBRANCH  79  82
ENDBRANCH  51  75
BRANCH  63  86
ATOM     86  C   UNL A   1      43.229  35.548  30.700  1.00  0.00     0.023 A 
ATOM     87  C   UNL A   1      43.498  35.850  32.050  1.00  0.00     0.012 A 
ATOM     88  C   UNL A   1      43.404  36.547  29.721  1.00  0.00     0.148 A 
ATOM     89  C   UNL A   1      43.898  37.133  32.424  1.00  0.00     0.002 A 
ATOM     90  C   UNL A   1      43.855  37.806  30.094  1.00  0.00     0.091 A 
ATOM     91  F   UNL A   1      43.127  36.245  28.445  1.00  0.00    -0.205 F 
ATOM     92  C   UNL A   1      44.089  38.107  31.445  1.00  0.00     0.022 A 
BRANCH  90  93
ATOM     93  S   UNL A   1      44.226  39.091  28.894  1.00  0.00     0.127 S 
ATOM     94  O   UNL A   1      43.035  39.934  28.982  1.00  0.00    -0.237 OA
ATOM     95  O   UNL A   1      45.440  39.691  29.449  1.00  0.00    -0.237 OA
ATOM     96  O   UNL A   1      44.415  38.412  27.620  1.00  0.00    -0.744 OA
ENDBRANCH  90  93
ENDBRANCH  63  86
ENDBRANCH  37  38
ENDBRANCH  29  32
ENDBRANCH  27  28
ENDBRANCH  26  27
ENDBRANCH  25  26
ENDBRANCH   1  25
TORSDOF 19
ENDMDL
MODEL 2
REMARK VINA RESULT:     -11.1      5.168     10.124
REMARK SMILES N#Cc1ccccc1S(=O)(=O)N1CCC(C(=O)NCCCCCCNC(=O)c2ccc(-c3c4nc(c(-c5cccc(S(=O)(=O)[O-])c5F)c5ccc([nH]5)c(-c5cccc(S(=O)(=O)[O-])c5F)c5nc(c(-c6cccc(S(=O)(=O)[O-])c6F)c6ccc3[nH]6)C=C5)C=C4)cc2)CC1
REMARK SMILES IDX 21 1 20 2 19 3 18 4 16 5 17 6 15 8 12 9 13 10 92 11 14 12
REMARK SMILES IDX 91 13 9 14 10 15 11 16 8 17 3 18 4 19 5 20 7 21 6 22 2 23
REMARK SMILES IDX 1 24 22 25 23 26 24 27 25 28 26 29 27 31 28 32 29 33 90 34
REMARK SMILES IDX 30 35 89 36 31 37 32 38 33 39 83 40 34 41 88 42 82 43 84 44
REMARK SMILES IDX 35 45 87 46 81 47 80 48 36 50 68 51 48 52 67 53 49 54 52 55
REMARK SMILES IDX 66 56 85 57 50 58 51 59 65 61 86 62 53 63 37 64 38 65 46 66
REMARK SMILES IDX 39 67 41 68 47 69 40 70 42 71 43 72 44 73 45 74 69 75 70 76
REMARK SMILES IDX 78 77 71 78 73 79 79 80 72 81 74 82 75 83 76 84 77 85 54 86
REMARK SMILES IDX 55 87 63 88 56 89 58 90 64 91 57 92 59 93 60 94 61 95 62 96
REMARK H PARENT 18 7 25 30 84 49 52 60
REMARK Flexibility Score: inf
ROOT
ATOM      1  C   UNL A   1      35.235  31.565  28.267  1.00  0.00     0.002 C 
ENDROOT
BRANCH   1   2
ATOM      2  C   UNL A   1      36.062  30.427  27.664  1.00  0.00     0.021 C 
BRANCH   2   3
ATOM      3  C   UNL A   1      35.216  29.247  27.200  1.00  0.00     0.116 C 
BRANCH   3   4
ATOM      4  N   UNL A   1      34.042  29.707  26.479  1.00  0.00    -0.356 N 
ATOM      5  C   UNL A   1      33.371  29.149  25.437  1.00  0.00     0.223 C 
ATOM      6  O   UNL A   1      32.442  29.786  24.934  1.00  0.00    -0.275 OA
ATOM      7  H   UNL A   1      33.672  30.564  26.796  1.00  0.00     0.163 HD
BRANCH   5   8
ATOM      8  C   UNL A   1      33.738  27.765  24.927  1.00  0.00     0.081 C 
ATOM      9  N   UNL A   1      33.077  25.206  23.711  1.00  0.00    -0.198 NA
ATOM     10  C   UNL A   1      33.035  25.289  25.180  1.00  0.00     0.103 C 
ATOM     11  C   UNL A   1      33.608  26.281  22.863  1.00  0.00     0.103 C 
ATOM     12  C   UNL A   1      33.117  26.674  25.787  1.00  0.00     0.030 C 
ATOM     13  C   UNL A   1      33.448  27.668  23.437  1.00  0.00     0.030 C 
BRANCH   9  14
ATOM     14  S   UNL A   1      33.047  23.650  23.049  1.00  0.00     0.244 S 
ATOM     15  O   UNL A   1      33.360  23.782  21.641  1.00  0.00    -0.207 OA
ATOM     16  O   UNL A   1      31.829  23.006  23.493  1.00  0.00    -0.207 OA
BRANCH  14  17
ATOM     17  C   UNL A   1      34.369  22.655  23.719  1.00  0.00     0.100 A 
ATOM     18  C   UNL A   1      34.274  21.475  24.460  1.00  0.00     0.072 A 
ATOM     19  C   UNL A   1      35.453  20.865  24.933  1.00  0.00     0.021 A 
ATOM     20  C   UNL A   1      36.709  21.397  24.660  1.00  0.00     0.001 A 
ATOM     21  C   UNL A   1      35.651  23.181  23.443  1.00  0.00     0.023 A 
ATOM     22  C   UNL A   1      36.809  22.556  23.904  1.00  0.00     0.001 A 
BRANCH  18  23
ATOM     23  C   UNL A   1      33.084  20.760  24.792  1.00  0.00     0.101 C 
ATOM     24  N   UNL A   1      32.154  20.097  24.973  1.00  0.00    -0.192 NA
ENDBRANCH  18  23
ENDBRANCH  14  17
ENDBRANCH   9  14
ENDBRANCH   5   8
ENDBRANCH   3   4
ENDBRANCH   2   3
ENDBRANCH   1   2
BRANCH   1  25
ATOM     25  C   UNL A   1      35.890  32.946  28.158  1.00  0.00     0.002 C 
BRANCH  25  26
ATOM     26  C   UNL A   1      34.911  34.121  28.217  1.00  0.00     0.021 C 
BRANCH  26  27
ATOM     27  C   UNL A   1      33.548  33.765  28.796  1.00  0.00     0.116 C 
BRANCH  27  28
ATOM     28  N   UNL A   1      33.086  34.774  29.734  1.00  0.00    -0.352 N 
ATOM     29  C   UNL A   1      33.459  34.968  31.040  1.00  0.00     0.251 C 
ATOM     30  H   UNL A   1      32.414  35.404  29.386  1.00  0.00     0.163 HD
ATOM     31  O   UNL A   1      32.811  35.716  31.764  1.00  0.00    -0.269 OA
BRANCH  29  32
ATOM     32  C   UNL A   1      34.641  34.254  31.563  1.00  0.00     0.039 A 
ATOM     33  C   UNL A   1      34.476  32.982  32.111  1.00  0.00     0.014 A 
ATOM     34  C   UNL A   1      35.909  34.840  31.497  1.00  0.00     0.014 A 
ATOM     35  C   UNL A   1      35.595  32.275  32.553  1.00  0.00     0.010 A 
ATOM     36  C   UNL A   1      37.029  34.102  31.860  1.00  0.00     0.010 A 
ATOM     37  C   UNL A   1      36.882  32.818  32.404  1.00  0.00    -0.014 A 
BRANCH  37  38
ATOM     38  C   UNL A   1      38.089  32.054  32.810  1.00  0.00     0.031 A 
ATOM     39  C   UNL A   1      38.799  32.385  34.094  1.00  0.00     0.074 A 
ATOM     40  C   UNL A   1      38.588  31.114  31.985  1.00  0.00     0.049 A 
ATOM     41  N   UNL A   1      39.886  31.857  34.594  1.00  0.00    -0.248 NA
ATOM     42  C   UNL A   1      38.232  33.472  34.910  1.00  0.00     0.031 C 
ATOM     43  C   UNL A   1      38.034  30.757  30.677  1.00  0.00     0.029 A 
ATOM     44  N   UNL A   1      39.688  30.305  32.110  1.00  0.00    -0.354 N 
ATOM     45  C   UNL A   1      40.152  32.567  35.758  1.00  0.00     0.074 A 
ATOM     46  C   UNL A   1      39.136  33.590  35.870  1.00  0.00     0.031 C 
ATOM     47  C   UNL A   1      38.792  29.798  30.125  1.00  0.00     0.029 A 
ATOM     48  C   UNL A   1      39.903  29.495  31.021  1.00  0.00     0.049 A 
ATOM     49  H   UNL A   1      40.269  30.304  32.906  1.00  0.00     0.167 HD
ATOM     50  C   UNL A   1      41.137  32.370  36.666  1.00  0.00     0.034 A 
ATOM     51  C   UNL A   1      40.892  28.615  30.764  1.00  0.00     0.034 A 
ATOM     52  C   UNL A   1      42.129  31.334  36.563  1.00  0.00     0.049 A 
ATOM     53  C   UNL A   1      41.960  28.395  31.800  1.00  0.00     0.074 A 
ATOM     54  C   UNL A   1      43.114  30.992  37.471  1.00  0.00     0.029 A 
ATOM     55  N   UNL A   1      42.273  30.482  35.477  1.00  0.00    -0.354 N 
ATOM     56  N   UNL A   1      42.104  28.967  32.970  1.00  0.00    -0.248 NA
ATOM     57  C   UNL A   1      42.980  27.381  31.496  1.00  0.00     0.031 C 
ATOM     58  C   UNL A   1      43.880  29.961  36.918  1.00  0.00     0.029 A 
ATOM     59  C   UNL A   1      43.342  29.628  35.684  1.00  0.00     0.049 A 
ATOM     60  H   UNL A   1      41.699  30.485  34.678  1.00  0.00     0.167 HD
ATOM     61  C   UNL A   1      43.207  28.359  33.559  1.00  0.00     0.074 A 
ATOM     62  C   UNL A   1      43.682  27.362  32.622  1.00  0.00     0.031 C 
ATOM     63  C   UNL A   1      43.780  28.610  34.762  1.00  0.00     0.034 A 
BRANCH  50  64
ATOM     64  C   UNL A   1      41.170  33.278  37.869  1.00  0.00     0.023 A 
ATOM     65  C   UNL A   1      40.359  32.992  38.987  1.00  0.00     0.012 A 
ATOM     66  C   UNL A   1      42.033  34.392  37.912  1.00  0.00     0.148 A 
ATOM     67  C   UNL A   1      40.371  33.823  40.107  1.00  0.00     0.002 A 
ATOM     68  C   UNL A   1      42.078  35.185  39.052  1.00  0.00     0.091 A 
ATOM     69  F   UNL A   1      42.783  34.661  36.834  1.00  0.00    -0.205 F 
ATOM     70  C   UNL A   1      41.237  34.912  40.143  1.00  0.00     0.022 A 
BRANCH  68  71
ATOM     71  S   UNL A   1      43.220  36.560  39.231  1.00  0.00     0.127 S 
ATOM     72  O   UNL A   1      42.879  37.053  40.565  1.00  0.00    -0.237 OA
ATOM     73  O   UNL A   1      44.519  35.892  39.142  1.00  0.00    -0.237 OA
ATOM     74  O   UNL A   1      42.928  37.471  38.134  1.00  0.00    -0.744 OA
ENDBRANCH  68  71
ENDBRANCH  50  64
BRANCH  51  75
ATOM     75  C   UNL A   1      40.881  27.840  29.492  1.00  0.00     0.023 A 
ATOM     76  C   UNL A   1      39.948  26.799  29.321  1.00  0.00     0.012 A 
ATOM     77  C   UNL A   1      41.764  28.153  28.440  1.00  0.00     0.148 A 
ATOM     78  C   UNL A   1      39.913  26.064  28.136  1.00  0.00     0.002 A 
ATOM     79  C   UNL A   1      41.684  27.455  27.242  1.00  0.00     0.091 A 
ATOM     80  F   UNL A   1      42.646  29.144  28.626  1.00  0.00    -0.205 F 
ATOM     81  C   UNL A   1      40.773  26.397  27.093  1.00  0.00     0.022 A 
BRANCH  79  82
ATOM     82  S   UNL A   1      42.658  27.899  25.799  1.00  0.00     0.127 S 
ATOM     83  O   UNL A   1      42.089  27.027  24.774  1.00  0.00    -0.237 OA
ATOM     84  O   UNL A   1      42.337  29.318  25.648  1.00  0.00    -0.237 OA
ATOM     85  O   UNL A   1      44.043  27.630  26.158  1.00  0.00    -0.744 OA
ENDBRANCH  79  82
ENDBRANCH  51  75
BRANCH  63  86
ATOM     86  C   UNL A   1      44.961  27.767  35.165  1.00  0.00     0.023 A 
ATOM     87  C   UNL A   1      46.273  28.220  34.920  1.00  0.00     0.012 A 
ATOM     88  C   UNL A   1      44.768  26.553  35.856  1.00  0.00     0.148 A 
ATOM     89  C   UNL A   1      47.372  27.463  35.323  1.00  0.00     0.002 A 
ATOM     90  C   UNL A   1      45.868  25.832  36.303  1.00  0.00     0.091 A 
ATOM     91  F   UNL A   1      43.514  26.130  36.065  1.00  0.00    -0.205 F 
ATOM     92  C   UNL A   1      47.170  26.277  36.025  1.00  0.00     0.022 A 
BRANCH  90  93
ATOM     93  S   UNL A   1      45.706  24.347  37.302  1.00  0.00     0.127 S 
ATOM     94  O   UNL A   1      45.009  23.447  36.385  1.00  0.00    -0.237 OA
ATOM     95  O   UNL A   1      47.102  23.995  37.560  1.00  0.00    -0.237 OA
ATOM     96  O   UNL A   1      44.951  24.737  38.485  1.00  0.00    -0.744 OA
ENDBRANCH  90  93
ENDBRANCH  63  86
ENDBRANCH  37  38
ENDBRANCH  29  32
ENDBRANCH  27  28
ENDBRANCH  26  27
ENDBRANCH  25  26
ENDBRANCH   1  25
TORSDOF 19
ENDMDL
MODEL 3
REMARK VINA RESULT:     -11.0      3.278      4.904
REMARK SMILES N#Cc1ccccc1S(=O)(=O)N1CCC(C(=O)NCCCCCCNC(=O)c2ccc(-c3c4nc(c(-c5cccc(S(=O)(=O)[O-])c5F)c5ccc([nH]5)c(-c5cccc(S(=O)(=O)[O-])c5F)c5nc(c(-c6cccc(S(=O)(=O)[O-])c6F)c6ccc3[nH]6)C=C5)C=C4)cc2)CC1
REMARK SMILES IDX 21 1 20 2 19 3 18 4 16 5 17 6 15 8 12 9 13 10 92 11 14 12
REMARK SMILES IDX 91 13 9 14 10 15 11 16 8 17 3 18 4 19 5 20 7 21 6 22 2 23
REMARK SMILES IDX 1 24 22 25 23 26 24 27 25 28 26 29 27 31 28 32 29 33 90 34
REMARK SMILES IDX 30 35 89 36 31 37 32 38 33 39 83 40 34 41 88 42 82 43 84 44
REMARK SMILES IDX 35 45 87 46 81 47 80 48 36 50 68 51 48 52 67 53 49 54 52 55
REMARK SMILES IDX 66 56 85 57 50 58 51 59 65 61 86 62 53 63 37 64 38 65 46 66
REMARK SMILES IDX 39 67 41 68 47 69 40 70 42 71 43 72 44 73 45 74 69 75 70 76
REMARK SMILES IDX 78 77 71 78 73 79 79 80 72 81 74 82 75 83 76 84 77 85 54 86
REMARK SMILES IDX 55 87 63 88 56 89 58 90 64 91 57 92 59 93 60 94 61 95 62 96
REMARK H PARENT 18 7 25 30 84 49 52 60
REMARK Flexibility Score: inf
ROOT
ATOM      1  C   UNL A   1      40.730  22.484  26.948  1.00  0.00     0.002 C 
ENDROOT
BRANCH   1   2
ATOM      2  C   UNL A   1      39.760  23.552  27.459  1.00  0.00     0.021 C 
BRANCH   2   3
ATOM      3  C   UNL A   1      38.521  23.710  26.583  1.00  0.00     0.116 C 
BRANCH   3   4
ATOM      4  N   UNL A   1      38.122  22.431  26.021  1.00  0.00    -0.356 N 
ATOM      5  C   UNL A   1      36.967  22.057  25.410  1.00  0.00     0.223 C 
ATOM      6  O   UNL A   1      36.832  20.873  25.093  1.00  0.00    -0.275 OA
ATOM      7  H   UNL A   1      38.799  21.719  26.095  1.00  0.00     0.163 HD
BRANCH   5   8
ATOM      8  C   UNL A   1      35.885  23.079  25.101  1.00  0.00     0.081 C 
ATOM      9  N   UNL A   1      33.103  23.890  24.841  1.00  0.00    -0.198 NA
ATOM     10  C   UNL A   1      33.774  23.377  23.636  1.00  0.00     0.103 C 
ATOM     11  C   UNL A   1      33.815  24.180  26.093  1.00  0.00     0.103 C 
ATOM     12  C   UNL A   1      35.122  22.715  23.836  1.00  0.00     0.030 C 
ATOM     13  C   UNL A   1      35.029  23.317  26.336  1.00  0.00     0.030 C 
BRANCH   9  14
ATOM     14  S   UNL A   1      31.629  24.683  24.596  1.00  0.00     0.244 S 
ATOM     15  O   UNL A   1      30.851  24.515  25.805  1.00  0.00    -0.207 OA
ATOM     16  O   UNL A   1      31.117  24.271  23.307  1.00  0.00    -0.207 OA
BRANCH  14  17
ATOM     17  C   UNL A   1      31.877  26.445  24.455  1.00  0.00     0.100 A 
ATOM     18  C   UNL A   1      32.544  27.147  23.448  1.00  0.00     0.072 A 
ATOM     19  C   UNL A   1      32.662  28.549  23.552  1.00  0.00     0.021 A 
ATOM     20  C   UNL A   1      32.111  29.249  24.620  1.00  0.00     0.001 A 
ATOM     21  C   UNL A   1      31.316  27.169  25.530  1.00  0.00     0.023 A 
ATOM     22  C   UNL A   1      31.428  28.557  25.609  1.00  0.00     0.001 A 
BRANCH  18  23
ATOM     23  C   UNL A   1      33.124  26.608  22.261  1.00  0.00     0.101 C 
ATOM     24  N   UNL A   1      33.478  26.131  21.269  1.00  0.00    -0.192 NA
ENDBRANCH  18  23
ENDBRANCH  14  17
ENDBRANCH   9  14
ENDBRANCH   5   8
ENDBRANCH   3   4
ENDBRANCH   2   3
ENDBRANCH   1   2
BRANCH   1  25
ATOM     25  C   UNL A   1      41.090  21.414  27.984  1.00  0.00     0.002 C 
BRANCH  25  26
ATOM     26  C   UNL A   1      41.428  20.044  27.392  1.00  0.00     0.021 C 
BRANCH  26  27
ATOM     27  C   UNL A   1      41.535  20.034  25.873  1.00  0.00     0.116 C 
BRANCH  27  28
ATOM     28  N   UNL A   1      42.832  19.546  25.431  1.00  0.00    -0.352 N 
ATOM     29  C   UNL A   1      43.980  20.257  25.194  1.00  0.00     0.251 C 
ATOM     30  H   UNL A   1      42.894  18.574  25.282  1.00  0.00     0.163 HD
ATOM     31  O   UNL A   1      44.921  19.733  24.607  1.00  0.00    -0.269 OA
BRANCH  29  32
ATOM     32  C   UNL A   1      44.062  21.662  25.641  1.00  0.00     0.039 A 
ATOM     33  C   UNL A   1      44.496  21.935  26.938  1.00  0.00     0.014 A 
ATOM     34  C   UNL A   1      43.722  22.703  24.771  1.00  0.00     0.014 A 
ATOM     35  C   UNL A   1      44.633  23.261  27.350  1.00  0.00     0.010 A 
ATOM     36  C   UNL A   1      43.940  24.021  25.155  1.00  0.00     0.010 A 
ATOM     37  C   UNL A   1      44.384  24.313  26.452  1.00  0.00    -0.014 A 
BRANCH  37  38
ATOM     38  C   UNL A   1      44.587  25.728  26.854  1.00  0.00     0.031 A 
ATOM     39  C   UNL A   1      45.956  26.348  26.782  1.00  0.00     0.074 A 
ATOM     40  C   UNL A   1      43.554  26.430  27.357  1.00  0.00     0.049 A 
ATOM     41  N   UNL A   1      46.335  27.551  27.125  1.00  0.00    -0.248 NA
ATOM     42  C   UNL A   1      47.050  25.495  26.286  1.00  0.00     0.031 C 
ATOM     43  C   UNL A   1      42.196  25.915  27.551  1.00  0.00     0.029 A 
ATOM     44  N   UNL A   1      43.488  27.719  27.821  1.00  0.00    -0.354 N 
ATOM     45  C   UNL A   1      47.709  27.589  26.923  1.00  0.00     0.074 A 
ATOM     46  C   UNL A   1      48.104  26.276  26.464  1.00  0.00     0.031 C 
ATOM     47  C   UNL A   1      41.432  26.879  28.086  1.00  0.00     0.029 A 
ATOM     48  C   UNL A   1      42.249  28.067  28.306  1.00  0.00     0.049 A 
ATOM     49  H   UNL A   1      44.255  28.337  27.808  1.00  0.00     0.167 HD
ATOM     50  C   UNL A   1      48.561  28.630  27.079  1.00  0.00     0.034 A 
ATOM     51  C   UNL A   1      41.821  29.212  28.876  1.00  0.00     0.034 A 
ATOM     52  C   UNL A   1      48.157  29.941  27.509  1.00  0.00     0.049 A 
ATOM     53  C   UNL A   1      42.780  30.361  29.014  1.00  0.00     0.074 A 
ATOM     54  C   UNL A   1      48.925  31.086  27.614  1.00  0.00     0.029 A 
ATOM     55  N   UNL A   1      46.877  30.279  27.924  1.00  0.00    -0.354 N 
ATOM     56  N   UNL A   1      44.043  30.429  28.667  1.00  0.00    -0.248 NA
ATOM     57  C   UNL A   1      42.247  31.606  29.586  1.00  0.00     0.031 C 
ATOM     58  C   UNL A   1      48.120  32.106  28.131  1.00  0.00     0.029 A 
ATOM     59  C   UNL A   1      46.838  31.609  28.303  1.00  0.00     0.049 A 
ATOM     60  H   UNL A   1      46.110  29.661  27.945  1.00  0.00     0.167 HD
ATOM     61  C   UNL A   1      44.446  31.730  28.945  1.00  0.00     0.074 A 
ATOM     62  C   UNL A   1      43.287  32.421  29.471  1.00  0.00     0.031 C 
ATOM     63  C   UNL A   1      45.667  32.298  28.786  1.00  0.00     0.034 A 
BRANCH  50  64
ATOM     64  C   UNL A   1      50.014  28.398  26.751  1.00  0.00     0.023 A 
ATOM     65  C   UNL A   1      50.482  28.621  25.439  1.00  0.00     0.012 A 
ATOM     66  C   UNL A   1      50.927  27.998  27.748  1.00  0.00     0.148 A 
ATOM     67  C   UNL A   1      51.821  28.406  25.114  1.00  0.00     0.002 A 
ATOM     68  C   UNL A   1      52.270  27.838  27.428  1.00  0.00     0.091 A 
ATOM     69  F   UNL A   1      50.463  27.772  28.985  1.00  0.00    -0.205 F 
ATOM     70  C   UNL A   1      52.715  28.025  26.110  1.00  0.00     0.022 A 
BRANCH  68  71
ATOM     71  S   UNL A   1      53.515  27.431  28.657  1.00  0.00     0.127 S 
ATOM     72  O   UNL A   1      54.594  26.908  27.820  1.00  0.00    -0.237 OA
ATOM     73  O   UNL A   1      53.790  28.737  29.258  1.00  0.00    -0.237 OA
ATOM     74  O   UNL A   1      52.897  26.466  29.554  1.00  0.00    -0.744 OA
ENDBRANCH  68  71
ENDBRANCH  50  64
BRANCH  51  75
ATOM     75  C   UNL A   1      40.401  29.337  29.306  1.00  0.00     0.023 A 
ATOM     76  C   UNL A   1      39.411  29.649  28.355  1.00  0.00     0.012 A 
ATOM     77  C   UNL A   1      40.022  29.113  30.644  1.00  0.00     0.148 A 
ATOM     78  C   UNL A   1      38.074  29.765  28.732  1.00  0.00     0.002 A 
ATOM     79  C   UNL A   1      38.681  29.173  31.001  1.00  0.00     0.091 A 
ATOM     80  F   UNL A   1      40.981  28.822  31.534  1.00  0.00    -0.205 F 
ATOM     81  C   UNL A   1      37.706  29.517  30.051  1.00  0.00     0.022 A 
BRANCH  79  82
ATOM     82  S   UNL A   1      38.099  28.740  32.645  1.00  0.00     0.127 S 
ATOM     83  O   UNL A   1      38.984  29.532  33.494  1.00  0.00    -0.237 OA
ATOM     84  O   UNL A   1      36.711  29.200  32.601  1.00  0.00    -0.237 OA
ATOM     85  O   UNL A   1      38.251  27.295  32.751  1.00  0.00    -0.744 OA
ENDBRANCH  79  82
ENDBRANCH  51  75
BRANCH  63  86
ATOM     86  C   UNL A   1      45.814  33.754  29.143  1.00  0.00     0.023 A 
ATOM     87  C   UNL A   1      46.272  34.128  30.422  1.00  0.00     0.012 A 
ATOM     88  C   UNL A   1      45.565  34.753  28.179  1.00  0.00     0.148 A 
ATOM     89  C   UNL A   1      46.447  35.473  30.748  1.00  0.00     0.002 A 
ATOM     90  C   UNL A   1      45.793  36.086  28.493  1.00  0.00     0.091 A 
ATOM     91  F   UNL A   1      45.113  34.378  26.974  1.00  0.00    -0.205 F 
ATOM     92  C   UNL A   1      46.220  36.450  29.781  1.00  0.00     0.022 A 
BRANCH  90  93
ATOM     93  S   UNL A   1      45.626  37.404  27.284  1.00  0.00     0.127 S 
ATOM     94  O   UNL A   1      44.206  37.319  26.946  1.00  0.00    -0.237 OA
ATOM     95  O   UNL A   1      45.999  38.586  28.061  1.00  0.00    -0.237 OA
ATOM     96  O   UNL A   1      46.544  37.077  26.201  1.00  0.00    -0.744 OA
ENDBRANCH  90  93
ENDBRANCH  63  86
ENDBRANCH  37  38
ENDBRANCH  29  32
ENDBRANCH  27  28
ENDBRANCH  26  27
ENDBRANCH  25  26
ENDBRANCH   1  25
TORSDOF 19
ENDMDL
