MODEL 1
REMARK VINA RESULT:     -13.3      0.000      0.000
REMARK SMILES Cc1cc(NC(=O)c2ccc(Br)cc2N)ccc1C(=O)NCCCCCCNC(=O)c1ccc(-c2c3nc(c(-c4cccc(S(=O)(=O)[O-])c4F)c4ccc([nH]4)c(-c4cccc(S(=O)(=O)[O-])c4F)c4nc(c(-c5cccc(S(=O)(=O)[O-])c5F)c5ccc2[nH]5)C=C4)C=C3)cc1
REMARK SMILES IDX 24 1 23 2 22 3 21 4 19 5 20 6 18 8 1 9 2 10 3 11 4 12 17 13
REMARK SMILES IDX 16 14 5 15 6 16 7 18 8 19 9 20 14 21 10 22 13 23 11 24 12 25
REMARK SMILES IDX 15 26 25 29 26 30 27 31 28 32 29 33 30 35 31 36 32 37 93 38
REMARK SMILES IDX 33 39 92 40 34 41 35 42 36 43 86 44 37 45 91 46 85 47 87 48
REMARK SMILES IDX 38 49 90 50 84 51 83 52 39 54 71 55 51 56 70 57 52 58 55 59
REMARK SMILES IDX 69 60 88 61 53 62 54 63 68 65 89 66 56 67 40 68 41 69 49 70
REMARK SMILES IDX 42 71 44 72 50 73 43 74 45 75 46 76 47 77 48 78 72 79 73 80
REMARK SMILES IDX 81 81 74 82 76 83 82 84 75 85 77 86 78 87 79 88 80 89 57 90
REMARK SMILES IDX 58 91 66 92 59 93 61 94 67 95 60 96 62 97 63 98 64 99 65 100
REMARK H PARENT 21 7 5 17 15 27 15 28 28 34 87 53 55 64
REMARK Flexibility Score: inf
ROOT
ATOM      1  C   UNL A   1      31.394  29.689  25.267  1.00  0.00     0.002 C 
ENDROOT
BRANCH   1   2
ATOM      2  C   UNL A   1      30.465  30.010  24.093  1.00  0.00     0.021 C 
BRANCH   2   3
ATOM      3  C   UNL A   1      30.843  29.357  22.757  1.00  0.00     0.116 C 
BRANCH   3   4
ATOM      4  N   UNL A   1      32.281  29.321  22.617  1.00  0.00    -0.352 N 
ATOM      5  C   UNL A   1      33.236  28.368  22.840  1.00  0.00     0.251 C 
ATOM      6  O   UNL A   1      34.403  28.726  22.651  1.00  0.00    -0.269 OA
ATOM      7  H   UNL A   1      32.656  30.170  22.290  1.00  0.00     0.163 HD
BRANCH   5   8
ATOM      8  C   UNL A   1      32.988  26.922  23.160  1.00  0.00     0.042 A 
ATOM      9  C   UNL A   1      33.588  26.808  25.680  1.00  0.00     0.045 C 
ATOM     10  C   UNL A   1      33.084  26.243  24.388  1.00  0.00    -0.036 A 
ATOM     11  C   UNL A   1      32.726  24.875  24.444  1.00  0.00     0.030 A 
ATOM     12  C   UNL A   1      32.380  24.155  23.304  1.00  0.00     0.041 A 
ATOM     13  C   UNL A   1      32.710  26.149  22.006  1.00  0.00     0.016 A 
ATOM     14  C   UNL A   1      32.452  24.776  22.068  1.00  0.00     0.027 A 
BRANCH  12  15
ATOM     15  N   UNL A   1      31.943  22.823  23.355  1.00  0.00    -0.322 N 
ATOM     16  C   UNL A   1      32.680  21.668  23.530  1.00  0.00     0.257 C 
ATOM     17  H   UNL A   1      30.972  22.694  23.251  1.00  0.00     0.170 HD
ATOM     18  O   UNL A   1      32.175  20.578  23.260  1.00  0.00    -0.269 OA
BRANCH  16  19
ATOM     19  C   UNL A   1      34.045  21.704  24.131  1.00  0.00     0.063 A 
ATOM     20  C   UNL A   1      35.026  22.409  23.412  1.00  0.00     0.017 A 
ATOM     21  C   UNL A   1      34.382  21.048  25.337  1.00  0.00     0.045 A 
ATOM     22  C   UNL A   1      36.335  22.482  23.888  1.00  0.00     0.016 A 
ATOM     23  C   UNL A   1      35.707  21.126  25.790  1.00  0.00     0.042 A 
ATOM     24  C   UNL A   1      36.669  21.843  25.077  1.00  0.00     0.020 A 
ATOM     25  Br  UNL A   1      38.445  21.908  25.718  1.00  0.00    -0.051 Br
BRANCH  21  26
ATOM     26  N   UNL A   1      33.518  20.185  26.018  1.00  0.00    -0.398 N 
ATOM     27  H   UNL A   1      33.154  19.393  25.561  1.00  0.00     0.156 HD
ATOM     28  H   UNL A   1      33.275  20.370  26.954  1.00  0.00     0.156 HD
ENDBRANCH  21  26
ENDBRANCH  16  19
ENDBRANCH  12  15
ENDBRANCH   5   8
ENDBRANCH   3   4
ENDBRANCH   2   3
ENDBRANCH   1   2
BRANCH   1  29
ATOM     29  C   UNL A   1      31.892  30.889  26.083  1.00  0.00     0.002 C 
BRANCH  29  30
ATOM     30  C   UNL A   1      32.778  30.553  27.282  1.00  0.00     0.021 C 
BRANCH  30  31
ATOM     31  C   UNL A   1      34.238  30.313  26.921  1.00  0.00     0.116 C 
BRANCH  31  32
ATOM     32  N   UNL A   1      35.118  31.348  27.425  1.00  0.00    -0.352 N 
ATOM     33  C   UNL A   1      36.298  31.251  28.148  1.00  0.00     0.251 C 
ATOM     34  H   UNL A   1      34.833  32.269  27.221  1.00  0.00     0.163 HD
ATOM     35  O   UNL A   1      36.723  32.241  28.698  1.00  0.00    -0.269 OA
BRANCH  33  36
ATOM     36  C   UNL A   1      37.085  29.986  28.106  1.00  0.00     0.039 A 
ATOM     37  C   UNL A   1      37.124  29.219  29.278  1.00  0.00     0.014 A 
ATOM     38  C   UNL A   1      37.932  29.674  27.047  1.00  0.00     0.014 A 
ATOM     39  C   UNL A   1      38.177  28.329  29.488  1.00  0.00     0.010 A 
ATOM     40  C   UNL A   1      39.015  28.856  27.276  1.00  0.00     0.010 A 
ATOM     41  C   UNL A   1      39.176  28.250  28.525  1.00  0.00    -0.014 A 
BRANCH  41  42
ATOM     42  C   UNL A   1      40.447  27.567  28.693  1.00  0.00     0.031 A 
ATOM     43  C   UNL A   1      40.513  26.106  28.525  1.00  0.00     0.074 A 
ATOM     44  C   UNL A   1      41.569  28.313  28.804  1.00  0.00     0.049 A 
ATOM     45  N   UNL A   1      41.551  25.393  28.787  1.00  0.00    -0.248 NA
ATOM     46  C   UNL A   1      39.378  25.330  28.047  1.00  0.00     0.031 C 
ATOM     47  C   UNL A   1      42.951  27.885  28.619  1.00  0.00     0.029 A 
ATOM     48  N   UNL A   1      41.689  29.602  29.334  1.00  0.00    -0.354 N 
ATOM     49  C   UNL A   1      41.325  24.125  28.299  1.00  0.00     0.074 A 
ATOM     50  C   UNL A   1      39.936  24.123  27.909  1.00  0.00     0.031 C 
ATOM     51  C   UNL A   1      43.752  28.726  29.292  1.00  0.00     0.029 A 
ATOM     52  C   UNL A   1      42.884  29.586  30.079  1.00  0.00     0.049 A 
ATOM     53  H   UNL A   1      41.071  30.358  29.212  1.00  0.00     0.167 HD
ATOM     54  C   UNL A   1      42.389  23.277  28.187  1.00  0.00     0.034 A 
ATOM     55  C   UNL A   1      42.903  29.693  31.444  1.00  0.00     0.034 A 
ATOM     56  C   UNL A   1      43.576  23.850  28.844  1.00  0.00     0.049 A 
ATOM     57  C   UNL A   1      43.525  28.484  32.143  1.00  0.00     0.074 A 
ATOM     58  C   UNL A   1      44.687  24.564  28.421  1.00  0.00     0.029 A 
ATOM     59  N   UNL A   1      43.553  23.969  30.222  1.00  0.00    -0.354 N 
ATOM     60  N   UNL A   1      44.001  27.432  31.531  1.00  0.00    -0.248 NA
ATOM     61  C   UNL A   1      43.563  28.333  33.600  1.00  0.00     0.031 C 
ATOM     62  C   UNL A   1      45.274  25.184  29.570  1.00  0.00     0.029 A 
ATOM     63  C   UNL A   1      44.543  24.817  30.687  1.00  0.00     0.049 A 
ATOM     64  H   UNL A   1      42.908  23.506  30.803  1.00  0.00     0.167 HD
ATOM     65  C   UNL A   1      44.238  26.439  32.446  1.00  0.00     0.074 A 
ATOM     66  C   UNL A   1      43.987  27.065  33.733  1.00  0.00     0.031 C 
ATOM     67  C   UNL A   1      44.553  25.152  32.107  1.00  0.00     0.034 A 
BRANCH  54  68
ATOM     68  C   UNL A   1      42.447  22.021  27.333  1.00  0.00     0.023 A 
ATOM     69  C   UNL A   1      41.471  21.029  27.585  1.00  0.00     0.012 A 
ATOM     70  C   UNL A   1      43.413  21.691  26.354  1.00  0.00     0.148 A 
ATOM     71  C   UNL A   1      41.495  19.770  26.972  1.00  0.00     0.002 A 
ATOM     72  C   UNL A   1      43.475  20.417  25.782  1.00  0.00     0.091 A 
ATOM     73  F   UNL A   1      44.251  22.621  25.901  1.00  0.00    -0.205 F 
ATOM     74  C   UNL A   1      42.515  19.451  26.091  1.00  0.00     0.022 A 
BRANCH  72  75
ATOM     75  S   UNL A   1      44.812  19.910  24.682  1.00  0.00     0.127 S 
ATOM     76  O   UNL A   1      44.576  18.470  24.560  1.00  0.00    -0.237 OA
ATOM     77  O   UNL A   1      44.530  20.676  23.469  1.00  0.00    -0.237 OA
ATOM     78  O   UNL A   1      46.056  20.252  25.361  1.00  0.00    -0.744 OA
ENDBRANCH  72  75
ENDBRANCH  54  68
BRANCH  55  79
ATOM     79  C   UNL A   1      41.759  30.498  31.986  1.00  0.00     0.023 A 
ATOM     80  C   UNL A   1      41.629  31.829  31.516  1.00  0.00     0.012 A 
ATOM     81  C   UNL A   1      40.648  29.888  32.591  1.00  0.00     0.148 A 
ATOM     82  C   UNL A   1      40.382  32.455  31.474  1.00  0.00     0.002 A 
ATOM     83  C   UNL A   1      39.414  30.535  32.579  1.00  0.00     0.091 A 
ATOM     84  F   UNL A   1      40.779  28.662  33.110  1.00  0.00    -0.205 F 
ATOM     85  C   UNL A   1      39.265  31.790  31.969  1.00  0.00     0.022 A 
BRANCH  83  86
ATOM     86  S   UNL A   1      37.957  29.732  33.255  1.00  0.00     0.127 S 
ATOM     87  O   UNL A   1      38.102  30.017  34.679  1.00  0.00    -0.237 OA
ATOM     88  O   UNL A   1      36.862  30.442  32.595  1.00  0.00    -0.237 OA
ATOM     89  O   UNL A   1      38.090  28.339  32.852  1.00  0.00    -0.744 OA
ENDBRANCH  83  86
ENDBRANCH  55  79
BRANCH  67  90
ATOM     90  C   UNL A   1      44.902  24.100  33.138  1.00  0.00     0.023 A 
ATOM     91  C   UNL A   1      43.898  23.242  33.632  1.00  0.00     0.012 A 
ATOM     92  C   UNL A   1      46.173  24.028  33.755  1.00  0.00     0.148 A 
ATOM     93  C   UNL A   1      44.155  22.321  34.652  1.00  0.00     0.002 A 
ATOM     94  C   UNL A   1      46.394  23.188  34.842  1.00  0.00     0.091 A 
ATOM     95  F   UNL A   1      47.196  24.734  33.259  1.00  0.00    -0.205 F 
ATOM     96  C   UNL A   1      45.397  22.310  35.274  1.00  0.00     0.022 A 
BRANCH  94  97
ATOM     97  S   UNL A   1      47.893  23.286  35.833  1.00  0.00     0.127 S 
ATOM     98  O   UNL A   1      48.049  24.732  36.000  1.00  0.00    -0.237 OA
ATOM     99  O   UNL A   1      47.499  22.572  37.045  1.00  0.00    -0.237 OA
ATOM    100  O   UNL A   1      48.936  22.663  35.031  1.00  0.00    -0.744 OA
ENDBRANCH  94  97
ENDBRANCH  67  90
ENDBRANCH  41  42
ENDBRANCH  33  36
ENDBRANCH  31  32
ENDBRANCH  30  31
ENDBRANCH  29  30
ENDBRANCH   1  29
TORSDOF 19
ENDMDL
MODEL 2
REMARK VINA RESULT:     -12.9      1.504      1.806
REMARK SMILES Cc1cc(NC(=O)c2ccc(Br)cc2N)ccc1C(=O)NCCCCCCNC(=O)c1ccc(-c2c3nc(c(-c4cccc(S(=O)(=O)[O-])c4F)c4ccc([nH]4)c(-c4cccc(S(=O)(=O)[O-])c4F)c4nc(c(-c5cccc(S(=O)(=O)[O-])c5F)c5ccc2[nH]5)C=C4)C=C3)cc1
REMARK SMILES IDX 24 1 23 2 22 3 21 4 19 5 20 6 18 8 1 9 2 10 3 11 4 12 17 13
REMARK SMILES IDX 16 14 5 15 6 16 7 18 8 19 9 20 14 21 10 22 13 23 11 24 12 25
REMARK SMILES IDX 15 26 25 29 26 30 27 31 28 32 29 33 30 35 31 36 32 37 93 38
REMARK SMILES IDX 33 39 92 40 34 41 35 42 36 43 86 44 37 45 91 46 85 47 87 48
REMARK SMILES IDX 38 49 90 50 84 51 83 52 39 54 71 55 51 56 70 57 52 58 55 59
REMARK SMILES IDX 69 60 88 61 53 62 54 63 68 65 89 66 56 67 40 68 41 69 49 70
REMARK SMILES IDX 42 71 44 72 50 73 43 74 45 75 46 76 47 77 48 78 72 79 73 80
REMARK SMILES IDX 81 81 74 82 76 83 82 84 75 85 77 86 78 87 79 88 80 89 57 90
REMARK SMILES IDX 58 91 66 92 59 93 61 94 67 95 60 96 62 97 63 98 64 99 65 100
REMARK H PARENT 21 7 5 17 15 27 15 28 28 34 87 53 55 64
REMARK Flexibility Score: inf
ROOT
ATOM      1  C   UNL A   1      31.568  29.664  24.705  1.00  0.00     0.002 C 
ENDROOT
BRANCH   1   2
ATOM      2  C   UNL A   1      31.678  29.143  23.270  1.00  0.00     0.021 C 
BRANCH   2   3
ATOM      3  C   UNL A   1      30.343  28.832  22.579  1.00  0.00     0.116 C 
BRANCH   3   4
ATOM      4  N   UNL A   1      29.636  27.808  23.313  1.00  0.00    -0.352 N 
ATOM      5  C   UNL A   1      29.996  26.606  23.856  1.00  0.00     0.251 C 
ATOM      6  O   UNL A   1      29.082  25.962  24.382  1.00  0.00    -0.269 OA
ATOM      7  H   UNL A   1      28.685  28.022  23.451  1.00  0.00     0.163 HD
BRANCH   5   8
ATOM      8  C   UNL A   1      31.393  26.074  23.984  1.00  0.00     0.042 A 
ATOM      9  C   UNL A   1      32.006  25.548  21.519  1.00  0.00     0.045 C 
ATOM     10  C   UNL A   1      32.294  25.661  22.984  1.00  0.00    -0.036 A 
ATOM     11  C   UNL A   1      33.597  25.259  23.361  1.00  0.00     0.030 A 
ATOM     12  C   UNL A   1      33.983  25.160  24.695  1.00  0.00     0.041 A 
ATOM     13  C   UNL A   1      31.785  25.888  25.332  1.00  0.00     0.016 A 
ATOM     14  C   UNL A   1      33.045  25.397  25.686  1.00  0.00     0.027 A 
BRANCH  12  15
ATOM     15  N   UNL A   1      35.294  24.843  25.080  1.00  0.00    -0.322 N 
ATOM     16  C   UNL A   1      35.771  23.705  25.704  1.00  0.00     0.257 C 
ATOM     17  H   UNL A   1      35.971  25.529  24.878  1.00  0.00     0.170 HD
ATOM     18  O   UNL A   1      36.887  23.720  26.225  1.00  0.00    -0.269 OA
BRANCH  16  19
ATOM     19  C   UNL A   1      35.002  22.428  25.677  1.00  0.00     0.063 A 
ATOM     20  C   UNL A   1      34.901  21.786  24.430  1.00  0.00     0.017 A 
ATOM     21  C   UNL A   1      34.365  21.879  26.813  1.00  0.00     0.045 A 
ATOM     22  C   UNL A   1      34.187  20.594  24.304  1.00  0.00     0.016 A 
ATOM     23  C   UNL A   1      33.643  20.685  26.660  1.00  0.00     0.042 A 
ATOM     24  C   UNL A   1      33.564  20.047  25.421  1.00  0.00     0.020 A 
ATOM     25  Br  UNL A   1      32.567  18.450  25.260  1.00  0.00    -0.051 Br
BRANCH  21  26
ATOM     26  N   UNL A   1      34.268  22.537  28.041  1.00  0.00    -0.398 N 
ATOM     27  H   UNL A   1      34.651  23.437  28.148  1.00  0.00     0.156 HD
ATOM     28  H   UNL A   1      33.815  22.101  28.799  1.00  0.00     0.156 HD
ENDBRANCH  21  26
ENDBRANCH  16  19
ENDBRANCH  12  15
ENDBRANCH   5   8
ENDBRANCH   3   4
ENDBRANCH   2   3
ENDBRANCH   1   2
BRANCH   1  29
ATOM     29  C   UNL A   1      32.819  29.508  25.579  1.00  0.00     0.002 C 
BRANCH  29  30
ATOM     30  C   UNL A   1      32.999  30.558  26.675  1.00  0.00     0.021 C 
BRANCH  30  31
ATOM     31  C   UNL A   1      34.121  30.241  27.653  1.00  0.00     0.116 C 
BRANCH  31  32
ATOM     32  N   UNL A   1      35.075  31.324  27.783  1.00  0.00    -0.352 N 
ATOM     33  C   UNL A   1      36.392  31.315  28.218  1.00  0.00     0.251 C 
ATOM     34  H   UNL A   1      34.733  32.210  27.521  1.00  0.00     0.163 HD
ATOM     35  O   UNL A   1      36.915  32.367  28.505  1.00  0.00    -0.269 OA
BRANCH  33  36
ATOM     36  C   UNL A   1      37.171  30.045  28.177  1.00  0.00     0.039 A 
ATOM     37  C   UNL A   1      37.230  29.293  29.358  1.00  0.00     0.014 A 
ATOM     38  C   UNL A   1      37.996  29.714  27.106  1.00  0.00     0.014 A 
ATOM     39  C   UNL A   1      38.281  28.399  29.559  1.00  0.00     0.010 A 
ATOM     40  C   UNL A   1      39.079  28.893  27.324  1.00  0.00     0.010 A 
ATOM     41  C   UNL A   1      39.261  28.302  28.577  1.00  0.00    -0.014 A 
BRANCH  41  42
ATOM     42  C   UNL A   1      40.531  27.614  28.730  1.00  0.00     0.031 A 
ATOM     43  C   UNL A   1      40.592  26.155  28.544  1.00  0.00     0.074 A 
ATOM     44  C   UNL A   1      41.656  28.357  28.842  1.00  0.00     0.049 A 
ATOM     45  N   UNL A   1      41.631  25.437  28.791  1.00  0.00    -0.248 NA
ATOM     46  C   UNL A   1      39.453  25.388  28.065  1.00  0.00     0.031 C 
ATOM     47  C   UNL A   1      43.035  27.927  28.644  1.00  0.00     0.029 A 
ATOM     48  N   UNL A   1      41.782  29.639  29.386  1.00  0.00    -0.354 N 
ATOM     49  C   UNL A   1      41.399  24.175  28.291  1.00  0.00     0.074 A 
ATOM     50  C   UNL A   1      40.007  24.181  27.910  1.00  0.00     0.031 C 
ATOM     51  C   UNL A   1      43.843  28.759  29.321  1.00  0.00     0.029 A 
ATOM     52  C   UNL A   1      42.982  29.611  30.123  1.00  0.00     0.049 A 
ATOM     53  H   UNL A   1      41.165  30.398  29.277  1.00  0.00     0.167 HD
ATOM     54  C   UNL A   1      42.459  23.326  28.162  1.00  0.00     0.034 A 
ATOM     55  C   UNL A   1      43.010  29.703  31.490  1.00  0.00     0.034 A 
ATOM     56  C   UNL A   1      43.652  23.889  28.818  1.00  0.00     0.049 A 
ATOM     57  C   UNL A   1      43.634  28.485  32.170  1.00  0.00     0.074 A 
ATOM     58  C   UNL A   1      44.762  24.605  28.397  1.00  0.00     0.029 A 
ATOM     59  N   UNL A   1      43.638  23.992  30.197  1.00  0.00    -0.354 N 
ATOM     60  N   UNL A   1      44.103  27.438  31.544  1.00  0.00    -0.248 NA
ATOM     61  C   UNL A   1      43.680  28.316  33.625  1.00  0.00     0.031 C 
ATOM     62  C   UNL A   1      45.358  25.210  29.549  1.00  0.00     0.029 A 
ATOM     63  C   UNL A   1      44.633  24.832  30.666  1.00  0.00     0.049 A 
ATOM     64  H   UNL A   1      42.996  23.524  30.777  1.00  0.00     0.167 HD
ATOM     65  C   UNL A   1      44.343  26.435  32.446  1.00  0.00     0.074 A 
ATOM     66  C   UNL A   1      44.102  27.046  33.741  1.00  0.00     0.031 C 
ATOM     67  C   UNL A   1      44.653  25.151  32.089  1.00  0.00     0.034 A 
BRANCH  54  68
ATOM     68  C   UNL A   1      42.510  22.080  27.293  1.00  0.00     0.023 A 
ATOM     69  C   UNL A   1      41.506  21.106  27.511  1.00  0.00     0.012 A 
ATOM     70  C   UNL A   1      43.489  21.741  26.331  1.00  0.00     0.148 A 
ATOM     71  C   UNL A   1      41.516  19.855  26.882  1.00  0.00     0.002 A 
ATOM     72  C   UNL A   1      43.536  20.473  25.744  1.00  0.00     0.091 A 
ATOM     73  F   UNL A   1      44.358  22.658  25.909  1.00  0.00    -0.205 F 
ATOM     74  C   UNL A   1      42.549  19.525  26.019  1.00  0.00     0.022 A 
BRANCH  72  75
ATOM     75  S   UNL A   1      44.886  19.950  24.667  1.00  0.00     0.127 S 
ATOM     76  O   UNL A   1      44.654  18.508  24.567  1.00  0.00    -0.237 OA
ATOM     77  O   UNL A   1      44.616  20.695  23.439  1.00  0.00    -0.237 OA
ATOM     78  O   UNL A   1      46.122  20.307  25.354  1.00  0.00    -0.744 OA
ENDBRANCH  72  75
ENDBRANCH  54  68
BRANCH  55  79
ATOM     79  C   UNL A   1      41.872  30.504  32.048  1.00  0.00     0.023 A 
ATOM     80  C   UNL A   1      41.751  31.846  31.606  1.00  0.00     0.012 A 
ATOM     81  C   UNL A   1      40.756  29.890  32.639  1.00  0.00     0.148 A 
ATOM     82  C   UNL A   1      40.508  32.481  31.577  1.00  0.00     0.002 A 
ATOM     83  C   UNL A   1      39.527  30.545  32.641  1.00  0.00     0.091 A 
ATOM     84  F   UNL A   1      40.878  28.652  33.132  1.00  0.00    -0.205 F 
ATOM     85  C   UNL A   1      39.387  31.814  32.057  1.00  0.00     0.022 A 
BRANCH  83  86
ATOM     86  S   UNL A   1      38.063  29.738  33.299  1.00  0.00     0.127 S 
ATOM     87  O   UNL A   1      38.214  29.984  34.730  1.00  0.00    -0.237 OA
ATOM     88  O   UNL A   1      36.974  30.476  32.660  1.00  0.00    -0.237 OA
ATOM     89  O   UNL A   1      38.182  28.356  32.859  1.00  0.00    -0.744 OA
ENDBRANCH  83  86
ENDBRANCH  55  79
BRANCH  67  90
ATOM     90  C   UNL A   1      45.005  24.086  33.106  1.00  0.00     0.023 A 
ATOM     91  C   UNL A   1      44.012  23.196  33.563  1.00  0.00     0.012 A 
ATOM     92  C   UNL A   1      46.266  24.030  33.747  1.00  0.00     0.148 A 
ATOM     93  C   UNL A   1      44.271  22.260  34.570  1.00  0.00     0.002 A 
ATOM     94  C   UNL A   1      46.485  23.173  34.821  1.00  0.00     0.091 A 
ATOM     95  F   UNL A   1      47.282  24.768  33.285  1.00  0.00    -0.205 F 
ATOM     96  C   UNL A   1      45.500  22.265  35.215  1.00  0.00     0.022 A 
BRANCH  94  97
ATOM     97  S   UNL A   1      47.962  23.284  35.843  1.00  0.00     0.127 S 
ATOM     98  O   UNL A   1      47.942  24.691  36.248  1.00  0.00    -0.237 OA
ATOM     99  O   UNL A   1      47.658  22.338  36.914  1.00  0.00    -0.237 OA
ATOM    100  O   UNL A   1      49.072  22.931  34.970  1.00  0.00    -0.744 OA
ENDBRANCH  94  97
ENDBRANCH  67  90
ENDBRANCH  41  42
ENDBRANCH  33  36
ENDBRANCH  31  32
ENDBRANCH  30  31
ENDBRANCH  29  30
ENDBRANCH   1  29
TORSDOF 19
ENDMDL
MODEL 3
REMARK VINA RESULT:     -12.7      1.700      2.147
REMARK SMILES Cc1cc(NC(=O)c2ccc(Br)cc2N)ccc1C(=O)NCCCCCCNC(=O)c1ccc(-c2c3nc(c(-c4cccc(S(=O)(=O)[O-])c4F)c4ccc([nH]4)c(-c4cccc(S(=O)(=O)[O-])c4F)c4nc(c(-c5cccc(S(=O)(=O)[O-])c5F)c5ccc2[nH]5)C=C4)C=C3)cc1
REMARK SMILES IDX 24 1 23 2 22 3 21 4 19 5 20 6 18 8 1 9 2 10 3 11 4 12 17 13
REMARK SMILES IDX 16 14 5 15 6 16 7 18 8 19 9 20 14 21 10 22 13 23 11 24 12 25
REMARK SMILES IDX 15 26 25 29 26 30 27 31 28 32 29 33 30 35 31 36 32 37 93 38
REMARK SMILES IDX 33 39 92 40 34 41 35 42 36 43 86 44 37 45 91 46 85 47 87 48
REMARK SMILES IDX 38 49 90 50 84 51 83 52 39 54 71 55 51 56 70 57 52 58 55 59
REMARK SMILES IDX 69 60 88 61 53 62 54 63 68 65 89 66 56 67 40 68 41 69 49 70
REMARK SMILES IDX 42 71 44 72 50 73 43 74 45 75 46 76 47 77 48 78 72 79 73 80
REMARK SMILES IDX 81 81 74 82 76 83 82 84 75 85 77 86 78 87 79 88 80 89 57 90
REMARK SMILES IDX 58 91 66 92 59 93 61 94 67 95 60 96 62 97 63 98 64 99 65 100
REMARK H PARENT 21 7 5 17 15 27 15 28 28 34 87 53 55 64
REMARK Flexibility Score: inf
ROOT
ATOM      1  C   UNL A   1      32.060  29.579  25.261  1.00  0.00     0.002 C 
ENDROOT
BRANCH   1   2
ATOM      2  C   UNL A   1      33.345  29.016  24.648  1.00  0.00     0.021 C 
BRANCH   2   3
ATOM      3  C   UNL A   1      33.422  29.070  23.116  1.00  0.00     0.116 C 
BRANCH   3   4
ATOM      4  N   UNL A   1      32.093  29.193  22.562  1.00  0.00    -0.352 N 
ATOM      5  C   UNL A   1      31.076  28.311  22.322  1.00  0.00     0.251 C 
ATOM      6  O   UNL A   1      30.075  28.786  21.774  1.00  0.00    -0.269 OA
ATOM      7  H   UNL A   1      31.872  30.115  22.297  1.00  0.00     0.163 HD
BRANCH   5   8
ATOM      8  C   UNL A   1      31.017  26.881  22.774  1.00  0.00     0.042 A 
ATOM      9  C   UNL A   1      32.470  25.684  20.989  1.00  0.00     0.045 C 
ATOM     10  C   UNL A   1      31.653  25.743  22.243  1.00  0.00    -0.036 A 
ATOM     11  C   UNL A   1      31.491  24.500  22.900  1.00  0.00     0.030 A 
ATOM     12  C   UNL A   1      30.643  24.347  23.993  1.00  0.00     0.041 A 
ATOM     13  C   UNL A   1      30.102  26.682  23.835  1.00  0.00     0.016 A 
ATOM     14  C   UNL A   1      29.882  25.427  24.411  1.00  0.00     0.027 A 
BRANCH  12  15
ATOM     15  N   UNL A   1      30.537  23.143  24.705  1.00  0.00    -0.322 N 
ATOM     16  C   UNL A   1      31.531  22.262  25.085  1.00  0.00     0.257 C 
ATOM     17  H   UNL A   1      29.623  22.889  24.969  1.00  0.00     0.170 HD
ATOM     18  O   UNL A   1      31.231  21.123  25.444  1.00  0.00    -0.269 OA
BRANCH  16  19
ATOM     19  C   UNL A   1      32.957  22.692  25.164  1.00  0.00     0.063 A 
ATOM     20  C   UNL A   1      33.862  22.009  24.333  1.00  0.00     0.017 A 
ATOM     21  C   UNL A   1      33.419  23.702  26.039  1.00  0.00     0.045 A 
ATOM     22  C   UNL A   1      35.219  22.331  24.351  1.00  0.00     0.016 A 
ATOM     23  C   UNL A   1      34.790  24.001  26.048  1.00  0.00     0.042 A 
ATOM     24  C   UNL A   1      35.676  23.328  25.206  1.00  0.00     0.020 A 
ATOM     25  Br  UNL A   1      37.517  23.753  25.264  1.00  0.00    -0.051 Br
BRANCH  21  26
ATOM     26  N   UNL A   1      32.622  24.303  27.017  1.00  0.00    -0.398 N 
ATOM     27  H   UNL A   1      32.911  25.146  27.436  1.00  0.00     0.156 HD
ATOM     28  H   UNL A   1      31.774  23.884  27.288  1.00  0.00     0.156 HD
ENDBRANCH  21  26
ENDBRANCH  16  19
ENDBRANCH  12  15
ENDBRANCH   5   8
ENDBRANCH   3   4
ENDBRANCH   2   3
ENDBRANCH   1   2
BRANCH   1  29
ATOM     29  C   UNL A   1      32.090  29.839  26.773  1.00  0.00     0.002 C 
BRANCH  29  30
ATOM     30  C   UNL A   1      33.067  30.917  27.242  1.00  0.00     0.021 C 
BRANCH  30  31
ATOM     31  C   UNL A   1      34.454  30.387  27.576  1.00  0.00     0.116 C 
BRANCH  31  32
ATOM     32  N   UNL A   1      35.408  31.443  27.850  1.00  0.00    -0.352 N 
ATOM     33  C   UNL A   1      36.683  31.385  28.394  1.00  0.00     0.251 C 
ATOM     34  H   UNL A   1      35.101  32.349  27.612  1.00  0.00     0.163 HD
ATOM     35  O   UNL A   1      37.192  32.409  28.786  1.00  0.00    -0.269 OA
BRANCH  33  36
ATOM     36  C   UNL A   1      37.445  30.105  28.344  1.00  0.00     0.039 A 
ATOM     37  C   UNL A   1      37.470  29.330  29.511  1.00  0.00     0.014 A 
ATOM     38  C   UNL A   1      38.286  29.783  27.283  1.00  0.00     0.014 A 
ATOM     39  C   UNL A   1      38.505  28.419  29.715  1.00  0.00     0.010 A 
ATOM     40  C   UNL A   1      39.354  28.944  27.507  1.00  0.00     0.010 A 
ATOM     41  C   UNL A   1      39.504  28.327  28.752  1.00  0.00    -0.014 A 
BRANCH  41  42
ATOM     42  C   UNL A   1      40.761  27.619  28.917  1.00  0.00     0.031 A 
ATOM     43  C   UNL A   1      40.813  26.167  28.677  1.00  0.00     0.074 A 
ATOM     44  C   UNL A   1      41.889  28.344  29.091  1.00  0.00     0.049 A 
ATOM     45  N   UNL A   1      41.835  25.429  28.928  1.00  0.00    -0.248 NA
ATOM     46  C   UNL A   1      39.680  25.433  28.135  1.00  0.00     0.031 C 
ATOM     47  C   UNL A   1      43.269  27.906  28.918  1.00  0.00     0.029 A 
ATOM     48  N   UNL A   1      42.012  29.603  29.687  1.00  0.00    -0.354 N 
ATOM     49  C   UNL A   1      41.606  24.189  28.373  1.00  0.00     0.074 A 
ATOM     50  C   UNL A   1      40.226  24.226  27.951  1.00  0.00     0.031 C 
ATOM     51  C   UNL A   1      44.065  28.702  29.651  1.00  0.00     0.029 A 
ATOM     52  C   UNL A   1      43.188  29.534  30.459  1.00  0.00     0.049 A 
ATOM     53  H   UNL A   1      41.407  30.373  29.588  1.00  0.00     0.167 HD
ATOM     54  C   UNL A   1      42.661  23.333  28.244  1.00  0.00     0.034 A 
ATOM     55  C   UNL A   1      43.176  29.573  31.828  1.00  0.00     0.034 A 
ATOM     56  C   UNL A   1      43.839  23.857  28.957  1.00  0.00     0.049 A 
ATOM     57  C   UNL A   1      43.766  28.323  32.480  1.00  0.00     0.074 A 
ATOM     58  C   UNL A   1      44.968  24.576  28.597  1.00  0.00     0.029 A 
ATOM     59  N   UNL A   1      43.783  23.908  30.338  1.00  0.00    -0.354 N 
ATOM     60  N   UNL A   1      44.242  27.296  31.828  1.00  0.00    -0.248 NA
ATOM     61  C   UNL A   1      43.766  28.099  33.928  1.00  0.00     0.031 C 
ATOM     62  C   UNL A   1      45.535  25.130  29.788  1.00  0.00     0.029 A 
ATOM     63  C   UNL A   1      44.772  24.718  30.868  1.00  0.00     0.049 A 
ATOM     64  H   UNL A   1      43.119  23.426  30.879  1.00  0.00     0.167 HD
ATOM     65  C   UNL A   1      44.445  26.256  32.698  1.00  0.00     0.074 A 
ATOM     66  C   UNL A   1      44.171  26.821  34.008  1.00  0.00     0.031 C 
ATOM     67  C   UNL A   1      44.752  24.983  32.303  1.00  0.00     0.034 A 
BRANCH  54  68
ATOM     68  C   UNL A   1      42.725  22.121  27.330  1.00  0.00     0.023 A 
ATOM     69  C   UNL A   1      41.813  21.071  27.594  1.00  0.00     0.012 A 
ATOM     70  C   UNL A   1      43.641  21.882  26.280  1.00  0.00     0.148 A 
ATOM     71  C   UNL A   1      41.857  19.843  26.922  1.00  0.00     0.002 A 
ATOM     72  C   UNL A   1      43.727  20.639  25.646  1.00  0.00     0.091 A 
ATOM     73  F   UNL A   1      44.406  22.872  25.822  1.00  0.00    -0.205 F 
ATOM     74  C   UNL A   1      42.835  19.614  25.967  1.00  0.00     0.022 A 
BRANCH  72  75
ATOM     75  S   UNL A   1      45.016  20.247  24.446  1.00  0.00     0.127 S 
ATOM     76  O   UNL A   1      44.756  21.229  23.390  1.00  0.00    -0.237 OA
ATOM     77  O   UNL A   1      46.239  20.486  25.208  1.00  0.00    -0.237 OA
ATOM     78  O   UNL A   1      44.794  18.865  24.039  1.00  0.00    -0.744 OA
ENDBRANCH  72  75
ENDBRANCH  54  68
BRANCH  55  79
ATOM     79  C   UNL A   1      42.029  30.366  32.381  1.00  0.00     0.023 A 
ATOM     80  C   UNL A   1      40.795  29.687  32.542  1.00  0.00     0.012 A 
ATOM     81  C   UNL A   1      42.231  31.567  33.081  1.00  0.00     0.148 A 
ATOM     82  C   UNL A   1      39.879  30.089  33.516  1.00  0.00     0.002 A 
ATOM     83  C   UNL A   1      41.293  31.982  34.024  1.00  0.00     0.091 A 
ATOM     84  F   UNL A   1      43.358  32.259  32.878  1.00  0.00    -0.205 F 
ATOM     85  C   UNL A   1      40.148  31.215  34.286  1.00  0.00     0.022 A 
BRANCH  83  86
ATOM     86  S   UNL A   1      41.579  33.459  35.005  1.00  0.00     0.127 S 
ATOM     87  O   UNL A   1      40.373  33.500  35.827  1.00  0.00    -0.237 OA
ATOM     88  O   UNL A   1      42.805  33.133  35.731  1.00  0.00    -0.237 OA
ATOM     89  O   UNL A   1      41.735  34.522  34.023  1.00  0.00    -0.744 OA
ENDBRANCH  83  86
ENDBRANCH  55  79
BRANCH  67  90
ATOM     90  C   UNL A   1      45.062  23.876  33.288  1.00  0.00     0.023 A 
ATOM     91  C   UNL A   1      44.046  22.981  33.680  1.00  0.00     0.012 A 
ATOM     92  C   UNL A   1      46.302  23.782  33.964  1.00  0.00     0.148 A 
ATOM     93  C   UNL A   1      44.264  22.005  34.658  1.00  0.00     0.002 A 
ATOM     94  C   UNL A   1      46.478  22.882  35.011  1.00  0.00     0.091 A 
ATOM     95  F   UNL A   1      47.339  24.526  33.562  1.00  0.00    -0.205 F 
ATOM     96  C   UNL A   1      45.473  21.971  35.340  1.00  0.00     0.022 A 
BRANCH  94  97
ATOM     97  S   UNL A   1      47.924  22.938  36.081  1.00  0.00     0.127 S 
ATOM     98  O   UNL A   1      49.001  22.591  35.151  1.00  0.00    -0.237 OA
ATOM     99  O   UNL A   1      47.922  24.332  36.517  1.00  0.00    -0.237 OA
ATOM    100  O   UNL A   1      47.687  21.941  37.116  1.00  0.00    -0.744 OA
ENDBRANCH  94  97
ENDBRANCH  67  90
ENDBRANCH  41  42
ENDBRANCH  33  36
ENDBRANCH  31  32
ENDBRANCH  30  31
ENDBRANCH  29  30
ENDBRANCH   1  29
TORSDOF 19
ENDMDL
