MODEL 1
REMARK VINA RESULT:     -11.8      0.000      0.000
REMARK SMILES CC1=C[C@H](C)[C@@H](C(=O)NCCCCCCNC(=O)c2ccc(-c3c4nc(c(-c5cccc(S(=O)(=O)[O-])c5F)c5ccc([nH]5)c(-c5cccc(S(=O)(=O)[O-])c5F)c5nc(c(-c6cccc(S(=O)(=O)[O-])c6F)c6ccc3[nH]6)C=C5)C=C4)cc2)[C@H](C(=O)Nc2cccnc2)C1
REMARK SMILES IDX 13 1 12 2 11 3 10 4 9 5 7 6 8 7 6 9 1 10 2 11 3 12 92 13
REMARK SMILES IDX 4 14 82 15 5 16 83 17 84 18 85 19 86 21 87 22 91 23 88 24
REMARK SMILES IDX 90 25 89 26 14 27 15 28 16 29 17 30 18 32 19 33 20 34 81 35
REMARK SMILES IDX 21 36 80 37 22 38 23 39 24 40 74 41 25 42 79 43 73 44 75 45
REMARK SMILES IDX 26 46 78 47 72 48 71 49 27 51 59 52 39 53 58 54 40 55 43 56
REMARK SMILES IDX 57 57 76 58 41 59 42 60 56 62 77 63 44 64 28 65 29 66 37 67
REMARK SMILES IDX 30 68 32 69 38 70 31 71 33 72 34 73 35 74 36 75 60 76 61 77
REMARK SMILES IDX 69 78 62 79 64 80 70 81 63 82 65 83 66 84 67 85 68 86 45 87
REMARK SMILES IDX 46 88 54 89 47 90 49 91 55 92 48 93 50 94 51 95 52 96 53 97
REMARK H PARENT 9 8 85 20 16 31 75 50 43 61
REMARK Flexibility Score: inf
ROOT
ATOM      1  C   UNL A   1      36.365  20.146  24.739  1.00  0.00     0.002 C 
ENDROOT
BRANCH   1   2
ATOM      2  C   UNL A   1      35.123  19.248  24.658  1.00  0.00     0.002 C 
BRANCH   2   3
ATOM      3  C   UNL A   1      33.792  19.995  24.693  1.00  0.00     0.021 C 
BRANCH   3   4
ATOM      4  C   UNL A   1      33.215  20.111  26.093  1.00  0.00     0.116 C 
BRANCH   4   5
ATOM      5  N   UNL A   1      33.974  20.991  26.959  1.00  0.00    -0.356 N 
ATOM      6  C   UNL A   1      34.066  22.355  26.951  1.00  0.00     0.224 C 
ATOM      7  O   UNL A   1      34.684  22.890  27.875  1.00  0.00    -0.275 OA
ATOM      8  H   UNL A   1      34.501  20.539  27.658  1.00  0.00     0.163 HD
BRANCH   6   9
ATOM      9  C   UNL A   1      33.404  23.216  25.853  1.00  0.00     0.098 C 
ATOM     10  C   UNL A   1      33.172  27.670  26.029  1.00  0.00     0.039 C 
ATOM     11  C   UNL A   1      33.247  26.174  25.880  1.00  0.00    -0.076 C 
ATOM     12  C   UNL A   1      34.241  25.574  25.199  1.00  0.00    -0.024 C 
ATOM     13  C   UNL A   1      32.184  25.421  26.636  1.00  0.00     0.044 C 
ATOM     14  C   UNL A   1      34.510  24.091  25.199  1.00  0.00     0.022 C 
ATOM     15  C   UNL A   1      32.128  23.908  26.391  1.00  0.00     0.096 C 
ATOM     16  C   UNL A   1      34.973  23.532  23.842  1.00  0.00     0.013 C 
BRANCH  15  17
ATOM     17  C   UNL A   1      30.811  23.457  25.712  1.00  0.00     0.228 C 
ATOM     18  O   UNL A   1      30.216  22.461  26.139  1.00  0.00    -0.274 OA
ATOM     19  N   UNL A   1      30.181  24.194  24.744  1.00  0.00    -0.324 N 
ATOM     20  H   UNL A   1      29.205  24.077  24.696  1.00  0.00     0.169 HD
BRANCH  19  21
ATOM     21  C   UNL A   1      30.719  25.089  23.812  1.00  0.00     0.059 A 
ATOM     22  C   UNL A   1      31.631  24.669  22.860  1.00  0.00     0.029 A 
ATOM     23  C   UNL A   1      30.321  26.418  23.770  1.00  0.00     0.137 A 
ATOM     24  C   UNL A   1      32.227  25.595  22.007  1.00  0.00     0.022 A 
ATOM     25  N   UNL A   1      30.868  27.345  22.946  1.00  0.00    -0.263 NA
ATOM     26  C   UNL A   1      31.840  26.918  22.110  1.00  0.00     0.111 A 
ENDBRANCH  19  21
ENDBRANCH  15  17
ENDBRANCH   6   9
ENDBRANCH   4   5
ENDBRANCH   3   4
ENDBRANCH   2   3
ENDBRANCH   1   2
BRANCH   1  27
ATOM     27  C   UNL A   1      37.708  19.410  24.796  1.00  0.00     0.021 C 
BRANCH  27  28
ATOM     28  C   UNL A   1      38.749  20.059  25.702  1.00  0.00     0.116 C 
BRANCH  28  29
ATOM     29  N   UNL A   1      39.884  19.178  25.937  1.00  0.00    -0.352 N 
ATOM     30  C   UNL A   1      41.193  19.492  26.193  1.00  0.00     0.251 C 
ATOM     31  H   UNL A   1      39.681  18.216  25.905  1.00  0.00     0.163 HD
ATOM     32  O   UNL A   1      42.055  18.623  26.142  1.00  0.00    -0.269 OA
BRANCH  30  33
ATOM     33  C   UNL A   1      41.555  20.885  26.526  1.00  0.00     0.039 A 
ATOM     34  C   UNL A   1      41.958  21.186  27.829  1.00  0.00     0.014 A 
ATOM     35  C   UNL A   1      41.485  21.888  25.557  1.00  0.00     0.014 A 
ATOM     36  C   UNL A   1      42.338  22.490  28.147  1.00  0.00     0.010 A 
ATOM     37  C   UNL A   1      41.936  23.169  25.855  1.00  0.00     0.010 A 
ATOM     38  C   UNL A   1      42.356  23.486  27.155  1.00  0.00    -0.014 A 
BRANCH  38  39
ATOM     39  C   UNL A   1      42.818  24.864  27.458  1.00  0.00     0.031 A 
ATOM     40  C   UNL A   1      41.875  25.855  28.085  1.00  0.00     0.074 A 
ATOM     41  C   UNL A   1      44.055  25.246  27.086  1.00  0.00     0.049 A 
ATOM     42  N   UNL A   1      42.072  27.119  28.356  1.00  0.00    -0.248 NA
ATOM     43  C   UNL A   1      40.525  25.373  28.426  1.00  0.00     0.031 C 
ATOM     44  C   UNL A   1      45.032  24.397  26.399  1.00  0.00     0.029 A 
ATOM     45  N   UNL A   1      44.692  26.456  27.200  1.00  0.00    -0.354 N 
ATOM     46  C   UNL A   1      40.865  27.592  28.858  1.00  0.00     0.074 A 
ATOM     47  C   UNL A   1      39.932  26.488  28.831  1.00  0.00     0.031 C 
ATOM     48  C   UNL A   1      46.139  25.113  26.150  1.00  0.00     0.029 A 
ATOM     49  C   UNL A   1      45.940  26.479  26.623  1.00  0.00     0.049 A 
ATOM     50  H   UNL A   1      44.292  27.235  27.653  1.00  0.00     0.167 HD
ATOM     51  C   UNL A   1      40.567  28.830  29.319  1.00  0.00     0.034 A 
ATOM     52  C   UNL A   1      46.818  27.491  26.473  1.00  0.00     0.034 A 
ATOM     53  C   UNL A   1      41.511  29.911  29.383  1.00  0.00     0.049 A 
ATOM     54  C   UNL A   1      46.475  28.843  27.035  1.00  0.00     0.074 A 
ATOM     55  C   UNL A   1      41.336  31.172  29.927  1.00  0.00     0.029 A 
ATOM     56  N   UNL A   1      42.800  29.869  28.876  1.00  0.00    -0.354 N 
ATOM     57  N   UNL A   1      45.385  29.227  27.656  1.00  0.00    -0.248 NA
ATOM     58  C   UNL A   1      47.494  29.895  26.911  1.00  0.00     0.031 C 
ATOM     59  C   UNL A   1      42.506  31.905  29.712  1.00  0.00     0.029 A 
ATOM     60  C   UNL A   1      43.426  31.087  29.078  1.00  0.00     0.049 A 
ATOM     61  H   UNL A   1      43.210  29.090  28.436  1.00  0.00     0.167 HD
ATOM     62  C   UNL A   1      45.605  30.547  28.032  1.00  0.00     0.074 A 
ATOM     63  C   UNL A   1      46.938  30.892  27.586  1.00  0.00     0.031 C 
ATOM     64  C   UNL A   1      44.774  31.400  28.679  1.00  0.00     0.034 A 
BRANCH  51  65
ATOM     65  C   UNL A   1      39.172  29.080  29.827  1.00  0.00     0.023 A 
ATOM     66  C   UNL A   1      38.826  28.707  31.142  1.00  0.00     0.012 A 
ATOM     67  C   UNL A   1      38.231  29.764  29.033  1.00  0.00     0.148 A 
ATOM     68  C   UNL A   1      37.557  28.987  31.648  1.00  0.00     0.002 A 
ATOM     69  C   UNL A   1      36.986  30.084  29.560  1.00  0.00     0.091 A 
ATOM     70  F   UNL A   1      38.574  30.093  27.779  1.00  0.00    -0.205 F 
ATOM     71  C   UNL A   1      36.643  29.685  30.864  1.00  0.00     0.022 A 
BRANCH  69  72
ATOM     72  S   UNL A   1      35.771  31.054  28.663  1.00  0.00     0.127 S 
ATOM     73  O   UNL A   1      35.133  30.032  27.834  1.00  0.00    -0.237 OA
ATOM     74  O   UNL A   1      34.934  31.572  29.746  1.00  0.00    -0.237 OA
ATOM     75  O   UNL A   1      36.521  32.067  27.934  1.00  0.00    -0.744 OA
ENDBRANCH  69  72
ENDBRANCH  51  65
BRANCH  52  76
ATOM     76  C   UNL A   1      48.122  27.256  25.791  1.00  0.00     0.023 A 
ATOM     77  C   UNL A   1      49.230  26.807  26.537  1.00  0.00     0.012 A 
ATOM     78  C   UNL A   1      48.267  27.465  24.406  1.00  0.00     0.148 A 
ATOM     79  C   UNL A   1      50.468  26.616  25.925  1.00  0.00     0.002 A 
ATOM     80  C   UNL A   1      49.487  27.214  23.791  1.00  0.00     0.091 A 
ATOM     81  F   UNL A   1      47.204  27.900  23.714  1.00  0.00    -0.205 F 
ATOM     82  C   UNL A   1      50.595  26.810  24.552  1.00  0.00     0.022 A 
BRANCH  80  83
ATOM     83  S   UNL A   1      49.702  27.306  22.010  1.00  0.00     0.127 S 
ATOM     84  O   UNL A   1      51.112  26.955  21.860  1.00  0.00    -0.237 OA
ATOM     85  O   UNL A   1      48.760  26.290  21.539  1.00  0.00    -0.237 OA
ATOM     86  O   UNL A   1      49.345  28.669  21.641  1.00  0.00    -0.744 OA
ENDBRANCH  80  83
ENDBRANCH  52  76
BRANCH  64  87
ATOM     87  C   UNL A   1      45.291  32.776  29.002  1.00  0.00     0.023 A 
ATOM     88  C   UNL A   1      46.008  33.002  30.194  1.00  0.00     0.012 A 
ATOM     89  C   UNL A   1      45.134  33.829  28.079  1.00  0.00     0.148 A 
ATOM     90  C   UNL A   1      46.532  34.264  30.476  1.00  0.00     0.002 A 
ATOM     91  C   UNL A   1      45.705  35.068  28.341  1.00  0.00     0.091 A 
ATOM     92  F   UNL A   1      44.433  33.597  26.959  1.00  0.00    -0.205 F 
ATOM     93  C   UNL A   1      46.391  35.291  29.545  1.00  0.00     0.022 A 
BRANCH  91  94
ATOM     94  S   UNL A   1      45.664  36.416  27.156  1.00  0.00     0.127 S 
ATOM     95  O   UNL A   1      44.226  36.633  27.003  1.00  0.00    -0.237 OA
ATOM     96  O   UNL A   1      46.368  37.479  27.874  1.00  0.00    -0.237 OA
ATOM     97  O   UNL A   1      46.350  35.931  25.967  1.00  0.00    -0.744 OA
ENDBRANCH  91  94
ENDBRANCH  64  87
ENDBRANCH  38  39
ENDBRANCH  30  33
ENDBRANCH  28  29
ENDBRANCH  27  28
ENDBRANCH   1  27
TORSDOF 18
ENDMDL
MODEL 2
REMARK VINA RESULT:     -11.8      5.293      8.658
REMARK SMILES CC1=C[C@H](C)[C@@H](C(=O)NCCCCCCNC(=O)c2ccc(-c3c4nc(c(-c5cccc(S(=O)(=O)[O-])c5F)c5ccc([nH]5)c(-c5cccc(S(=O)(=O)[O-])c5F)c5nc(c(-c6cccc(S(=O)(=O)[O-])c6F)c6ccc3[nH]6)C=C5)C=C4)cc2)[C@H](C(=O)Nc2cccnc2)C1
REMARK SMILES IDX 13 1 12 2 11 3 10 4 9 5 7 6 8 7 6 9 1 10 2 11 3 12 92 13
REMARK SMILES IDX 4 14 82 15 5 16 83 17 84 18 85 19 86 21 87 22 91 23 88 24
REMARK SMILES IDX 90 25 89 26 14 27 15 28 16 29 17 30 18 32 19 33 20 34 81 35
REMARK SMILES IDX 21 36 80 37 22 38 23 39 24 40 74 41 25 42 79 43 73 44 75 45
REMARK SMILES IDX 26 46 78 47 72 48 71 49 27 51 59 52 39 53 58 54 40 55 43 56
REMARK SMILES IDX 57 57 76 58 41 59 42 60 56 62 77 63 44 64 28 65 29 66 37 67
REMARK SMILES IDX 30 68 32 69 38 70 31 71 33 72 34 73 35 74 36 75 60 76 61 77
REMARK SMILES IDX 69 78 62 79 64 80 70 81 63 82 65 83 66 84 67 85 68 86 45 87
REMARK SMILES IDX 46 88 54 89 47 90 49 91 55 92 48 93 50 94 51 95 52 96 53 97
REMARK H PARENT 9 8 85 20 16 31 75 50 43 61
REMARK Flexibility Score: inf
ROOT
ATOM      1  C   UNL A   1      31.410  28.548  24.084  1.00  0.00     0.002 C 
ENDROOT
BRANCH   1   2
ATOM      2  C   UNL A   1      31.599  27.341  23.155  1.00  0.00     0.002 C 
BRANCH   2   3
ATOM      3  C   UNL A   1      30.396  26.405  23.073  1.00  0.00     0.021 C 
BRANCH   3   4
ATOM      4  C   UNL A   1      30.768  24.945  23.266  1.00  0.00     0.116 C 
BRANCH   4   5
ATOM      5  N   UNL A   1      31.823  24.496  22.380  1.00  0.00    -0.356 N 
ATOM      6  C   UNL A   1      32.977  23.823  22.669  1.00  0.00     0.224 C 
ATOM      7  O   UNL A   1      33.665  23.439  21.720  1.00  0.00    -0.275 OA
ATOM      8  H   UNL A   1      31.688  24.707  21.427  1.00  0.00     0.163 HD
BRANCH   6   9
ATOM      9  C   UNL A   1      33.408  23.519  24.120  1.00  0.00     0.098 C 
ATOM     10  C   UNL A   1      37.487  22.082  25.222  1.00  0.00     0.039 C 
ATOM     11  C   UNL A   1      36.105  22.602  24.933  1.00  0.00    -0.076 C 
ATOM     12  C   UNL A   1      35.806  23.912  25.003  1.00  0.00    -0.024 C 
ATOM     13  C   UNL A   1      35.132  21.550  24.467  1.00  0.00     0.044 C 
ATOM     14  C   UNL A   1      34.522  24.529  24.511  1.00  0.00     0.022 C 
ATOM     15  C   UNL A   1      33.675  22.005  24.308  1.00  0.00     0.096 C 
ATOM     16  C   UNL A   1      33.992  25.673  25.392  1.00  0.00     0.013 C 
BRANCH  15  17
ATOM     17  C   UNL A   1      32.713  21.293  25.292  1.00  0.00     0.228 C 
ATOM     18  O   UNL A   1      32.240  21.924  26.244  1.00  0.00    -0.274 OA
ATOM     19  N   UNL A   1      32.236  20.026  25.082  1.00  0.00    -0.324 N 
ATOM     20  H   UNL A   1      31.355  19.839  25.479  1.00  0.00     0.169 HD
BRANCH  19  21
ATOM     21  C   UNL A   1      32.814  18.958  24.388  1.00  0.00     0.059 A 
ATOM     22  C   UNL A   1      33.877  18.249  24.921  1.00  0.00     0.029 A 
ATOM     23  C   UNL A   1      32.314  18.532  23.165  1.00  0.00     0.137 A 
ATOM     24  C   UNL A   1      34.500  17.255  24.169  1.00  0.00     0.022 A 
ATOM     25  N   UNL A   1      32.884  17.560  22.412  1.00  0.00    -0.263 NA
ATOM     26  C   UNL A   1      33.991  16.971  22.916  1.00  0.00     0.111 A 
ENDBRANCH  19  21
ENDBRANCH  15  17
ENDBRANCH   6   9
ENDBRANCH   4   5
ENDBRANCH   3   4
ENDBRANCH   2   3
ENDBRANCH   1   2
BRANCH   1  27
ATOM     27  C   UNL A   1      32.701  29.215  24.570  1.00  0.00     0.021 C 
BRANCH  27  28
ATOM     28  C   UNL A   1      32.732  29.527  26.063  1.00  0.00     0.116 C 
BRANCH  28  29
ATOM     29  N   UNL A   1      32.586  30.952  26.318  1.00  0.00    -0.352 N 
ATOM     30  C   UNL A   1      33.264  31.755  27.199  1.00  0.00     0.251 C 
ATOM     31  H   UNL A   1      31.898  31.407  25.780  1.00  0.00     0.163 HD
ATOM     32  O   UNL A   1      32.856  32.884  27.441  1.00  0.00    -0.269 OA
BRANCH  30  33
ATOM     33  C   UNL A   1      34.484  31.244  27.855  1.00  0.00     0.039 A 
ATOM     34  C   UNL A   1      35.583  32.095  27.998  1.00  0.00     0.014 A 
ATOM     35  C   UNL A   1      34.545  29.926  28.317  1.00  0.00     0.014 A 
ATOM     36  C   UNL A   1      36.728  31.636  28.650  1.00  0.00     0.010 A 
ATOM     37  C   UNL A   1      35.657  29.496  29.032  1.00  0.00     0.010 A 
ATOM     38  C   UNL A   1      36.764  30.342  29.196  1.00  0.00    -0.014 A 
BRANCH  38  39
ATOM     39  C   UNL A   1      37.948  29.858  29.948  1.00  0.00     0.031 A 
ATOM     40  C   UNL A   1      38.224  30.372  31.335  1.00  0.00     0.074 A 
ATOM     41  C   UNL A   1      38.820  29.025  29.347  1.00  0.00     0.049 A 
ATOM     42  N   UNL A   1      39.241  30.123  32.117  1.00  0.00    -0.248 NA
ATOM     43  C   UNL A   1      37.245  31.312  31.909  1.00  0.00     0.031 C 
ATOM     44  C   UNL A   1      38.701  28.519  27.977  1.00  0.00     0.029 A 
ATOM     45  N   UNL A   1      39.998  28.483  29.797  1.00  0.00    -0.354 N 
ATOM     46  C   UNL A   1      39.049  30.903  33.251  1.00  0.00     0.074 A 
ATOM     47  C   UNL A   1      37.831  31.654  33.048  1.00  0.00     0.031 C 
ATOM     48  C   UNL A   1      39.763  27.748  27.698  1.00  0.00     0.029 A 
ATOM     49  C   UNL A   1      40.657  27.732  28.851  1.00  0.00     0.049 A 
ATOM     50  H   UNL A   1      40.339  28.620  30.712  1.00  0.00     0.167 HD
ATOM     51  C   UNL A   1      39.808  30.971  34.371  1.00  0.00     0.034 A 
ATOM     52  C   UNL A   1      41.855  27.117  28.900  1.00  0.00     0.034 A 
ATOM     53  C   UNL A   1      40.995  30.189  34.584  1.00  0.00     0.049 A 
ATOM     54  C   UNL A   1      42.654  27.175  30.174  1.00  0.00     0.074 A 
ATOM     55  C   UNL A   1      41.777  30.111  35.723  1.00  0.00     0.029 A 
ATOM     56  N   UNL A   1      41.581  29.364  33.638  1.00  0.00    -0.354 N 
ATOM     57  N   UNL A   1      42.371  27.789  31.297  1.00  0.00    -0.248 NA
ATOM     58  C   UNL A   1      43.919  26.428  30.201  1.00  0.00     0.031 C 
ATOM     59  C   UNL A   1      42.858  29.269  35.453  1.00  0.00     0.029 A 
ATOM     60  C   UNL A   1      42.724  28.786  34.162  1.00  0.00     0.049 A 
ATOM     61  H   UNL A   1      41.237  29.212  32.729  1.00  0.00     0.167 HD
ATOM     62  C   UNL A   1      43.399  27.467  32.176  1.00  0.00     0.074 A 
ATOM     63  C   UNL A   1      44.302  26.591  31.461  1.00  0.00     0.031 C 
ATOM     64  C   UNL A   1      43.585  27.870  33.457  1.00  0.00     0.034 A 
BRANCH  51  65
ATOM     65  C   UNL A   1      39.364  31.896  35.473  1.00  0.00     0.023 A 
ATOM     66  C   UNL A   1      39.637  33.276  35.383  1.00  0.00     0.012 A 
ATOM     67  C   UNL A   1      38.600  31.410  36.552  1.00  0.00     0.148 A 
ATOM     68  C   UNL A   1      39.180  34.154  36.366  1.00  0.00     0.002 A 
ATOM     69  C   UNL A   1      38.106  32.297  37.500  1.00  0.00     0.091 A 
ATOM     70  F   UNL A   1      38.368  30.092  36.628  1.00  0.00    -0.205 F 
ATOM     71  C   UNL A   1      38.405  33.668  37.415  1.00  0.00     0.022 A 
BRANCH  69  72
ATOM     72  S   UNL A   1      37.028  31.785  38.842  1.00  0.00     0.127 S 
ATOM     73  O   UNL A   1      35.900  32.701  38.679  1.00  0.00    -0.237 OA
ATOM     74  O   UNL A   1      36.741  30.394  38.489  1.00  0.00    -0.237 OA
ATOM     75  O   UNL A   1      37.797  31.958  40.066  1.00  0.00    -0.744 OA
ENDBRANCH  69  72
ENDBRANCH  51  65
BRANCH  52  76
ATOM     76  C   UNL A   1      42.357  26.362  27.718  1.00  0.00     0.023 A 
ATOM     77  C   UNL A   1      43.175  27.008  26.771  1.00  0.00     0.012 A 
ATOM     78  C   UNL A   1      42.036  25.002  27.533  1.00  0.00     0.148 A 
ATOM     79  C   UNL A   1      43.626  26.330  25.639  1.00  0.00     0.002 A 
ATOM     80  C   UNL A   1      42.538  24.315  26.434  1.00  0.00     0.091 A 
ATOM     81  F   UNL A   1      41.250  24.406  28.439  1.00  0.00    -0.205 F 
ATOM     82  C   UNL A   1      43.316  24.982  25.475  1.00  0.00     0.022 A 
BRANCH  80  83
ATOM     83  S   UNL A   1      42.302  22.548  26.218  1.00  0.00     0.127 S 
ATOM     84  O   UNL A   1      40.847  22.433  26.262  1.00  0.00    -0.237 OA
ATOM     85  O   UNL A   1      42.899  22.322  24.901  1.00  0.00    -0.237 OA
ATOM     86  O   UNL A   1      43.023  21.918  27.316  1.00  0.00    -0.744 OA
ENDBRANCH  80  83
ENDBRANCH  52  76
BRANCH  64  87
ATOM     87  C   UNL A   1      44.776  27.327  34.199  1.00  0.00     0.023 A 
ATOM     88  C   UNL A   1      46.001  28.022  34.178  1.00  0.00     0.012 A 
ATOM     89  C   UNL A   1      44.654  26.164  34.985  1.00  0.00     0.148 A 
ATOM     90  C   UNL A   1      47.096  27.550  34.903  1.00  0.00     0.002 A 
ATOM     91  C   UNL A   1      45.731  25.729  35.747  1.00  0.00     0.091 A 
ATOM     92  F   UNL A   1      43.485  25.507  34.977  1.00  0.00    -0.205 F 
ATOM     93  C   UNL A   1      46.957  26.413  35.696  1.00  0.00     0.022 A 
BRANCH  91  94
ATOM     94  S   UNL A   1      45.613  24.338  36.875  1.00  0.00     0.127 S 
ATOM     95  O   UNL A   1      44.568  24.787  37.793  1.00  0.00    -0.237 OA
ATOM     96  O   UNL A   1      45.215  23.249  35.982  1.00  0.00    -0.237 OA
ATOM     97  O   UNL A   1      46.936  24.183  37.465  1.00  0.00    -0.744 OA
ENDBRANCH  91  94
ENDBRANCH  64  87
ENDBRANCH  38  39
ENDBRANCH  30  33
ENDBRANCH  28  29
ENDBRANCH  27  28
ENDBRANCH   1  27
TORSDOF 18
ENDMDL
MODEL 3
REMARK VINA RESULT:     -11.8      4.999      8.415
REMARK SMILES CC1=C[C@H](C)[C@@H](C(=O)NCCCCCCNC(=O)c2ccc(-c3c4nc(c(-c5cccc(S(=O)(=O)[O-])c5F)c5ccc([nH]5)c(-c5cccc(S(=O)(=O)[O-])c5F)c5nc(c(-c6cccc(S(=O)(=O)[O-])c6F)c6ccc3[nH]6)C=C5)C=C4)cc2)[C@H](C(=O)Nc2cccnc2)C1
REMARK SMILES IDX 13 1 12 2 11 3 10 4 9 5 7 6 8 7 6 9 1 10 2 11 3 12 92 13
REMARK SMILES IDX 4 14 82 15 5 16 83 17 84 18 85 19 86 21 87 22 91 23 88 24
REMARK SMILES IDX 90 25 89 26 14 27 15 28 16 29 17 30 18 32 19 33 20 34 81 35
REMARK SMILES IDX 21 36 80 37 22 38 23 39 24 40 74 41 25 42 79 43 73 44 75 45
REMARK SMILES IDX 26 46 78 47 72 48 71 49 27 51 59 52 39 53 58 54 40 55 43 56
REMARK SMILES IDX 57 57 76 58 41 59 42 60 56 62 77 63 44 64 28 65 29 66 37 67
REMARK SMILES IDX 30 68 32 69 38 70 31 71 33 72 34 73 35 74 36 75 60 76 61 77
REMARK SMILES IDX 69 78 62 79 64 80 70 81 63 82 65 83 66 84 67 85 68 86 45 87
REMARK SMILES IDX 46 88 54 89 47 90 49 91 55 92 48 93 50 94 51 95 52 96 53 97
REMARK H PARENT 9 8 85 20 16 31 75 50 43 61
REMARK Flexibility Score: inf
ROOT
ATOM      1  C   UNL A   1      31.786  27.905  25.541  1.00  0.00     0.002 C 
ENDROOT
BRANCH   1   2
ATOM      2  C   UNL A   1      30.822  27.510  24.414  1.00  0.00     0.002 C 
BRANCH   2   3
ATOM      3  C   UNL A   1      30.017  26.240  24.679  1.00  0.00     0.021 C 
BRANCH   3   4
ATOM      4  C   UNL A   1      30.439  25.526  25.951  1.00  0.00     0.116 C 
BRANCH   4   5
ATOM      5  N   UNL A   1      29.884  24.194  26.077  1.00  0.00    -0.356 N 
ATOM      6  C   UNL A   1      30.512  22.980  26.037  1.00  0.00     0.224 C 
ATOM      7  O   UNL A   1      29.836  21.981  26.294  1.00  0.00    -0.275 OA
ATOM      8  H   UNL A   1      28.909  24.157  26.212  1.00  0.00     0.163 HD
BRANCH   6   9
ATOM      9  C   UNL A   1      32.016  22.845  25.715  1.00  0.00     0.098 C 
ATOM     10  C   UNL A   1      33.874  19.081  24.196  1.00  0.00     0.039 C 
ATOM     11  C   UNL A   1      33.314  20.396  24.668  1.00  0.00    -0.076 C 
ATOM     12  C   UNL A   1      32.932  21.358  23.807  1.00  0.00    -0.024 C 
ATOM     13  C   UNL A   1      33.127  20.492  26.159  1.00  0.00     0.044 C 
ATOM     14  C   UNL A   1      32.158  22.594  24.188  1.00  0.00     0.022 C 
ATOM     15  C   UNL A   1      32.703  21.865  26.697  1.00  0.00     0.096 C 
ATOM     16  C   UNL A   1      32.574  23.862  23.422  1.00  0.00     0.013 C 
BRANCH  15  17
ATOM     17  C   UNL A   1      33.775  22.509  27.612  1.00  0.00     0.228 C 
ATOM     18  O   UNL A   1      33.453  22.913  28.735  1.00  0.00    -0.274 OA
ATOM     19  N   UNL A   1      35.109  22.525  27.299  1.00  0.00    -0.324 N 
ATOM     20  H   UNL A   1      35.720  22.542  28.071  1.00  0.00     0.169 HD
BRANCH  19  21
ATOM     21  C   UNL A   1      35.733  22.522  26.047  1.00  0.00     0.059 A 
ATOM     22  C   UNL A   1      35.611  23.597  25.184  1.00  0.00     0.029 A 
ATOM     23  C   UNL A   1      36.541  21.468  25.642  1.00  0.00     0.137 A 
ATOM     24  C   UNL A   1      36.158  23.530  23.905  1.00  0.00     0.022 A 
ATOM     25  N   UNL A   1      37.101  21.375  24.411  1.00  0.00    -0.263 NA
ATOM     26  C   UNL A   1      36.861  22.392  23.555  1.00  0.00     0.111 A 
ENDBRANCH  19  21
ENDBRANCH  15  17
ENDBRANCH   6   9
ENDBRANCH   4   5
ENDBRANCH   3   4
ENDBRANCH   2   3
ENDBRANCH   1   2
BRANCH   1  27
ATOM     27  C   UNL A   1      33.256  28.043  25.132  1.00  0.00     0.021 C 
BRANCH  27  28
ATOM     28  C   UNL A   1      34.186  28.503  26.250  1.00  0.00     0.116 C 
BRANCH  28  29
ATOM     29  N   UNL A   1      33.917  29.878  26.642  1.00  0.00    -0.352 N 
ATOM     30  C   UNL A   1      34.562  30.665  27.562  1.00  0.00     0.251 C 
ATOM     31  H   UNL A   1      33.161  30.307  26.180  1.00  0.00     0.163 HD
ATOM     32  O   UNL A   1      34.061  31.722  27.925  1.00  0.00    -0.269 OA
BRANCH  30  33
ATOM     33  C   UNL A   1      35.859  30.224  28.112  1.00  0.00     0.039 A 
ATOM     34  C   UNL A   1      35.889  29.617  29.370  1.00  0.00     0.014 A 
ATOM     35  C   UNL A   1      37.041  30.420  27.392  1.00  0.00     0.014 A 
ATOM     36  C   UNL A   1      37.104  29.162  29.885  1.00  0.00     0.010 A 
ATOM     37  C   UNL A   1      38.237  29.899  27.873  1.00  0.00     0.010 A 
ATOM     38  C   UNL A   1      38.283  29.275  29.128  1.00  0.00    -0.014 A 
BRANCH  38  39
ATOM     39  C   UNL A   1      39.573  28.740  29.631  1.00  0.00     0.031 A 
ATOM     40  C   UNL A   1      40.300  29.446  30.744  1.00  0.00     0.074 A 
ATOM     41  C   UNL A   1      40.130  27.674  29.025  1.00  0.00     0.049 A 
ATOM     42  N   UNL A   1      41.467  29.173  31.266  1.00  0.00    -0.248 NA
ATOM     43  C   UNL A   1      39.645  30.629  31.328  1.00  0.00     0.031 C 
ATOM     44  C   UNL A   1      39.558  26.953  27.885  1.00  0.00     0.029 A 
ATOM     45  N   UNL A   1      41.319  27.030  29.260  1.00  0.00    -0.354 N 
ATOM     46  C   UNL A   1      41.705  30.170  32.205  1.00  0.00     0.074 A 
ATOM     47  C   UNL A   1      40.574  31.069  32.165  1.00  0.00     0.031 C 
ATOM     48  C   UNL A   1      40.397  25.973  27.518  1.00  0.00     0.029 A 
ATOM     49  C   UNL A   1      41.582  26.015  28.368  1.00  0.00     0.049 A 
ATOM     50  H   UNL A   1      41.927  27.271  29.997  1.00  0.00     0.167 HD
ATOM     51  C   UNL A   1      42.762  30.311  33.040  1.00  0.00     0.034 A 
ATOM     52  C   UNL A   1      42.664  25.223  28.237  1.00  0.00     0.034 A 
ATOM     53  C   UNL A   1      43.863  29.389  33.104  1.00  0.00     0.049 A 
ATOM     54  C   UNL A   1      43.802  25.376  29.209  1.00  0.00     0.074 A 
ATOM     55  C   UNL A   1      44.930  29.388  33.985  1.00  0.00     0.029 A 
ATOM     56  N   UNL A   1      44.049  28.316  32.249  1.00  0.00    -0.354 N 
ATOM     57  N   UNL A   1      43.933  26.225  30.199  1.00  0.00    -0.248 NA
ATOM     58  C   UNL A   1      44.928  24.440  29.070  1.00  0.00     0.031 C 
ATOM     59  C   UNL A   1      45.782  28.337  33.636  1.00  0.00     0.029 A 
ATOM     60  C   UNL A   1      45.222  27.655  32.569  1.00  0.00     0.049 A 
ATOM     61  H   UNL A   1      43.438  28.061  31.520  1.00  0.00     0.167 HD
ATOM     62  C   UNL A   1      45.131  25.898  30.826  1.00  0.00     0.074 A 
ATOM     63  C   UNL A   1      45.678  24.763  30.114  1.00  0.00     0.031 C 
ATOM     64  C   UNL A   1      45.728  26.492  31.888  1.00  0.00     0.034 A 
BRANCH  51  65
ATOM     65  C   UNL A   1      42.768  31.485  33.983  1.00  0.00     0.023 A 
ATOM     66  C   UNL A   1      43.307  32.718  33.564  1.00  0.00     0.012 A 
ATOM     67  C   UNL A   1      42.161  31.391  35.250  1.00  0.00     0.148 A 
ATOM     68  C   UNL A   1      43.267  33.832  34.403  1.00  0.00     0.002 A 
ATOM     69  C   UNL A   1      42.080  32.516  36.061  1.00  0.00     0.091 A 
ATOM     70  F   UNL A   1      41.671  30.204  35.636  1.00  0.00    -0.205 F 
ATOM     71  C   UNL A   1      42.642  33.735  35.643  1.00  0.00     0.022 A 
BRANCH  69  72
ATOM     72  S   UNL A   1      41.222  32.518  37.638  1.00  0.00     0.127 S 
ATOM     73  O   UNL A   1      42.043  31.596  38.421  1.00  0.00    -0.237 OA
ATOM     74  O   UNL A   1      41.326  33.921  38.041  1.00  0.00    -0.237 OA
ATOM     75  O   UNL A   1      39.867  32.061  37.361  1.00  0.00    -0.744 OA
ENDBRANCH  69  72
ENDBRANCH  51  65
BRANCH  52  76
ATOM     76  C   UNL A   1      42.708  24.188  27.166  1.00  0.00     0.023 A 
ATOM     77  C   UNL A   1      43.409  24.447  25.972  1.00  0.00     0.012 A 
ATOM     78  C   UNL A   1      42.068  22.944  27.329  1.00  0.00     0.148 A 
ATOM     79  C   UNL A   1      43.432  23.506  24.942  1.00  0.00     0.002 A 
ATOM     80  C   UNL A   1      42.146  21.987  26.324  1.00  0.00     0.091 A 
ATOM     81  F   UNL A   1      41.399  22.718  28.468  1.00  0.00    -0.205 F 
ATOM     82  C   UNL A   1      42.810  22.274  25.122  1.00  0.00     0.022 A 
BRANCH  80  83
ATOM     83  S   UNL A   1      41.492  20.327  26.527  1.00  0.00     0.127 S 
ATOM     84  O   UNL A   1      40.054  20.555  26.405  1.00  0.00    -0.237 OA
ATOM     85  O   UNL A   1      42.102  19.622  25.400  1.00  0.00    -0.237 OA
ATOM     86  O   UNL A   1      41.954  19.879  27.833  1.00  0.00    -0.744 OA
ENDBRANCH  80  83
ENDBRANCH  52  76
BRANCH  64  87
ATOM     87  C   UNL A   1      47.016  25.897  32.393  1.00  0.00     0.023 A 
ATOM     88  C   UNL A   1      48.250  26.348  31.887  1.00  0.00     0.012 A 
ATOM     89  C   UNL A   1      46.999  24.945  33.431  1.00  0.00     0.148 A 
ATOM     90  C   UNL A   1      49.449  25.836  32.384  1.00  0.00     0.002 A 
ATOM     91  C   UNL A   1      48.197  24.480  33.960  1.00  0.00     0.091 A 
ATOM     92  F   UNL A   1      45.813  24.517  33.886  1.00  0.00    -0.205 F 
ATOM     93  C   UNL A   1      49.422  24.913  33.428  1.00  0.00     0.022 A 
BRANCH  91  94
ATOM     94  S   UNL A   1      48.260  23.371  35.370  1.00  0.00     0.127 S 
ATOM     95  O   UNL A   1      49.696  23.309  35.635  1.00  0.00    -0.237 OA
ATOM     96  O   UNL A   1      47.486  24.103  36.373  1.00  0.00    -0.237 OA
ATOM     97  O   UNL A   1      47.653  22.122  34.930  1.00  0.00    -0.744 OA
ENDBRANCH  91  94
ENDBRANCH  64  87
ENDBRANCH  38  39
ENDBRANCH  30  33
ENDBRANCH  28  29
ENDBRANCH  27  28
ENDBRANCH   1  27
TORSDOF 18
ENDMDL
