MODEL 1
REMARK VINA RESULT:      -8.9      0.000      0.000
REMARK SMILES O=C(NCCCCCCNC(=O)[C@H]1CC[C@@H](CNc2ccccc2[N+](=O)[O-])O1)c1ccc(-c2c3nc(c(-c4cccc(S(=O)(=O)[O-])c4F)c4ccc([nH]4)c(-c4cccc(S(=O)(=O)[O-])c4F)c4nc(c(-c5cccc(S(=O)(=O)[O-])c5F)c5ccc2[nH]5)C=C4)C=C3)cc1
REMARK SMILES IDX 7 1 6 2 5 3 4 4 3 5 1 6 2 7 29 9 30 10 91 11 31 12 90 13
REMARK SMILES IDX 32 14 33 15 34 16 84 17 35 18 89 19 83 20 85 21 36 22 88 23
REMARK SMILES IDX 82 24 81 25 37 27 69 28 49 29 68 30 50 31 53 32 67 33 86 34
REMARK SMILES IDX 51 35 52 36 66 38 87 39 54 40 38 41 39 42 47 43 40 44 42 45
REMARK SMILES IDX 48 46 41 47 43 48 44 49 45 50 46 51 70 52 71 53 79 54 72 55
REMARK SMILES IDX 74 56 80 57 73 58 75 59 76 60 77 61 78 62 55 63 56 64 64 65
REMARK SMILES IDX 57 66 59 67 65 68 58 69 60 70 61 71 62 72 63 73 8 74 9 75
REMARK SMILES IDX 10 76 11 77 12 79 13 80 14 81 28 82 15 83 16 84 17 85 18 86
REMARK SMILES IDX 19 88 20 89 24 90 21 91 23 92 22 93 25 94 26 95 27 96
REMARK H PARENT 3 8 85 26 53 37 10 78 18 87
REMARK Flexibility Score: inf
ROOT
ATOM      1  C   UNL A   1      37.726  32.203  37.141  1.00  0.00     0.002 C 
ENDROOT
BRANCH   1   2
ATOM      2  C   UNL A   1      37.876  32.082  38.660  1.00  0.00     0.002 C 
BRANCH   2   3
ATOM      3  C   UNL A   1      37.679  33.371  39.455  1.00  0.00     0.021 C 
BRANCH   3   4
ATOM      4  C   UNL A   1      38.959  34.079  39.886  1.00  0.00     0.116 C 
BRANCH   4   5
ATOM      5  N   UNL A   1      38.928  35.511  39.641  1.00  0.00    -0.352 N 
ATOM      6  O   UNL A   1      39.453  37.455  38.625  1.00  0.00    -0.269 OA
ATOM      7  C   UNL A   1      39.470  36.226  38.596  1.00  0.00     0.251 C 
ATOM      8  H   UNL A   1      38.452  36.046  40.316  1.00  0.00     0.163 HD
BRANCH   7   9
ATOM      9  C   UNL A   1      40.107  35.514  37.465  1.00  0.00     0.039 A 
ATOM     10  C   UNL A   1      39.375  35.185  36.321  1.00  0.00     0.014 A 
ATOM     11  C   UNL A   1      41.454  35.152  37.558  1.00  0.00     0.014 A 
ATOM     12  C   UNL A   1      39.938  34.355  35.356  1.00  0.00     0.010 A 
ATOM     13  C   UNL A   1      42.044  34.389  36.544  1.00  0.00     0.010 A 
ATOM     14  C   UNL A   1      41.277  33.941  35.457  1.00  0.00    -0.014 A 
BRANCH  14  15
ATOM     15  C   UNL A   1      41.851  33.065  34.401  1.00  0.00     0.031 A 
ATOM     16  C   UNL A   1      42.075  31.594  34.641  1.00  0.00     0.074 A 
ATOM     17  C   UNL A   1      42.148  33.599  33.200  1.00  0.00     0.049 A 
ATOM     18  N   UNL A   1      42.490  30.679  33.801  1.00  0.00    -0.248 NA
ATOM     19  C   UNL A   1      41.811  31.081  35.995  1.00  0.00     0.031 C 
ATOM     20  C   UNL A   1      42.026  35.019  32.860  1.00  0.00     0.029 A 
ATOM     21  N   UNL A   1      42.602  33.020  32.043  1.00  0.00    -0.354 N 
ATOM     22  C   UNL A   1      42.581  29.499  34.529  1.00  0.00     0.074 A 
ATOM     23  C   UNL A   1      42.183  29.813  35.885  1.00  0.00     0.031 C 
ATOM     24  C   UNL A   1      42.357  35.193  31.573  1.00  0.00     0.029 A 
ATOM     25  C   UNL A   1      42.751  33.909  31.005  1.00  0.00     0.049 A 
ATOM     26  H   UNL A   1      42.803  32.059  31.964  1.00  0.00     0.167 HD
ATOM     27  C   UNL A   1      42.942  28.263  34.106  1.00  0.00     0.034 A 
ATOM     28  C   UNL A   1      43.153  33.715  29.734  1.00  0.00     0.034 A 
ATOM     29  C   UNL A   1      43.283  27.940  32.745  1.00  0.00     0.049 A 
ATOM     30  C   UNL A   1      43.486  32.322  29.277  1.00  0.00     0.074 A 
ATOM     31  C   UNL A   1      43.589  26.703  32.205  1.00  0.00     0.029 A 
ATOM     32  N   UNL A   1      43.364  28.858  31.710  1.00  0.00    -0.354 N 
ATOM     33  N   UNL A   1      43.424  31.199  29.949  1.00  0.00    -0.248 NA
ATOM     34  C   UNL A   1      43.913  32.167  27.880  1.00  0.00     0.031 C 
ATOM     35  C   UNL A   1      43.862  26.874  30.843  1.00  0.00     0.029 A 
ATOM     36  C   UNL A   1      43.716  28.217  30.534  1.00  0.00     0.049 A 
ATOM     37  H   UNL A   1      43.195  29.824  31.796  1.00  0.00     0.167 HD
ATOM     38  C   UNL A   1      43.776  30.199  29.050  1.00  0.00     0.074 A 
ATOM     39  C   UNL A   1      44.025  30.850  27.779  1.00  0.00     0.031 C 
ATOM     40  C   UNL A   1      43.903  28.867  29.263  1.00  0.00     0.034 A 
BRANCH  27  41
ATOM     41  C   UNL A   1      42.940  27.145  35.115  1.00  0.00     0.023 A 
ATOM     42  C   UNL A   1      41.801  26.322  35.237  1.00  0.00     0.012 A 
ATOM     43  C   UNL A   1      44.084  26.858  35.886  1.00  0.00     0.148 A 
ATOM     44  C   UNL A   1      41.791  25.250  36.128  1.00  0.00     0.002 A 
ATOM     45  C   UNL A   1      44.079  25.763  36.746  1.00  0.00     0.091 A 
ATOM     46  F   UNL A   1      45.150  27.662  35.776  1.00  0.00    -0.205 F 
ATOM     47  C   UNL A   1      42.931  24.964  36.874  1.00  0.00     0.022 A 
BRANCH  45  48
ATOM     48  S   UNL A   1      45.527  25.275  37.691  1.00  0.00     0.127 S 
ATOM     49  O   UNL A   1      45.036  24.092  38.394  1.00  0.00    -0.237 OA
ATOM     50  O   UNL A   1      46.507  24.996  36.640  1.00  0.00    -0.237 OA
ATOM     51  O   UNL A   1      45.854  26.419  38.532  1.00  0.00    -0.744 OA
ENDBRANCH  45  48
ENDBRANCH  27  41
BRANCH  28  52
ATOM     52  C   UNL A   1      43.179  34.864  28.786  1.00  0.00     0.023 A 
ATOM     53  C   UNL A   1      41.971  35.320  28.224  1.00  0.00     0.012 A 
ATOM     54  C   UNL A   1      44.376  35.538  28.484  1.00  0.00     0.148 A 
ATOM     55  C   UNL A   1      41.959  36.415  27.361  1.00  0.00     0.002 A 
ATOM     56  C   UNL A   1      44.349  36.664  27.669  1.00  0.00     0.091 A 
ATOM     57  F   UNL A   1      45.519  35.077  29.012  1.00  0.00    -0.205 F 
ATOM     58  C   UNL A   1      43.145  37.095  27.094  1.00  0.00     0.022 A 
BRANCH  56  59
ATOM     59  S   UNL A   1      45.809  37.676  27.396  1.00  0.00     0.127 S 
ATOM     60  O   UNL A   1      46.206  38.002  28.762  1.00  0.00    -0.237 OA
ATOM     61  O   UNL A   1      46.700  36.748  26.699  1.00  0.00    -0.237 OA
ATOM     62  O   UNL A   1      45.355  38.792  26.577  1.00  0.00    -0.744 OA
ENDBRANCH  56  59
ENDBRANCH  28  52
BRANCH  40  63
ATOM     63  C   UNL A   1      44.305  28.013  28.091  1.00  0.00     0.023 A 
ATOM     64  C   UNL A   1      45.657  27.964  27.697  1.00  0.00     0.012 A 
ATOM     65  C   UNL A   1      43.360  27.214  27.418  1.00  0.00     0.148 A 
ATOM     66  C   UNL A   1      46.058  27.157  26.632  1.00  0.00     0.002 A 
ATOM     67  C   UNL A   1      43.773  26.381  26.385  1.00  0.00     0.091 A 
ATOM     68  F   UNL A   1      42.073  27.291  27.790  1.00  0.00    -0.205 F 
ATOM     69  C   UNL A   1      45.118  26.358  25.984  1.00  0.00     0.022 A 
BRANCH  67  70
ATOM     70  S   UNL A   1      42.637  25.256  25.564  1.00  0.00     0.127 S 
ATOM     71  O   UNL A   1      43.524  24.559  24.636  1.00  0.00    -0.237 OA
ATOM     72  O   UNL A   1      42.147  24.434  26.672  1.00  0.00    -0.237 OA
ATOM     73  O   UNL A   1      41.621  26.103  24.955  1.00  0.00    -0.744 OA
ENDBRANCH  67  70
ENDBRANCH  40  63
ENDBRANCH  14  15
ENDBRANCH   7   9
ENDBRANCH   4   5
ENDBRANCH   3   4
ENDBRANCH   2   3
ENDBRANCH   1   2
BRANCH   1  74
ATOM     74  C   UNL A   1      38.361  31.084  36.306  1.00  0.00     0.021 C 
BRANCH  74  75
ATOM     75  C   UNL A   1      38.116  31.164  34.800  1.00  0.00     0.116 C 
BRANCH  75  76
ATOM     76  N   UNL A   1      37.679  29.899  34.245  1.00  0.00    -0.354 N 
ATOM     77  C   UNL A   1      38.168  29.240  33.153  1.00  0.00     0.249 C 
ATOM     78  H   UNL A   1      36.935  29.458  34.715  1.00  0.00     0.163 HD
ATOM     79  O   UNL A   1      37.705  28.129  32.888  1.00  0.00    -0.272 OA
BRANCH  77  80
ATOM     80  C   UNL A   1      39.281  29.909  32.314  1.00  0.00     0.207 C 
ATOM     81  C   UNL A   1      39.724  29.047  31.145  1.00  0.00     0.045 C 
ATOM     82  O   UNL A   1      38.811  31.140  31.737  1.00  0.00    -0.363 OA
ATOM     83  C   UNL A   1      38.734  29.440  30.080  1.00  0.00     0.037 C 
ATOM     84  C   UNL A   1      38.562  30.933  30.326  1.00  0.00     0.138 C 
BRANCH  84  85
ATOM     85  C   UNL A   1      37.193  31.531  29.944  1.00  0.00     0.145 C 
BRANCH  85  86
ATOM     86  N   UNL A   1      36.981  31.616  28.496  1.00  0.00    -0.377 N 
ATOM     87  H   UNL A   1      37.630  32.083  27.921  1.00  0.00     0.160 HD
BRANCH  86  88
ATOM     88  C   UNL A   1      35.844  31.025  27.949  1.00  0.00     0.113 A 
ATOM     89  C   UNL A   1      35.896  29.646  27.679  1.00  0.00     0.033 A 
ATOM     90  C   UNL A   1      34.600  31.656  27.773  1.00  0.00     0.292 A 
ATOM     91  C   UNL A   1      34.762  28.929  27.279  1.00  0.00     0.003 A 
ATOM     92  C   UNL A   1      33.455  30.947  27.363  1.00  0.00     0.088 A 
ATOM     93  C   UNL A   1      33.541  29.578  27.125  1.00  0.00     0.007 A 
BRANCH  90  94
ATOM     94  N   UNL A   1      34.453  33.095  27.944  1.00  0.00     0.064 N 
ATOM     95  O   UNL A   1      33.350  33.505  28.337  1.00  0.00    -0.258 OA
ATOM     96  O   UNL A   1      35.407  33.823  27.633  1.00  0.00    -0.258 OA
ENDBRANCH  90  94
ENDBRANCH  86  88
ENDBRANCH  85  86
ENDBRANCH  84  85
ENDBRANCH  77  80
ENDBRANCH  75  76
ENDBRANCH  74  75
ENDBRANCH   1  74
TORSDOF 20
ENDMDL
MODEL 2
REMARK VINA RESULT:      -8.8      3.897      8.752
REMARK SMILES O=C(NCCCCCCNC(=O)[C@H]1CC[C@@H](CNc2ccccc2[N+](=O)[O-])O1)c1ccc(-c2c3nc(c(-c4cccc(S(=O)(=O)[O-])c4F)c4ccc([nH]4)c(-c4cccc(S(=O)(=O)[O-])c4F)c4nc(c(-c5cccc(S(=O)(=O)[O-])c5F)c5ccc2[nH]5)C=C4)C=C3)cc1
REMARK SMILES IDX 7 1 6 2 5 3 4 4 3 5 1 6 2 7 29 9 30 10 91 11 31 12 90 13
REMARK SMILES IDX 32 14 33 15 34 16 84 17 35 18 89 19 83 20 85 21 36 22 88 23
REMARK SMILES IDX 82 24 81 25 37 27 69 28 49 29 68 30 50 31 53 32 67 33 86 34
REMARK SMILES IDX 51 35 52 36 66 38 87 39 54 40 38 41 39 42 47 43 40 44 42 45
REMARK SMILES IDX 48 46 41 47 43 48 44 49 45 50 46 51 70 52 71 53 79 54 72 55
REMARK SMILES IDX 74 56 80 57 73 58 75 59 76 60 77 61 78 62 55 63 56 64 64 65
REMARK SMILES IDX 57 66 59 67 65 68 58 69 60 70 61 71 62 72 63 73 8 74 9 75
REMARK SMILES IDX 10 76 11 77 12 79 13 80 14 81 28 82 15 83 16 84 17 85 18 86
REMARK SMILES IDX 19 88 20 89 24 90 21 91 23 92 22 93 25 94 26 95 27 96
REMARK H PARENT 3 8 85 26 53 37 10 78 18 87
REMARK Flexibility Score: inf
ROOT
ATOM      1  C   UNL A   1      35.161  29.958  27.595  1.00  0.00     0.002 C 
ENDROOT
BRANCH   1   2
ATOM      2  C   UNL A   1      35.202  31.462  27.882  1.00  0.00     0.002 C 
BRANCH   2   3
ATOM      3  C   UNL A   1      33.848  32.166  27.943  1.00  0.00     0.021 C 
BRANCH   3   4
ATOM      4  C   UNL A   1      33.887  33.681  27.771  1.00  0.00     0.116 C 
BRANCH   4   5
ATOM      5  N   UNL A   1      33.366  34.398  28.922  1.00  0.00    -0.352 N 
ATOM      6  O   UNL A   1      33.154  34.961  31.095  1.00  0.00    -0.269 OA
ATOM      7  C   UNL A   1      33.805  34.385  30.227  1.00  0.00     0.251 C 
ATOM      8  H   UNL A   1      32.589  34.975  28.744  1.00  0.00     0.163 HD
BRANCH   7   9
ATOM      9  C   UNL A   1      35.036  33.642  30.585  1.00  0.00     0.039 A 
ATOM     10  C   UNL A   1      34.971  32.476  31.352  1.00  0.00     0.014 A 
ATOM     11  C   UNL A   1      36.275  34.132  30.165  1.00  0.00     0.014 A 
ATOM     12  C   UNL A   1      36.143  31.902  31.835  1.00  0.00     0.010 A 
ATOM     13  C   UNL A   1      37.453  33.501  30.582  1.00  0.00     0.010 A 
ATOM     14  C   UNL A   1      37.399  32.410  31.463  1.00  0.00    -0.014 A 
BRANCH  14  15
ATOM     15  C   UNL A   1      38.632  31.764  31.987  1.00  0.00     0.031 A 
ATOM     16  C   UNL A   1      39.196  32.133  33.334  1.00  0.00     0.074 A 
ATOM     17  C   UNL A   1      39.233  30.811  31.248  1.00  0.00     0.049 A 
ATOM     18  N   UNL A   1      40.214  31.609  33.969  1.00  0.00    -0.248 NA
ATOM     19  C   UNL A   1      38.547  33.237  34.060  1.00  0.00     0.031 C 
ATOM     20  C   UNL A   1      38.815  30.401  29.905  1.00  0.00     0.029 A 
ATOM     21  N   UNL A   1      40.313  30.009  31.517  1.00  0.00    -0.354 N 
ATOM     22  C   UNL A   1      40.357  32.341  35.142  1.00  0.00     0.074 A 
ATOM     23  C   UNL A   1      39.324  33.355  35.129  1.00  0.00     0.031 C 
ATOM     24  C   UNL A   1      39.602  29.399  29.486  1.00  0.00     0.029 A 
ATOM     25  C   UNL A   1      40.603  29.120  30.509  1.00  0.00     0.049 A 
ATOM     26  H   UNL A   1      40.831  30.066  32.353  1.00  0.00     0.167 HD
ATOM     27  C   UNL A   1      41.251  32.174  36.146  1.00  0.00     0.034 A 
ATOM     28  C   UNL A   1      41.563  28.180  30.417  1.00  0.00     0.034 A 
ATOM     29  C   UNL A   1      42.242  31.131  36.184  1.00  0.00     0.049 A 
ATOM     30  C   UNL A   1      42.500  27.976  31.574  1.00  0.00     0.074 A 
ATOM     31  C   UNL A   1      43.142  30.835  37.194  1.00  0.00     0.029 A 
ATOM     32  N   UNL A   1      42.465  30.213  35.170  1.00  0.00    -0.354 N 
ATOM     33  N   UNL A   1      42.521  28.587  32.734  1.00  0.00    -0.248 NA
ATOM     34  C   UNL A   1      43.524  26.933  31.423  1.00  0.00     0.031 C 
ATOM     35  C   UNL A   1      43.915  29.742  36.785  1.00  0.00     0.029 A 
ATOM     36  C   UNL A   1      43.488  29.350  35.527  1.00  0.00     0.049 A 
ATOM     37  H   UNL A   1      41.967  30.177  34.321  1.00  0.00     0.167 HD
ATOM     38  C   UNL A   1      43.540  27.984  33.461  1.00  0.00     0.074 A 
ATOM     39  C   UNL A   1      44.094  26.943  32.619  1.00  0.00     0.031 C 
ATOM     40  C   UNL A   1      43.990  28.280  34.705  1.00  0.00     0.034 A 
BRANCH  27  41
ATOM     41  C   UNL A   1      41.172  33.112  37.322  1.00  0.00     0.023 A 
ATOM     42  C   UNL A   1      40.291  32.822  38.384  1.00  0.00     0.012 A 
ATOM     43  C   UNL A   1      42.018  34.235  37.416  1.00  0.00     0.148 A 
ATOM     44  C   UNL A   1      40.234  33.647  39.507  1.00  0.00     0.002 A 
ATOM     45  C   UNL A   1      41.982  35.033  38.556  1.00  0.00     0.091 A 
ATOM     46  F   UNL A   1      42.834  34.512  36.389  1.00  0.00    -0.205 F 
ATOM     47  C   UNL A   1      41.085  34.744  39.598  1.00  0.00     0.022 A 
BRANCH  45  48
ATOM     48  S   UNL A   1      43.092  36.425  38.793  1.00  0.00     0.127 S 
ATOM     49  O   UNL A   1      42.721  37.293  37.677  1.00  0.00    -0.237 OA
ATOM     50  O   UNL A   1      42.693  36.924  40.110  1.00  0.00    -0.237 OA
ATOM     51  O   UNL A   1      44.438  35.870  38.741  1.00  0.00    -0.744 OA
ENDBRANCH  45  48
ENDBRANCH  27  41
BRANCH  28  52
ATOM     52  C   UNL A   1      41.625  27.306  29.212  1.00  0.00     0.023 A 
ATOM     53  C   UNL A   1      40.925  26.084  29.211  1.00  0.00     0.012 A 
ATOM     54  C   UNL A   1      42.322  27.700  28.055  1.00  0.00     0.148 A 
ATOM     55  C   UNL A   1      40.935  25.261  28.085  1.00  0.00     0.002 A 
ATOM     56  C   UNL A   1      42.280  26.903  26.917  1.00  0.00     0.091 A 
ATOM     57  F   UNL A   1      42.999  28.857  28.081  1.00  0.00    -0.205 F 
ATOM     58  C   UNL A   1      41.601  25.676  26.935  1.00  0.00     0.022 A 
BRANCH  56  59
ATOM     59  S   UNL A   1      42.990  27.437  25.355  1.00  0.00     0.127 S 
ATOM     60  O   UNL A   1      44.372  27.715  25.735  1.00  0.00    -0.237 OA
ATOM     61  O   UNL A   1      42.808  26.255  24.514  1.00  0.00    -0.237 OA
ATOM     62  O   UNL A   1      42.195  28.587  24.946  1.00  0.00    -0.744 OA
ENDBRANCH  56  59
ENDBRANCH  28  52
BRANCH  40  63
ATOM     63  C   UNL A   1      45.124  27.452  35.247  1.00  0.00     0.023 A 
ATOM     64  C   UNL A   1      46.452  27.888  35.069  1.00  0.00     0.012 A 
ATOM     65  C   UNL A   1      44.875  26.278  35.984  1.00  0.00     0.148 A 
ATOM     66  C   UNL A   1      47.516  27.152  35.588  1.00  0.00     0.002 A 
ATOM     67  C   UNL A   1      45.938  25.572  36.535  1.00  0.00     0.091 A 
ATOM     68  F   UNL A   1      43.606  25.864  36.124  1.00  0.00    -0.205 F 
ATOM     69  C   UNL A   1      47.259  26.000  36.330  1.00  0.00     0.022 A 
BRANCH  67  70
ATOM     70  S   UNL A   1      45.679  24.132  37.578  1.00  0.00     0.127 S 
ATOM     71  O   UNL A   1      44.827  24.675  38.634  1.00  0.00    -0.237 OA
ATOM     72  O   UNL A   1      45.006  23.199  36.672  1.00  0.00    -0.237 OA
ATOM     73  O   UNL A   1      47.009  23.706  37.993  1.00  0.00    -0.744 OA
ENDBRANCH  67  70
ENDBRANCH  40  63
ENDBRANCH  14  15
ENDBRANCH   7   9
ENDBRANCH   4   5
ENDBRANCH   3   4
ENDBRANCH   2   3
ENDBRANCH   1   2
BRANCH   1  74
ATOM     74  C   UNL A   1      33.983  29.463  26.747  1.00  0.00     0.021 C 
BRANCH  74  75
ATOM     75  C   UNL A   1      33.821  27.946  26.663  1.00  0.00     0.116 C 
BRANCH  75  76
ATOM     76  N   UNL A   1      32.451  27.526  26.878  1.00  0.00    -0.354 N 
ATOM     77  C   UNL A   1      31.758  26.539  26.236  1.00  0.00     0.249 C 
ATOM     78  H   UNL A   1      31.956  28.013  27.576  1.00  0.00     0.163 HD
ATOM     79  O   UNL A   1      30.616  26.285  26.622  1.00  0.00    -0.272 OA
BRANCH  77  80
ATOM     80  C   UNL A   1      32.439  25.785  25.072  1.00  0.00     0.207 C 
ATOM     81  C   UNL A   1      31.672  24.542  24.657  1.00  0.00     0.045 C 
ATOM     82  O   UNL A   1      32.504  26.615  23.898  1.00  0.00    -0.363 OA
ATOM     83  C   UNL A   1      30.685  25.105  23.668  1.00  0.00     0.037 C 
ATOM     84  C   UNL A   1      31.509  26.165  22.948  1.00  0.00     0.138 C 
BRANCH  84  85
ATOM     85  C   UNL A   1      30.727  27.373  22.397  1.00  0.00     0.145 C 
BRANCH  85  86
ATOM     86  N   UNL A   1      30.850  28.573  23.229  1.00  0.00    -0.377 N 
ATOM     87  H   UNL A   1      31.572  28.649  23.895  1.00  0.00     0.160 HD
BRANCH  86  88
ATOM     88  C   UNL A   1      29.927  29.603  23.062  1.00  0.00     0.113 A 
ATOM     89  C   UNL A   1      29.022  29.495  21.993  1.00  0.00     0.033 A 
ATOM     90  C   UNL A   1      29.727  30.673  23.952  1.00  0.00     0.292 A 
ATOM     91  C   UNL A   1      27.958  30.391  21.832  1.00  0.00     0.003 A 
ATOM     92  C   UNL A   1      28.667  31.586  23.796  1.00  0.00     0.088 A 
ATOM     93  C   UNL A   1      27.778  31.434  22.735  1.00  0.00     0.007 A 
BRANCH  90  94
ATOM     94  N   UNL A   1      30.655  30.928  25.046  1.00  0.00     0.064 N 
ATOM     95  O   UNL A   1      30.672  32.078  25.512  1.00  0.00    -0.258 OA
ATOM     96  O   UNL A   1      31.407  30.010  25.404  1.00  0.00    -0.258 OA
ENDBRANCH  90  94
ENDBRANCH  86  88
ENDBRANCH  85  86
ENDBRANCH  84  85
ENDBRANCH  77  80
ENDBRANCH  75  76
ENDBRANCH  74  75
ENDBRANCH   1  74
TORSDOF 20
ENDMDL
MODEL 3
REMARK VINA RESULT:      -8.7      3.932      9.004
REMARK SMILES O=C(NCCCCCCNC(=O)[C@H]1CC[C@@H](CNc2ccccc2[N+](=O)[O-])O1)c1ccc(-c2c3nc(c(-c4cccc(S(=O)(=O)[O-])c4F)c4ccc([nH]4)c(-c4cccc(S(=O)(=O)[O-])c4F)c4nc(c(-c5cccc(S(=O)(=O)[O-])c5F)c5ccc2[nH]5)C=C4)C=C3)cc1
REMARK SMILES IDX 7 1 6 2 5 3 4 4 3 5 1 6 2 7 29 9 30 10 91 11 31 12 90 13
REMARK SMILES IDX 32 14 33 15 34 16 84 17 35 18 89 19 83 20 85 21 36 22 88 23
REMARK SMILES IDX 82 24 81 25 37 27 69 28 49 29 68 30 50 31 53 32 67 33 86 34
REMARK SMILES IDX 51 35 52 36 66 38 87 39 54 40 38 41 39 42 47 43 40 44 42 45
REMARK SMILES IDX 48 46 41 47 43 48 44 49 45 50 46 51 70 52 71 53 79 54 72 55
REMARK SMILES IDX 74 56 80 57 73 58 75 59 76 60 77 61 78 62 55 63 56 64 64 65
REMARK SMILES IDX 57 66 59 67 65 68 58 69 60 70 61 71 62 72 63 73 8 74 9 75
REMARK SMILES IDX 10 76 11 77 12 79 13 80 14 81 28 82 15 83 16 84 17 85 18 86
REMARK SMILES IDX 19 88 20 89 24 90 21 91 23 92 22 93 25 94 26 95 27 96
REMARK H PARENT 3 8 85 26 53 37 10 78 18 87
REMARK Flexibility Score: inf
ROOT
ATOM      1  C   UNL A   1      35.134  29.942  27.748  1.00  0.00     0.002 C 
ENDROOT
BRANCH   1   2
ATOM      2  C   UNL A   1      35.115  31.471  27.826  1.00  0.00     0.002 C 
BRANCH   2   3
ATOM      3  C   UNL A   1      33.768  32.105  28.170  1.00  0.00     0.021 C 
BRANCH   3   4
ATOM      4  C   UNL A   1      33.632  33.584  27.826  1.00  0.00     0.116 C 
BRANCH   4   5
ATOM      5  N   UNL A   1      33.187  34.391  28.950  1.00  0.00    -0.352 N 
ATOM      6  O   UNL A   1      33.098  35.102  31.088  1.00  0.00    -0.269 OA
ATOM      7  C   UNL A   1      33.690  34.451  30.230  1.00  0.00     0.251 C 
ATOM      8  H   UNL A   1      32.418  34.978  28.771  1.00  0.00     0.163 HD
BRANCH   7   9
ATOM      9  C   UNL A   1      34.917  33.697  30.579  1.00  0.00     0.039 A 
ATOM     10  C   UNL A   1      34.852  32.552  31.377  1.00  0.00     0.014 A 
ATOM     11  C   UNL A   1      36.153  34.155  30.116  1.00  0.00     0.014 A 
ATOM     12  C   UNL A   1      36.026  31.972  31.847  1.00  0.00     0.010 A 
ATOM     13  C   UNL A   1      37.331  33.515  30.521  1.00  0.00     0.010 A 
ATOM     14  C   UNL A   1      37.281  32.448  31.432  1.00  0.00    -0.014 A 
BRANCH  14  15
ATOM     15  C   UNL A   1      38.515  31.795  31.943  1.00  0.00     0.031 A 
ATOM     16  C   UNL A   1      39.106  32.175  33.276  1.00  0.00     0.074 A 
ATOM     17  C   UNL A   1      39.095  30.828  31.205  1.00  0.00     0.049 A 
ATOM     18  N   UNL A   1      40.128  31.647  33.901  1.00  0.00    -0.248 NA
ATOM     19  C   UNL A   1      38.481  33.293  34.000  1.00  0.00     0.031 C 
ATOM     20  C   UNL A   1      38.650  30.407  29.875  1.00  0.00     0.029 A 
ATOM     21  N   UNL A   1      40.171  30.018  31.466  1.00  0.00    -0.354 N 
ATOM     22  C   UNL A   1      40.299  32.392  35.062  1.00  0.00     0.074 A 
ATOM     23  C   UNL A   1      39.276  33.416  35.055  1.00  0.00     0.031 C 
ATOM     24  C   UNL A   1      39.420  29.392  29.454  1.00  0.00     0.029 A 
ATOM     25  C   UNL A   1      40.435  29.115  30.464  1.00  0.00     0.049 A 
ATOM     26  H   UNL A   1      40.703  30.079  32.293  1.00  0.00     0.167 HD
ATOM     27  C   UNL A   1      41.207  32.227  36.054  1.00  0.00     0.034 A 
ATOM     28  C   UNL A   1      41.384  28.164  30.367  1.00  0.00     0.034 A 
ATOM     29  C   UNL A   1      42.188  31.174  36.087  1.00  0.00     0.049 A 
ATOM     30  C   UNL A   1      42.338  27.963  31.511  1.00  0.00     0.074 A 
ATOM     31  C   UNL A   1      43.102  30.880  37.086  1.00  0.00     0.029 A 
ATOM     32  N   UNL A   1      42.384  30.242  35.081  1.00  0.00    -0.354 N 
ATOM     33  N   UNL A   1      42.384  28.587  32.663  1.00  0.00    -0.248 NA
ATOM     34  C   UNL A   1      43.348  26.908  31.355  1.00  0.00     0.031 C 
ATOM     35  C   UNL A   1      43.856  29.774  36.678  1.00  0.00     0.029 A 
ATOM     36  C   UNL A   1      43.405  29.373  35.431  1.00  0.00     0.049 A 
ATOM     37  H   UNL A   1      41.873  30.201  34.241  1.00  0.00     0.167 HD
ATOM     38  C   UNL A   1      43.408  27.982  33.381  1.00  0.00     0.074 A 
ATOM     39  C   UNL A   1      43.938  26.926  32.542  1.00  0.00     0.031 C 
ATOM     40  C   UNL A   1      43.882  28.288  34.613  1.00  0.00     0.034 A 
BRANCH  27  41
ATOM     41  C   UNL A   1      41.157  33.179  37.220  1.00  0.00     0.023 A 
ATOM     42  C   UNL A   1      40.251  32.940  38.273  1.00  0.00     0.012 A 
ATOM     43  C   UNL A   1      42.053  34.263  37.314  1.00  0.00     0.148 A 
ATOM     44  C   UNL A   1      40.218  33.778  39.388  1.00  0.00     0.002 A 
ATOM     45  C   UNL A   1      42.039  35.073  38.445  1.00  0.00     0.091 A 
ATOM     46  F   UNL A   1      42.893  34.491  36.294  1.00  0.00    -0.205 F 
ATOM     47  C   UNL A   1      41.118  34.836  39.479  1.00  0.00     0.022 A 
BRANCH  45  48
ATOM     48  S   UNL A   1      43.210  36.414  38.683  1.00  0.00     0.127 S 
ATOM     49  O   UNL A   1      42.939  37.254  37.519  1.00  0.00    -0.237 OA
ATOM     50  O   UNL A   1      42.777  36.986  39.959  1.00  0.00    -0.237 OA
ATOM     51  O   UNL A   1      44.526  35.790  38.719  1.00  0.00    -0.744 OA
ENDBRANCH  45  48
ENDBRANCH  27  41
BRANCH  28  52
ATOM     52  C   UNL A   1      41.417  27.275  29.172  1.00  0.00     0.023 A 
ATOM     53  C   UNL A   1      40.610  26.121  29.149  1.00  0.00     0.012 A 
ATOM     54  C   UNL A   1      42.193  27.593  28.043  1.00  0.00     0.148 A 
ATOM     55  C   UNL A   1      40.593  25.289  28.030  1.00  0.00     0.002 A 
ATOM     56  C   UNL A   1      42.128  26.791  26.910  1.00  0.00     0.091 A 
ATOM     57  F   UNL A   1      42.971  28.685  28.090  1.00  0.00    -0.205 F 
ATOM     58  C   UNL A   1      41.341  25.631  26.906  1.00  0.00     0.022 A 
BRANCH  56  59
ATOM     59  S   UNL A   1      42.947  27.244  25.376  1.00  0.00     0.127 S 
ATOM     60  O   UNL A   1      44.314  27.485  25.827  1.00  0.00    -0.237 OA
ATOM     61  O   UNL A   1      42.769  26.039  24.565  1.00  0.00    -0.237 OA
ATOM     62  O   UNL A   1      42.222  28.406  24.881  1.00  0.00    -0.744 OA
ENDBRANCH  56  59
ENDBRANCH  28  52
BRANCH  40  63
ATOM     63  C   UNL A   1      45.016  27.455  35.147  1.00  0.00     0.023 A 
ATOM     64  C   UNL A   1      46.343  27.902  34.991  1.00  0.00     0.012 A 
ATOM     65  C   UNL A   1      44.768  26.262  35.854  1.00  0.00     0.148 A 
ATOM     66  C   UNL A   1      47.407  27.161  35.502  1.00  0.00     0.002 A 
ATOM     67  C   UNL A   1      45.830  25.550  36.398  1.00  0.00     0.091 A 
ATOM     68  F   UNL A   1      43.501  25.837  35.972  1.00  0.00    -0.205 F 
ATOM     69  C   UNL A   1      47.150  25.991  36.215  1.00  0.00     0.022 A 
BRANCH  67  70
ATOM     70  S   UNL A   1      45.571  24.084  37.405  1.00  0.00     0.127 S 
ATOM     71  O   UNL A   1      44.693  24.593  38.455  1.00  0.00    -0.237 OA
ATOM     72  O   UNL A   1      44.928  23.163  36.466  1.00  0.00    -0.237 OA
ATOM     73  O   UNL A   1      46.899  23.667  37.835  1.00  0.00    -0.744 OA
ENDBRANCH  67  70
ENDBRANCH  40  63
ENDBRANCH  14  15
ENDBRANCH   7   9
ENDBRANCH   4   5
ENDBRANCH   3   4
ENDBRANCH   2   3
ENDBRANCH   1   2
BRANCH   1  74
ATOM     74  C   UNL A   1      33.867  29.277  27.195  1.00  0.00     0.021 C 
BRANCH  74  75
ATOM     75  C   UNL A   1      33.193  30.005  26.033  1.00  0.00     0.116 C 
BRANCH  75  76
ATOM     76  N   UNL A   1      33.480  29.386  24.755  1.00  0.00    -0.354 N 
ATOM     77  C   UNL A   1      32.599  29.001  23.784  1.00  0.00     0.249 C 
ATOM     78  H   UNL A   1      34.431  29.222  24.561  1.00  0.00     0.163 HD
ATOM     79  O   UNL A   1      33.054  28.559  22.727  1.00  0.00    -0.272 OA
BRANCH  77  80
ATOM     80  C   UNL A   1      31.083  29.150  24.050  1.00  0.00     0.207 C 
ATOM     81  C   UNL A   1      30.279  29.273  22.768  1.00  0.00     0.045 C 
ATOM     82  O   UNL A   1      30.571  27.989  24.726  1.00  0.00    -0.363 OA
ATOM     83  C   UNL A   1      30.039  27.827  22.416  1.00  0.00     0.037 C 
ATOM     84  C   UNL A   1      29.820  27.188  23.781  1.00  0.00     0.138 C 
BRANCH  84  85
ATOM     85  C   UNL A   1      30.227  25.707  23.911  1.00  0.00     0.145 C 
BRANCH  85  86
ATOM     86  N   UNL A   1      31.593  25.521  24.406  1.00  0.00    -0.377 N 
ATOM     87  H   UNL A   1      32.057  26.249  24.881  1.00  0.00     0.160 HD
BRANCH  86  88
ATOM     88  C   UNL A   1      32.224  24.298  24.191  1.00  0.00     0.113 A 
ATOM     89  C   UNL A   1      31.457  23.263  23.630  1.00  0.00     0.033 A 
ATOM     90  C   UNL A   1      33.599  24.048  24.354  1.00  0.00     0.292 A 
ATOM     91  C   UNL A   1      32.033  22.051  23.230  1.00  0.00     0.003 A 
ATOM     92  C   UNL A   1      34.187  22.830  23.963  1.00  0.00     0.088 A 
ATOM     93  C   UNL A   1      33.398  21.836  23.392  1.00  0.00     0.007 A 
BRANCH  90  94
ATOM     94  N   UNL A   1      34.470  25.019  25.001  1.00  0.00     0.064 N 
ATOM     95  O   UNL A   1      35.386  24.569  25.708  1.00  0.00    -0.258 OA
ATOM     96  O   UNL A   1      34.215  26.224  24.860  1.00  0.00    -0.258 OA
ENDBRANCH  90  94
ENDBRANCH  86  88
ENDBRANCH  85  86
ENDBRANCH  84  85
ENDBRANCH  77  80
ENDBRANCH  75  76
ENDBRANCH  74  75
ENDBRANCH   1  74
TORSDOF 20
ENDMDL
