MODEL 1
REMARK VINA RESULT:     -10.5      0.000      0.000
REMARK SMILES Cc1oc2c(C)c3oc(=O)c(CCC(=O)N[C@H](Cc4ccc(Cl)cc4)C(=O)NCCCCCCNC(=O)c4ccc(-c5c6nc(c(-c7cccc(S(=O)(=O)[O-])c7F)c7ccc([nH]7)c(-c7cccc(S(=O)(=O)[O-])c7F)c7nc(c(-c8cccc(S(=O)(=O)[O-])c8F)c8ccc5[nH]8)C=C7)C=C6)cc4)c(C)c3cc2c1C
REMARK SMILES IDX 31 1 30 2 29 3 28 4 26 5 27 6 17 8 16 9 14 10 15 11 13 13
REMARK SMILES IDX 12 14 11 15 1 16 2 17 3 18 106 19 4 20 105 21 107 22 5 23
REMARK SMILES IDX 104 24 6 25 7 26 103 27 8 28 101 29 9 30 102 31 10 32 18 33
REMARK SMILES IDX 19 34 20 35 25 36 21 37 24 38 22 39 23 40 32 41 33 42 34 43
REMARK SMILES IDX 35 44 36 45 37 47 38 48 39 49 100 50 40 51 99 52 41 53 42 54
REMARK SMILES IDX 43 55 93 56 44 57 98 58 92 59 94 60 45 61 97 62 91 63 90 64
REMARK SMILES IDX 46 66 78 67 58 68 77 69 59 70 62 71 76 72 95 73 60 74 61 75
REMARK SMILES IDX 75 77 96 78 63 79 47 80 48 81 56 82 49 83 51 84 57 85 50 86
REMARK SMILES IDX 52 87 53 88 54 89 55 90 79 91 80 92 88 93 81 94 83 95 89 96
REMARK SMILES IDX 82 97 84 98 85 99 86 100 87 101 64 102 65 103 73 104 66 105
REMARK SMILES IDX 68 106 74 107 67 108 69 109 70 110 71 111 72 112
REMARK H PARENT 28 7 16 12 35 46 94 65 62 76
REMARK Flexibility Score: inf
ROOT
ATOM      1  C   UNL A   1      47.217  26.817  28.539  1.00  0.00     0.002 C 
ENDROOT
BRANCH   1   2
ATOM      2  C   UNL A   1      46.460  25.495  28.724  1.00  0.00     0.021 C 
BRANCH   2   3
ATOM      3  C   UNL A   1      46.735  24.440  27.648  1.00  0.00     0.116 C 
BRANCH   3   4
ATOM      4  N   UNL A   1      46.737  25.039  26.332  1.00  0.00    -0.354 N 
ATOM      5  C   UNL A   1      45.938  24.585  25.323  1.00  0.00     0.242 C 
ATOM      6  O   UNL A   1      46.502  24.083  24.352  1.00  0.00    -0.273 OA
ATOM      7  H   UNL A   1      47.336  25.802  26.157  1.00  0.00     0.163 HD
BRANCH   5   8
ATOM      8  C   UNL A   1      44.405  24.605  25.459  1.00  0.00     0.175 C 
BRANCH   8   9
ATOM      9  N   UNL A   1      43.810  23.325  25.065  1.00  0.00    -0.344 N 
ATOM     10  C   UNL A   1      43.116  22.449  25.849  1.00  0.00     0.220 C 
ATOM     11  O   UNL A   1      42.982  21.286  25.466  1.00  0.00    -0.275 OA
ATOM     12  H   UNL A   1      43.926  23.065  24.123  1.00  0.00     0.164 HD
BRANCH  10  13
ATOM     13  C   UNL A   1      42.523  22.915  27.167  1.00  0.00     0.105 C 
BRANCH  13  14
ATOM     14  C   UNL A   1      41.311  22.097  27.642  1.00  0.00     0.053 C 
BRANCH  14  15
ATOM     15  C   UNL A   1      40.050  22.298  26.817  1.00  0.00     0.042 A 
ATOM     16  C   UNL A   1      32.275  20.314  24.438  1.00  0.00     0.088 C 
ATOM     17  C   UNL A   1      33.716  20.598  24.606  1.00  0.00     0.105 A 
ATOM     18  O   UNL A   1      34.053  21.906  24.802  1.00  0.00    -0.461 OA
ATOM     19  C   UNL A   1      34.841  19.795  24.652  1.00  0.00    -0.002 A 
ATOM     20  C   UNL A   1      35.401  21.953  25.019  1.00  0.00     0.141 A 
ATOM     21  C   UNL A   1      35.937  20.682  24.873  1.00  0.00     0.025 A 
ATOM     22  C   UNL A   1      34.915  18.315  24.597  1.00  0.00     0.049 C 
ATOM     23  C   UNL A   1      36.133  23.085  25.410  1.00  0.00     0.036 A 
ATOM     24  C   UNL A   1      37.316  20.499  25.074  1.00  0.00     0.024 A 
ATOM     25  C   UNL A   1      35.459  24.388  25.701  1.00  0.00     0.052 C 
ATOM     26  C   UNL A   1      37.497  22.822  25.695  1.00  0.00     0.145 A 
ATOM     27  C   UNL A   1      38.100  21.565  25.547  1.00  0.00     0.022 A 
ATOM     28  O   UNL A   1      38.246  23.879  26.262  1.00  0.00    -0.422 OA
ATOM     29  C   UNL A   1      39.459  21.328  26.088  1.00  0.00    -0.030 A 
ATOM     30  C   UNL A   1      39.455  23.665  26.902  1.00  0.00     0.339 A 
ATOM     31  C   UNL A   1      40.022  19.935  25.932  1.00  0.00     0.046 C 
ATOM     32  O   UNL A   1      40.012  24.566  27.522  1.00  0.00    -0.246 OA
ENDBRANCH  14  15
ENDBRANCH  13  14
ENDBRANCH  10  13
ENDBRANCH   8   9
BRANCH   8  33
ATOM     33  C   UNL A   1      43.778  25.847  24.807  1.00  0.00     0.070 C 
BRANCH  33  34
ATOM     34  C   UNL A   1      42.932  26.585  25.835  1.00  0.00    -0.045 A 
ATOM     35  C   UNL A   1      43.169  26.399  27.206  1.00  0.00     0.005 A 
ATOM     36  C   UNL A   1      42.050  27.597  25.432  1.00  0.00     0.005 A 
ATOM     37  C   UNL A   1      42.592  27.254  28.147  1.00  0.00     0.021 A 
ATOM     38  C   UNL A   1      41.475  28.454  26.374  1.00  0.00     0.021 A 
ATOM     39  C   UNL A   1      41.760  28.288  27.726  1.00  0.00     0.041 A 
ATOM     40  Cl  UNL A   1      41.104  29.381  28.883  1.00  0.00    -0.084 Cl
ENDBRANCH  33  34
ENDBRANCH   8  33
ENDBRANCH   5   8
ENDBRANCH   3   4
ENDBRANCH   2   3
ENDBRANCH   1   2
BRANCH   1  41
ATOM     41  C   UNL A   1      46.334  28.065  28.549  1.00  0.00     0.002 C 
BRANCH  41  42
ATOM     42  C   UNL A   1      46.504  28.982  27.330  1.00  0.00     0.021 C 
BRANCH  42  43
ATOM     43  C   UNL A   1      47.398  30.202  27.574  1.00  0.00     0.116 C 
BRANCH  43  44
ATOM     44  N   UNL A   1      47.082  31.232  26.606  1.00  0.00    -0.352 N 
ATOM     45  C   UNL A   1      45.902  31.898  26.437  1.00  0.00     0.251 C 
ATOM     46  H   UNL A   1      47.810  31.482  25.992  1.00  0.00     0.163 HD
ATOM     47  O   UNL A   1      45.590  32.270  25.306  1.00  0.00    -0.269 OA
BRANCH  45  48
ATOM     48  C   UNL A   1      45.027  32.207  27.589  1.00  0.00     0.039 A 
ATOM     49  C   UNL A   1      45.449  33.213  28.464  1.00  0.00     0.014 A 
ATOM     50  C   UNL A   1      43.907  31.426  27.905  1.00  0.00     0.014 A 
ATOM     51  C   UNL A   1      44.759  33.432  29.650  1.00  0.00     0.010 A 
ATOM     52  C   UNL A   1      43.208  31.654  29.093  1.00  0.00     0.010 A 
ATOM     53  C   UNL A   1      43.638  32.653  29.971  1.00  0.00    -0.014 A 
BRANCH  53  54
ATOM     54  C   UNL A   1      42.951  32.971  31.235  1.00  0.00     0.031 A 
ATOM     55  C   UNL A   1      41.451  32.976  31.177  1.00  0.00     0.074 A 
ATOM     56  C   UNL A   1      43.585  32.704  32.398  1.00  0.00     0.049 A 
ATOM     57  N   UNL A   1      40.702  31.916  31.269  1.00  0.00    -0.248 NA
ATOM     58  C   UNL A   1      40.716  34.173  30.763  1.00  0.00     0.031 C 
ATOM     59  C   UNL A   1      44.308  31.454  32.669  1.00  0.00     0.029 A 
ATOM     60  N   UNL A   1      43.544  33.348  33.615  1.00  0.00    -0.354 N 
ATOM     61  C   UNL A   1      39.405  32.287  30.933  1.00  0.00     0.074 A 
ATOM     62  C   UNL A   1      39.470  33.695  30.610  1.00  0.00     0.031 C 
ATOM     63  C   UNL A   1      44.499  31.344  33.999  1.00  0.00     0.029 A 
ATOM     64  C   UNL A   1      44.014  32.554  34.663  1.00  0.00     0.049 A 
ATOM     65  H   UNL A   1      43.218  34.268  33.733  1.00  0.00     0.167 HD
ATOM     66  C   UNL A   1      38.344  31.431  30.979  1.00  0.00     0.034 A 
ATOM     67  C   UNL A   1      43.519  32.614  35.933  1.00  0.00     0.034 A 
ATOM     68  C   UNL A   1      38.656  30.116  31.461  1.00  0.00     0.049 A 
ATOM     69  C   UNL A   1      42.229  31.843  35.746  1.00  0.00     0.074 A 
ATOM     70  C   UNL A   1      38.889  28.861  30.943  1.00  0.00     0.029 A 
ATOM     71  N   UNL A   1      38.834  29.963  32.815  1.00  0.00    -0.354 N 
ATOM     72  N   UNL A   1      42.121  30.543  35.626  1.00  0.00    -0.248 NA
ATOM     73  C   UNL A   1      41.075  32.597  35.251  1.00  0.00     0.031 C 
ATOM     74  C   UNL A   1      39.641  28.169  31.947  1.00  0.00     0.029 A 
ATOM     75  C   UNL A   1      39.843  29.056  33.005  1.00  0.00     0.049 A 
ATOM     76  H   UNL A   1      38.327  30.423  33.523  1.00  0.00     0.167 HD
ATOM     77  C   UNL A   1      41.046  30.340  34.755  1.00  0.00     0.074 A 
ATOM     78  C   UNL A   1      40.443  31.648  34.575  1.00  0.00     0.031 C 
ATOM     79  C   UNL A   1      40.798  29.172  34.089  1.00  0.00     0.034 A 
BRANCH  66  80
ATOM     80  C   UNL A   1      36.913  31.822  30.843  1.00  0.00     0.023 A 
ATOM     81  C   UNL A   1      36.310  31.522  29.604  1.00  0.00     0.012 A 
ATOM     82  C   UNL A   1      36.227  32.644  31.756  1.00  0.00     0.148 A 
ATOM     83  C   UNL A   1      35.085  32.073  29.241  1.00  0.00     0.002 A 
ATOM     84  C   UNL A   1      34.987  33.180  31.394  1.00  0.00     0.091 A 
ATOM     85  F   UNL A   1      36.808  32.930  32.930  1.00  0.00    -0.205 F 
ATOM     86  C   UNL A   1      34.428  32.909  30.132  1.00  0.00     0.022 A 
BRANCH  84  87
ATOM     87  S   UNL A   1      34.024  34.263  32.461  1.00  0.00     0.127 S 
ATOM     88  O   UNL A   1      33.503  33.323  33.457  1.00  0.00    -0.237 OA
ATOM     89  O   UNL A   1      35.053  35.174  32.971  1.00  0.00    -0.237 OA
ATOM     90  O   UNL A   1      33.031  34.887  31.609  1.00  0.00    -0.744 OA
ENDBRANCH  84  87
ENDBRANCH  66  80
BRANCH  67  91
ATOM     91  C   UNL A   1      43.612  33.968  36.583  1.00  0.00     0.023 A 
ATOM     92  C   UNL A   1      44.431  34.927  35.935  1.00  0.00     0.012 A 
ATOM     93  C   UNL A   1      42.937  34.382  37.745  1.00  0.00     0.148 A 
ATOM     94  C   UNL A   1      44.467  36.263  36.337  1.00  0.00     0.002 A 
ATOM     95  C   UNL A   1      42.921  35.729  38.107  1.00  0.00     0.091 A 
ATOM     96  F   UNL A   1      42.305  33.467  38.491  1.00  0.00    -0.205 F 
ATOM     97  C   UNL A   1      43.678  36.673  37.401  1.00  0.00     0.022 A 
BRANCH  95  98
ATOM     98  S   UNL A   1      41.857  36.371  39.409  1.00  0.00     0.127 S 
ATOM     99  O   UNL A   1      42.370  35.680  40.590  1.00  0.00    -0.237 OA
ATOM    100  O   UNL A   1      42.160  37.800  39.347  1.00  0.00    -0.237 OA
ATOM    101  O   UNL A   1      40.500  36.010  39.022  1.00  0.00    -0.744 OA
ENDBRANCH  95  98
ENDBRANCH  67  91
BRANCH  79 102
ATOM    102  C   UNL A   1      41.685  28.004  34.410  1.00  0.00     0.023 A 
ATOM    103  C   UNL A   1      41.371  27.203  35.523  1.00  0.00     0.012 A 
ATOM    104  C   UNL A   1      42.763  27.628  33.579  1.00  0.00     0.148 A 
ATOM    105  C   UNL A   1      42.090  26.039  35.791  1.00  0.00     0.002 A 
ATOM    106  C   UNL A   1      43.443  26.440  33.821  1.00  0.00     0.091 A 
ATOM    107  F   UNL A   1      43.098  28.423  32.552  1.00  0.00    -0.205 F 
ATOM    108  C   UNL A   1      43.111  25.647  34.931  1.00  0.00     0.022 A 
BRANCH 106 109
ATOM    109  S   UNL A   1      44.714  25.797  32.725  1.00  0.00     0.127 S 
ATOM    110  O   UNL A   1      44.920  24.447  33.252  1.00  0.00    -0.237 OA
ATOM    111  O   UNL A   1      44.043  25.844  31.425  1.00  0.00    -0.237 OA
ATOM    112  O   UNL A   1      45.859  26.687  32.855  1.00  0.00    -0.744 OA
ENDBRANCH 106 109
ENDBRANCH  79 102
ENDBRANCH  53  54
ENDBRANCH  45  48
ENDBRANCH  43  44
ENDBRANCH  42  43
ENDBRANCH  41  42
ENDBRANCH   1  41
TORSDOF 22
ENDMDL
MODEL 2
REMARK VINA RESULT:     -10.0      6.872     13.189
REMARK SMILES Cc1oc2c(C)c3oc(=O)c(CCC(=O)N[C@H](Cc4ccc(Cl)cc4)C(=O)NCCCCCCNC(=O)c4ccc(-c5c6nc(c(-c7cccc(S(=O)(=O)[O-])c7F)c7ccc([nH]7)c(-c7cccc(S(=O)(=O)[O-])c7F)c7nc(c(-c8cccc(S(=O)(=O)[O-])c8F)c8ccc5[nH]8)C=C7)C=C6)cc4)c(C)c3cc2c1C
REMARK SMILES IDX 31 1 30 2 29 3 28 4 26 5 27 6 17 8 16 9 14 10 15 11 13 13
REMARK SMILES IDX 12 14 11 15 1 16 2 17 3 18 106 19 4 20 105 21 107 22 5 23
REMARK SMILES IDX 104 24 6 25 7 26 103 27 8 28 101 29 9 30 102 31 10 32 18 33
REMARK SMILES IDX 19 34 20 35 25 36 21 37 24 38 22 39 23 40 32 41 33 42 34 43
REMARK SMILES IDX 35 44 36 45 37 47 38 48 39 49 100 50 40 51 99 52 41 53 42 54
REMARK SMILES IDX 43 55 93 56 44 57 98 58 92 59 94 60 45 61 97 62 91 63 90 64
REMARK SMILES IDX 46 66 78 67 58 68 77 69 59 70 62 71 76 72 95 73 60 74 61 75
REMARK SMILES IDX 75 77 96 78 63 79 47 80 48 81 56 82 49 83 51 84 57 85 50 86
REMARK SMILES IDX 52 87 53 88 54 89 55 90 79 91 80 92 88 93 81 94 83 95 89 96
REMARK SMILES IDX 82 97 84 98 85 99 86 100 87 101 64 102 65 103 73 104 66 105
REMARK SMILES IDX 68 106 74 107 67 108 69 109 70 110 71 111 72 112
REMARK H PARENT 28 7 16 12 35 46 94 65 62 76
REMARK Flexibility Score: inf
ROOT
ATOM      1  C   UNL A   1      43.150  39.291  26.506  1.00  0.00     0.002 C 
ENDROOT
BRANCH   1   2
ATOM      2  C   UNL A   1      42.165  40.411  26.145  1.00  0.00     0.021 C 
BRANCH   2   3
ATOM      3  C   UNL A   1      42.719  41.472  25.189  1.00  0.00     0.116 C 
BRANCH   3   4
ATOM      4  N   UNL A   1      41.853  41.631  24.042  1.00  0.00    -0.354 N 
ATOM      5  C   UNL A   1      42.037  42.621  23.121  1.00  0.00     0.242 C 
ATOM      6  O   UNL A   1      41.161  43.481  23.050  1.00  0.00    -0.273 OA
ATOM      7  H   UNL A   1      41.105  41.002  23.920  1.00  0.00     0.163 HD
BRANCH   5   8
ATOM      8  C   UNL A   1      43.337  42.707  22.301  1.00  0.00     0.175 C 
BRANCH   8   9
ATOM      9  N   UNL A   1      43.930  44.045  22.365  1.00  0.00    -0.344 N 
ATOM     10  C   UNL A   1      44.317  44.736  23.477  1.00  0.00     0.220 C 
ATOM     11  O   UNL A   1      44.475  45.955  23.394  1.00  0.00    -0.275 OA
ATOM     12  H   UNL A   1      44.065  44.501  21.502  1.00  0.00     0.164 HD
BRANCH  10  13
ATOM     13  C   UNL A   1      44.549  44.001  24.785  1.00  0.00     0.105 C 
BRANCH  13  14
ATOM     14  C   UNL A   1      46.013  43.609  25.042  1.00  0.00     0.053 C 
BRANCH  14  15
ATOM     15  C   UNL A   1      46.200  42.236  25.668  1.00  0.00     0.042 A 
ATOM     16  C   UNL A   1      50.515  35.219  27.150  1.00  0.00     0.088 C 
ATOM     17  C   UNL A   1      49.581  36.297  26.758  1.00  0.00     0.105 A 
ATOM     18  O   UNL A   1      48.902  36.903  27.774  1.00  0.00    -0.461 OA
ATOM     19  C   UNL A   1      49.261  36.878  25.546  1.00  0.00    -0.002 A 
ATOM     20  C   UNL A   1      48.165  37.915  27.228  1.00  0.00     0.141 A 
ATOM     21  C   UNL A   1      48.307  37.896  25.848  1.00  0.00     0.025 A 
ATOM     22  C   UNL A   1      49.848  36.602  24.211  1.00  0.00     0.049 C 
ATOM     23  C   UNL A   1      47.438  38.882  27.939  1.00  0.00     0.036 A 
ATOM     24  C   UNL A   1      47.644  38.871  25.084  1.00  0.00     0.024 A 
ATOM     25  C   UNL A   1      47.460  38.931  29.433  1.00  0.00     0.052 C 
ATOM     26  C   UNL A   1      46.873  39.896  27.125  1.00  0.00     0.145 A 
ATOM     27  C   UNL A   1      46.965  39.920  25.726  1.00  0.00     0.022 A 
ATOM     28  O   UNL A   1      46.279  40.993  27.791  1.00  0.00    -0.422 OA
ATOM     29  C   UNL A   1      46.553  41.131  24.978  1.00  0.00    -0.030 A 
ATOM     30  C   UNL A   1      46.014  42.191  27.149  1.00  0.00     0.339 A 
ATOM     31  C   UNL A   1      46.727  41.098  23.477  1.00  0.00     0.046 C 
ATOM     32  O   UNL A   1      45.646  43.179  27.777  1.00  0.00    -0.246 OA
ENDBRANCH  14  15
ENDBRANCH  13  14
ENDBRANCH  10  13
ENDBRANCH   8   9
BRANCH   8  33
ATOM     33  C   UNL A   1      43.173  42.130  20.886  1.00  0.00     0.070 C 
BRANCH  33  34
ATOM     34  C   UNL A   1      42.839  43.253  19.917  1.00  0.00    -0.045 A 
ATOM     35  C   UNL A   1      43.850  43.833  19.134  1.00  0.00     0.005 A 
ATOM     36  C   UNL A   1      41.504  43.586  19.650  1.00  0.00     0.005 A 
ATOM     37  C   UNL A   1      43.528  44.668  18.063  1.00  0.00     0.021 A 
ATOM     38  C   UNL A   1      41.181  44.421  18.577  1.00  0.00     0.021 A 
ATOM     39  C   UNL A   1      42.193  44.947  17.779  1.00  0.00     0.041 A 
ATOM     40  Cl  UNL A   1      41.796  45.923  16.418  1.00  0.00    -0.084 Cl
ENDBRANCH  33  34
ENDBRANCH   8  33
ENDBRANCH   5   8
ENDBRANCH   3   4
ENDBRANCH   2   3
ENDBRANCH   1   2
BRANCH   1  41
ATOM     41  C   UNL A   1      42.582  38.214  27.430  1.00  0.00     0.002 C 
BRANCH  41  42
ATOM     42  C   UNL A   1      43.195  36.819  27.244  1.00  0.00     0.021 C 
BRANCH  42  43
ATOM     43  C   UNL A   1      44.725  36.805  27.166  1.00  0.00     0.116 C 
BRANCH  43  44
ATOM     44  N   UNL A   1      45.139  36.124  25.957  1.00  0.00    -0.352 N 
ATOM     45  C   UNL A   1      45.852  34.964  25.843  1.00  0.00     0.251 C 
ATOM     46  H   UNL A   1      44.875  36.551  25.110  1.00  0.00     0.163 HD
ATOM     47  O   UNL A   1      46.598  34.822  24.875  1.00  0.00    -0.269 OA
BRANCH  45  48
ATOM     48  C   UNL A   1      45.705  33.877  26.837  1.00  0.00     0.039 A 
ATOM     49  C   UNL A   1      44.547  33.097  26.769  1.00  0.00     0.014 A 
ATOM     50  C   UNL A   1      46.592  33.725  27.911  1.00  0.00     0.014 A 
ATOM     51  C   UNL A   1      44.274  32.177  27.773  1.00  0.00     0.010 A 
ATOM     52  C   UNL A   1      46.323  32.791  28.914  1.00  0.00     0.010 A 
ATOM     53  C   UNL A   1      45.159  32.020  28.850  1.00  0.00    -0.014 A 
BRANCH  53  54
ATOM     54  C   UNL A   1      44.805  31.003  29.854  1.00  0.00     0.031 A 
ATOM     55  C   UNL A   1      43.399  31.064  30.376  1.00  0.00     0.074 A 
ATOM     56  C   UNL A   1      45.476  29.830  29.847  1.00  0.00     0.049 A 
ATOM     57  N   UNL A   1      42.364  30.547  29.781  1.00  0.00    -0.248 NA
ATOM     58  C   UNL A   1      43.048  31.937  31.498  1.00  0.00     0.031 C 
ATOM     59  C   UNL A   1      45.778  29.065  28.630  1.00  0.00     0.029 A 
ATOM     60  N   UNL A   1      45.826  28.986  30.878  1.00  0.00    -0.354 N 
ATOM     61  C   UNL A   1      41.228  31.012  30.432  1.00  0.00     0.074 A 
ATOM     62  C   UNL A   1      41.706  31.885  31.482  1.00  0.00     0.031 C 
ATOM     63  C   UNL A   1      46.111  27.807  28.980  1.00  0.00     0.029 A 
ATOM     64  C   UNL A   1      46.154  27.701  30.438  1.00  0.00     0.049 A 
ATOM     65  H   UNL A   1      45.843  29.258  31.823  1.00  0.00     0.167 HD
ATOM     66  C   UNL A   1      39.962  30.623  30.105  1.00  0.00     0.034 A 
ATOM     67  C   UNL A   1      45.895  26.571  31.157  1.00  0.00     0.034 A 
ATOM     68  C   UNL A   1      39.889  29.641  29.061  1.00  0.00     0.049 A 
ATOM     69  C   UNL A   1      44.410  26.430  30.894  1.00  0.00     0.074 A 
ATOM     70  C   UNL A   1      39.618  29.596  27.712  1.00  0.00     0.029 A 
ATOM     71  N   UNL A   1      40.200  28.343  29.389  1.00  0.00    -0.354 N 
ATOM     72  N   UNL A   1      43.864  26.005  29.782  1.00  0.00    -0.248 NA
ATOM     73  C   UNL A   1      43.511  27.196  31.759  1.00  0.00     0.031 C 
ATOM     74  C   UNL A   1      40.237  28.392  27.240  1.00  0.00     0.029 A 
ATOM     75  C   UNL A   1      40.870  27.793  28.328  1.00  0.00     0.049 A 
ATOM     76  H   UNL A   1      39.981  27.889  30.235  1.00  0.00     0.167 HD
ATOM     77  C   UNL A   1      42.668  26.721  29.661  1.00  0.00     0.074 A 
ATOM     78  C   UNL A   1      42.511  27.425  30.920  1.00  0.00     0.031 C 
ATOM     79  C   UNL A   1      41.956  26.848  28.500  1.00  0.00     0.034 A 
BRANCH  66  80
ATOM     80  C   UNL A   1      38.736  30.914  30.900  1.00  0.00     0.023 A 
ATOM     81  C   UNL A   1      38.342  29.910  31.810  1.00  0.00     0.012 A 
ATOM     82  C   UNL A   1      37.860  31.983  30.641  1.00  0.00     0.148 A 
ATOM     83  C   UNL A   1      37.083  29.922  32.402  1.00  0.00     0.002 A 
ATOM     84  C   UNL A   1      36.603  32.000  31.254  1.00  0.00     0.091 A 
ATOM     85  F   UNL A   1      38.238  32.931  29.770  1.00  0.00    -0.205 F 
ATOM     86  C   UNL A   1      36.211  30.962  32.117  1.00  0.00     0.022 A 
BRANCH  84  87
ATOM     87  S   UNL A   1      35.385  33.297  30.984  1.00  0.00     0.127 S 
ATOM     88  O   UNL A   1      34.177  32.707  31.566  1.00  0.00    -0.237 OA
ATOM     89  O   UNL A   1      35.950  34.405  31.762  1.00  0.00    -0.237 OA
ATOM     90  O   UNL A   1      35.346  33.521  29.553  1.00  0.00    -0.744 OA
ENDBRANCH  84  87
ENDBRANCH  66  80
BRANCH  67  91
ATOM     91  C   UNL A   1      46.522  26.535  32.525  1.00  0.00     0.023 A 
ATOM     92  C   UNL A   1      47.336  27.641  32.877  1.00  0.00     0.012 A 
ATOM     93  C   UNL A   1      46.346  25.532  33.495  1.00  0.00     0.148 A 
ATOM     94  C   UNL A   1      47.835  27.812  34.170  1.00  0.00     0.002 A 
ATOM     95  C   UNL A   1      46.788  25.735  34.803  1.00  0.00     0.091 A 
ATOM     96  F   UNL A   1      45.744  24.388  33.147  1.00  0.00    -0.205 F 
ATOM     97  C   UNL A   1      47.525  26.876  35.145  1.00  0.00     0.022 A 
BRANCH  95  98
ATOM     98  S   UNL A   1      46.354  24.629  36.154  1.00  0.00     0.127 S 
ATOM     99  O   UNL A   1      46.819  23.337  35.651  1.00  0.00    -0.237 OA
ATOM    100  O   UNL A   1      47.148  25.188  37.247  1.00  0.00    -0.237 OA
ATOM    101  O   UNL A   1      44.912  24.748  36.314  1.00  0.00    -0.744 OA
ENDBRANCH  95  98
ENDBRANCH  67  91
BRANCH  79 102
ATOM    102  C   UNL A   1      42.444  26.070  27.313  1.00  0.00     0.023 A 
ATOM    103  C   UNL A   1      43.318  26.698  26.407  1.00  0.00     0.012 A 
ATOM    104  C   UNL A   1      42.133  24.705  27.130  1.00  0.00     0.148 A 
ATOM    105  C   UNL A   1      43.895  25.982  25.359  1.00  0.00     0.002 A 
ATOM    106  C   UNL A   1      42.751  23.984  26.114  1.00  0.00     0.091 A 
ATOM    107  F   UNL A   1      41.255  24.123  27.959  1.00  0.00    -0.205 F 
ATOM    108  C   UNL A   1      43.628  24.623  25.224  1.00  0.00     0.022 A 
BRANCH 106 109
ATOM    109  S   UNL A   1      42.547  22.210  25.907  1.00  0.00     0.127 S 
ATOM    110  O   UNL A   1      41.091  22.069  25.882  1.00  0.00    -0.237 OA
ATOM    111  O   UNL A   1      43.201  21.980  24.618  1.00  0.00    -0.237 OA
ATOM    112  O   UNL A   1      43.204  21.584  27.046  1.00  0.00    -0.744 OA
ENDBRANCH 106 109
ENDBRANCH  79 102
ENDBRANCH  53  54
ENDBRANCH  45  48
ENDBRANCH  43  44
ENDBRANCH  42  43
ENDBRANCH  41  42
ENDBRANCH   1  41
TORSDOF 22
ENDMDL
MODEL 3
REMARK VINA RESULT:      -9.6      4.805     11.843
REMARK SMILES Cc1oc2c(C)c3oc(=O)c(CCC(=O)N[C@H](Cc4ccc(Cl)cc4)C(=O)NCCCCCCNC(=O)c4ccc(-c5c6nc(c(-c7cccc(S(=O)(=O)[O-])c7F)c7ccc([nH]7)c(-c7cccc(S(=O)(=O)[O-])c7F)c7nc(c(-c8cccc(S(=O)(=O)[O-])c8F)c8ccc5[nH]8)C=C7)C=C6)cc4)c(C)c3cc2c1C
REMARK SMILES IDX 31 1 30 2 29 3 28 4 26 5 27 6 17 8 16 9 14 10 15 11 13 13
REMARK SMILES IDX 12 14 11 15 1 16 2 17 3 18 106 19 4 20 105 21 107 22 5 23
REMARK SMILES IDX 104 24 6 25 7 26 103 27 8 28 101 29 9 30 102 31 10 32 18 33
REMARK SMILES IDX 19 34 20 35 25 36 21 37 24 38 22 39 23 40 32 41 33 42 34 43
REMARK SMILES IDX 35 44 36 45 37 47 38 48 39 49 100 50 40 51 99 52 41 53 42 54
REMARK SMILES IDX 43 55 93 56 44 57 98 58 92 59 94 60 45 61 97 62 91 63 90 64
REMARK SMILES IDX 46 66 78 67 58 68 77 69 59 70 62 71 76 72 95 73 60 74 61 75
REMARK SMILES IDX 75 77 96 78 63 79 47 80 48 81 56 82 49 83 51 84 57 85 50 86
REMARK SMILES IDX 52 87 53 88 54 89 55 90 79 91 80 92 88 93 81 94 83 95 89 96
REMARK SMILES IDX 82 97 84 98 85 99 86 100 87 101 64 102 65 103 73 104 66 105
REMARK SMILES IDX 68 106 74 107 67 108 69 109 70 110 71 111 72 112
REMARK H PARENT 28 7 16 12 35 46 94 65 62 76
REMARK Flexibility Score: inf
ROOT
ATOM      1  C   UNL A   1      46.920  24.452  39.574  1.00  0.00     0.002 C 
ENDROOT
BRANCH   1   2
ATOM      2  C   UNL A   1      48.308  25.070  39.788  1.00  0.00     0.021 C 
BRANCH   2   3
ATOM      3  C   UNL A   1      48.300  26.565  40.124  1.00  0.00     0.116 C 
BRANCH   3   4
ATOM      4  N   UNL A   1      47.110  27.202  39.603  1.00  0.00    -0.354 N 
ATOM      5  C   UNL A   1      47.117  27.926  38.446  1.00  0.00     0.242 C 
ATOM      6  O   UNL A   1      46.897  29.131  38.546  1.00  0.00    -0.273 OA
ATOM      7  H   UNL A   1      46.265  27.109  40.100  1.00  0.00     0.163 HD
BRANCH   5   8
ATOM      8  C   UNL A   1      47.497  27.271  37.106  1.00  0.00     0.175 C 
BRANCH   8   9
ATOM      9  N   UNL A   1      48.653  27.928  36.491  1.00  0.00    -0.344 N 
ATOM     10  C   UNL A   1      49.935  27.465  36.413  1.00  0.00     0.220 C 
ATOM     11  O   UNL A   1      50.842  28.264  36.177  1.00  0.00    -0.275 OA
ATOM     12  H   UNL A   1      48.485  28.809  36.085  1.00  0.00     0.164 HD
BRANCH  10  13
ATOM     13  C   UNL A   1      50.222  25.987  36.614  1.00  0.00     0.105 C 
BRANCH  13  14
ATOM     14  C   UNL A   1      50.277  25.169  35.314  1.00  0.00     0.053 C 
BRANCH  14  15
ATOM     15  C   UNL A   1      49.467  23.883  35.341  1.00  0.00     0.042 A 
ATOM     16  C   UNL A   1      45.406  17.686  39.234  1.00  0.00     0.088 C 
ATOM     17  C   UNL A   1      46.294  18.587  38.468  1.00  0.00     0.105 A 
ATOM     18  O   UNL A   1      45.755  19.154  37.350  1.00  0.00    -0.461 OA
ATOM     19  C   UNL A   1      47.587  19.033  38.663  1.00  0.00    -0.002 A 
ATOM     20  C   UNL A   1      46.687  20.009  36.834  1.00  0.00     0.141 A 
ATOM     21  C   UNL A   1      47.856  19.918  37.576  1.00  0.00     0.025 A 
ATOM     22  C   UNL A   1      48.491  18.757  39.807  1.00  0.00     0.049 C 
ATOM     23  C   UNL A   1      46.486  20.904  35.773  1.00  0.00     0.036 A 
ATOM     24  C   UNL A   1      48.946  20.733  37.228  1.00  0.00     0.024 A 
ATOM     25  C   UNL A   1      45.149  21.056  35.123  1.00  0.00     0.052 C 
ATOM     26  C   UNL A   1      47.584  21.769  35.530  1.00  0.00     0.145 A 
ATOM     27  C   UNL A   1      48.796  21.712  36.231  1.00  0.00     0.022 A 
ATOM     28  O   UNL A   1      47.382  22.810  34.593  1.00  0.00    -0.422 OA
ATOM     29  C   UNL A   1      49.793  22.797  36.075  1.00  0.00    -0.030 A 
ATOM     30  C   UNL A   1      48.219  23.910  34.521  1.00  0.00     0.339 A 
ATOM     31  C   UNL A   1      51.054  22.690  36.899  1.00  0.00     0.046 C 
ATOM     32  O   UNL A   1      47.940  24.873  33.814  1.00  0.00    -0.246 OA
ENDBRANCH  14  15
ENDBRANCH  13  14
ENDBRANCH  10  13
ENDBRANCH   8   9
BRANCH   8  33
ATOM     33  C   UNL A   1      46.283  27.083  36.184  1.00  0.00     0.070 C 
BRANCH  33  34
ATOM     34  C   UNL A   1      46.213  28.238  35.197  1.00  0.00    -0.045 A 
ATOM     35  C   UNL A   1      45.536  29.419  35.542  1.00  0.00     0.005 A 
ATOM     36  C   UNL A   1      46.980  28.217  34.024  1.00  0.00     0.005 A 
ATOM     37  C   UNL A   1      45.684  30.572  34.769  1.00  0.00     0.021 A 
ATOM     38  C   UNL A   1      47.129  29.372  33.252  1.00  0.00     0.021 A 
ATOM     39  C   UNL A   1      46.492  30.548  33.635  1.00  0.00     0.041 A 
ATOM     40  Cl  UNL A   1      46.726  31.989  32.723  1.00  0.00    -0.084 Cl
ENDBRANCH  33  34
ENDBRANCH   8  33
ENDBRANCH   5   8
ENDBRANCH   3   4
ENDBRANCH   2   3
ENDBRANCH   1   2
BRANCH   1  41
ATOM     41  C   UNL A   1      46.708  23.821  38.198  1.00  0.00     0.002 C 
BRANCH  41  42
ATOM     42  C   UNL A   1      45.241  23.717  37.758  1.00  0.00     0.021 C 
BRANCH  42  43
ATOM     43  C   UNL A   1      44.399  24.961  38.061  1.00  0.00     0.116 C 
BRANCH  43  44
ATOM     44  N   UNL A   1      43.021  24.712  37.691  1.00  0.00    -0.352 N 
ATOM     45  C   UNL A   1      42.289  25.314  36.707  1.00  0.00     0.251 C 
ATOM     46  H   UNL A   1      42.553  24.023  38.215  1.00  0.00     0.163 HD
ATOM     47  O   UNL A   1      41.077  25.448  36.870  1.00  0.00    -0.269 OA
BRANCH  45  48
ATOM     48  C   UNL A   1      42.925  25.763  35.449  1.00  0.00     0.039 A 
ATOM     49  C   UNL A   1      42.611  27.047  34.993  1.00  0.00     0.014 A 
ATOM     50  C   UNL A   1      43.678  24.897  34.644  1.00  0.00     0.014 A 
ATOM     51  C   UNL A   1      43.041  27.460  33.739  1.00  0.00     0.010 A 
ATOM     52  C   UNL A   1      44.120  25.317  33.387  1.00  0.00     0.010 A 
ATOM     53  C   UNL A   1      43.795  26.598  32.929  1.00  0.00    -0.014 A 
BRANCH  53  54
ATOM     54  C   UNL A   1      44.232  27.127  31.626  1.00  0.00     0.031 A 
ATOM     55  C   UNL A   1      44.295  26.129  30.506  1.00  0.00     0.074 A 
ATOM     56  C   UNL A   1      44.025  28.435  31.359  1.00  0.00     0.049 A 
ATOM     57  N   UNL A   1      43.276  25.757  29.788  1.00  0.00    -0.248 NA
ATOM     58  C   UNL A   1      45.487  25.306  30.294  1.00  0.00     0.031 C 
ATOM     59  C   UNL A   1      42.770  29.142  31.649  1.00  0.00     0.029 A 
ATOM     60  N   UNL A   1      44.757  29.329  30.609  1.00  0.00    -0.354 N 
ATOM     61  C   UNL A   1      43.673  24.663  29.029  1.00  0.00     0.074 A 
ATOM     62  C   UNL A   1      45.051  24.411  29.392  1.00  0.00     0.031 C 
ATOM     63  C   UNL A   1      42.750  30.293  30.946  1.00  0.00     0.029 A 
ATOM     64  C   UNL A   1      44.024  30.461  30.247  1.00  0.00     0.049 A 
ATOM     65  H   UNL A   1      45.697  29.185  30.355  1.00  0.00     0.167 HD
ATOM     66  C   UNL A   1      42.868  24.050  28.115  1.00  0.00     0.034 A 
ATOM     67  C   UNL A   1      44.197  31.124  29.068  1.00  0.00     0.034 A 
ATOM     68  C   UNL A   1      41.579  24.660  27.948  1.00  0.00     0.049 A 
ATOM     69  C   UNL A   1      43.468  30.184  28.131  1.00  0.00     0.074 A 
ATOM     70  C   UNL A   1      40.282  24.446  28.357  1.00  0.00     0.029 A 
ATOM     71  N   UNL A   1      41.519  25.823  27.218  1.00  0.00    -0.354 N 
ATOM     72  N   UNL A   1      42.168  30.063  28.022  1.00  0.00    -0.248 NA
ATOM     73  C   UNL A   1      44.230  29.046  27.612  1.00  0.00     0.031 C 
ATOM     74  C   UNL A   1      39.635  25.720  28.249  1.00  0.00     0.029 A 
ATOM     75  C   UNL A   1      40.588  26.637  27.805  1.00  0.00     0.049 A 
ATOM     76  H   UNL A   1      42.050  26.033  26.415  1.00  0.00     0.167 HD
ATOM     77  C   UNL A   1      41.946  28.713  27.728  1.00  0.00     0.074 A 
ATOM     78  C   UNL A   1      43.261  28.151  27.478  1.00  0.00     0.031 C 
ATOM     79  C   UNL A   1      40.743  28.077  27.867  1.00  0.00     0.034 A 
BRANCH  66  80
ATOM     80  C   UNL A   1      43.306  23.024  27.127  1.00  0.00     0.023 A 
ATOM     81  C   UNL A   1      43.959  23.517  25.978  1.00  0.00     0.012 A 
ATOM     82  C   UNL A   1      42.918  21.672  27.165  1.00  0.00     0.148 A 
ATOM     83  C   UNL A   1      44.166  22.715  24.861  1.00  0.00     0.002 A 
ATOM     84  C   UNL A   1      43.146  20.865  26.047  1.00  0.00     0.091 A 
ATOM     85  F   UNL A   1      42.293  21.211  28.258  1.00  0.00    -0.205 F 
ATOM     86  C   UNL A   1      43.752  21.391  24.892  1.00  0.00     0.022 A 
BRANCH  84  87
ATOM     87  S   UNL A   1      42.675  19.130  25.962  1.00  0.00     0.127 S 
ATOM     88  O   UNL A   1      42.657  18.750  27.377  1.00  0.00    -0.237 OA
ATOM     89  O   UNL A   1      41.349  19.209  25.341  1.00  0.00    -0.237 OA
ATOM     90  O   UNL A   1      43.685  18.478  25.151  1.00  0.00    -0.744 OA
ENDBRANCH  84  87
ENDBRANCH  66  80
BRANCH  67  91
ATOM     91  C   UNL A   1      45.590  31.643  28.834  1.00  0.00     0.023 A 
ATOM     92  C   UNL A   1      46.643  30.945  29.478  1.00  0.00     0.012 A 
ATOM     93  C   UNL A   1      45.948  32.727  28.012  1.00  0.00     0.148 A 
ATOM     94  C   UNL A   1      47.985  31.216  29.210  1.00  0.00     0.002 A 
ATOM     95  C   UNL A   1      47.286  32.956  27.693  1.00  0.00     0.091 A 
ATOM     96  F   UNL A   1      44.986  33.527  27.536  1.00  0.00    -0.205 F 
ATOM     97  C   UNL A   1      48.306  32.198  28.284  1.00  0.00     0.022 A 
BRANCH  95  98
ATOM     98  S   UNL A   1      47.795  34.137  26.435  1.00  0.00     0.127 S 
ATOM     99  O   UNL A   1      46.706  34.036  25.465  1.00  0.00    -0.237 OA
ATOM    100  O   UNL A   1      47.824  35.380  27.205  1.00  0.00    -0.237 OA
ATOM    101  O   UNL A   1      49.091  33.674  25.960  1.00  0.00    -0.744 OA
ENDBRANCH  95  98
ENDBRANCH  67  91
BRANCH  79 102
ATOM    102  C   UNL A   1      39.566  28.925  28.256  1.00  0.00     0.023 A 
ATOM    103  C   UNL A   1      38.742  29.444  27.242  1.00  0.00     0.012 A 
ATOM    104  C   UNL A   1      39.207  29.135  29.606  1.00  0.00     0.148 A 
ATOM    105  C   UNL A   1      37.571  30.132  27.556  1.00  0.00     0.002 A 
ATOM    106  C   UNL A   1      38.012  29.777  29.912  1.00  0.00     0.091 A 
ATOM    107  F   UNL A   1      40.024  28.690  30.572  1.00  0.00    -0.205 F 
ATOM    108  C   UNL A   1      37.196  30.281  28.887  1.00  0.00     0.022 A 
BRANCH 106 109
ATOM    109  S   UNL A   1      37.391  29.943  31.590  1.00  0.00     0.127 S 
ATOM    110  O   UNL A   1      38.419  30.773  32.218  1.00  0.00    -0.237 OA
ATOM    111  O   UNL A   1      36.112  30.621  31.373  1.00  0.00    -0.237 OA
ATOM    112  O   UNL A   1      37.283  28.593  32.125  1.00  0.00    -0.744 OA
ENDBRANCH 106 109
ENDBRANCH  79 102
ENDBRANCH  53  54
ENDBRANCH  45  48
ENDBRANCH  43  44
ENDBRANCH  42  43
ENDBRANCH  41  42
ENDBRANCH   1  41
TORSDOF 22
ENDMDL
