MODEL 1
REMARK VINA RESULT:     -12.6      0.000      0.000
REMARK SMILES C[C@@H]1C(C(=O)NCCCCCCNC(=O)c2ccc(-c3c4nc(c(-c5cccc(S(=O)(=O)[O-])c5F)c5ccc([nH]5)c(-c5cccc(S(=O)(=O)[O-])c5F)c5nc(c(-c6cccc(S(=O)(=O)[O-])c6F)c6ccc3[nH]6)C=C5)C=C4)cc2)=NC2=C1C(=O)C[C@H](c1ccccc1)C2
REMARK SMILES IDX 10 1 9 2 8 3 7 4 6 5 4 6 5 7 3 9 1 10 2 11 81 12 79 13 80 14
REMARK SMILES IDX 82 15 92 16 83 17 84 18 85 19 86 20 87 21 91 22 88 23 90 24
REMARK SMILES IDX 89 25 11 26 12 27 13 28 14 29 15 31 16 32 17 33 78 34 18 35
REMARK SMILES IDX 77 36 19 37 20 38 21 39 71 40 22 41 76 42 70 43 72 44 23 45
REMARK SMILES IDX 75 46 69 47 68 48 24 50 56 51 36 52 55 53 37 54 40 55 54 56
REMARK SMILES IDX 73 57 38 58 39 59 53 61 74 62 41 63 25 64 26 65 34 66 27 67
REMARK SMILES IDX 29 68 35 69 28 70 30 71 31 72 32 73 33 74 57 75 58 76 66 77
REMARK SMILES IDX 59 78 61 79 67 80 60 81 62 82 63 83 64 84 65 85 42 86 43 87
REMARK SMILES IDX 51 88 44 89 46 90 52 91 45 92 47 93 48 94 49 95 50 96
REMARK H PARENT 6 8 13 30 72 49 40 60
REMARK Flexibility Score: inf
ROOT
ATOM      1  C   UNL A   1      31.426  30.781  25.935  1.00  0.00     0.002 C 
ENDROOT
BRANCH   1   2
ATOM      2  C   UNL A   1      32.796  30.116  26.100  1.00  0.00     0.002 C 
BRANCH   2   3
ATOM      3  C   UNL A   1      33.018  29.108  27.228  1.00  0.00     0.021 C 
BRANCH   3   4
ATOM      4  C   UNL A   1      32.236  27.796  27.261  1.00  0.00     0.116 C 
BRANCH   4   5
ATOM      5  N   UNL A   1      31.173  27.594  26.293  1.00  0.00    -0.351 N 
ATOM      6  C   UNL A   1      31.217  26.903  25.088  1.00  0.00     0.266 C 
ATOM      7  O   UNL A   1      30.170  26.543  24.557  1.00  0.00    -0.268 OA
ATOM      8  H   UNL A   1      30.306  28.000  26.521  1.00  0.00     0.163 HD
BRANCH   6   9
ATOM      9  C   UNL A   1      32.533  26.696  24.336  1.00  0.00     0.113 C 
ATOM     10  C   UNL A   1      33.527  28.454  22.855  1.00  0.00     0.020 C 
ATOM     11  C   UNL A   1      32.756  27.142  22.912  1.00  0.00     0.076 C 
ATOM     12  C   UNL A   1      33.635  25.971  22.641  1.00  0.00     0.026 C 
ATOM     13  N   UNL A   1      33.536  26.035  24.867  1.00  0.00    -0.251 NA
ATOM     14  C   UNL A   1      34.203  25.534  23.767  1.00  0.00     0.049 C 
ATOM     15  C   UNL A   1      33.291  24.938  21.645  1.00  0.00     0.161 C 
ATOM     16  C   UNL A   1      34.872  24.190  23.799  1.00  0.00     0.065 C 
ATOM     17  O   UNL A   1      32.998  25.315  20.515  1.00  0.00    -0.294 OA
ATOM     18  C   UNL A   1      33.186  23.466  22.103  1.00  0.00     0.089 C 
ATOM     19  C   UNL A   1      33.786  23.131  23.517  1.00  0.00     0.033 C 
BRANCH  19  20
ATOM     20  C   UNL A   1      32.798  22.976  24.696  1.00  0.00    -0.044 A 
ATOM     21  C   UNL A   1      33.257  22.665  25.997  1.00  0.00     0.004 A 
ATOM     22  C   UNL A   1      31.413  23.112  24.538  1.00  0.00     0.004 A 
ATOM     23  C   UNL A   1      32.408  22.652  27.105  1.00  0.00     0.000 A 
ATOM     24  C   UNL A   1      30.553  23.071  25.646  1.00  0.00     0.000 A 
ATOM     25  C   UNL A   1      31.052  22.873  26.931  1.00  0.00     0.000 A 
ENDBRANCH  19  20
ENDBRANCH   6   9
ENDBRANCH   4   5
ENDBRANCH   3   4
ENDBRANCH   2   3
ENDBRANCH   1   2
BRANCH   1  26
ATOM     26  C   UNL A   1      31.227  32.209  26.457  1.00  0.00     0.021 C 
BRANCH  26  27
ATOM     27  C   UNL A   1      32.392  32.795  27.241  1.00  0.00     0.116 C 
BRANCH  27  28
ATOM     28  N   UNL A   1      32.224  34.204  27.605  1.00  0.00    -0.352 N 
ATOM     29  C   UNL A   1      32.925  34.920  28.565  1.00  0.00     0.251 C 
ATOM     30  H   UNL A   1      31.532  34.702  27.111  1.00  0.00     0.163 HD
ATOM     31  O   UNL A   1      32.485  35.966  29.024  1.00  0.00    -0.269 OA
BRANCH  29  32
ATOM     32  C   UNL A   1      34.223  34.389  29.024  1.00  0.00     0.039 A 
ATOM     33  C   UNL A   1      34.412  33.884  30.315  1.00  0.00     0.014 A 
ATOM     34  C   UNL A   1      35.254  34.360  28.094  1.00  0.00     0.014 A 
ATOM     35  C   UNL A   1      35.626  33.271  30.628  1.00  0.00     0.010 A 
ATOM     36  C   UNL A   1      36.354  33.586  28.336  1.00  0.00     0.010 A 
ATOM     37  C   UNL A   1      36.587  33.112  29.624  1.00  0.00    -0.014 A 
BRANCH  37  38
ATOM     38  C   UNL A   1      37.841  32.406  29.857  1.00  0.00     0.031 A 
ATOM     39  C   UNL A   1      37.918  31.015  29.333  1.00  0.00     0.074 A 
ATOM     40  C   UNL A   1      38.948  33.069  30.265  1.00  0.00     0.049 A 
ATOM     41  N   UNL A   1      38.100  29.928  30.008  1.00  0.00    -0.248 NA
ATOM     42  C   UNL A   1      37.670  30.790  27.900  1.00  0.00     0.031 C 
ATOM     43  C   UNL A   1      39.103  34.515  30.492  1.00  0.00     0.029 A 
ATOM     44  N   UNL A   1      40.225  32.616  30.357  1.00  0.00    -0.354 N 
ATOM     45  C   UNL A   1      38.217  28.908  29.064  1.00  0.00     0.074 A 
ATOM     46  C   UNL A   1      37.753  29.460  27.818  1.00  0.00     0.031 C 
ATOM     47  C   UNL A   1      40.405  34.845  30.382  1.00  0.00     0.029 A 
ATOM     48  C   UNL A   1      41.179  33.626  30.272  1.00  0.00     0.049 A 
ATOM     49  H   UNL A   1      40.455  31.666  30.473  1.00  0.00     0.167 HD
ATOM     50  C   UNL A   1      38.911  27.765  29.329  1.00  0.00     0.034 A 
ATOM     51  C   UNL A   1      42.505  33.468  30.052  1.00  0.00     0.034 A 
ATOM     52  C   UNL A   1      39.213  27.641  30.733  1.00  0.00     0.049 A 
ATOM     53  C   UNL A   1      42.843  32.077  30.436  1.00  0.00     0.074 A 
ATOM     54  C   UNL A   1      38.468  27.624  31.896  1.00  0.00     0.029 A 
ATOM     55  N   UNL A   1      40.505  27.904  31.123  1.00  0.00    -0.354 N 
ATOM     56  N   UNL A   1      42.742  31.625  31.658  1.00  0.00    -0.248 NA
ATOM     57  C   UNL A   1      42.851  31.063  29.394  1.00  0.00     0.031 C 
ATOM     58  C   UNL A   1      39.239  28.381  32.827  1.00  0.00     0.029 A 
ATOM     59  C   UNL A   1      40.431  28.749  32.199  1.00  0.00     0.049 A 
ATOM     60  H   UNL A   1      41.326  27.554  30.708  1.00  0.00     0.167 HD
ATOM     61  C   UNL A   1      42.208  30.350  31.512  1.00  0.00     0.074 A 
ATOM     62  C   UNL A   1      42.409  30.018  30.102  1.00  0.00     0.031 C 
ATOM     63  C   UNL A   1      41.385  29.806  32.460  1.00  0.00     0.034 A 
BRANCH  50  64
ATOM     64  C   UNL A   1      39.636  26.919  28.308  1.00  0.00     0.023 A 
ATOM     65  C   UNL A   1      39.491  25.515  28.407  1.00  0.00     0.012 A 
ATOM     66  C   UNL A   1      40.653  27.396  27.450  1.00  0.00     0.148 A 
ATOM     67  C   UNL A   1      40.348  24.635  27.736  1.00  0.00     0.002 A 
ATOM     68  C   UNL A   1      41.448  26.518  26.720  1.00  0.00     0.091 A 
ATOM     69  F   UNL A   1      40.962  28.695  27.436  1.00  0.00    -0.205 F 
ATOM     70  C   UNL A   1      41.324  25.137  26.885  1.00  0.00     0.022 A 
BRANCH  68  71
ATOM     71  S   UNL A   1      42.683  27.119  25.563  1.00  0.00     0.127 S 
ATOM     72  O   UNL A   1      42.851  25.963  24.687  1.00  0.00    -0.237 OA
ATOM     73  O   UNL A   1      41.999  28.262  24.958  1.00  0.00    -0.237 OA
ATOM     74  O   UNL A   1      43.832  27.481  26.383  1.00  0.00    -0.744 OA
ENDBRANCH  68  71
ENDBRANCH  50  64
BRANCH  51  75
ATOM     75  C   UNL A   1      43.425  34.363  29.313  1.00  0.00     0.023 A 
ATOM     76  C   UNL A   1      44.043  35.438  29.977  1.00  0.00     0.012 A 
ATOM     77  C   UNL A   1      43.884  34.032  28.013  1.00  0.00     0.148 A 
ATOM     78  C   UNL A   1      45.094  36.146  29.378  1.00  0.00     0.002 A 
ATOM     79  C   UNL A   1      44.913  34.751  27.413  1.00  0.00     0.091 A 
ATOM     80  F   UNL A   1      43.369  32.958  27.399  1.00  0.00    -0.205 F 
ATOM     81  C   UNL A   1      45.531  35.802  28.101  1.00  0.00     0.022 A 
BRANCH  79  82
ATOM     82  S   UNL A   1      45.518  34.368  25.761  1.00  0.00     0.127 S 
ATOM     83  O   UNL A   1      44.313  34.527  24.947  1.00  0.00    -0.237 OA
ATOM     84  O   UNL A   1      46.530  35.397  25.555  1.00  0.00    -0.237 OA
ATOM     85  O   UNL A   1      46.012  32.995  25.820  1.00  0.00    -0.744 OA
ENDBRANCH  79  82
ENDBRANCH  51  75
BRANCH  63  86
ATOM     86  C   UNL A   1      41.225  30.523  33.781  1.00  0.00     0.023 A 
ATOM     87  C   UNL A   1      42.192  30.427  34.806  1.00  0.00     0.012 A 
ATOM     88  C   UNL A   1      40.198  31.475  33.914  1.00  0.00     0.148 A 
ATOM     89  C   UNL A   1      42.126  31.241  35.940  1.00  0.00     0.002 A 
ATOM     90  C   UNL A   1      40.162  32.314  35.023  1.00  0.00     0.091 A 
ATOM     91  F   UNL A   1      39.290  31.569  32.931  1.00  0.00    -0.205 F 
ATOM     92  C   UNL A   1      41.120  32.194  36.043  1.00  0.00     0.022 A 
BRANCH  90  93
ATOM     93  S   UNL A   1      38.971  33.650  35.154  1.00  0.00     0.127 S 
ATOM     94  O   UNL A   1      37.707  32.923  35.259  1.00  0.00    -0.237 OA
ATOM     95  O   UNL A   1      39.390  34.328  36.382  1.00  0.00    -0.237 OA
ATOM     96  O   UNL A   1      39.136  34.454  33.949  1.00  0.00    -0.744 OA
ENDBRANCH  90  93
ENDBRANCH  63  86
ENDBRANCH  37  38
ENDBRANCH  29  32
ENDBRANCH  27  28
ENDBRANCH  26  27
ENDBRANCH   1  26
TORSDOF 17
ENDMDL
MODEL 2
REMARK VINA RESULT:     -12.5      3.396      7.467
REMARK SMILES C[C@@H]1C(C(=O)NCCCCCCNC(=O)c2ccc(-c3c4nc(c(-c5cccc(S(=O)(=O)[O-])c5F)c5ccc([nH]5)c(-c5cccc(S(=O)(=O)[O-])c5F)c5nc(c(-c6cccc(S(=O)(=O)[O-])c6F)c6ccc3[nH]6)C=C5)C=C4)cc2)=NC2=C1C(=O)C[C@H](c1ccccc1)C2
REMARK SMILES IDX 10 1 9 2 8 3 7 4 6 5 4 6 5 7 3 9 1 10 2 11 81 12 79 13 80 14
REMARK SMILES IDX 82 15 92 16 83 17 84 18 85 19 86 20 87 21 91 22 88 23 90 24
REMARK SMILES IDX 89 25 11 26 12 27 13 28 14 29 15 31 16 32 17 33 78 34 18 35
REMARK SMILES IDX 77 36 19 37 20 38 21 39 71 40 22 41 76 42 70 43 72 44 23 45
REMARK SMILES IDX 75 46 69 47 68 48 24 50 56 51 36 52 55 53 37 54 40 55 54 56
REMARK SMILES IDX 73 57 38 58 39 59 53 61 74 62 41 63 25 64 26 65 34 66 27 67
REMARK SMILES IDX 29 68 35 69 28 70 30 71 31 72 32 73 33 74 57 75 58 76 66 77
REMARK SMILES IDX 59 78 61 79 67 80 60 81 62 82 63 83 64 84 65 85 42 86 43 87
REMARK SMILES IDX 51 88 44 89 46 90 52 91 45 92 47 93 48 94 49 95 50 96
REMARK H PARENT 6 8 13 30 72 49 40 60
REMARK Flexibility Score: inf
ROOT
ATOM      1  C   UNL A   1      32.379  28.647  26.198  1.00  0.00     0.002 C 
ENDROOT
BRANCH   1   2
ATOM      2  C   UNL A   1      32.509  29.343  24.839  1.00  0.00     0.002 C 
BRANCH   2   3
ATOM      3  C   UNL A   1      33.172  28.611  23.673  1.00  0.00     0.021 C 
BRANCH   3   4
ATOM      4  C   UNL A   1      33.610  27.154  23.819  1.00  0.00     0.116 C 
BRANCH   4   5
ATOM      5  N   UNL A   1      33.726  26.339  22.624  1.00  0.00    -0.351 N 
ATOM      6  C   UNL A   1      33.799  24.955  22.521  1.00  0.00     0.266 C 
ATOM      7  O   UNL A   1      33.558  24.414  21.446  1.00  0.00    -0.268 OA
ATOM      8  H   UNL A   1      33.758  26.833  21.773  1.00  0.00     0.163 HD
BRANCH   6   9
ATOM      9  C   UNL A   1      34.301  24.095  23.682  1.00  0.00     0.113 C 
ATOM     10  C   UNL A   1      36.513  22.922  23.629  1.00  0.00     0.020 C 
ATOM     11  C   UNL A   1      35.003  22.774  23.495  1.00  0.00     0.076 C 
ATOM     12  C   UNL A   1      34.388  22.226  24.736  1.00  0.00     0.026 C 
ATOM     13  N   UNL A   1      34.076  24.424  24.934  1.00  0.00    -0.251 NA
ATOM     14  C   UNL A   1      34.084  23.208  25.588  1.00  0.00     0.049 C 
ATOM     15  C   UNL A   1      33.467  21.073  24.721  1.00  0.00     0.161 C 
ATOM     16  C   UNL A   1      33.181  22.938  26.755  1.00  0.00     0.065 C 
ATOM     17  O   UNL A   1      33.840  20.058  24.140  1.00  0.00    -0.294 OA
ATOM     18  C   UNL A   1      32.049  21.244  25.308  1.00  0.00     0.089 C 
ATOM     19  C   UNL A   1      31.807  22.526  26.185  1.00  0.00     0.033 C 
BRANCH  19  20
ATOM     20  C   UNL A   1      31.064  23.713  25.531  1.00  0.00    -0.044 A 
ATOM     21  C   UNL A   1      30.643  24.824  26.298  1.00  0.00     0.004 A 
ATOM     22  C   UNL A   1      30.754  23.744  24.165  1.00  0.00     0.004 A 
ATOM     23  C   UNL A   1      30.093  25.968  25.716  1.00  0.00     0.000 A 
ATOM     24  C   UNL A   1      30.175  24.881  23.582  1.00  0.00     0.000 A 
ATOM     25  C   UNL A   1      29.874  26.003  24.350  1.00  0.00     0.000 A 
ENDBRANCH  19  20
ENDBRANCH   6   9
ENDBRANCH   4   5
ENDBRANCH   3   4
ENDBRANCH   2   3
ENDBRANCH   1   2
BRANCH   1  26
ATOM     26  C   UNL A   1      33.483  28.846  27.242  1.00  0.00     0.021 C 
BRANCH  26  27
ATOM     27  C   UNL A   1      34.464  29.974  26.962  1.00  0.00     0.116 C 
BRANCH  27  28
ATOM     28  N   UNL A   1      34.223  31.190  27.744  1.00  0.00    -0.352 N 
ATOM     29  C   UNL A   1      34.862  31.586  28.910  1.00  0.00     0.251 C 
ATOM     30  H   UNL A   1      33.527  31.796  27.402  1.00  0.00     0.163 HD
ATOM     31  O   UNL A   1      34.363  32.419  29.655  1.00  0.00    -0.269 OA
BRANCH  29  32
ATOM     32  C   UNL A   1      36.167  30.978  29.235  1.00  0.00     0.039 A 
ATOM     33  C   UNL A   1      36.311  29.612  29.505  1.00  0.00     0.014 A 
ATOM     34  C   UNL A   1      37.273  31.816  29.210  1.00  0.00     0.014 A 
ATOM     35  C   UNL A   1      37.594  29.088  29.664  1.00  0.00     0.010 A 
ATOM     36  C   UNL A   1      38.527  31.271  29.163  1.00  0.00     0.010 A 
ATOM     37  C   UNL A   1      38.699  29.925  29.474  1.00  0.00    -0.014 A 
BRANCH  37  38
ATOM     38  C   UNL A   1      40.068  29.427  29.541  1.00  0.00     0.031 A 
ATOM     39  C   UNL A   1      40.624  29.219  30.906  1.00  0.00     0.074 A 
ATOM     40  C   UNL A   1      40.679  28.922  28.445  1.00  0.00     0.049 A 
ATOM     41  N   UNL A   1      41.651  29.798  31.435  1.00  0.00    -0.248 NA
ATOM     42  C   UNL A   1      39.900  28.333  31.831  1.00  0.00     0.031 C 
ATOM     43  C   UNL A   1      40.118  28.750  27.096  1.00  0.00     0.029 A 
ATOM     44  N   UNL A   1      41.862  28.259  28.360  1.00  0.00    -0.354 N 
ATOM     45  C   UNL A   1      41.840  29.185  32.673  1.00  0.00     0.074 A 
ATOM     46  C   UNL A   1      40.635  28.444  32.940  1.00  0.00     0.031 C 
ATOM     47  C   UNL A   1      40.803  27.786  26.448  1.00  0.00     0.029 A 
ATOM     48  C   UNL A   1      41.949  27.420  27.254  1.00  0.00     0.049 A 
ATOM     49  H   UNL A   1      42.588  28.363  29.017  1.00  0.00     0.167 HD
ATOM     50  C   UNL A   1      43.065  29.140  33.269  1.00  0.00     0.034 A 
ATOM     51  C   UNL A   1      42.861  26.441  27.053  1.00  0.00     0.034 A 
ATOM     52  C   UNL A   1      44.000  30.030  32.628  1.00  0.00     0.049 A 
ATOM     53  C   UNL A   1      44.026  26.753  27.916  1.00  0.00     0.074 A 
ATOM     54  C   UNL A   1      44.030  31.382  32.351  1.00  0.00     0.029 A 
ATOM     55  N   UNL A   1      44.948  29.461  31.810  1.00  0.00    -0.354 N 
ATOM     56  N   UNL A   1      44.769  27.816  27.761  1.00  0.00    -0.248 NA
ATOM     57  C   UNL A   1      44.089  26.134  29.229  1.00  0.00     0.031 C 
ATOM     58  C   UNL A   1      44.600  31.468  31.046  1.00  0.00     0.029 A 
ATOM     59  C   UNL A   1      44.946  30.176  30.642  1.00  0.00     0.049 A 
ATOM     60  H   UNL A   1      45.519  28.687  32.022  1.00  0.00     0.167 HD
ATOM     61  C   UNL A   1      45.011  28.261  29.055  1.00  0.00     0.074 A 
ATOM     62  C   UNL A   1      44.671  27.125  29.912  1.00  0.00     0.031 C 
ATOM     63  C   UNL A   1      45.169  29.590  29.337  1.00  0.00     0.034 A 
BRANCH  50  64
ATOM     64  C   UNL A   1      43.551  28.053  34.201  1.00  0.00     0.023 A 
ATOM     65  C   UNL A   1      44.151  28.459  35.415  1.00  0.00     0.012 A 
ATOM     66  C   UNL A   1      43.705  26.696  33.836  1.00  0.00     0.148 A 
ATOM     67  C   UNL A   1      44.911  27.579  36.195  1.00  0.00     0.002 A 
ATOM     68  C   UNL A   1      44.390  25.805  34.656  1.00  0.00     0.091 A 
ATOM     69  F   UNL A   1      43.316  26.279  32.628  1.00  0.00    -0.205 F 
ATOM     70  C   UNL A   1      45.025  26.247  35.818  1.00  0.00     0.022 A 
BRANCH  68  71
ATOM     71  S   UNL A   1      44.514  24.062  34.242  1.00  0.00     0.127 S 
ATOM     72  O   UNL A   1      43.117  23.644  34.313  1.00  0.00    -0.237 OA
ATOM     73  O   UNL A   1      45.080  24.111  32.894  1.00  0.00    -0.237 OA
ATOM     74  O   UNL A   1      45.410  23.493  35.241  1.00  0.00    -0.744 OA
ENDBRANCH  68  71
ENDBRANCH  50  64
BRANCH  51  75
ATOM     75  C   UNL A   1      42.681  25.148  26.353  1.00  0.00     0.023 A 
ATOM     76  C   UNL A   1      43.579  24.767  25.339  1.00  0.00     0.012 A 
ATOM     77  C   UNL A   1      41.768  24.175  26.831  1.00  0.00     0.148 A 
ATOM     78  C   UNL A   1      43.582  23.460  24.834  1.00  0.00     0.002 A 
ATOM     79  C   UNL A   1      41.760  22.884  26.312  1.00  0.00     0.091 A 
ATOM     80  F   UNL A   1      40.964  24.491  27.856  1.00  0.00    -0.205 F 
ATOM     81  C   UNL A   1      42.677  22.520  25.320  1.00  0.00     0.022 A 
BRANCH  79  82
ATOM     82  S   UNL A   1      40.609  21.624  26.887  1.00  0.00     0.127 S 
ATOM     83  O   UNL A   1      39.314  22.204  26.532  1.00  0.00    -0.237 OA
ATOM     84  O   UNL A   1      40.996  20.465  26.090  1.00  0.00    -0.237 OA
ATOM     85  O   UNL A   1      40.827  21.505  28.326  1.00  0.00    -0.744 OA
ENDBRANCH  79  82
ENDBRANCH  51  75
BRANCH  63  86
ATOM     86  C   UNL A   1      45.290  30.567  28.190  1.00  0.00     0.023 A 
ATOM     87  C   UNL A   1      44.156  31.082  27.524  1.00  0.00     0.012 A 
ATOM     88  C   UNL A   1      46.545  31.140  27.919  1.00  0.00     0.148 A 
ATOM     89  C   UNL A   1      44.272  32.123  26.599  1.00  0.00     0.002 A 
ATOM     90  C   UNL A   1      46.651  32.207  27.031  1.00  0.00     0.091 A 
ATOM     91  F   UNL A   1      47.616  30.655  28.565  1.00  0.00    -0.205 F 
ATOM     92  C   UNL A   1      45.517  32.695  26.363  1.00  0.00     0.022 A 
BRANCH  90  93
ATOM     93  S   UNL A   1      48.202  33.073  26.781  1.00  0.00     0.127 S 
ATOM     94  O   UNL A   1      48.442  33.658  28.099  1.00  0.00    -0.237 OA
ATOM     95  O   UNL A   1      49.115  31.989  26.418  1.00  0.00    -0.237 OA
ATOM     96  O   UNL A   1      47.958  34.028  25.705  1.00  0.00    -0.744 OA
ENDBRANCH  90  93
ENDBRANCH  63  86
ENDBRANCH  37  38
ENDBRANCH  29  32
ENDBRANCH  27  28
ENDBRANCH  26  27
ENDBRANCH   1  26
TORSDOF 17
ENDMDL
MODEL 3
REMARK VINA RESULT:     -12.4      3.540      7.645
REMARK SMILES C[C@@H]1C(C(=O)NCCCCCCNC(=O)c2ccc(-c3c4nc(c(-c5cccc(S(=O)(=O)[O-])c5F)c5ccc([nH]5)c(-c5cccc(S(=O)(=O)[O-])c5F)c5nc(c(-c6cccc(S(=O)(=O)[O-])c6F)c6ccc3[nH]6)C=C5)C=C4)cc2)=NC2=C1C(=O)C[C@H](c1ccccc1)C2
REMARK SMILES IDX 10 1 9 2 8 3 7 4 6 5 4 6 5 7 3 9 1 10 2 11 81 12 79 13 80 14
REMARK SMILES IDX 82 15 92 16 83 17 84 18 85 19 86 20 87 21 91 22 88 23 90 24
REMARK SMILES IDX 89 25 11 26 12 27 13 28 14 29 15 31 16 32 17 33 78 34 18 35
REMARK SMILES IDX 77 36 19 37 20 38 21 39 71 40 22 41 76 42 70 43 72 44 23 45
REMARK SMILES IDX 75 46 69 47 68 48 24 50 56 51 36 52 55 53 37 54 40 55 54 56
REMARK SMILES IDX 73 57 38 58 39 59 53 61 74 62 41 63 25 64 26 65 34 66 27 67
REMARK SMILES IDX 29 68 35 69 28 70 30 71 31 72 32 73 33 74 57 75 58 76 66 77
REMARK SMILES IDX 59 78 61 79 67 80 60 81 62 82 63 83 64 84 65 85 42 86 43 87
REMARK SMILES IDX 51 88 44 89 46 90 52 91 45 92 47 93 48 94 49 95 50 96
REMARK H PARENT 6 8 13 30 72 49 40 60
REMARK Flexibility Score: inf
ROOT
ATOM      1  C   UNL A   1      32.256  29.330  27.211  1.00  0.00     0.002 C 
ENDROOT
BRANCH   1   2
ATOM      2  C   UNL A   1      31.842  27.877  26.954  1.00  0.00     0.002 C 
BRANCH   2   3
ATOM      3  C   UNL A   1      32.307  27.172  25.680  1.00  0.00     0.021 C 
BRANCH   3   4
ATOM      4  C   UNL A   1      33.574  26.318  25.684  1.00  0.00     0.116 C 
BRANCH   4   5
ATOM      5  N   UNL A   1      34.172  25.955  24.412  1.00  0.00    -0.351 N 
ATOM      6  C   UNL A   1      33.702  25.063  23.456  1.00  0.00     0.266 C 
ATOM      7  O   UNL A   1      34.138  25.118  22.309  1.00  0.00    -0.268 OA
ATOM      8  H   UNL A   1      35.024  26.400  24.199  1.00  0.00     0.163 HD
BRANCH   6   9
ATOM      9  C   UNL A   1      32.751  23.924  23.828  1.00  0.00     0.113 C 
ATOM     10  C   UNL A   1      30.274  24.078  23.495  1.00  0.00     0.020 C 
ATOM     11  C   UNL A   1      31.418  24.140  24.499  1.00  0.00     0.076 C 
ATOM     12  C   UNL A   1      31.552  22.870  25.265  1.00  0.00     0.026 C 
ATOM     13  N   UNL A   1      33.080  22.665  23.655  1.00  0.00    -0.251 NA
ATOM     14  C   UNL A   1      32.340  22.008  24.619  1.00  0.00     0.049 C 
ATOM     15  C   UNL A   1      31.628  22.840  26.738  1.00  0.00     0.161 C 
ATOM     16  C   UNL A   1      32.874  20.799  25.330  1.00  0.00     0.065 C 
ATOM     17  O   UNL A   1      30.756  23.434  27.363  1.00  0.00    -0.294 OA
ATOM     18  C   UNL A   1      32.858  22.187  27.408  1.00  0.00     0.089 C 
ATOM     19  C   UNL A   1      33.769  21.303  26.481  1.00  0.00     0.033 C 
BRANCH  19  20
ATOM     20  C   UNL A   1      35.088  21.925  25.968  1.00  0.00    -0.044 A 
ATOM     21  C   UNL A   1      35.457  23.245  26.317  1.00  0.00     0.004 A 
ATOM     22  C   UNL A   1      35.967  21.233  25.126  1.00  0.00     0.004 A 
ATOM     23  C   UNL A   1      36.700  23.786  25.983  1.00  0.00     0.000 A 
ATOM     24  C   UNL A   1      37.206  21.785  24.765  1.00  0.00     0.000 A 
ATOM     25  C   UNL A   1      37.586  23.046  25.218  1.00  0.00     0.000 A 
ENDBRANCH  19  20
ENDBRANCH   6   9
ENDBRANCH   4   5
ENDBRANCH   3   4
ENDBRANCH   2   3
ENDBRANCH   1   2
BRANCH   1  26
ATOM     26  C   UNL A   1      33.462  29.902  26.457  1.00  0.00     0.021 C 
BRANCH  26  27
ATOM     27  C   UNL A   1      34.646  30.315  27.318  1.00  0.00     0.116 C 
BRANCH  27  28
ATOM     28  N   UNL A   1      34.393  31.479  28.173  1.00  0.00    -0.352 N 
ATOM     29  C   UNL A   1      34.958  31.760  29.408  1.00  0.00     0.251 C 
ATOM     30  H   UNL A   1      33.746  32.138  27.830  1.00  0.00     0.163 HD
ATOM     31  O   UNL A   1      34.435  32.555  30.178  1.00  0.00    -0.269 OA
BRANCH  29  32
ATOM     32  C   UNL A   1      36.211  31.074  29.777  1.00  0.00     0.039 A 
ATOM     33  C   UNL A   1      36.259  29.707  30.073  1.00  0.00     0.014 A 
ATOM     34  C   UNL A   1      37.370  31.839  29.769  1.00  0.00     0.014 A 
ATOM     35  C   UNL A   1      37.501  29.105  30.274  1.00  0.00     0.010 A 
ATOM     36  C   UNL A   1      38.586  31.214  29.764  1.00  0.00     0.010 A 
ATOM     37  C   UNL A   1      38.663  29.866  30.101  1.00  0.00    -0.014 A 
BRANCH  37  38
ATOM     38  C   UNL A   1      39.994  29.282  30.211  1.00  0.00     0.031 A 
ATOM     39  C   UNL A   1      40.563  29.201  31.585  1.00  0.00     0.074 A 
ATOM     40  C   UNL A   1      40.546  28.604  29.179  1.00  0.00     0.049 A 
ATOM     41  N   UNL A   1      41.639  29.765  32.026  1.00  0.00    -0.248 NA
ATOM     42  C   UNL A   1      39.798  28.489  32.620  1.00  0.00     0.031 C 
ATOM     43  C   UNL A   1      39.946  28.310  27.867  1.00  0.00     0.029 A 
ATOM     44  N   UNL A   1      41.677  27.852  29.162  1.00  0.00    -0.354 N 
ATOM     45  C   UNL A   1      41.810  29.295  33.328  1.00  0.00     0.074 A 
ATOM     46  C   UNL A   1      40.561  28.681  33.698  1.00  0.00     0.031 C 
ATOM     47  C   UNL A   1      40.547  27.228  27.335  1.00  0.00     0.029 A 
ATOM     48  C   UNL A   1      41.682  26.880  28.165  1.00  0.00     0.049 A 
ATOM     49  H   UNL A   1      42.422  27.982  29.792  1.00  0.00     0.167 HD
ATOM     50  C   UNL A   1      43.041  29.234  33.910  1.00  0.00     0.034 A 
ATOM     51  C   UNL A   1      42.519  25.820  28.075  1.00  0.00     0.034 A 
ATOM     52  C   UNL A   1      44.023  29.969  33.154  1.00  0.00     0.049 A 
ATOM     53  C   UNL A   1      43.720  26.151  28.879  1.00  0.00     0.074 A 
ATOM     54  C   UNL A   1      44.142  31.272  32.712  1.00  0.00     0.029 A 
ATOM     55  N   UNL A   1      44.911  29.238  32.400  1.00  0.00    -0.354 N 
ATOM     56  N   UNL A   1      44.533  27.130  28.586  1.00  0.00    -0.248 NA
ATOM     57  C   UNL A   1      43.767  25.692  30.258  1.00  0.00     0.031 C 
ATOM     58  C   UNL A   1      44.690  31.157  31.400  1.00  0.00     0.029 A 
ATOM     59  C   UNL A   1      44.935  29.804  31.153  1.00  0.00     0.049 A 
ATOM     60  H   UNL A   1      45.430  28.457  32.699  1.00  0.00     0.167 HD
ATOM     61  C   UNL A   1      44.833  27.711  29.813  1.00  0.00     0.074 A 
ATOM     62  C   UNL A   1      44.431  26.715  30.807  1.00  0.00     0.031 C 
ATOM     63  C   UNL A   1      45.089  29.049  29.928  1.00  0.00     0.034 A 
BRANCH  50  64
ATOM     64  C   UNL A   1      43.468  28.236  34.962  1.00  0.00     0.023 A 
ATOM     65  C   UNL A   1      44.147  28.739  36.097  1.00  0.00     0.012 A 
ATOM     66  C   UNL A   1      43.492  26.835  34.775  1.00  0.00     0.148 A 
ATOM     67  C   UNL A   1      44.859  27.902  36.963  1.00  0.00     0.002 A 
ATOM     68  C   UNL A   1      44.131  25.999  35.685  1.00  0.00     0.091 A 
ATOM     69  F   UNL A   1      43.023  26.304  33.642  1.00  0.00    -0.205 F 
ATOM     70  C   UNL A   1      44.845  26.528  36.761  1.00  0.00     0.022 A 
BRANCH  68  71
ATOM     71  S   UNL A   1      44.090  24.213  35.499  1.00  0.00     0.127 S 
ATOM     72  O   UNL A   1      44.803  23.778  36.697  1.00  0.00    -0.237 OA
ATOM     73  O   UNL A   1      42.653  23.941  35.499  1.00  0.00    -0.237 OA
ATOM     74  O   UNL A   1      44.745  23.946  34.225  1.00  0.00    -0.744 OA
ENDBRANCH  68  71
ENDBRANCH  50  64
BRANCH  51  75
ATOM     75  C   UNL A   1      42.233  24.469  27.542  1.00  0.00     0.023 A 
ATOM     76  C   UNL A   1      40.935  23.934  27.641  1.00  0.00     0.012 A 
ATOM     77  C   UNL A   1      43.172  23.788  26.727  1.00  0.00     0.148 A 
ATOM     78  C   UNL A   1      40.578  22.776  26.938  1.00  0.00     0.002 A 
ATOM     79  C   UNL A   1      42.819  22.626  26.047  1.00  0.00     0.091 A 
ATOM     80  F   UNL A   1      44.387  24.327  26.549  1.00  0.00    -0.205 F 
ATOM     81  C   UNL A   1      41.516  22.125  26.140  1.00  0.00     0.022 A 
BRANCH  79  82
ATOM     82  S   UNL A   1      43.986  21.728  25.009  1.00  0.00     0.127 S 
ATOM     83  O   UNL A   1      45.228  21.841  25.773  1.00  0.00    -0.237 OA
ATOM     84  O   UNL A   1      43.408  20.389  24.982  1.00  0.00    -0.237 OA
ATOM     85  O   UNL A   1      44.014  22.433  23.730  1.00  0.00    -0.744 OA
ENDBRANCH  79  82
ENDBRANCH  51  75
BRANCH  63  86
ATOM     86  C   UNL A   1      45.254  29.869  28.668  1.00  0.00     0.023 A 
ATOM     87  C   UNL A   1      44.146  30.321  27.920  1.00  0.00     0.012 A 
ATOM     88  C   UNL A   1      46.529  30.372  28.351  1.00  0.00     0.148 A 
ATOM     89  C   UNL A   1      44.304  31.232  26.872  1.00  0.00     0.002 A 
ATOM     90  C   UNL A   1      46.677  31.313  27.337  1.00  0.00     0.091 A 
ATOM     91  F   UNL A   1      47.576  29.948  29.075  1.00  0.00    -0.205 F 
ATOM     92  C   UNL A   1      45.567  31.739  26.589  1.00  0.00     0.022 A 
BRANCH  90  93
ATOM     93  S   UNL A   1      48.254  32.104  27.009  1.00  0.00     0.127 S 
ATOM     94  O   UNL A   1      49.060  30.987  26.520  1.00  0.00    -0.237 OA
ATOM     95  O   UNL A   1      47.904  33.097  25.992  1.00  0.00    -0.237 OA
ATOM     96  O   UNL A   1      48.684  32.681  28.278  1.00  0.00    -0.744 OA
ENDBRANCH  90  93
ENDBRANCH  63  86
ENDBRANCH  37  38
ENDBRANCH  29  32
ENDBRANCH  27  28
ENDBRANCH  26  27
ENDBRANCH   1  26
TORSDOF 17
ENDMDL
