MODEL 1
REMARK VINA RESULT:     -11.7      0.000      0.000
REMARK SMILES O=C(NCCCCCCNC(=O)c1cc(NC(=S)NC(=O)c2ccccc2F)ccc1Cl)c1ccc(-c2c3nc(c(-c4cccc(S(=O)(=O)[O-])c4F)c4ccc([nH]4)c(-c4cccc(S(=O)(=O)[O-])c4F)c4nc(c(-c5cccc(S(=O)(=O)[O-])c5F)c5ccc2[nH]5)C=C4)C=C3)cc1
REMARK SMILES IDX 7 1 6 2 5 3 4 4 3 5 1 6 2 7 33 9 34 10 95 11 35 12 94 13
REMARK SMILES IDX 36 14 37 15 38 16 88 17 39 18 93 19 87 20 89 21 40 22 92 23
REMARK SMILES IDX 86 24 85 25 41 27 73 28 53 29 72 30 54 31 57 32 71 33 90 34
REMARK SMILES IDX 55 35 56 36 70 38 91 39 58 40 42 41 43 42 51 43 44 44 46 45
REMARK SMILES IDX 52 46 45 47 47 48 48 49 49 50 50 51 74 52 75 53 83 54 76 55
REMARK SMILES IDX 78 56 84 57 77 58 79 59 80 60 81 61 82 62 59 63 60 64 68 65
REMARK SMILES IDX 61 66 63 67 69 68 62 69 64 70 65 71 66 72 67 73 8 74 9 75
REMARK SMILES IDX 10 76 11 77 12 79 13 80 14 81 31 82 15 83 30 84 32 85 29 86
REMARK SMILES IDX 16 87 17 89 18 90 19 91 20 92 21 94 22 95 23 96 27 97 24 98
REMARK SMILES IDX 26 99 28 100 25 101
REMARK H PARENT 3 8 89 26 57 37 10 78 16 88 19 93
REMARK Flexibility Score: inf
ROOT
ATOM      1  C   UNL A   1      34.323  24.325  23.093  1.00  0.00     0.002 C 
ENDROOT
BRANCH   1   2
ATOM      2  C   UNL A   1      35.139  23.030  23.149  1.00  0.00     0.002 C 
BRANCH   2   3
ATOM      3  C   UNL A   1      36.642  23.178  23.365  1.00  0.00     0.021 C 
BRANCH   3   4
ATOM      4  C   UNL A   1      37.067  23.525  24.783  1.00  0.00     0.116 C 
BRANCH   4   5
ATOM      5  N   UNL A   1      37.967  22.543  25.364  1.00  0.00    -0.352 N 
ATOM      6  O   UNL A   1      39.792  21.803  26.466  1.00  0.00    -0.269 OA
ATOM      7  C   UNL A   1      39.057  22.743  26.182  1.00  0.00     0.251 C 
ATOM      8  H   UNL A   1      37.770  21.604  25.143  1.00  0.00     0.163 HD
BRANCH   7   9
ATOM      9  C   UNL A   1      39.350  24.106  26.678  1.00  0.00     0.039 A 
ATOM     10  C   UNL A   1      39.982  25.037  25.853  1.00  0.00     0.014 A 
ATOM     11  C   UNL A   1      39.032  24.440  27.996  1.00  0.00     0.014 A 
ATOM     12  C   UNL A   1      40.466  26.221  26.396  1.00  0.00     0.010 A 
ATOM     13  C   UNL A   1      39.425  25.681  28.510  1.00  0.00     0.010 A 
ATOM     14  C   UNL A   1      40.188  26.563  27.730  1.00  0.00    -0.014 A 
BRANCH  14  15
ATOM     15  C   UNL A   1      40.677  27.863  28.264  1.00  0.00     0.031 A 
ATOM     16  C   UNL A   1      42.144  28.209  28.269  1.00  0.00     0.074 A 
ATOM     17  C   UNL A   1      39.776  28.752  28.729  1.00  0.00     0.049 A 
ATOM     18  N   UNL A   1      42.723  29.310  28.674  1.00  0.00    -0.248 NA
ATOM     19  C   UNL A   1      43.084  27.194  27.763  1.00  0.00     0.031 C 
ATOM     20  C   UNL A   1      38.330  28.517  28.809  1.00  0.00     0.029 A 
ATOM     21  N   UNL A   1      39.929  30.025  29.216  1.00  0.00    -0.354 N 
ATOM     22  C   UNL A   1      44.089  29.110  28.511  1.00  0.00     0.074 A 
ATOM     23  C   UNL A   1      44.258  27.776  27.978  1.00  0.00     0.031 C 
ATOM     24  C   UNL A   1      37.730  29.619  29.280  1.00  0.00     0.029 A 
ATOM     25  C   UNL A   1      38.746  30.614  29.600  1.00  0.00     0.049 A 
ATOM     26  H   UNL A   1      40.803  30.474  29.285  1.00  0.00     0.167 HD
ATOM     27  C   UNL A   1      45.106  29.967  28.766  1.00  0.00     0.034 A 
ATOM     28  C   UNL A   1      38.501  31.810  30.168  1.00  0.00     0.034 A 
ATOM     29  C   UNL A   1      44.928  31.310  29.252  1.00  0.00     0.049 A 
ATOM     30  C   UNL A   1      39.651  32.738  30.435  1.00  0.00     0.074 A 
ATOM     31  C   UNL A   1      45.896  32.276  29.467  1.00  0.00     0.029 A 
ATOM     32  N   UNL A   1      43.713  31.874  29.608  1.00  0.00    -0.354 N 
ATOM     33  N   UNL A   1      40.919  32.577  30.152  1.00  0.00    -0.248 NA
ATOM     34  C   UNL A   1      39.337  34.021  31.080  1.00  0.00     0.031 C 
ATOM     35  C   UNL A   1      45.271  33.412  29.986  1.00  0.00     0.029 A 
ATOM     36  C   UNL A   1      43.910  33.167  30.061  1.00  0.00     0.049 A 
ATOM     37  H   UNL A   1      42.840  31.422  29.547  1.00  0.00     0.167 HD
ATOM     38  C   UNL A   1      41.554  33.739  30.569  1.00  0.00     0.074 A 
ATOM     39  C   UNL A   1      40.525  34.612  31.096  1.00  0.00     0.031 C 
ATOM     40  C   UNL A   1      42.873  34.046  30.539  1.00  0.00     0.034 A 
BRANCH  27  41
ATOM     41  C   UNL A   1      46.517  29.517  28.484  1.00  0.00     0.023 A 
ATOM     42  C   UNL A   1      47.119  29.846  27.254  1.00  0.00     0.012 A 
ATOM     43  C   UNL A   1      47.288  28.895  29.487  1.00  0.00     0.148 A 
ATOM     44  C   UNL A   1      48.462  29.553  27.019  1.00  0.00     0.002 A 
ATOM     45  C   UNL A   1      48.637  28.646  29.263  1.00  0.00     0.091 A 
ATOM     46  F   UNL A   1      46.693  28.580  30.647  1.00  0.00    -0.205 F 
ATOM     47  C   UNL A   1      49.223  28.967  28.026  1.00  0.00     0.022 A 
BRANCH  45  48
ATOM     48  S   UNL A   1      49.729  27.978  30.524  1.00  0.00     0.127 S 
ATOM     49  O   UNL A   1      49.583  28.965  31.593  1.00  0.00    -0.237 OA
ATOM     50  O   UNL A   1      49.115  26.681  30.803  1.00  0.00    -0.237 OA
ATOM     51  O   UNL A   1      51.053  27.912  29.920  1.00  0.00    -0.744 OA
ENDBRANCH  45  48
ENDBRANCH  27  41
BRANCH  28  52
ATOM     52  C   UNL A   1      37.098  32.196  30.493  1.00  0.00     0.023 A 
ATOM     53  C   UNL A   1      36.611  32.009  31.800  1.00  0.00     0.012 A 
ATOM     54  C   UNL A   1      36.267  32.802  29.530  1.00  0.00     0.148 A 
ATOM     55  C   UNL A   1      35.314  32.399  32.137  1.00  0.00     0.002 A 
ATOM     56  C   UNL A   1      35.001  33.246  29.888  1.00  0.00     0.091 A 
ATOM     57  F   UNL A   1      36.746  32.958  28.287  1.00  0.00    -0.205 F 
ATOM     58  C   UNL A   1      34.515  33.029  31.186  1.00  0.00     0.022 A 
BRANCH  56  59
ATOM     59  S   UNL A   1      33.964  34.201  28.774  1.00  0.00     0.127 S 
ATOM     60  O   UNL A   1      33.594  33.199  27.779  1.00  0.00    -0.237 OA
ATOM     61  O   UNL A   1      32.879  34.621  29.661  1.00  0.00    -0.237 OA
ATOM     62  O   UNL A   1      34.802  35.291  28.293  1.00  0.00    -0.744 OA
ENDBRANCH  56  59
ENDBRANCH  28  52
BRANCH  40  63
ATOM     63  C   UNL A   1      43.303  35.384  31.079  1.00  0.00     0.023 A 
ATOM     64  C   UNL A   1      43.639  35.507  32.441  1.00  0.00     0.012 A 
ATOM     65  C   UNL A   1      43.502  36.477  30.213  1.00  0.00     0.148 A 
ATOM     66  C   UNL A   1      44.154  36.704  32.937  1.00  0.00     0.002 A 
ATOM     67  C   UNL A   1      44.064  37.649  30.703  1.00  0.00     0.091 A 
ATOM     68  F   UNL A   1      43.163  36.339  28.922  1.00  0.00    -0.205 F 
ATOM     69  C   UNL A   1      44.381  37.768  32.067  1.00  0.00     0.022 A 
BRANCH  67  70
ATOM     70  S   UNL A   1      44.492  39.036  29.644  1.00  0.00     0.127 S 
ATOM     71  O   UNL A   1      45.455  38.425  28.729  1.00  0.00    -0.237 OA
ATOM     72  O   UNL A   1      43.203  39.370  29.038  1.00  0.00    -0.237 OA
ATOM     73  O   UNL A   1      45.038  40.062  30.520  1.00  0.00    -0.744 OA
ENDBRANCH  67  70
ENDBRANCH  40  63
ENDBRANCH  14  15
ENDBRANCH   7   9
ENDBRANCH   4   5
ENDBRANCH   3   4
ENDBRANCH   2   3
ENDBRANCH   1   2
BRANCH   1  74
ATOM     74  C   UNL A   1      33.042  24.311  22.253  1.00  0.00     0.021 C 
BRANCH  74  75
ATOM     75  C   UNL A   1      32.988  25.289  21.087  1.00  0.00     0.116 C 
BRANCH  75  76
ATOM     76  N   UNL A   1      31.790  26.111  21.040  1.00  0.00    -0.352 N 
ATOM     77  C   UNL A   1      31.248  26.944  21.996  1.00  0.00     0.252 C 
ATOM     78  H   UNL A   1      31.288  26.067  20.194  1.00  0.00     0.163 HD
ATOM     79  O   UNL A   1      30.513  27.848  21.610  1.00  0.00    -0.269 OA
BRANCH  77  80
ATOM     80  C   UNL A   1      31.587  26.707  23.483  1.00  0.00     0.060 A 
ATOM     81  C   UNL A   1      30.832  25.617  25.009  1.00  0.00     0.041 A 
ATOM     82  C   UNL A   1      33.035  27.717  23.915  1.00  0.00     0.053 A 
ATOM     83  C   UNL A   1      31.592  25.501  26.533  1.00  0.00     0.041 A 
ATOM     84  C   UNL A   1      33.682  27.603  25.576  1.00  0.00     0.023 A 
ATOM     85  Cl  UNL A   1      33.677  28.947  22.896  1.00  0.00    -0.083 Cl
ATOM     86  C   UNL A   1      32.984  26.520  26.828  1.00  0.00     0.028 A 
BRANCH  83  87
ATOM     87  N   UNL A   1      31.308  24.253  27.113  1.00  0.00    -0.332 N 
ATOM     88  H   UNL A   1      31.550  24.175  28.064  1.00  0.00     0.169 HD
BRANCH  87  89
ATOM     89  C   UNL A   1      30.743  23.119  26.565  1.00  0.00     0.177 C 
ATOM     90  S   UNL A   1      29.279  22.631  27.241  1.00  0.00    -0.040 S 
BRANCH  89  91
ATOM     91  N   UNL A   1      31.233  22.282  25.505  1.00  0.00    -0.299 N 
ATOM     92  C   UNL A   1      32.040  21.156  24.917  1.00  0.00     0.260 C 
ATOM     93  H   UNL A   1      30.789  22.661  24.713  1.00  0.00     0.172 HD
ATOM     94  O   UNL A   1      32.157  21.084  23.695  1.00  0.00    -0.269 OA
BRANCH  92  95
ATOM     95  C   UNL A   1      32.796  20.162  25.791  1.00  0.00     0.075 A 
ATOM     96  C   UNL A   1      32.453  18.467  25.270  1.00  0.00     0.017 A 
ATOM     97  C   UNL A   1      34.397  20.833  25.852  1.00  0.00     0.135 A 
ATOM     98  C   UNL A   1      33.693  17.406  24.533  1.00  0.00     0.001 A 
ATOM     99  C   UNL A   1      35.728  19.911  25.139  1.00  0.00     0.040 A 
ATOM    100  F   UNL A   1      34.581  22.139  26.091  1.00  0.00    -0.206 F 
ATOM    101  C   UNL A   1      35.368  18.074  24.353  1.00  0.00     0.003 A 
ENDBRANCH  92  95
ENDBRANCH  89  91
ENDBRANCH  87  89
ENDBRANCH  83  87
ENDBRANCH  77  80
ENDBRANCH  75  76
ENDBRANCH  74  75
ENDBRANCH   1  74
TORSDOF 20
ENDMDL
MODEL 2
REMARK VINA RESULT:     -11.3      0.312      7.515
REMARK SMILES O=C(NCCCCCCNC(=O)c1cc(NC(=S)NC(=O)c2ccccc2F)ccc1Cl)c1ccc(-c2c3nc(c(-c4cccc(S(=O)(=O)[O-])c4F)c4ccc([nH]4)c(-c4cccc(S(=O)(=O)[O-])c4F)c4nc(c(-c5cccc(S(=O)(=O)[O-])c5F)c5ccc2[nH]5)C=C4)C=C3)cc1
REMARK SMILES IDX 7 1 6 2 5 3 4 4 3 5 1 6 2 7 33 9 34 10 95 11 35 12 94 13
REMARK SMILES IDX 36 14 37 15 38 16 88 17 39 18 93 19 87 20 89 21 40 22 92 23
REMARK SMILES IDX 86 24 85 25 41 27 73 28 53 29 72 30 54 31 57 32 71 33 90 34
REMARK SMILES IDX 55 35 56 36 70 38 91 39 58 40 42 41 43 42 51 43 44 44 46 45
REMARK SMILES IDX 52 46 45 47 47 48 48 49 49 50 50 51 74 52 75 53 83 54 76 55
REMARK SMILES IDX 78 56 84 57 77 58 79 59 80 60 81 61 82 62 59 63 60 64 68 65
REMARK SMILES IDX 61 66 63 67 69 68 62 69 64 70 65 71 66 72 67 73 8 74 9 75
REMARK SMILES IDX 10 76 11 77 12 79 13 80 14 81 31 82 15 83 30 84 32 85 29 86
REMARK SMILES IDX 16 87 17 89 18 90 19 91 20 92 21 94 22 95 23 96 27 97 24 98
REMARK SMILES IDX 26 99 28 100 25 101
REMARK H PARENT 3 8 89 26 57 37 10 78 16 88 19 93
REMARK Flexibility Score: inf
ROOT
ATOM      1  C   UNL A   1      34.247  24.218  23.125  1.00  0.00     0.002 C 
ENDROOT
BRANCH   1   2
ATOM      2  C   UNL A   1      35.126  22.964  23.126  1.00  0.00     0.002 C 
BRANCH   2   3
ATOM      3  C   UNL A   1      36.621  23.176  23.346  1.00  0.00     0.021 C 
BRANCH   3   4
ATOM      4  C   UNL A   1      37.030  23.514  24.771  1.00  0.00     0.116 C 
BRANCH   4   5
ATOM      5  N   UNL A   1      37.950  22.545  25.343  1.00  0.00    -0.352 N 
ATOM      6  O   UNL A   1      39.794  21.833  26.432  1.00  0.00    -0.269 OA
ATOM      7  C   UNL A   1      39.042  22.761  26.155  1.00  0.00     0.251 C 
ATOM      8  H   UNL A   1      37.766  21.604  25.121  1.00  0.00     0.163 HD
BRANCH   7   9
ATOM      9  C   UNL A   1      39.317  24.127  26.652  1.00  0.00     0.039 A 
ATOM     10  C   UNL A   1      39.958  25.061  25.836  1.00  0.00     0.014 A 
ATOM     11  C   UNL A   1      38.972  24.463  27.963  1.00  0.00     0.014 A 
ATOM     12  C   UNL A   1      40.423  26.249  26.385  1.00  0.00     0.010 A 
ATOM     13  C   UNL A   1      39.346  25.709  28.481  1.00  0.00     0.010 A 
ATOM     14  C   UNL A   1      40.118  26.594  27.712  1.00  0.00    -0.014 A 
BRANCH  14  15
ATOM     15  C   UNL A   1      40.588  27.898  28.251  1.00  0.00     0.031 A 
ATOM     16  C   UNL A   1      39.625  28.904  28.827  1.00  0.00     0.074 A 
ATOM     17  C   UNL A   1      41.910  28.164  28.240  1.00  0.00     0.049 A 
ATOM     18  N   UNL A   1      39.883  30.071  29.359  1.00  0.00    -0.248 NA
ATOM     19  C   UNL A   1      38.192  28.566  28.800  1.00  0.00     0.031 C 
ATOM     20  C   UNL A   1      42.939  27.283  27.676  1.00  0.00     0.029 A 
ATOM     21  N   UNL A   1      42.621  29.238  28.714  1.00  0.00    -0.354 N 
ATOM     22  C   UNL A   1      38.651  30.624  29.692  1.00  0.00     0.074 A 
ATOM     23  C   UNL A   1      37.641  29.669  29.295  1.00  0.00     0.031 C 
ATOM     24  C   UNL A   1      44.145  27.833  27.868  1.00  0.00     0.029 A 
ATOM     25  C   UNL A   1      43.977  29.135  28.506  1.00  0.00     0.049 A 
ATOM     26  H   UNL A   1      42.200  30.008  29.159  1.00  0.00     0.167 HD
ATOM     27  C   UNL A   1      38.391  31.810  30.292  1.00  0.00     0.034 A 
ATOM     28  C   UNL A   1      44.978  29.996  28.772  1.00  0.00     0.034 A 
ATOM     29  C   UNL A   1      39.404  32.734  30.727  1.00  0.00     0.049 A 
ATOM     30  C   UNL A   1      44.655  31.302  29.439  1.00  0.00     0.074 A 
ATOM     31  C   UNL A   1      39.235  33.926  31.412  1.00  0.00     0.029 A 
ATOM     32  N   UNL A   1      40.764  32.583  30.516  1.00  0.00    -0.354 N 
ATOM     33  N   UNL A   1      43.496  31.744  29.861  1.00  0.00    -0.248 NA
ATOM     34  C   UNL A   1      45.776  32.220  29.686  1.00  0.00     0.031 C 
ATOM     35  C   UNL A   1      40.490  34.512  31.584  1.00  0.00     0.029 A 
ATOM     36  C   UNL A   1      41.445  33.670  31.038  1.00  0.00     0.049 A 
ATOM     37  H   UNL A   1      41.185  31.817  30.063  1.00  0.00     0.167 HD
ATOM     38  C   UNL A   1      43.748  32.983  30.437  1.00  0.00     0.074 A 
ATOM     39  C   UNL A   1      45.175  33.208  30.338  1.00  0.00     0.031 C 
ATOM     40  C   UNL A   1      42.872  33.862  30.977  1.00  0.00     0.034 A 
BRANCH  27  41
ATOM     41  C   UNL A   1      36.955  32.179  30.568  1.00  0.00     0.023 A 
ATOM     42  C   UNL A   1      36.422  31.978  31.856  1.00  0.00     0.012 A 
ATOM     43  C   UNL A   1      36.184  32.849  29.596  1.00  0.00     0.148 A 
ATOM     44  C   UNL A   1      35.139  32.426  32.171  1.00  0.00     0.002 A 
ATOM     45  C   UNL A   1      34.925  33.333  29.931  1.00  0.00     0.091 A 
ATOM     46  F   UNL A   1      36.706  33.020  28.373  1.00  0.00    -0.205 F 
ATOM     47  C   UNL A   1      34.398  33.115  31.215  1.00  0.00     0.022 A 
BRANCH  45  48
ATOM     48  S   UNL A   1      33.924  34.311  28.804  1.00  0.00     0.127 S 
ATOM     49  O   UNL A   1      33.568  33.319  27.790  1.00  0.00    -0.237 OA
ATOM     50  O   UNL A   1      32.816  34.728  29.663  1.00  0.00    -0.237 OA
ATOM     51  O   UNL A   1      34.779  35.393  28.337  1.00  0.00    -0.744 OA
ENDBRANCH  45  48
ENDBRANCH  27  41
BRANCH  28  52
ATOM     52  C   UNL A   1      46.379  29.626  28.426  1.00  0.00     0.023 A 
ATOM     53  C   UNL A   1      46.919  30.025  27.188  1.00  0.00     0.012 A 
ATOM     54  C   UNL A   1      47.197  28.933  29.340  1.00  0.00     0.148 A 
ATOM     55  C   UNL A   1      48.241  29.722  26.860  1.00  0.00     0.002 A 
ATOM     56  C   UNL A   1      48.530  28.692  29.033  1.00  0.00     0.091 A 
ATOM     57  F   UNL A   1      46.660  28.549  30.507  1.00  0.00    -0.205 F 
ATOM     58  C   UNL A   1      49.049  29.069  27.786  1.00  0.00     0.022 A 
BRANCH  56  59
ATOM     59  S   UNL A   1      49.681  27.994  30.223  1.00  0.00     0.127 S 
ATOM     60  O   UNL A   1      50.572  27.224  29.360  1.00  0.00    -0.237 OA
ATOM     61  O   UNL A   1      50.274  29.197  30.807  1.00  0.00    -0.237 OA
ATOM     62  O   UNL A   1      48.868  27.216  31.148  1.00  0.00    -0.744 OA
ENDBRANCH  56  59
ENDBRANCH  28  52
BRANCH  40  63
ATOM     63  C   UNL A   1      43.412  35.159  31.521  1.00  0.00     0.023 A 
ATOM     64  C   UNL A   1      43.928  35.200  32.831  1.00  0.00     0.012 A 
ATOM     65  C   UNL A   1      43.528  36.292  30.693  1.00  0.00     0.148 A 
ATOM     66  C   UNL A   1      44.541  36.355  33.313  1.00  0.00     0.002 A 
ATOM     67  C   UNL A   1      44.186  37.422  31.162  1.00  0.00     0.091 A 
ATOM     68  F   UNL A   1      43.018  36.233  29.454  1.00  0.00    -0.205 F 
ATOM     69  C   UNL A   1      44.684  37.459  32.475  1.00  0.00     0.022 A 
BRANCH  67  70
ATOM     70  S   UNL A   1      44.513  38.853  30.126  1.00  0.00     0.127 S 
ATOM     71  O   UNL A   1      44.934  39.845  31.115  1.00  0.00    -0.237 OA
ATOM     72  O   UNL A   1      45.584  38.366  29.258  1.00  0.00    -0.237 OA
ATOM     73  O   UNL A   1      43.263  39.154  29.444  1.00  0.00    -0.744 OA
ENDBRANCH  67  70
ENDBRANCH  40  63
ENDBRANCH  14  15
ENDBRANCH   7   9
ENDBRANCH   4   5
ENDBRANCH   3   4
ENDBRANCH   2   3
ENDBRANCH   1   2
BRANCH   1  74
ATOM     74  C   UNL A   1      33.023  24.216  22.204  1.00  0.00     0.021 C 
BRANCH  74  75
ATOM     75  C   UNL A   1      33.011  25.256  21.092  1.00  0.00     0.116 C 
BRANCH  75  76
ATOM     76  N   UNL A   1      31.818  26.085  21.050  1.00  0.00    -0.352 N 
ATOM     77  C   UNL A   1      31.285  26.920  22.009  1.00  0.00     0.252 C 
ATOM     78  H   UNL A   1      31.314  26.045  20.206  1.00  0.00     0.163 HD
ATOM     79  O   UNL A   1      30.553  27.830  21.626  1.00  0.00    -0.269 OA
BRANCH  77  80
ATOM     80  C   UNL A   1      31.626  26.679  23.494  1.00  0.00     0.060 A 
ATOM     81  C   UNL A   1      30.897  25.557  25.010  1.00  0.00     0.041 A 
ATOM     82  C   UNL A   1      33.046  27.725  23.939  1.00  0.00     0.053 A 
ATOM     83  C   UNL A   1      31.657  25.448  26.534  1.00  0.00     0.041 A 
ATOM     84  C   UNL A   1      33.692  27.614  25.601  1.00  0.00     0.023 A 
ATOM     85  Cl  UNL A   1      33.656  28.979  22.932  1.00  0.00    -0.083 Cl
ATOM     86  C   UNL A   1      33.021  26.501  26.841  1.00  0.00     0.028 A 
BRANCH  83  87
ATOM     87  N   UNL A   1      31.405  24.188  27.102  1.00  0.00    -0.332 N 
ATOM     88  H   UNL A   1      31.686  24.095  28.041  1.00  0.00     0.169 HD
BRANCH  87  89
ATOM     89  C   UNL A   1      30.827  23.059  26.558  1.00  0.00     0.177 C 
ATOM     90  S   UNL A   1      29.368  22.578  27.250  1.00  0.00    -0.040 S 
BRANCH  89  91
ATOM     91  N   UNL A   1      31.299  22.223  25.488  1.00  0.00    -0.299 N 
ATOM     92  C   UNL A   1      32.092  21.096  24.886  1.00  0.00     0.260 C 
ATOM     93  H   UNL A   1      30.846  22.607  24.703  1.00  0.00     0.172 HD
ATOM     94  O   UNL A   1      32.193  21.026  23.662  1.00  0.00    -0.269 OA
BRANCH  92  95
ATOM     95  C   UNL A   1      32.855  20.095  25.747  1.00  0.00     0.075 A 
ATOM     96  C   UNL A   1      32.461  18.402  25.257  1.00  0.00     0.017 A 
ATOM     97  C   UNL A   1      34.470  20.733  25.750  1.00  0.00     0.135 A 
ATOM     98  C   UNL A   1      33.654  17.308  24.493  1.00  0.00     0.001 A 
ATOM     99  C   UNL A   1      35.759  19.776  25.005  1.00  0.00     0.040 A 
ATOM    100  F   UNL A   1      34.689  22.037  25.968  1.00  0.00    -0.206 F 
ATOM    101  C   UNL A   1      35.337  17.939  24.252  1.00  0.00     0.003 A 
ENDBRANCH  92  95
ENDBRANCH  89  91
ENDBRANCH  87  89
ENDBRANCH  83  87
ENDBRANCH  77  80
ENDBRANCH  75  76
ENDBRANCH  74  75
ENDBRANCH   1  74
TORSDOF 20
ENDMDL
MODEL 3
REMARK VINA RESULT:     -11.2      1.793      2.435
REMARK SMILES O=C(NCCCCCCNC(=O)c1cc(NC(=S)NC(=O)c2ccccc2F)ccc1Cl)c1ccc(-c2c3nc(c(-c4cccc(S(=O)(=O)[O-])c4F)c4ccc([nH]4)c(-c4cccc(S(=O)(=O)[O-])c4F)c4nc(c(-c5cccc(S(=O)(=O)[O-])c5F)c5ccc2[nH]5)C=C4)C=C3)cc1
REMARK SMILES IDX 7 1 6 2 5 3 4 4 3 5 1 6 2 7 33 9 34 10 95 11 35 12 94 13
REMARK SMILES IDX 36 14 37 15 38 16 88 17 39 18 93 19 87 20 89 21 40 22 92 23
REMARK SMILES IDX 86 24 85 25 41 27 73 28 53 29 72 30 54 31 57 32 71 33 90 34
REMARK SMILES IDX 55 35 56 36 70 38 91 39 58 40 42 41 43 42 51 43 44 44 46 45
REMARK SMILES IDX 52 46 45 47 47 48 48 49 49 50 50 51 74 52 75 53 83 54 76 55
REMARK SMILES IDX 78 56 84 57 77 58 79 59 80 60 81 61 82 62 59 63 60 64 68 65
REMARK SMILES IDX 61 66 63 67 69 68 62 69 64 70 65 71 66 72 67 73 8 74 9 75
REMARK SMILES IDX 10 76 11 77 12 79 13 80 14 81 31 82 15 83 30 84 32 85 29 86
REMARK SMILES IDX 16 87 17 89 18 90 19 91 20 92 21 94 22 95 23 96 27 97 24 98
REMARK SMILES IDX 26 99 28 100 25 101
REMARK H PARENT 3 8 89 26 57 37 10 78 16 88 19 93
REMARK Flexibility Score: inf
ROOT
ATOM      1  C   UNL A   1      34.396  26.335  25.649  1.00  0.00     0.002 C 
ENDROOT
BRANCH   1   2
ATOM      2  C   UNL A   1      33.814  24.970  26.027  1.00  0.00     0.002 C 
BRANCH   2   3
ATOM      3  C   UNL A   1      34.758  23.775  25.939  1.00  0.00     0.021 C 
BRANCH   3   4
ATOM      4  C   UNL A   1      36.235  24.116  25.821  1.00  0.00     0.116 C 
BRANCH   4   5
ATOM      5  N   UNL A   1      37.095  22.947  25.877  1.00  0.00    -0.352 N 
ATOM      6  O   UNL A   1      39.030  21.808  26.110  1.00  0.00    -0.269 OA
ATOM      7  C   UNL A   1      38.415  22.859  26.260  1.00  0.00     0.251 C 
ATOM      8  H   UNL A   1      36.676  22.098  25.603  1.00  0.00     0.163 HD
BRANCH   7   9
ATOM      9  C   UNL A   1      39.090  24.054  26.815  1.00  0.00     0.039 A 
ATOM     10  C   UNL A   1      38.919  24.404  28.155  1.00  0.00     0.014 A 
ATOM     11  C   UNL A   1      39.863  24.858  25.974  1.00  0.00     0.014 A 
ATOM     12  C   UNL A   1      39.355  25.644  28.603  1.00  0.00     0.010 A 
ATOM     13  C   UNL A   1      40.395  26.058  26.460  1.00  0.00     0.010 A 
ATOM     14  C   UNL A   1      40.105  26.486  27.764  1.00  0.00    -0.014 A 
BRANCH  14  15
ATOM     15  C   UNL A   1      40.600  27.786  28.293  1.00  0.00     0.031 A 
ATOM     16  C   UNL A   1      42.070  28.116  28.317  1.00  0.00     0.074 A 
ATOM     17  C   UNL A   1      39.701  28.688  28.736  1.00  0.00     0.049 A 
ATOM     18  N   UNL A   1      42.655  29.215  28.720  1.00  0.00    -0.248 NA
ATOM     19  C   UNL A   1      43.006  27.087  27.834  1.00  0.00     0.031 C 
ATOM     20  C   UNL A   1      38.252  28.470  28.796  1.00  0.00     0.029 A 
ATOM     21  N   UNL A   1      39.861  29.965  29.214  1.00  0.00    -0.354 N 
ATOM     22  C   UNL A   1      44.021  28.998  28.581  1.00  0.00     0.074 A 
ATOM     23  C   UNL A   1      44.183  27.658  28.062  1.00  0.00     0.031 C 
ATOM     24  C   UNL A   1      37.656  29.582  29.247  1.00  0.00     0.029 A 
ATOM     25  C   UNL A   1      38.679  30.569  29.574  1.00  0.00     0.049 A 
ATOM     26  H   UNL A   1      40.738  30.404  29.292  1.00  0.00     0.167 HD
ATOM     27  C   UNL A   1      45.043  29.847  28.843  1.00  0.00     0.034 A 
ATOM     28  C   UNL A   1      38.437  31.773  30.127  1.00  0.00     0.034 A 
ATOM     29  C   UNL A   1      44.872  31.196  29.314  1.00  0.00     0.049 A 
ATOM     30  C   UNL A   1      39.593  32.691  30.404  1.00  0.00     0.074 A 
ATOM     31  C   UNL A   1      45.847  32.154  29.535  1.00  0.00     0.029 A 
ATOM     32  N   UNL A   1      43.658  31.776  29.646  1.00  0.00    -0.354 N 
ATOM     33  N   UNL A   1      40.864  32.514  30.141  1.00  0.00    -0.248 NA
ATOM     34  C   UNL A   1      39.283  33.984  31.032  1.00  0.00     0.031 C 
ATOM     35  C   UNL A   1      45.226  33.301  30.033  1.00  0.00     0.029 A 
ATOM     36  C   UNL A   1      43.862  33.071  30.090  1.00  0.00     0.049 A 
ATOM     37  H   UNL A   1      42.781  31.334  29.576  1.00  0.00     0.167 HD
ATOM     38  C   UNL A   1      41.505  33.674  30.557  1.00  0.00     0.074 A 
ATOM     39  C   UNL A   1      40.477  34.562  31.060  1.00  0.00     0.031 C 
ATOM     40  C   UNL A   1      42.827  33.965  30.544  1.00  0.00     0.034 A 
BRANCH  27  41
ATOM     41  C   UNL A   1      46.453  29.379  28.587  1.00  0.00     0.023 A 
ATOM     42  C   UNL A   1      47.302  29.104  29.677  1.00  0.00     0.012 A 
ATOM     43  C   UNL A   1      46.887  29.081  27.279  1.00  0.00     0.148 A 
ATOM     44  C   UNL A   1      48.565  28.550  29.471  1.00  0.00     0.002 A 
ATOM     45  C   UNL A   1      48.129  28.487  27.085  1.00  0.00     0.091 A 
ATOM     46  F   UNL A   1      46.068  29.361  26.255  1.00  0.00    -0.205 F 
ATOM     47  C   UNL A   1      48.972  28.229  28.179  1.00  0.00     0.022 A 
BRANCH  45  48
ATOM     48  S   UNL A   1      48.713  27.952  25.472  1.00  0.00     0.127 S 
ATOM     49  O   UNL A   1      49.988  28.662  25.370  1.00  0.00    -0.237 OA
ATOM     50  O   UNL A   1      48.834  26.506  25.656  1.00  0.00    -0.237 OA
ATOM     51  O   UNL A   1      47.696  28.366  24.515  1.00  0.00    -0.744 OA
ENDBRANCH  45  48
ENDBRANCH  27  41
BRANCH  28  52
ATOM     52  C   UNL A   1      37.035  32.177  30.428  1.00  0.00     0.023 A 
ATOM     53  C   UNL A   1      36.521  31.993  31.725  1.00  0.00     0.012 A 
ATOM     54  C   UNL A   1      36.229  32.796  29.451  1.00  0.00     0.148 A 
ATOM     55  C   UNL A   1      35.223  32.400  32.039  1.00  0.00     0.002 A 
ATOM     56  C   UNL A   1      34.962  33.256  29.787  1.00  0.00     0.091 A 
ATOM     57  F   UNL A   1      36.733  32.948  28.217  1.00  0.00    -0.205 F 
ATOM     58  C   UNL A   1      34.450  33.043  31.075  1.00  0.00     0.022 A 
BRANCH  56  59
ATOM     59  S   UNL A   1      33.959  34.227  28.656  1.00  0.00     0.127 S 
ATOM     60  O   UNL A   1      33.601  33.233  27.648  1.00  0.00    -0.237 OA
ATOM     61  O   UNL A   1      32.860  34.653  29.522  1.00  0.00    -0.237 OA
ATOM     62  O   UNL A   1      34.818  35.311  28.199  1.00  0.00    -0.744 OA
ENDBRANCH  56  59
ENDBRANCH  28  52
BRANCH  40  63
ATOM     63  C   UNL A   1      43.264  35.304  31.078  1.00  0.00     0.023 A 
ATOM     64  C   UNL A   1      43.662  35.417  32.424  1.00  0.00     0.012 A 
ATOM     65  C   UNL A   1      43.405  36.410  30.217  1.00  0.00     0.148 A 
ATOM     66  C   UNL A   1      44.183  36.616  32.909  1.00  0.00     0.002 A 
ATOM     67  C   UNL A   1      43.973  37.584  30.693  1.00  0.00     0.091 A 
ATOM     68  F   UNL A   1      43.007  36.281  28.942  1.00  0.00    -0.205 F 
ATOM     69  C   UNL A   1      44.354  37.693  32.041  1.00  0.00     0.022 A 
BRANCH  67  70
ATOM     70  S   UNL A   1      44.330  38.989  29.631  1.00  0.00     0.127 S 
ATOM     71  O   UNL A   1      42.987  39.429  29.258  1.00  0.00    -0.237 OA
ATOM     72  O   UNL A   1      45.037  39.890  30.540  1.00  0.00    -0.237 OA
ATOM     73  O   UNL A   1      45.137  38.472  28.534  1.00  0.00    -0.744 OA
ENDBRANCH  67  70
ENDBRANCH  40  63
ENDBRANCH  14  15
ENDBRANCH   7   9
ENDBRANCH   4   5
ENDBRANCH   3   4
ENDBRANCH   2   3
ENDBRANCH   1   2
BRANCH   1  74
ATOM     74  C   UNL A   1      34.037  27.524  26.545  1.00  0.00     0.021 C 
BRANCH  74  75
ATOM     75  C   UNL A   1      33.361  28.706  25.862  1.00  0.00     0.116 C 
BRANCH  75  76
ATOM     76  N   UNL A   1      33.896  29.036  24.551  1.00  0.00    -0.352 N 
ATOM     77  C   UNL A   1      33.461  28.664  23.297  1.00  0.00     0.252 C 
ATOM     78  H   UNL A   1      34.692  29.615  24.561  1.00  0.00     0.163 HD
ATOM     79  O   UNL A   1      33.773  29.384  22.352  1.00  0.00    -0.269 OA
BRANCH  77  80
ATOM     80  C   UNL A   1      32.615  27.383  23.140  1.00  0.00     0.060 A 
ATOM     81  C   UNL A   1      32.915  25.490  22.498  1.00  0.00     0.041 A 
ATOM     82  C   UNL A   1      30.912  27.746  23.663  1.00  0.00     0.053 A 
ATOM     83  C   UNL A   1      31.725  24.272  22.608  1.00  0.00     0.041 A 
ATOM     84  C   UNL A   1      29.716  26.420  23.632  1.00  0.00     0.023 A 
ATOM     85  Cl  UNL A   1      30.327  29.336  23.964  1.00  0.00    -0.083 Cl
ATOM     86  C   UNL A   1      30.123  24.744  23.132  1.00  0.00     0.028 A 
BRANCH  83  87
ATOM     87  N   UNL A   1      32.340  23.018  22.763  1.00  0.00    -0.332 N 
ATOM     88  H   UNL A   1      33.151  22.887  22.220  1.00  0.00     0.169 HD
BRANCH  87  89
ATOM     89  C   UNL A   1      31.993  21.941  23.553  1.00  0.00     0.177 C 
ATOM     90  S   UNL A   1      31.436  22.317  25.098  1.00  0.00    -0.040 S 
BRANCH  89  91
ATOM     91  N   UNL A   1      32.051  20.537  23.251  1.00  0.00    -0.299 N 
ATOM     92  C   UNL A   1      32.381  19.095  23.524  1.00  0.00     0.260 C 
ATOM     93  H   UNL A   1      31.644  20.496  22.356  1.00  0.00     0.172 HD
ATOM     94  O   UNL A   1      32.304  18.282  22.604  1.00  0.00    -0.269 OA
BRANCH  92  95
ATOM     95  C   UNL A   1      32.902  18.628  24.879  1.00  0.00     0.075 A 
ATOM     96  C   UNL A   1      32.329  16.953  25.238  1.00  0.00     0.017 A 
ATOM     97  C   UNL A   1      34.581  19.068  24.826  1.00  0.00     0.135 A 
ATOM     98  C   UNL A   1      33.432  15.546  25.324  1.00  0.00     0.001 A 
ATOM     99  C   UNL A   1      35.795  17.781  24.876  1.00  0.00     0.040 A 
ATOM    100  F   UNL A   1      34.955  20.282  24.399  1.00  0.00    -0.206 F 
ATOM    101  C   UNL A   1      35.202  15.851  25.079  1.00  0.00     0.003 A 
ENDBRANCH  92  95
ENDBRANCH  89  91
ENDBRANCH  87  89
ENDBRANCH  83  87
ENDBRANCH  77  80
ENDBRANCH  75  76
ENDBRANCH  74  75
ENDBRANCH   1  74
TORSDOF 20
ENDMDL
