MODEL 1
REMARK VINA RESULT:     -11.3      0.000      0.000
REMARK SMILES O=C(COc1ncc(C(F)(F)F)cc1Cl)NCCCCCCNC(=O)c1ccc(-c2c3nc(c(-c4cccc(S(=O)(=O)[O-])c4F)c4ccc([nH]4)c(-c4cccc(S(=O)(=O)[O-])c4F)c4nc(c(-c5cccc(S(=O)(=O)[O-])c5F)c5ccc2[nH]5)C=C4)C=C3)cc1
REMARK SMILES IDX 19 1 18 2 17 3 16 4 1 5 2 6 3 8 4 9 5 10 6 11 14 12 7 13
REMARK SMILES IDX 13 14 15 15 8 16 9 17 10 18 11 19 12 20 20 21 21 22 22 23
REMARK SMILES IDX 23 24 24 25 25 27 26 28 27 29 88 30 28 31 87 32 29 33 30 34
REMARK SMILES IDX 31 35 81 36 32 37 86 38 80 39 82 40 33 41 85 42 79 43 78 44
REMARK SMILES IDX 34 46 66 47 46 48 65 49 47 50 50 51 64 52 83 53 48 54 49 55
REMARK SMILES IDX 63 57 84 58 51 59 35 60 36 61 44 62 37 63 39 64 45 65 38 66
REMARK SMILES IDX 40 67 41 68 42 69 43 70 67 71 68 72 76 73 69 74 71 75 77 76
REMARK SMILES IDX 70 77 72 78 73 79 74 80 75 81 52 82 53 83 61 84 54 85 56 86
REMARK SMILES IDX 62 87 55 88 57 89 58 90 59 91 60 92
REMARK H PARENT 16 7 23 26 82 45 50 56
REMARK Flexibility Score: inf
ROOT
ATOM      1  C   UNL A   1      33.794  22.898  23.377  1.00  0.00     0.002 C 
ENDROOT
BRANCH   1   2
ATOM      2  C   UNL A   1      32.991  21.755  24.006  1.00  0.00     0.021 C 
BRANCH   2   3
ATOM      3  C   UNL A   1      31.896  22.198  24.965  1.00  0.00     0.116 C 
BRANCH   3   4
ATOM      4  N   UNL A   1      31.742  23.636  25.023  1.00  0.00    -0.353 N 
ATOM      5  O   UNL A   1      31.222  23.824  27.264  1.00  0.00    -0.271 OA
ATOM      6  C   UNL A   1      31.582  24.329  26.206  1.00  0.00     0.258 C 
ATOM      7  H   UNL A   1      31.753  24.142  24.179  1.00  0.00     0.163 HD
BRANCH   6   8
ATOM      8  C   UNL A   1      31.928  25.814  26.081  1.00  0.00     0.331 C 
BRANCH   8   9
ATOM      9  O   UNL A   1      31.897  26.205  24.709  1.00  0.00    -0.467 OA
BRANCH   9  10
ATOM     10  C   UNL A   1      30.978  27.180  24.430  1.00  0.00     0.233 A 
ATOM     11  N   UNL A   1      29.773  26.682  24.063  1.00  0.00    -0.220 NA
ATOM     12  C   UNL A   1      31.309  28.529  24.290  1.00  0.00     0.103 A 
ATOM     13  C   UNL A   1      28.884  27.543  23.511  1.00  0.00     0.128 A 
ATOM     14  C   UNL A   1      30.369  29.386  23.722  1.00  0.00     0.041 A 
ATOM     15  Cl  UNL A   1      32.817  29.228  24.710  1.00  0.00    -0.078 Cl
ATOM     16  C   UNL A   1      29.139  28.889  23.294  1.00  0.00     0.076 A 
BRANCH  16  17
ATOM     17  C   UNL A   1      28.135  29.751  22.596  1.00  0.00     0.417 C 
ATOM     18  F   UNL A   1      26.855  29.402  22.893  1.00  0.00    -0.166 F 
ATOM     19  F   UNL A   1      28.254  31.064  22.931  1.00  0.00    -0.166 F 
ATOM     20  F   UNL A   1      28.230  29.700  21.239  1.00  0.00    -0.166 F 
ENDBRANCH  16  17
ENDBRANCH   9  10
ENDBRANCH   8   9
ENDBRANCH   6   8
ENDBRANCH   3   4
ENDBRANCH   2   3
ENDBRANCH   1   2
BRANCH   1  21
ATOM     21  C   UNL A   1      35.294  22.916  23.691  1.00  0.00     0.002 C 
BRANCH  21  22
ATOM     22  C   UNL A   1      35.780  21.845  24.669  1.00  0.00     0.021 C 
BRANCH  22  23
ATOM     23  C   UNL A   1      36.872  22.293  25.635  1.00  0.00     0.116 C 
BRANCH  23  24
ATOM     24  N   UNL A   1      37.866  21.259  25.876  1.00  0.00    -0.352 N 
ATOM     25  C   UNL A   1      39.172  21.391  26.276  1.00  0.00     0.251 C 
ATOM     26  H   UNL A   1      37.560  20.335  25.732  1.00  0.00     0.163 HD
ATOM     27  O   UNL A   1      39.912  20.408  26.281  1.00  0.00    -0.269 OA
BRANCH  25  28
ATOM     28  C   UNL A   1      39.697  22.715  26.679  1.00  0.00     0.039 A 
ATOM     29  C   UNL A   1      40.629  22.786  27.717  1.00  0.00     0.014 A 
ATOM     30  C   UNL A   1      39.263  23.885  26.049  1.00  0.00     0.014 A 
ATOM     31  C   UNL A   1      41.156  24.024  28.094  1.00  0.00     0.010 A 
ATOM     32  C   UNL A   1      39.850  25.107  26.370  1.00  0.00     0.010 A 
ATOM     33  C   UNL A   1      40.789  25.194  27.408  1.00  0.00    -0.014 A 
BRANCH  33  34
ATOM     34  C   UNL A   1      41.351  26.517  27.785  1.00  0.00     0.031 A 
ATOM     35  C   UNL A   1      42.788  26.843  27.468  1.00  0.00     0.074 A 
ATOM     36  C   UNL A   1      40.593  27.403  28.464  1.00  0.00     0.049 A 
ATOM     37  N   UNL A   1      43.478  27.915  27.767  1.00  0.00    -0.248 NA
ATOM     38  C   UNL A   1      43.562  25.820  26.743  1.00  0.00     0.031 C 
ATOM     39  C   UNL A   1      39.211  27.181  28.895  1.00  0.00     0.029 A 
ATOM     40  N   UNL A   1      40.887  28.660  28.931  1.00  0.00    -0.354 N 
ATOM     41  C   UNL A   1      44.763  27.687  27.288  1.00  0.00     0.074 A 
ATOM     42  C   UNL A   1      44.774  26.356  26.724  1.00  0.00     0.031 C 
ATOM     43  C   UNL A   1      38.779  28.263  29.564  1.00  0.00     0.029 A 
ATOM     44  C   UNL A   1      39.858  29.241  29.637  1.00  0.00     0.049 A 
ATOM     45  H   UNL A   1      41.752  29.104  28.777  1.00  0.00     0.167 HD
ATOM     46  C   UNL A   1      45.829  28.523  27.279  1.00  0.00     0.034 A 
ATOM     47  C   UNL A   1      39.797  30.425  30.280  1.00  0.00     0.034 A 
ATOM     48  C   UNL A   1      45.809  29.859  27.810  1.00  0.00     0.049 A 
ATOM     49  C   UNL A   1      40.989  31.344  30.231  1.00  0.00     0.074 A 
ATOM     50  C   UNL A   1      46.823  30.800  27.811  1.00  0.00     0.029 A 
ATOM     51  N   UNL A   1      44.717  30.446  28.429  1.00  0.00    -0.354 N 
ATOM     52  N   UNL A   1      42.155  31.157  29.662  1.00  0.00    -0.248 NA
ATOM     53  C   UNL A   1      40.841  32.659  30.872  1.00  0.00     0.031 C 
ATOM     54  C   UNL A   1      46.349  31.952  28.447  1.00  0.00     0.029 A 
ATOM     55  C   UNL A   1      45.028  31.741  28.806  1.00  0.00     0.049 A 
ATOM     56  H   UNL A   1      43.848  30.007  28.579  1.00  0.00     0.167 HD
ATOM     57  C   UNL A   1      42.857  32.344  29.831  1.00  0.00     0.074 A 
ATOM     58  C   UNL A   1      41.979  33.251  30.540  1.00  0.00     0.031 C 
ATOM     59  C   UNL A   1      44.119  32.655  29.446  1.00  0.00     0.034 A 
BRANCH  46  60
ATOM     60  C   UNL A   1      47.092  28.041  26.612  1.00  0.00     0.023 A 
ATOM     61  C   UNL A   1      48.113  27.468  27.399  1.00  0.00     0.012 A 
ATOM     62  C   UNL A   1      47.243  28.084  25.212  1.00  0.00     0.148 A 
ATOM     63  C   UNL A   1      49.276  26.977  26.809  1.00  0.00     0.002 A 
ATOM     64  C   UNL A   1      48.384  27.549  24.627  1.00  0.00     0.091 A 
ATOM     65  F   UNL A   1      46.269  28.646  24.481  1.00  0.00    -0.205 F 
ATOM     66  C   UNL A   1      49.407  27.006  25.425  1.00  0.00     0.022 A 
BRANCH  64  67
ATOM     67  S   UNL A   1      48.619  27.461  22.848  1.00  0.00     0.127 S 
ATOM     68  O   UNL A   1      49.955  28.037  22.698  1.00  0.00    -0.237 OA
ATOM     69  O   UNL A   1      48.543  26.021  22.601  1.00  0.00    -0.237 OA
ATOM     70  O   UNL A   1      47.539  28.240  22.259  1.00  0.00    -0.744 OA
ENDBRANCH  64  67
ENDBRANCH  46  60
BRANCH  47  71
ATOM     71  C   UNL A   1      38.551  30.836  30.990  1.00  0.00     0.023 A 
ATOM     72  C   UNL A   1      38.384  30.517  32.352  1.00  0.00     0.012 A 
ATOM     73  C   UNL A   1      37.524  31.525  30.317  1.00  0.00     0.148 A 
ATOM     74  C   UNL A   1      37.196  30.826  33.015  1.00  0.00     0.002 A 
ATOM     75  C   UNL A   1      36.367  31.884  31.000  1.00  0.00     0.091 A 
ATOM     76  F   UNL A   1      37.695  31.813  29.019  1.00  0.00    -0.205 F 
ATOM     77  C   UNL A   1      36.191  31.514  32.342  1.00  0.00     0.022 A 
BRANCH  75  78
ATOM     78  S   UNL A   1      35.081  32.886  30.246  1.00  0.00     0.127 S 
ATOM     79  O   UNL A   1      35.838  34.043  29.780  1.00  0.00    -0.237 OA
ATOM     80  O   UNL A   1      34.590  32.002  29.188  1.00  0.00    -0.237 OA
ATOM     81  O   UNL A   1      34.115  33.142  31.306  1.00  0.00    -0.744 OA
ENDBRANCH  75  78
ENDBRANCH  47  71
BRANCH  59  82
ATOM     82  C   UNL A   1      44.607  34.057  29.707  1.00  0.00     0.023 A 
ATOM     83  C   UNL A   1      45.268  34.369  30.910  1.00  0.00     0.012 A 
ATOM     84  C   UNL A   1      44.456  35.053  28.721  1.00  0.00     0.148 A 
ATOM     85  C   UNL A   1      45.732  35.662  31.148  1.00  0.00     0.002 A 
ATOM     86  C   UNL A   1      44.969  36.324  28.942  1.00  0.00     0.091 A 
ATOM     87  F   UNL A   1      43.808  34.742  27.589  1.00  0.00    -0.205 F 
ATOM     88  C   UNL A   1      45.594  36.636  30.161  1.00  0.00     0.022 A 
BRANCH  86  89
ATOM     89  S   UNL A   1      44.927  37.609  27.688  1.00  0.00     0.127 S 
ATOM     90  O   UNL A   1      45.554  38.729  28.389  1.00  0.00    -0.237 OA
ATOM     91  O   UNL A   1      45.740  37.027  26.620  1.00  0.00    -0.237 OA
ATOM     92  O   UNL A   1      43.523  37.791  27.347  1.00  0.00    -0.744 OA
ENDBRANCH  86  89
ENDBRANCH  59  82
ENDBRANCH  33  34
ENDBRANCH  25  28
ENDBRANCH  23  24
ENDBRANCH  22  23
ENDBRANCH  21  22
ENDBRANCH   1  21
TORSDOF 19
ENDMDL
MODEL 2
REMARK VINA RESULT:     -11.1      2.762      8.373
REMARK SMILES O=C(COc1ncc(C(F)(F)F)cc1Cl)NCCCCCCNC(=O)c1ccc(-c2c3nc(c(-c4cccc(S(=O)(=O)[O-])c4F)c4ccc([nH]4)c(-c4cccc(S(=O)(=O)[O-])c4F)c4nc(c(-c5cccc(S(=O)(=O)[O-])c5F)c5ccc2[nH]5)C=C4)C=C3)cc1
REMARK SMILES IDX 19 1 18 2 17 3 16 4 1 5 2 6 3 8 4 9 5 10 6 11 14 12 7 13
REMARK SMILES IDX 13 14 15 15 8 16 9 17 10 18 11 19 12 20 20 21 21 22 22 23
REMARK SMILES IDX 23 24 24 25 25 27 26 28 27 29 88 30 28 31 87 32 29 33 30 34
REMARK SMILES IDX 31 35 81 36 32 37 86 38 80 39 82 40 33 41 85 42 79 43 78 44
REMARK SMILES IDX 34 46 66 47 46 48 65 49 47 50 50 51 64 52 83 53 48 54 49 55
REMARK SMILES IDX 63 57 84 58 51 59 35 60 36 61 44 62 37 63 39 64 45 65 38 66
REMARK SMILES IDX 40 67 41 68 42 69 43 70 67 71 68 72 76 73 69 74 71 75 77 76
REMARK SMILES IDX 70 77 72 78 73 79 74 80 75 81 52 82 53 83 61 84 54 85 56 86
REMARK SMILES IDX 62 87 55 88 57 89 58 90 59 91 60 92
REMARK H PARENT 16 7 23 26 82 45 50 56
REMARK Flexibility Score: inf
ROOT
ATOM      1  C   UNL A   1      35.651  20.787  25.188  1.00  0.00     0.002 C 
ENDROOT
BRANCH   1   2
ATOM      2  C   UNL A   1      34.563  21.704  24.620  1.00  0.00     0.021 C 
BRANCH   2   3
ATOM      3  C   UNL A   1      35.074  22.818  23.721  1.00  0.00     0.116 C 
BRANCH   3   4
ATOM      4  N   UNL A   1      34.116  23.887  23.542  1.00  0.00    -0.353 N 
ATOM      5  O   UNL A   1      33.370  23.316  21.433  1.00  0.00    -0.271 OA
ATOM      6  C   UNL A   1      33.235  23.939  22.481  1.00  0.00     0.258 C 
ATOM      7  H   UNL A   1      34.092  24.611  24.209  1.00  0.00     0.163 HD
BRANCH   6   8
ATOM      8  C   UNL A   1      32.030  24.844  22.748  1.00  0.00     0.331 C 
BRANCH   8   9
ATOM      9  O   UNL A   1      32.335  26.183  22.358  1.00  0.00    -0.467 OA
BRANCH   9  10
ATOM     10  C   UNL A   1      32.324  27.079  23.393  1.00  0.00     0.233 A 
ATOM     11  N   UNL A   1      33.188  26.754  24.384  1.00  0.00    -0.220 NA
ATOM     12  C   UNL A   1      31.356  28.074  23.535  1.00  0.00     0.103 A 
ATOM     13  C   UNL A   1      33.065  27.413  25.561  1.00  0.00     0.128 A 
ATOM     14  C   UNL A   1      31.261  28.736  24.758  1.00  0.00     0.041 A 
ATOM     15  Cl  UNL A   1      30.216  28.528  22.337  1.00  0.00    -0.078 Cl
ATOM     16  C   UNL A   1      32.108  28.386  25.809  1.00  0.00     0.076 A 
BRANCH  16  17
ATOM     17  C   UNL A   1      31.982  29.003  27.166  1.00  0.00     0.417 C 
ATOM     18  F   UNL A   1      31.539  30.288  27.113  1.00  0.00    -0.166 F 
ATOM     19  F   UNL A   1      31.104  28.335  27.962  1.00  0.00    -0.166 F 
ATOM     20  F   UNL A   1      33.157  29.041  27.853  1.00  0.00    -0.166 F 
ENDBRANCH  16  17
ENDBRANCH   9  10
ENDBRANCH   8   9
ENDBRANCH   6   8
ENDBRANCH   3   4
ENDBRANCH   2   3
ENDBRANCH   1   2
BRANCH   1  21
ATOM     21  C   UNL A   1      37.081  21.068  24.714  1.00  0.00     0.002 C 
BRANCH  21  22
ATOM     22  C   UNL A   1      38.087  19.937  24.933  1.00  0.00     0.021 C 
BRANCH  22  23
ATOM     23  C   UNL A   1      39.207  20.245  25.921  1.00  0.00     0.116 C 
BRANCH  23  24
ATOM     24  N   UNL A   1      40.243  19.225  25.929  1.00  0.00    -0.352 N 
ATOM     25  C   UNL A   1      41.603  19.374  26.041  1.00  0.00     0.251 C 
ATOM     26  H   UNL A   1      39.925  18.298  25.844  1.00  0.00     0.163 HD
ATOM     27  O   UNL A   1      42.340  18.402  25.875  1.00  0.00    -0.269 OA
BRANCH  25  28
ATOM     28  C   UNL A   1      42.184  20.702  26.338  1.00  0.00     0.039 A 
ATOM     29  C   UNL A   1      42.592  21.515  25.277  1.00  0.00     0.014 A 
ATOM     30  C   UNL A   1      42.341  21.143  27.655  1.00  0.00     0.014 A 
ATOM     31  C   UNL A   1      43.117  22.784  25.536  1.00  0.00     0.010 A 
ATOM     32  C   UNL A   1      42.788  22.438  27.907  1.00  0.00     0.010 A 
ATOM     33  C   UNL A   1      43.199  23.266  26.853  1.00  0.00    -0.014 A 
BRANCH  33  34
ATOM     34  C   UNL A   1      43.741  24.619  27.145  1.00  0.00     0.031 A 
ATOM     35  C   UNL A   1      42.834  25.693  27.688  1.00  0.00     0.074 A 
ATOM     36  C   UNL A   1      45.031  24.902  26.868  1.00  0.00     0.049 A 
ATOM     37  N   UNL A   1      43.103  26.947  27.950  1.00  0.00    -0.248 NA
ATOM     38  C   UNL A   1      41.433  25.318  27.947  1.00  0.00     0.031 C 
ATOM     39  C   UNL A   1      45.994  23.973  26.274  1.00  0.00     0.029 A 
ATOM     40  N   UNL A   1      45.748  26.062  27.030  1.00  0.00    -0.354 N 
ATOM     41  C   UNL A   1      41.908  27.511  28.382  1.00  0.00     0.074 A 
ATOM     42  C   UNL A   1      40.899  26.479  28.299  1.00  0.00     0.031 C 
ATOM     43  C   UNL A   1      47.173  24.599  26.118  1.00  0.00     0.029 A 
ATOM     44  C   UNL A   1      47.043  25.979  26.572  1.00  0.00     0.049 A 
ATOM     45  H   UNL A   1      45.370  26.877  27.433  1.00  0.00     0.167 HD
ATOM     46  C   UNL A   1      41.675  28.762  28.845  1.00  0.00     0.034 A 
ATOM     47  C   UNL A   1      48.012  26.915  26.515  1.00  0.00     0.034 A 
ATOM     48  C   UNL A   1      42.684  29.780  28.959  1.00  0.00     0.049 A 
ATOM     49  C   UNL A   1      47.732  28.290  27.060  1.00  0.00     0.074 A 
ATOM     50  C   UNL A   1      42.560  31.065  29.455  1.00  0.00     0.029 A 
ATOM     51  N   UNL A   1      44.008  29.625  28.576  1.00  0.00    -0.354 N 
ATOM     52  N   UNL A   1      46.626  28.764  27.581  1.00  0.00    -0.248 NA
ATOM     53  C   UNL A   1      48.849  29.247  27.057  1.00  0.00     0.031 C 
ATOM     54  C   UNL A   1      43.805  31.694  29.357  1.00  0.00     0.029 A 
ATOM     55  C   UNL A   1      44.713  30.787  28.836  1.00  0.00     0.049 A 
ATOM     56  H   UNL A   1      44.390  28.809  28.179  1.00  0.00     0.167 HD
ATOM     57  C   UNL A   1      46.928  30.051  28.011  1.00  0.00     0.074 A 
ATOM     58  C   UNL A   1      48.325  30.275  27.707  1.00  0.00     0.031 C 
ATOM     59  C   UNL A   1      46.120  30.970  28.594  1.00  0.00     0.034 A 
BRANCH  46  60
ATOM     60  C   UNL A   1      40.284  29.083  29.330  1.00  0.00     0.023 A 
ATOM     61  C   UNL A   1      39.311  29.514  28.403  1.00  0.00     0.012 A 
ATOM     62  C   UNL A   1      39.917  28.892  30.677  1.00  0.00     0.148 A 
ATOM     63  C   UNL A   1      38.007  29.780  28.813  1.00  0.00     0.002 A 
ATOM     64  C   UNL A   1      38.601  29.113  31.068  1.00  0.00     0.091 A 
ATOM     65  F   UNL A   1      40.857  28.497  31.547  1.00  0.00    -0.205 F 
ATOM     66  C   UNL A   1      37.649  29.569  30.140  1.00  0.00     0.022 A 
BRANCH  64  67
ATOM     67  S   UNL A   1      38.014  28.795  32.735  1.00  0.00     0.127 S 
ATOM     68  O   UNL A   1      36.631  29.266  32.656  1.00  0.00    -0.237 OA
ATOM     69  O   UNL A   1      38.158  27.342  32.838  1.00  0.00    -0.237 OA
ATOM     70  O   UNL A   1      38.878  29.560  33.622  1.00  0.00    -0.744 OA
ENDBRANCH  64  67
ENDBRANCH  46  60
BRANCH  47  71
ATOM     71  C   UNL A   1      49.356  26.578  25.962  1.00  0.00     0.023 A 
ATOM     72  C   UNL A   1      50.254  25.805  26.725  1.00  0.00     0.012 A 
ATOM     73  C   UNL A   1      49.756  27.035  24.692  1.00  0.00     0.148 A 
ATOM     74  C   UNL A   1      51.542  25.542  26.259  1.00  0.00     0.002 A 
ATOM     75  C   UNL A   1      51.020  26.718  24.207  1.00  0.00     0.091 A 
ATOM     76  F   UNL A   1      48.894  27.777  23.982  1.00  0.00    -0.205 F 
ATOM     77  C   UNL A   1      51.923  25.992  24.998  1.00  0.00     0.022 A 
BRANCH  75  78
ATOM     78  S   UNL A   1      51.542  27.145  22.542  1.00  0.00     0.127 S 
ATOM     79  O   UNL A   1      51.679  28.596  22.635  1.00  0.00    -0.237 OA
ATOM     80  O   UNL A   1      52.802  26.412  22.423  1.00  0.00    -0.237 OA
ATOM     81  O   UNL A   1      50.484  26.660  21.666  1.00  0.00    -0.744 OA
ENDBRANCH  75  78
ENDBRANCH  47  71
BRANCH  59  82
ATOM     82  C   UNL A   1      46.738  32.277  29.019  1.00  0.00     0.023 A 
ATOM     83  C   UNL A   1      47.392  32.385  30.261  1.00  0.00     0.012 A 
ATOM     84  C   UNL A   1      46.715  33.386  28.150  1.00  0.00     0.148 A 
ATOM     85  C   UNL A   1      47.976  33.590  30.651  1.00  0.00     0.002 A 
ATOM     86  C   UNL A   1      47.346  34.565  28.521  1.00  0.00     0.091 A 
ATOM     87  F   UNL A   1      46.071  33.270  26.979  1.00  0.00    -0.205 F 
ATOM     88  C   UNL A   1      47.964  34.675  29.778  1.00  0.00     0.022 A 
BRANCH  86  89
ATOM     89  S   UNL A   1      47.468  35.979  27.419  1.00  0.00     0.127 S 
ATOM     90  O   UNL A   1      46.071  36.175  27.032  1.00  0.00    -0.237 OA
ATOM     91  O   UNL A   1      48.009  37.014  28.300  1.00  0.00    -0.237 OA
ATOM     92  O   UNL A   1      48.363  35.573  26.344  1.00  0.00    -0.744 OA
ENDBRANCH  86  89
ENDBRANCH  59  82
ENDBRANCH  33  34
ENDBRANCH  25  28
ENDBRANCH  23  24
ENDBRANCH  22  23
ENDBRANCH  21  22
ENDBRANCH   1  21
TORSDOF 19
ENDMDL
MODEL 3
REMARK VINA RESULT:     -11.1      4.147      9.191
REMARK SMILES O=C(COc1ncc(C(F)(F)F)cc1Cl)NCCCCCCNC(=O)c1ccc(-c2c3nc(c(-c4cccc(S(=O)(=O)[O-])c4F)c4ccc([nH]4)c(-c4cccc(S(=O)(=O)[O-])c4F)c4nc(c(-c5cccc(S(=O)(=O)[O-])c5F)c5ccc2[nH]5)C=C4)C=C3)cc1
REMARK SMILES IDX 19 1 18 2 17 3 16 4 1 5 2 6 3 8 4 9 5 10 6 11 14 12 7 13
REMARK SMILES IDX 13 14 15 15 8 16 9 17 10 18 11 19 12 20 20 21 21 22 22 23
REMARK SMILES IDX 23 24 24 25 25 27 26 28 27 29 88 30 28 31 87 32 29 33 30 34
REMARK SMILES IDX 31 35 81 36 32 37 86 38 80 39 82 40 33 41 85 42 79 43 78 44
REMARK SMILES IDX 34 46 66 47 46 48 65 49 47 50 50 51 64 52 83 53 48 54 49 55
REMARK SMILES IDX 63 57 84 58 51 59 35 60 36 61 44 62 37 63 39 64 45 65 38 66
REMARK SMILES IDX 40 67 41 68 42 69 43 70 67 71 68 72 76 73 69 74 71 75 77 76
REMARK SMILES IDX 70 77 72 78 73 79 74 80 75 81 52 82 53 83 61 84 54 85 56 86
REMARK SMILES IDX 62 87 55 88 57 89 58 90 59 91 60 92
REMARK H PARENT 16 7 23 26 82 45 50 56
REMARK Flexibility Score: inf
ROOT
ATOM      1  C   UNL A   1      36.942  22.700  25.442  1.00  0.00     0.002 C 
ENDROOT
BRANCH   1   2
ATOM      2  C   UNL A   1      35.629  23.360  25.878  1.00  0.00     0.021 C 
BRANCH   2   3
ATOM      3  C   UNL A   1      35.096  24.412  24.919  1.00  0.00     0.116 C 
BRANCH   3   4
ATOM      4  N   UNL A   1      33.767  24.112  24.431  1.00  0.00    -0.353 N 
ATOM      5  O   UNL A   1      34.360  23.154  22.417  1.00  0.00    -0.271 OA
ATOM      6  C   UNL A   1      33.532  23.360  23.298  1.00  0.00     0.258 C 
ATOM      7  H   UNL A   1      32.995  24.461  24.932  1.00  0.00     0.163 HD
BRANCH   6   8
ATOM      8  C   UNL A   1      32.120  22.771  23.253  1.00  0.00     0.331 C 
BRANCH   8   9
ATOM      9  O   UNL A   1      31.922  21.904  24.368  1.00  0.00    -0.467 OA
BRANCH   9  10
ATOM     10  C   UNL A   1      32.625  20.731  24.293  1.00  0.00     0.233 A 
ATOM     11  N   UNL A   1      32.348  20.019  23.175  1.00  0.00    -0.220 NA
ATOM     12  C   UNL A   1      33.352  20.203  25.361  1.00  0.00     0.103 A 
ATOM     13  C   UNL A   1      32.777  18.735  23.131  1.00  0.00     0.128 A 
ATOM     14  C   UNL A   1      33.781  18.880  25.280  1.00  0.00     0.041 A 
ATOM     15  Cl  UNL A   1      33.724  21.034  26.814  1.00  0.00    -0.078 Cl
ATOM     16  C   UNL A   1      33.468  18.112  24.160  1.00  0.00     0.076 A 
BRANCH  16  17
ATOM     17  C   UNL A   1      33.827  16.663  24.067  1.00  0.00     0.417 C 
ATOM     18  F   UNL A   1      34.199  16.299  22.810  1.00  0.00    -0.166 F 
ATOM     19  F   UNL A   1      34.869  16.332  24.878  1.00  0.00    -0.166 F 
ATOM     20  F   UNL A   1      32.806  15.830  24.410  1.00  0.00    -0.166 F 
ENDBRANCH  16  17
ENDBRANCH   9  10
ENDBRANCH   8   9
ENDBRANCH   6   8
ENDBRANCH   3   4
ENDBRANCH   2   3
ENDBRANCH   1   2
BRANCH   1  21
ATOM     21  C   UNL A   1      36.806  21.436  24.587  1.00  0.00     0.002 C 
BRANCH  21  22
ATOM     22  C   UNL A   1      37.736  20.280  24.960  1.00  0.00     0.021 C 
BRANCH  22  23
ATOM     23  C   UNL A   1      38.984  20.676  25.741  1.00  0.00     0.116 C 
BRANCH  23  24
ATOM     24  N   UNL A   1      39.948  19.592  25.845  1.00  0.00    -0.352 N 
ATOM     25  C   UNL A   1      41.302  19.656  26.065  1.00  0.00     0.251 C 
ATOM     26  H   UNL A   1      39.579  18.686  25.744  1.00  0.00     0.163 HD
ATOM     27  O   UNL A   1      41.985  18.637  25.970  1.00  0.00    -0.269 OA
BRANCH  25  28
ATOM     28  C   UNL A   1      41.942  20.949  26.393  1.00  0.00     0.039 A 
ATOM     29  C   UNL A   1      42.231  21.843  25.359  1.00  0.00     0.014 A 
ATOM     30  C   UNL A   1      42.270  21.277  27.712  1.00  0.00     0.014 A 
ATOM     31  C   UNL A   1      42.810  23.080  25.652  1.00  0.00     0.010 A 
ATOM     32  C   UNL A   1      42.770  22.543  28.010  1.00  0.00     0.010 A 
ATOM     33  C   UNL A   1      43.064  23.451  26.983  1.00  0.00    -0.014 A 
BRANCH  33  34
ATOM     34  C   UNL A   1      43.666  24.770  27.314  1.00  0.00     0.031 A 
ATOM     35  C   UNL A   1      42.802  25.876  27.863  1.00  0.00     0.074 A 
ATOM     36  C   UNL A   1      44.973  24.995  27.067  1.00  0.00     0.049 A 
ATOM     37  N   UNL A   1      43.126  27.110  28.157  1.00  0.00    -0.248 NA
ATOM     38  C   UNL A   1      41.379  25.564  28.089  1.00  0.00     0.031 C 
ATOM     39  C   UNL A   1      45.901  24.032  26.470  1.00  0.00     0.029 A 
ATOM     40  N   UNL A   1      45.742  26.115  27.266  1.00  0.00    -0.354 N 
ATOM     41  C   UNL A   1      41.952  27.722  28.579  1.00  0.00     0.074 A 
ATOM     42  C   UNL A   1      40.896  26.742  28.456  1.00  0.00     0.031 C 
ATOM     43  C   UNL A   1      47.111  24.603  26.348  1.00  0.00     0.029 A 
ATOM     44  C   UNL A   1      47.040  25.978  26.829  1.00  0.00     0.049 A 
ATOM     45  H   UNL A   1      45.397  26.939  27.679  1.00  0.00     0.167 HD
ATOM     46  C   UNL A   1      41.771  28.974  29.064  1.00  0.00     0.034 A 
ATOM     47  C   UNL A   1      48.055  26.866  26.810  1.00  0.00     0.034 A 
ATOM     48  C   UNL A   1      42.826  29.938  29.217  1.00  0.00     0.049 A 
ATOM     49  C   UNL A   1      47.831  28.242  27.379  1.00  0.00     0.074 A 
ATOM     50  C   UNL A   1      42.755  31.218  29.739  1.00  0.00     0.029 A 
ATOM     51  N   UNL A   1      44.148  29.726  28.856  1.00  0.00    -0.354 N 
ATOM     52  N   UNL A   1      46.740  28.759  27.889  1.00  0.00    -0.248 NA
ATOM     53  C   UNL A   1      48.993  29.143  27.416  1.00  0.00     0.031 C 
ATOM     54  C   UNL A   1      44.031  31.786  29.676  1.00  0.00     0.029 A 
ATOM     55  C   UNL A   1      44.904  30.847  29.153  1.00  0.00     0.049 A 
ATOM     56  H   UNL A   1      44.497  28.901  28.448  1.00  0.00     0.167 HD
ATOM     57  C   UNL A   1      47.095  30.021  28.352  1.00  0.00     0.074 A 
ATOM     58  C   UNL A   1      48.508  30.182  28.078  1.00  0.00     0.031 C 
ATOM     59  C   UNL A   1      46.322  30.966  28.940  1.00  0.00     0.034 A 
BRANCH  46  60
ATOM     60  C   UNL A   1      40.389  29.352  29.531  1.00  0.00     0.023 A 
ATOM     61  C   UNL A   1      39.482  29.923  28.613  1.00  0.00     0.012 A 
ATOM     62  C   UNL A   1      39.960  29.080  30.845  1.00  0.00     0.148 A 
ATOM     63  C   UNL A   1      38.184  30.248  29.003  1.00  0.00     0.002 A 
ATOM     64  C   UNL A   1      38.650  29.362  31.212  1.00  0.00     0.091 A 
ATOM     65  F   UNL A   1      40.839  28.552  31.708  1.00  0.00    -0.205 F 
ATOM     66  C   UNL A   1      37.764  29.957  30.296  1.00  0.00     0.022 A 
BRANCH  64  67
ATOM     67  S   UNL A   1      37.981  28.954  32.829  1.00  0.00     0.127 S 
ATOM     68  O   UNL A   1      38.092  27.495  32.835  1.00  0.00    -0.237 OA
ATOM     69  O   UNL A   1      38.911  29.640  33.726  1.00  0.00    -0.237 OA
ATOM     70  O   UNL A   1      36.620  29.471  32.846  1.00  0.00    -0.744 OA
ENDBRANCH  64  67
ENDBRANCH  46  60
BRANCH  47  71
ATOM     71  C   UNL A   1      49.391  26.475  26.274  1.00  0.00     0.023 A 
ATOM     72  C   UNL A   1      50.213  25.601  27.012  1.00  0.00     0.012 A 
ATOM     73  C   UNL A   1      49.859  26.980  25.046  1.00  0.00     0.148 A 
ATOM     74  C   UNL A   1      51.496  25.282  26.566  1.00  0.00     0.002 A 
ATOM     75  C   UNL A   1      51.114  26.610  24.577  1.00  0.00     0.091 A 
ATOM     76  F   UNL A   1      49.068  27.818  24.360  1.00  0.00    -0.205 F 
ATOM     77  C   UNL A   1      51.944  25.781  25.346  1.00  0.00     0.022 A 
BRANCH  75  78
ATOM     78  S   UNL A   1      51.714  27.101  22.956  1.00  0.00     0.127 S 
ATOM     79  O   UNL A   1      52.901  26.264  22.811  1.00  0.00    -0.237 OA
ATOM     80  O   UNL A   1      50.591  26.734  22.093  1.00  0.00    -0.237 OA
ATOM     81  O   UNL A   1      51.954  28.535  23.048  1.00  0.00    -0.744 OA
ENDBRANCH  75  78
ENDBRANCH  47  71
BRANCH  59  82
ATOM     82  C   UNL A   1      46.994  32.232  29.404  1.00  0.00     0.023 A 
ATOM     83  C   UNL A   1      47.565  32.306  30.689  1.00  0.00     0.012 A 
ATOM     84  C   UNL A   1      47.107  33.333  28.532  1.00  0.00     0.148 A 
ATOM     85  C   UNL A   1      48.200  33.473  31.116  1.00  0.00     0.002 A 
ATOM     86  C   UNL A   1      47.789  34.471  28.943  1.00  0.00     0.091 A 
ATOM     87  F   UNL A   1      46.542  33.251  27.319  1.00  0.00    -0.205 F 
ATOM     88  C   UNL A   1      48.322  34.549  30.240  1.00  0.00     0.022 A 
BRANCH  86  89
ATOM     89  S   UNL A   1      48.083  35.864  27.848  1.00  0.00     0.127 S 
ATOM     90  O   UNL A   1      48.901  36.737  28.691  1.00  0.00    -0.237 OA
ATOM     91  O   UNL A   1      48.801  35.240  26.738  1.00  0.00    -0.237 OA
ATOM     92  O   UNL A   1      46.768  36.385  27.500  1.00  0.00    -0.744 OA
ENDBRANCH  86  89
ENDBRANCH  59  82
ENDBRANCH  33  34
ENDBRANCH  25  28
ENDBRANCH  23  24
ENDBRANCH  22  23
ENDBRANCH  21  22
ENDBRANCH   1  21
TORSDOF 19
ENDMDL
