MODEL 1
REMARK VINA RESULT:     -12.0      0.000      0.000
REMARK SMILES Cc1cc(C(=O)NCCCCCCNC(=O)c2ccc(-c3c4nc(c(-c5cccc(S(=O)(=O)[O-])c5F)c5ccc([nH]5)c(-c5cccc(S(=O)(=O)[O-])c5F)c5nc(c(-c6cccc(S(=O)(=O)[O-])c6F)c6ccc3[nH]6)C=C5)C=C4)cc2)ccc1NS(=O)(=O)c1ccc(C#N)cc1C
REMARK SMILES IDX 10 1 9 2 8 3 7 4 5 5 6 6 4 8 1 9 2 10 3 11 82 12 81 13 80 14
REMARK SMILES IDX 83 15 84 17 85 18 86 19 87 20 88 21 94 22 89 23 93 24 95 25
REMARK SMILES IDX 90 26 91 27 92 28 11 29 12 30 13 31 14 32 15 33 16 35 17 36
REMARK SMILES IDX 18 37 79 38 19 39 78 40 20 41 21 42 22 43 72 44 23 45 77 46
REMARK SMILES IDX 71 47 73 48 24 49 76 50 70 51 69 52 25 54 57 55 37 56 56 57
REMARK SMILES IDX 38 58 41 59 55 60 74 61 39 62 40 63 54 65 75 66 42 67 26 68
REMARK SMILES IDX 27 69 35 70 28 71 30 72 36 73 29 74 31 75 32 76 33 77 34 78
REMARK SMILES IDX 58 79 59 80 67 81 60 82 62 83 68 84 61 85 63 86 64 87 65 88
REMARK SMILES IDX 66 89 43 90 44 91 52 92 45 93 47 94 53 95 46 96 48 97 49 98
REMARK SMILES IDX 50 99 51 100
REMARK H PARENT 7 7 83 16 14 34 73 53 41 64
REMARK Flexibility Score: inf
ROOT
ATOM      1  C   UNL A   1      30.958  30.872  25.148  1.00  0.00     0.002 C 
ENDROOT
BRANCH   1   2
ATOM      2  C   UNL A   1      30.926  29.484  24.496  1.00  0.00     0.021 C 
BRANCH   2   3
ATOM      3  C   UNL A   1      30.969  29.524  22.969  1.00  0.00     0.116 C 
BRANCH   3   4
ATOM      4  N   UNL A   1      32.263  29.098  22.472  1.00  0.00    -0.352 N 
ATOM      5  C   UNL A   1      32.868  27.867  22.463  1.00  0.00     0.251 C 
ATOM      6  O   UNL A   1      33.923  27.735  21.845  1.00  0.00    -0.269 OA
ATOM      7  H   UNL A   1      32.801  29.819  22.072  1.00  0.00     0.163 HD
BRANCH   5   8
ATOM      8  C   UNL A   1      32.237  26.677  23.093  1.00  0.00     0.040 A 
ATOM      9  C   UNL A   1      31.890  25.355  26.618  1.00  0.00     0.046 C 
ATOM     10  C   UNL A   1      31.964  25.347  25.116  1.00  0.00    -0.026 A 
ATOM     11  C   UNL A   1      32.340  26.543  24.479  1.00  0.00     0.019 A 
ATOM     12  C   UNL A   1      31.578  24.248  24.328  1.00  0.00     0.052 A 
ATOM     13  C   UNL A   1      31.208  24.487  23.006  1.00  0.00     0.028 A 
ATOM     14  C   UNL A   1      31.536  25.699  22.390  1.00  0.00     0.016 A 
BRANCH  12  15
ATOM     15  N   UNL A   1      32.015  22.953  24.756  1.00  0.00    -0.279 N 
ATOM     16  H   UNL A   1      31.301  22.318  24.990  1.00  0.00     0.180 HD
BRANCH  15  17
ATOM     17  S   UNL A   1      33.581  22.377  24.909  1.00  0.00     0.262 S 
ATOM     18  O   UNL A   1      34.319  23.070  23.871  1.00  0.00    -0.201 OA
ATOM     19  O   UNL A   1      33.947  22.508  26.302  1.00  0.00    -0.201 OA
BRANCH  17  20
ATOM     20  C   UNL A   1      33.675  20.628  24.493  1.00  0.00     0.090 A 
ATOM     21  C   UNL A   1      32.543  19.927  24.065  1.00  0.00     0.024 A 
ATOM     22  C   UNL A   1      34.863  19.917  24.778  1.00  0.00    -0.029 A 
ATOM     23  C   UNL A   1      32.523  18.526  24.113  1.00  0.00     0.021 A 
ATOM     24  C   UNL A   1      34.828  18.505  24.804  1.00  0.00     0.024 A 
ATOM     25  C   UNL A   1      36.209  20.565  24.966  1.00  0.00     0.046 C 
ATOM     26  C   UNL A   1      33.650  17.813  24.525  1.00  0.00     0.052 A 
BRANCH  26  27
ATOM     27  C   UNL A   1      33.580  16.380  24.649  1.00  0.00     0.099 C 
ATOM     28  N   UNL A   1      33.462  15.239  24.741  1.00  0.00    -0.192 NA
ENDBRANCH  26  27
ENDBRANCH  17  20
ENDBRANCH  15  17
ENDBRANCH  12  15
ENDBRANCH   5   8
ENDBRANCH   3   4
ENDBRANCH   2   3
ENDBRANCH   1   2
BRANCH   1  29
ATOM     29  C   UNL A   1      31.462  30.907  26.600  1.00  0.00     0.002 C 
BRANCH  29  30
ATOM     30  C   UNL A   1      32.609  31.878  26.869  1.00  0.00     0.021 C 
BRANCH  30  31
ATOM     31  C   UNL A   1      33.613  31.340  27.861  1.00  0.00     0.116 C 
BRANCH  31  32
ATOM     32  N   UNL A   1      33.815  29.918  27.733  1.00  0.00    -0.352 N 
ATOM     33  C   UNL A   1      35.005  29.234  27.593  1.00  0.00     0.251 C 
ATOM     34  H   UNL A   1      33.000  29.365  27.749  1.00  0.00     0.163 HD
ATOM     35  O   UNL A   1      34.959  28.111  27.097  1.00  0.00    -0.269 OA
BRANCH  33  36
ATOM     36  C   UNL A   1      36.249  29.757  28.228  1.00  0.00     0.039 A 
ATOM     37  C   UNL A   1      37.270  30.099  27.336  1.00  0.00     0.014 A 
ATOM     38  C   UNL A   1      36.571  29.451  29.545  1.00  0.00     0.014 A 
ATOM     39  C   UNL A   1      38.572  29.740  27.638  1.00  0.00     0.010 A 
ATOM     40  C   UNL A   1      37.821  28.969  29.804  1.00  0.00     0.010 A 
ATOM     41  C   UNL A   1      38.784  29.021  28.800  1.00  0.00    -0.014 A 
BRANCH  41  42
ATOM     42  C   UNL A   1      40.043  28.469  29.219  1.00  0.00     0.031 A 
ATOM     43  C   UNL A   1      40.262  27.074  28.836  1.00  0.00     0.074 A 
ATOM     44  C   UNL A   1      40.994  29.363  29.568  1.00  0.00     0.049 A 
ATOM     45  N   UNL A   1      41.296  26.405  29.167  1.00  0.00    -0.248 NA
ATOM     46  C   UNL A   1      39.305  26.309  28.034  1.00  0.00     0.031 C 
ATOM     47  C   UNL A   1      42.444  29.268  29.491  1.00  0.00     0.029 A 
ATOM     48  N   UNL A   1      40.786  30.583  30.205  1.00  0.00    -0.354 N 
ATOM     49  C   UNL A   1      41.298  25.259  28.403  1.00  0.00     0.074 A 
ATOM     50  C   UNL A   1      39.986  25.181  27.820  1.00  0.00     0.031 C 
ATOM     51  C   UNL A   1      42.989  30.217  30.278  1.00  0.00     0.029 A 
ATOM     52  C   UNL A   1      41.903  30.830  31.024  1.00  0.00     0.049 A 
ATOM     53  H   UNL A   1      40.000  31.168  30.101  1.00  0.00     0.167 HD
ATOM     54  C   UNL A   1      42.489  24.622  28.253  1.00  0.00     0.034 A 
ATOM     55  C   UNL A   1      41.735  30.752  32.385  1.00  0.00     0.034 A 
ATOM     56  C   UNL A   1      43.499  25.291  29.101  1.00  0.00     0.049 A 
ATOM     57  C   UNL A   1      42.379  29.500  32.978  1.00  0.00     0.074 A 
ATOM     58  C   UNL A   1      44.441  26.284  28.890  1.00  0.00     0.029 A 
ATOM     59  N   UNL A   1      43.299  25.255  30.468  1.00  0.00    -0.354 N 
ATOM     60  N   UNL A   1      42.991  28.580  32.280  1.00  0.00    -0.248 NA
ATOM     61  C   UNL A   1      42.334  29.167  34.401  1.00  0.00     0.031 C 
ATOM     62  C   UNL A   1      44.751  26.872  30.163  1.00  0.00     0.029 A 
ATOM     63  C   UNL A   1      44.023  26.217  31.144  1.00  0.00     0.049 A 
ATOM     64  H   UNL A   1      42.704  24.609  30.914  1.00  0.00     0.167 HD
ATOM     65  C   UNL A   1      43.286  27.503  33.071  1.00  0.00     0.074 A 
ATOM     66  C   UNL A   1      42.860  27.928  34.400  1.00  0.00     0.031 C 
ATOM     67  C   UNL A   1      43.822  26.334  32.589  1.00  0.00     0.034 A 
BRANCH  54  68
ATOM     68  C   UNL A   1      42.838  23.552  27.238  1.00  0.00     0.023 A 
ATOM     69  C   UNL A   1      43.636  23.980  26.154  1.00  0.00     0.012 A 
ATOM     70  C   UNL A   1      42.439  22.190  27.213  1.00  0.00     0.148 A 
ATOM     71  C   UNL A   1      43.986  23.143  25.094  1.00  0.00     0.002 A 
ATOM     72  C   UNL A   1      42.782  21.350  26.145  1.00  0.00     0.091 A 
ATOM     73  F   UNL A   1      41.740  21.672  28.221  1.00  0.00    -0.205 F 
ATOM     74  C   UNL A   1      43.553  21.828  25.083  1.00  0.00     0.022 A 
BRANCH  72  75
ATOM     75  S   UNL A   1      42.256  19.627  26.026  1.00  0.00     0.127 S 
ATOM     76  O   UNL A   1      40.823  19.765  25.754  1.00  0.00    -0.237 OA
ATOM     77  O   UNL A   1      43.040  19.136  24.895  1.00  0.00    -0.237 OA
ATOM     78  O   UNL A   1      42.565  19.007  27.309  1.00  0.00    -0.744 OA
ENDBRANCH  72  75
ENDBRANCH  54  68
BRANCH  55  79
ATOM     79  C   UNL A   1      40.387  31.316  32.782  1.00  0.00     0.023 A 
ATOM     80  C   UNL A   1      39.347  30.365  32.970  1.00  0.00     0.012 A 
ATOM     81  C   UNL A   1      40.302  32.539  33.463  1.00  0.00     0.148 A 
ATOM     82  C   UNL A   1      38.460  30.497  34.043  1.00  0.00     0.002 A 
ATOM     83  C   UNL A   1      39.367  32.691  34.486  1.00  0.00     0.091 A 
ATOM     84  F   UNL A   1      41.165  33.517  33.159  1.00  0.00    -0.205 F 
ATOM     85  C   UNL A   1      38.513  31.636  34.841  1.00  0.00     0.022 A 
BRANCH  83  86
ATOM     86  S   UNL A   1      39.298  34.233  35.404  1.00  0.00     0.127 S 
ATOM     87  O   UNL A   1      38.863  35.170  34.372  1.00  0.00    -0.237 OA
ATOM     88  O   UNL A   1      38.298  33.968  36.436  1.00  0.00    -0.237 OA
ATOM     89  O   UNL A   1      40.651  34.417  35.911  1.00  0.00    -0.744 OA
ENDBRANCH  83  86
ENDBRANCH  55  79
BRANCH  67  90
ATOM     90  C   UNL A   1      44.193  25.169  33.492  1.00  0.00     0.023 A 
ATOM     91  C   UNL A   1      43.186  24.351  34.035  1.00  0.00     0.012 A 
ATOM     92  C   UNL A   1      45.519  24.913  33.928  1.00  0.00     0.148 A 
ATOM     93  C   UNL A   1      43.488  23.256  34.850  1.00  0.00     0.002 A 
ATOM     94  C   UNL A   1      45.803  23.895  34.828  1.00  0.00     0.091 A 
ATOM     95  F   UNL A   1      46.544  25.622  33.452  1.00  0.00    -0.205 F 
ATOM     96  C   UNL A   1      44.797  23.030  35.251  1.00  0.00     0.022 A 
BRANCH  94  97
ATOM     97  S   UNL A   1      47.432  23.696  35.566  1.00  0.00     0.127 S 
ATOM     98  O   UNL A   1      47.144  22.766  36.660  1.00  0.00    -0.237 OA
ATOM     99  O   UNL A   1      48.193  23.121  34.460  1.00  0.00    -0.237 OA
ATOM    100  O   UNL A   1      47.853  25.021  35.999  1.00  0.00    -0.744 OA
ENDBRANCH  94  97
ENDBRANCH  67  90
ENDBRANCH  41  42
ENDBRANCH  33  36
ENDBRANCH  31  32
ENDBRANCH  30  31
ENDBRANCH  29  30
ENDBRANCH   1  29
TORSDOF 20
ENDMDL
MODEL 2
REMARK VINA RESULT:     -11.7      5.626     10.339
REMARK SMILES Cc1cc(C(=O)NCCCCCCNC(=O)c2ccc(-c3c4nc(c(-c5cccc(S(=O)(=O)[O-])c5F)c5ccc([nH]5)c(-c5cccc(S(=O)(=O)[O-])c5F)c5nc(c(-c6cccc(S(=O)(=O)[O-])c6F)c6ccc3[nH]6)C=C5)C=C4)cc2)ccc1NS(=O)(=O)c1ccc(C#N)cc1C
REMARK SMILES IDX 10 1 9 2 8 3 7 4 5 5 6 6 4 8 1 9 2 10 3 11 82 12 81 13 80 14
REMARK SMILES IDX 83 15 84 17 85 18 86 19 87 20 88 21 94 22 89 23 93 24 95 25
REMARK SMILES IDX 90 26 91 27 92 28 11 29 12 30 13 31 14 32 15 33 16 35 17 36
REMARK SMILES IDX 18 37 79 38 19 39 78 40 20 41 21 42 22 43 72 44 23 45 77 46
REMARK SMILES IDX 71 47 73 48 24 49 76 50 70 51 69 52 25 54 57 55 37 56 56 57
REMARK SMILES IDX 38 58 41 59 55 60 74 61 39 62 40 63 54 65 75 66 42 67 26 68
REMARK SMILES IDX 27 69 35 70 28 71 30 72 36 73 29 74 31 75 32 76 33 77 34 78
REMARK SMILES IDX 58 79 59 80 67 81 60 82 62 83 68 84 61 85 63 86 64 87 65 88
REMARK SMILES IDX 66 89 43 90 44 91 52 92 45 93 47 94 53 95 46 96 48 97 49 98
REMARK SMILES IDX 50 99 51 100
REMARK H PARENT 7 7 83 16 14 34 73 53 41 64
REMARK Flexibility Score: inf
ROOT
ATOM      1  C   UNL A   1      38.555  23.438  26.385  1.00  0.00     0.002 C 
ENDROOT
BRANCH   1   2
ATOM      2  C   UNL A   1      37.408  23.281  25.379  1.00  0.00     0.021 C 
BRANCH   2   3
ATOM      3  C   UNL A   1      36.048  23.703  25.934  1.00  0.00     0.116 C 
BRANCH   3   4
ATOM      4  N   UNL A   1      35.568  22.751  26.917  1.00  0.00    -0.352 N 
ATOM      5  C   UNL A   1      34.328  22.196  27.109  1.00  0.00     0.251 C 
ATOM      6  O   UNL A   1      34.210  21.291  27.934  1.00  0.00    -0.269 OA
ATOM      7  H   UNL A   1      36.252  22.451  27.558  1.00  0.00     0.163 HD
BRANCH   5   8
ATOM      8  C   UNL A   1      33.154  22.589  26.284  1.00  0.00     0.040 A 
ATOM      9  C   UNL A   1      32.118  22.129  22.677  1.00  0.00     0.046 C 
ATOM     10  C   UNL A   1      32.195  22.739  24.050  1.00  0.00    -0.026 A 
ATOM     11  C   UNL A   1      33.154  22.220  24.937  1.00  0.00     0.019 A 
ATOM     12  C   UNL A   1      31.295  23.715  24.514  1.00  0.00     0.052 A 
ATOM     13  C   UNL A   1      31.124  23.847  25.890  1.00  0.00     0.028 A 
ATOM     14  C   UNL A   1      32.051  23.284  26.773  1.00  0.00     0.016 A 
BRANCH  12  15
ATOM     15  N   UNL A   1      30.975  24.786  23.618  1.00  0.00    -0.279 N 
ATOM     16  H   UNL A   1      31.005  24.564  22.660  1.00  0.00     0.180 HD
BRANCH  15  17
ATOM     17  S   UNL A   1      30.558  26.366  23.987  1.00  0.00     0.262 S 
ATOM     18  O   UNL A   1      30.672  27.069  22.724  1.00  0.00    -0.201 OA
ATOM     19  O   UNL A   1      29.303  26.317  24.704  1.00  0.00    -0.201 OA
BRANCH  17  20
ATOM     20  C   UNL A   1      31.772  27.122  25.080  1.00  0.00     0.090 A 
ATOM     21  C   UNL A   1      31.425  27.525  26.374  1.00  0.00     0.024 A 
ATOM     22  C   UNL A   1      33.037  27.478  24.561  1.00  0.00    -0.029 A 
ATOM     23  C   UNL A   1      32.232  28.437  27.067  1.00  0.00     0.021 A 
ATOM     24  C   UNL A   1      33.845  28.384  25.282  1.00  0.00     0.024 A 
ATOM     25  C   UNL A   1      33.637  26.876  23.318  1.00  0.00     0.046 C 
ATOM     26  C   UNL A   1      33.421  28.903  26.505  1.00  0.00     0.052 A 
BRANCH  26  27
ATOM     27  C   UNL A   1      34.192  29.904  27.196  1.00  0.00     0.099 C 
ATOM     28  N   UNL A   1      34.769  30.748  27.726  1.00  0.00    -0.192 NA
ENDBRANCH  26  27
ENDBRANCH  17  20
ENDBRANCH  15  17
ENDBRANCH  12  15
ENDBRANCH   5   8
ENDBRANCH   3   4
ENDBRANCH   2   3
ENDBRANCH   1   2
BRANCH   1  29
ATOM     29  C   UNL A   1      38.782  24.866  26.910  1.00  0.00     0.002 C 
BRANCH  29  30
ATOM     30  C   UNL A   1      40.047  25.061  27.742  1.00  0.00     0.021 C 
BRANCH  30  31
ATOM     31  C   UNL A   1      39.925  26.192  28.737  1.00  0.00     0.116 C 
BRANCH  31  32
ATOM     32  N   UNL A   1      38.786  27.038  28.482  1.00  0.00    -0.352 N 
ATOM     33  C   UNL A   1      38.729  28.416  28.479  1.00  0.00     0.251 C 
ATOM     34  H   UNL A   1      37.941  26.572  28.282  1.00  0.00     0.163 HD
ATOM     35  O   UNL A   1      37.631  28.939  28.648  1.00  0.00    -0.269 OA
BRANCH  33  36
ATOM     36  C   UNL A   1      39.918  29.214  28.063  1.00  0.00     0.039 A 
ATOM     37  C   UNL A   1      40.397  28.937  26.778  1.00  0.00     0.014 A 
ATOM     38  C   UNL A   1      40.777  29.774  29.001  1.00  0.00     0.014 A 
ATOM     39  C   UNL A   1      41.762  28.832  26.579  1.00  0.00     0.010 A 
ATOM     40  C   UNL A   1      42.114  29.547  28.863  1.00  0.00     0.010 A 
ATOM     41  C   UNL A   1      42.581  28.972  27.685  1.00  0.00    -0.014 A 
BRANCH  41  42
ATOM     42  C   UNL A   1      44.007  28.786  27.692  1.00  0.00     0.031 A 
ATOM     43  C   UNL A   1      44.780  29.935  27.220  1.00  0.00     0.074 A 
ATOM     44  C   UNL A   1      44.466  27.768  28.452  1.00  0.00     0.049 A 
ATOM     45  N   UNL A   1      46.051  29.932  27.107  1.00  0.00    -0.248 NA
ATOM     46  C   UNL A   1      44.163  31.203  26.828  1.00  0.00     0.031 C 
ATOM     47  C   UNL A   1      45.737  27.613  29.143  1.00  0.00     0.029 A 
ATOM     48  N   UNL A   1      43.836  26.544  28.661  1.00  0.00    -0.354 N 
ATOM     49  C   UNL A   1      46.444  31.240  26.926  1.00  0.00     0.074 A 
ATOM     50  C   UNL A   1      45.239  31.967  26.627  1.00  0.00     0.031 C 
ATOM     51  C   UNL A   1      45.911  26.313  29.457  1.00  0.00     0.029 A 
ATOM     52  C   UNL A   1      44.840  25.570  28.814  1.00  0.00     0.049 A 
ATOM     53  H   UNL A   1      42.864  26.388  28.697  1.00  0.00     0.167 HD
ATOM     54  C   UNL A   1      47.736  31.540  27.219  1.00  0.00     0.034 A 
ATOM     55  C   UNL A   1      45.008  24.652  27.806  1.00  0.00     0.034 A 
ATOM     56  C   UNL A   1      48.453  30.290  27.551  1.00  0.00     0.049 A 
ATOM     57  C   UNL A   1      46.274  24.910  26.991  1.00  0.00     0.074 A 
ATOM     58  C   UNL A   1      48.746  29.620  28.728  1.00  0.00     0.029 A 
ATOM     59  N   UNL A   1      48.575  29.347  26.548  1.00  0.00    -0.354 N 
ATOM     60  N   UNL A   1      47.095  25.908  27.193  1.00  0.00    -0.248 NA
ATOM     61  C   UNL A   1      46.681  24.091  25.851  1.00  0.00     0.031 C 
ATOM     62  C   UNL A   1      48.988  28.243  28.400  1.00  0.00     0.029 A 
ATOM     63  C   UNL A   1      48.874  28.086  27.028  1.00  0.00     0.049 A 
ATOM     64  H   UNL A   1      48.463  29.552  25.592  1.00  0.00     0.167 HD
ATOM     65  C   UNL A   1      48.019  25.971  26.186  1.00  0.00     0.074 A 
ATOM     66  C   UNL A   1      47.720  24.798  25.372  1.00  0.00     0.031 C 
ATOM     67  C   UNL A   1      48.937  26.986  26.065  1.00  0.00     0.034 A 
BRANCH  54  68
ATOM     68  C   UNL A   1      48.339  32.917  27.411  1.00  0.00     0.023 A 
ATOM     69  C   UNL A   1      49.083  33.094  28.599  1.00  0.00     0.012 A 
ATOM     70  C   UNL A   1      48.226  34.059  26.576  1.00  0.00     0.148 A 
ATOM     71  C   UNL A   1      49.642  34.318  28.967  1.00  0.00     0.002 A 
ATOM     72  C   UNL A   1      48.779  35.291  26.948  1.00  0.00     0.091 A 
ATOM     73  F   UNL A   1      47.601  33.979  25.403  1.00  0.00    -0.205 F 
ATOM     74  C   UNL A   1      49.485  35.422  28.146  1.00  0.00     0.022 A 
BRANCH  72  75
ATOM     75  S   UNL A   1      48.618  36.793  25.959  1.00  0.00     0.127 S 
ATOM     76  O   UNL A   1      49.284  37.786  26.805  1.00  0.00    -0.237 OA
ATOM     77  O   UNL A   1      49.351  36.449  24.742  1.00  0.00    -0.237 OA
ATOM     78  O   UNL A   1      47.190  37.022  25.777  1.00  0.00    -0.744 OA
ENDBRANCH  72  75
ENDBRANCH  54  68
BRANCH  55  79
ATOM     79  C   UNL A   1      43.666  24.248  27.234  1.00  0.00     0.023 A 
ATOM     80  C   UNL A   1      43.376  24.730  25.928  1.00  0.00     0.012 A 
ATOM     81  C   UNL A   1      43.036  23.070  27.664  1.00  0.00     0.148 A 
ATOM     82  C   UNL A   1      42.763  23.893  24.990  1.00  0.00     0.002 A 
ATOM     83  C   UNL A   1      42.366  22.273  26.737  1.00  0.00     0.091 A 
ATOM     84  F   UNL A   1      43.147  22.702  28.946  1.00  0.00    -0.205 F 
ATOM     85  C   UNL A   1      42.314  22.636  25.382  1.00  0.00     0.022 A 
BRANCH  83  86
ATOM     86  S   UNL A   1      41.615  20.732  27.270  1.00  0.00     0.127 S 
ATOM     87  O   UNL A   1      41.007  20.258  26.030  1.00  0.00    -0.237 OA
ATOM     88  O   UNL A   1      42.755  19.938  27.723  1.00  0.00    -0.237 OA
ATOM     89  O   UNL A   1      40.695  21.121  28.330  1.00  0.00    -0.744 OA
ENDBRANCH  83  86
ENDBRANCH  55  79
BRANCH  67  90
ATOM     90  C   UNL A   1      49.990  27.011  24.970  1.00  0.00     0.023 A 
ATOM     91  C   UNL A   1      51.329  26.705  25.273  1.00  0.00     0.012 A 
ATOM     92  C   UNL A   1      49.727  27.446  23.644  1.00  0.00     0.148 A 
ATOM     93  C   UNL A   1      52.323  26.694  24.290  1.00  0.00     0.002 A 
ATOM     94  C   UNL A   1      50.737  27.544  22.698  1.00  0.00     0.091 A 
ATOM     95  F   UNL A   1      48.484  27.737  23.257  1.00  0.00    -0.205 F 
ATOM     96  C   UNL A   1      52.028  27.118  23.002  1.00  0.00     0.022 A 
BRANCH  94  97
ATOM     97  S   UNL A   1      50.471  28.303  21.088  1.00  0.00     0.127 S 
ATOM     98  O   UNL A   1      51.725  27.979  20.404  1.00  0.00    -0.237 OA
ATOM     99  O   UNL A   1      49.303  27.571  20.602  1.00  0.00    -0.237 OA
ATOM    100  O   UNL A   1      50.269  29.724  21.331  1.00  0.00    -0.744 OA
ENDBRANCH  94  97
ENDBRANCH  67  90
ENDBRANCH  41  42
ENDBRANCH  33  36
ENDBRANCH  31  32
ENDBRANCH  30  31
ENDBRANCH  29  30
ENDBRANCH   1  29
TORSDOF 20
ENDMDL
MODEL 3
REMARK VINA RESULT:     -11.6      1.652      2.026
REMARK SMILES Cc1cc(C(=O)NCCCCCCNC(=O)c2ccc(-c3c4nc(c(-c5cccc(S(=O)(=O)[O-])c5F)c5ccc([nH]5)c(-c5cccc(S(=O)(=O)[O-])c5F)c5nc(c(-c6cccc(S(=O)(=O)[O-])c6F)c6ccc3[nH]6)C=C5)C=C4)cc2)ccc1NS(=O)(=O)c1ccc(C#N)cc1C
REMARK SMILES IDX 10 1 9 2 8 3 7 4 5 5 6 6 4 8 1 9 2 10 3 11 82 12 81 13 80 14
REMARK SMILES IDX 83 15 84 17 85 18 86 19 87 20 88 21 94 22 89 23 93 24 95 25
REMARK SMILES IDX 90 26 91 27 92 28 11 29 12 30 13 31 14 32 15 33 16 35 17 36
REMARK SMILES IDX 18 37 79 38 19 39 78 40 20 41 21 42 22 43 72 44 23 45 77 46
REMARK SMILES IDX 71 47 73 48 24 49 76 50 70 51 69 52 25 54 57 55 37 56 56 57
REMARK SMILES IDX 38 58 41 59 55 60 74 61 39 62 40 63 54 65 75 66 42 67 26 68
REMARK SMILES IDX 27 69 35 70 28 71 30 72 36 73 29 74 31 75 32 76 33 77 34 78
REMARK SMILES IDX 58 79 59 80 67 81 60 82 62 83 68 84 61 85 63 86 64 87 65 88
REMARK SMILES IDX 66 89 43 90 44 91 52 92 45 93 47 94 53 95 46 96 48 97 49 98
REMARK SMILES IDX 50 99 51 100
REMARK H PARENT 7 7 83 16 14 34 73 53 41 64
REMARK Flexibility Score: inf
ROOT
ATOM      1  C   UNL A   1      31.918  30.723  25.505  1.00  0.00     0.002 C 
ENDROOT
BRANCH   1   2
ATOM      2  C   UNL A   1      32.342  29.311  25.080  1.00  0.00     0.021 C 
BRANCH   2   3
ATOM      3  C   UNL A   1      31.699  28.848  23.774  1.00  0.00     0.116 C 
BRANCH   3   4
ATOM      4  N   UNL A   1      32.693  28.306  22.867  1.00  0.00    -0.352 N 
ATOM      5  C   UNL A   1      33.040  27.012  22.573  1.00  0.00     0.251 C 
ATOM      6  O   UNL A   1      33.825  26.809  21.648  1.00  0.00    -0.269 OA
ATOM      7  H   UNL A   1      33.208  28.987  22.377  1.00  0.00     0.163 HD
BRANCH   5   8
ATOM      8  C   UNL A   1      32.420  25.854  23.271  1.00  0.00     0.040 A 
ATOM      9  C   UNL A   1      32.552  24.429  26.771  1.00  0.00     0.046 C 
ATOM     10  C   UNL A   1      32.373  24.474  25.278  1.00  0.00    -0.026 A 
ATOM     11  C   UNL A   1      32.741  25.658  24.616  1.00  0.00     0.019 A 
ATOM     12  C   UNL A   1      31.765  23.442  24.541  1.00  0.00     0.052 A 
ATOM     13  C   UNL A   1      31.201  23.762  23.308  1.00  0.00     0.028 A 
ATOM     14  C   UNL A   1      31.528  24.966  22.674  1.00  0.00     0.016 A 
BRANCH  12  15
ATOM     15  N   UNL A   1      32.151  22.099  24.856  1.00  0.00    -0.279 N 
ATOM     16  H   UNL A   1      31.414  21.479  25.055  1.00  0.00     0.180 HD
BRANCH  15  17
ATOM     17  S   UNL A   1      33.692  21.447  24.933  1.00  0.00     0.262 S 
ATOM     18  O   UNL A   1      34.378  22.017  23.790  1.00  0.00    -0.201 OA
ATOM     19  O   UNL A   1      34.177  21.659  26.279  1.00  0.00    -0.201 OA
BRANCH  17  20
ATOM     20  C   UNL A   1      33.660  19.669  24.648  1.00  0.00     0.090 A 
ATOM     21  C   UNL A   1      32.452  18.989  24.469  1.00  0.00     0.024 A 
ATOM     22  C   UNL A   1      34.857  18.929  24.791  1.00  0.00    -0.029 A 
ATOM     23  C   UNL A   1      32.396  17.598  24.632  1.00  0.00     0.021 A 
ATOM     24  C   UNL A   1      34.783  17.526  24.935  1.00  0.00     0.024 A 
ATOM     25  C   UNL A   1      36.235  19.530  24.704  1.00  0.00     0.046 C 
ATOM     26  C   UNL A   1      33.553  16.868  24.910  1.00  0.00     0.052 A 
BRANCH  26  27
ATOM     27  C   UNL A   1      33.461  15.453  25.158  1.00  0.00     0.099 C 
ATOM     28  N   UNL A   1      33.325  14.326  25.352  1.00  0.00    -0.192 NA
ENDBRANCH  26  27
ENDBRANCH  17  20
ENDBRANCH  15  17
ENDBRANCH  12  15
ENDBRANCH   5   8
ENDBRANCH   3   4
ENDBRANCH   2   3
ENDBRANCH   1   2
BRANCH   1  29
ATOM     29  C   UNL A   1      32.057  31.029  27.006  1.00  0.00     0.002 C 
BRANCH  29  30
ATOM     30  C   UNL A   1      33.242  31.914  27.384  1.00  0.00     0.021 C 
BRANCH  30  31
ATOM     31  C   UNL A   1      34.256  31.199  28.246  1.00  0.00     0.116 C 
BRANCH  31  32
ATOM     32  N   UNL A   1      34.393  29.806  27.906  1.00  0.00    -0.352 N 
ATOM     33  C   UNL A   1      35.536  29.124  27.540  1.00  0.00     0.251 C 
ATOM     34  H   UNL A   1      33.566  29.272  27.939  1.00  0.00     0.163 HD
ATOM     35  O   UNL A   1      35.397  28.081  26.906  1.00  0.00    -0.269 OA
BRANCH  33  36
ATOM     36  C   UNL A   1      36.859  29.530  28.095  1.00  0.00     0.039 A 
ATOM     37  C   UNL A   1      37.853  29.770  27.142  1.00  0.00     0.014 A 
ATOM     38  C   UNL A   1      37.229  29.201  29.394  1.00  0.00     0.014 A 
ATOM     39  C   UNL A   1      39.131  29.290  27.369  1.00  0.00     0.010 A 
ATOM     40  C   UNL A   1      38.441  28.604  29.584  1.00  0.00     0.010 A 
ATOM     41  C   UNL A   1      39.343  28.560  28.525  1.00  0.00    -0.014 A 
BRANCH  41  42
ATOM     42  C   UNL A   1      40.567  27.893  28.874  1.00  0.00     0.031 A 
ATOM     43  C   UNL A   1      40.567  26.447  28.650  1.00  0.00     0.074 A 
ATOM     44  C   UNL A   1      41.656  28.684  29.003  1.00  0.00     0.049 A 
ATOM     45  N   UNL A   1      41.544  25.686  28.952  1.00  0.00    -0.248 NA
ATOM     46  C   UNL A   1      39.434  25.734  28.058  1.00  0.00     0.031 C 
ATOM     47  C   UNL A   1      43.063  28.385  28.785  1.00  0.00     0.029 A 
ATOM     48  N   UNL A   1      41.676  29.985  29.499  1.00  0.00    -0.354 N 
ATOM     49  C   UNL A   1      41.314  24.472  28.343  1.00  0.00     0.074 A 
ATOM     50  C   UNL A   1      39.941  24.507  27.918  1.00  0.00     0.031 C 
ATOM     51  C   UNL A   1      43.811  29.334  29.382  1.00  0.00     0.029 A 
ATOM     52  C   UNL A   1      42.907  30.169  30.156  1.00  0.00     0.049 A 
ATOM     53  H   UNL A   1      40.961  30.655  29.405  1.00  0.00     0.167 HD
ATOM     54  C   UNL A   1      42.392  23.667  28.150  1.00  0.00     0.034 A 
ATOM     55  C   UNL A   1      42.898  30.268  31.526  1.00  0.00     0.034 A 
ATOM     56  C   UNL A   1      43.571  24.284  28.794  1.00  0.00     0.049 A 
ATOM     57  C   UNL A   1      43.452  29.014  32.202  1.00  0.00     0.074 A 
ATOM     58  C   UNL A   1      44.595  25.110  28.360  1.00  0.00     0.029 A 
ATOM     59  N   UNL A   1      43.537  24.429  30.168  1.00  0.00    -0.354 N 
ATOM     60  N   UNL A   1      43.858  27.947  31.565  1.00  0.00    -0.248 NA
ATOM     61  C   UNL A   1      43.541  28.852  33.652  1.00  0.00     0.031 C 
ATOM     62  C   UNL A   1      45.126  25.790  29.508  1.00  0.00     0.029 A 
ATOM     63  C   UNL A   1      44.449  25.354  30.635  1.00  0.00     0.049 A 
ATOM     64  H   UNL A   1      42.927  23.924  30.753  1.00  0.00     0.167 HD
ATOM     65  C   UNL A   1      44.114  26.936  32.451  1.00  0.00     0.074 A 
ATOM     66  C   UNL A   1      43.909  27.562  33.753  1.00  0.00     0.031 C 
ATOM     67  C   UNL A   1      44.442  25.659  32.067  1.00  0.00     0.034 A 
BRANCH  54  68
ATOM     68  C   UNL A   1      42.481  22.452  27.248  1.00  0.00     0.023 A 
ATOM     69  C   UNL A   1      41.357  21.597  27.269  1.00  0.00     0.012 A 
ATOM     70  C   UNL A   1      43.556  22.042  26.416  1.00  0.00     0.148 A 
ATOM     71  C   UNL A   1      41.304  20.398  26.556  1.00  0.00     0.002 A 
ATOM     72  C   UNL A   1      43.508  20.835  25.707  1.00  0.00     0.091 A 
ATOM     73  F   UNL A   1      44.634  22.811  26.277  1.00  0.00    -0.205 F 
ATOM     74  C   UNL A   1      42.383  20.010  25.780  1.00  0.00     0.022 A 
BRANCH  72  75
ATOM     75  S   UNL A   1      44.865  20.229  24.681  1.00  0.00     0.127 S 
ATOM     76  O   UNL A   1      44.597  18.790  24.641  1.00  0.00    -0.237 OA
ATOM     77  O   UNL A   1      44.634  20.921  23.414  1.00  0.00    -0.237 OA
ATOM     78  O   UNL A   1      46.100  20.590  25.366  1.00  0.00    -0.744 OA
ENDBRANCH  72  75
ENDBRANCH  54  68
BRANCH  55  79
ATOM     79  C   UNL A   1      41.687  31.049  31.990  1.00  0.00     0.023 A 
ATOM     80  C   UNL A   1      41.368  32.209  31.232  1.00  0.00     0.012 A 
ATOM     81  C   UNL A   1      40.655  30.409  32.692  1.00  0.00     0.148 A 
ATOM     82  C   UNL A   1      40.037  32.501  30.920  1.00  0.00     0.002 A 
ATOM     83  C   UNL A   1      39.330  30.753  32.429  1.00  0.00     0.091 A 
ATOM     84  F   UNL A   1      40.962  29.433  33.557  1.00  0.00    -0.205 F 
ATOM     85  C   UNL A   1      39.018  31.730  31.472  1.00  0.00     0.022 A 
BRANCH  83  86
ATOM     86  S   UNL A   1      38.003  29.891  33.278  1.00  0.00     0.127 S 
ATOM     87  O   UNL A   1      38.350  30.123  34.678  1.00  0.00    -0.237 OA
ATOM     88  O   UNL A   1      36.802  30.593  32.831  1.00  0.00    -0.237 OA
ATOM     89  O   UNL A   1      38.104  28.515  32.811  1.00  0.00    -0.744 OA
ENDBRANCH  83  86
ENDBRANCH  55  79
BRANCH  67  90
ATOM     90  C   UNL A   1      44.775  24.563  33.066  1.00  0.00     0.023 A 
ATOM     91  C   UNL A   1      43.755  23.740  33.575  1.00  0.00     0.012 A 
ATOM     92  C   UNL A   1      46.069  24.383  33.622  1.00  0.00     0.148 A 
ATOM     93  C   UNL A   1      44.025  22.707  34.477  1.00  0.00     0.002 A 
ATOM     94  C   UNL A   1      46.312  23.431  34.602  1.00  0.00     0.091 A 
ATOM     95  F   UNL A   1      47.105  25.102  33.186  1.00  0.00    -0.205 F 
ATOM     96  C   UNL A   1      45.303  22.554  34.995  1.00  0.00     0.022 A 
BRANCH  94  97
ATOM     97  S   UNL A   1      47.880  23.337  35.478  1.00  0.00     0.127 S 
ATOM     98  O   UNL A   1      47.954  24.668  36.085  1.00  0.00    -0.237 OA
ATOM     99  O   UNL A   1      47.631  22.249  36.421  1.00  0.00    -0.237 OA
ATOM    100  O   UNL A   1      48.900  23.079  34.472  1.00  0.00    -0.744 OA
ENDBRANCH  94  97
ENDBRANCH  67  90
ENDBRANCH  41  42
ENDBRANCH  33  36
ENDBRANCH  31  32
ENDBRANCH  30  31
ENDBRANCH  29  30
ENDBRANCH   1  29
TORSDOF 20
ENDMDL
