MODEL 1
REMARK VINA RESULT:     -13.5      0.000      0.000
REMARK SMILES CC(=O)Nc1cnc(N2CC=C(c3ccccc3C)CC2)c(C(=O)NCCCCCCNC(=O)c2ccc(-c3c4nc(c(-c5cccc(S(=O)(=O)[O-])c5F)c5ccc([nH]5)c(-c5cccc(S(=O)(=O)[O-])c5F)c5nc(c(-c6cccc(S(=O)(=O)[O-])c6F)c6ccc3[nH]6)C=C5)C=C4)cc2)c1
REMARK SMILES IDX 29 1 28 2 27 3 26 4 25 5 23 6 24 7 22 9 5 10 6 11 98 12 7 13
REMARK SMILES IDX 8 14 4 15 1 16 2 17 3 18 9 20 10 21 21 22 11 23 20 24 12 25
REMARK SMILES IDX 13 26 14 27 18 28 15 29 17 30 19 31 16 32 30 33 31 34 32 35
REMARK SMILES IDX 33 36 34 38 35 39 36 40 97 41 37 42 96 43 38 44 39 45 40 46
REMARK SMILES IDX 90 47 41 48 95 49 89 50 91 51 42 52 94 53 88 54 87 55 43 57
REMARK SMILES IDX 75 58 55 59 74 60 56 61 59 62 73 63 92 64 57 65 58 66 72 68
REMARK SMILES IDX 93 69 60 70 44 71 45 72 53 73 46 74 48 75 54 76 47 77 49 78
REMARK SMILES IDX 50 79 51 80 52 81 76 82 77 83 85 84 78 85 80 86 86 87 79 88
REMARK SMILES IDX 81 89 82 90 83 91 84 92 61 93 62 94 70 95 63 96 65 97 71 98
REMARK SMILES IDX 64 99 66 100 67 101 68 102 69 103
REMARK H PARENT 25 8 4 19 32 37 91 56 59 67
REMARK Flexibility Score: inf
ROOT
ATOM      1  C   UNL A   1      36.887  21.643  24.691  1.00  0.00     0.002 C 
ENDROOT
BRANCH   1   2
ATOM      2  C   UNL A   1      35.561  22.342  25.035  1.00  0.00     0.002 C 
BRANCH   2   3
ATOM      3  C   UNL A   1      35.385  22.785  26.495  1.00  0.00     0.021 C 
BRANCH   3   4
ATOM      4  C   UNL A   1      34.347  21.978  27.268  1.00  0.00     0.116 C 
BRANCH   4   5
ATOM      5  N   UNL A   1      33.004  22.443  27.027  1.00  0.00    -0.352 N 
ATOM      6  C   UNL A   1      32.004  22.100  26.155  1.00  0.00     0.255 C 
ATOM      7  O   UNL A   1      30.883  22.341  26.609  1.00  0.00    -0.269 OA
ATOM      8  H   UNL A   1      32.744  23.178  27.629  1.00  0.00     0.163 HD
BRANCH   6   9
ATOM      9  C   UNL A   1      32.183  21.451  24.806  1.00  0.00     0.084 A 
ATOM     10  C   UNL A   1      32.449  19.453  23.426  1.00  0.00     0.060 A 
ATOM     11  C   UNL A   1      32.162  20.235  22.328  1.00  0.00     0.139 A 
ATOM     12  C   UNL A   1      32.527  20.096  24.659  1.00  0.00     0.045 A 
ATOM     13  N   UNL A   1      31.905  21.555  22.403  1.00  0.00    -0.236 NA
ATOM     14  C   UNL A   1      31.937  22.175  23.618  1.00  0.00     0.141 A 
BRANCH  10  15
ATOM     15  N   UNL A   1      32.669  18.078  23.251  1.00  0.00    -0.325 N 
ATOM     16  C   UNL A   1      34.921  17.913  24.303  1.00  0.00     0.114 C 
ATOM     17  C   UNL A   1      33.783  17.327  23.508  1.00  0.00     0.221 C 
ATOM     18  O   UNL A   1      33.804  16.146  23.159  1.00  0.00    -0.275 OA
ATOM     19  H   UNL A   1      31.904  17.577  22.887  1.00  0.00     0.169 HD
ENDBRANCH  10  15
BRANCH  14  20
ATOM     20  N   UNL A   1      31.793  23.536  23.520  1.00  0.00    -0.352 N 
ATOM     21  C   UNL A   1      32.990  24.331  23.327  1.00  0.00     0.146 C 
ATOM     22  C   UNL A   1      30.492  24.173  23.351  1.00  0.00     0.123 C 
ATOM     23  C   UNL A   1      32.774  25.746  23.792  1.00  0.00    -0.002 C 
ATOM     24  C   UNL A   1      30.377  25.350  24.320  1.00  0.00     0.057 C 
ATOM     25  C   UNL A   1      31.605  26.226  24.261  1.00  0.00    -0.041 C 
BRANCH  25  26
ATOM     26  C   UNL A   1      31.490  27.626  24.704  1.00  0.00    -0.020 A 
ATOM     27  C   UNL A   1      31.968  27.956  25.986  1.00  0.00     0.008 A 
ATOM     28  C   UNL A   1      30.926  28.638  23.900  1.00  0.00    -0.044 A 
ATOM     29  C   UNL A   1      31.897  29.263  26.464  1.00  0.00     0.001 A 
ATOM     30  C   UNL A   1      30.878  29.953  24.391  1.00  0.00     0.004 A 
ATOM     31  C   UNL A   1      30.392  28.367  22.520  1.00  0.00     0.045 C 
ATOM     32  C   UNL A   1      31.354  30.263  25.666  1.00  0.00     0.000 A 
ENDBRANCH  25  26
ENDBRANCH  14  20
ENDBRANCH   6   9
ENDBRANCH   4   5
ENDBRANCH   3   4
ENDBRANCH   2   3
ENDBRANCH   1   2
BRANCH   1  33
ATOM     33  C   UNL A   1      37.961  21.628  25.784  1.00  0.00     0.021 C 
BRANCH  33  34
ATOM     34  C   UNL A   1      38.697  22.950  25.943  1.00  0.00     0.116 C 
BRANCH  34  35
ATOM     35  N   UNL A   1      39.912  22.840  26.740  1.00  0.00    -0.352 N 
ATOM     36  C   UNL A   1      40.549  23.828  27.471  1.00  0.00     0.251 C 
ATOM     37  H   UNL A   1      40.333  21.951  26.761  1.00  0.00     0.163 HD
ATOM     38  O   UNL A   1      41.616  23.590  28.028  1.00  0.00    -0.269 OA
BRANCH  36  39
ATOM     39  C   UNL A   1      39.864  25.128  27.632  1.00  0.00     0.039 A 
ATOM     40  C   UNL A   1      40.270  26.190  26.817  1.00  0.00     0.014 A 
ATOM     41  C   UNL A   1      39.056  25.352  28.746  1.00  0.00     0.014 A 
ATOM     42  C   UNL A   1      40.074  27.497  27.257  1.00  0.00     0.010 A 
ATOM     43  C   UNL A   1      38.932  26.640  29.223  1.00  0.00     0.010 A 
ATOM     44  C   UNL A   1      39.503  27.702  28.511  1.00  0.00    -0.014 A 
BRANCH  44  45
ATOM     45  C   UNL A   1      39.525  28.979  29.205  1.00  0.00     0.031 A 
ATOM     46  C   UNL A   1      38.555  30.030  28.863  1.00  0.00     0.074 A 
ATOM     47  C   UNL A   1      40.393  29.169  30.223  1.00  0.00     0.049 A 
ATOM     48  N   UNL A   1      38.772  31.288  29.046  1.00  0.00    -0.248 NA
ATOM     49  C   UNL A   1      37.262  29.733  28.262  1.00  0.00     0.031 C 
ATOM     50  C   UNL A   1      40.360  30.224  31.229  1.00  0.00     0.029 A 
ATOM     51  N   UNL A   1      41.628  28.546  30.419  1.00  0.00    -0.354 N 
ATOM     52  C   UNL A   1      37.574  31.936  28.850  1.00  0.00     0.074 A 
ATOM     53  C   UNL A   1      36.688  30.941  28.289  1.00  0.00     0.031 C 
ATOM     54  C   UNL A   1      41.590  30.366  31.744  1.00  0.00     0.029 A 
ATOM     55  C   UNL A   1      42.482  29.517  30.974  1.00  0.00     0.049 A 
ATOM     56  H   UNL A   1      41.856  27.612  30.211  1.00  0.00     0.167 HD
ATOM     57  C   UNL A   1      37.405  33.195  29.344  1.00  0.00     0.034 A 
ATOM     58  C   UNL A   1      43.677  29.892  30.431  1.00  0.00     0.034 A 
ATOM     59  C   UNL A   1      38.614  33.670  30.024  1.00  0.00     0.049 A 
ATOM     60  C   UNL A   1      43.765  31.382  30.159  1.00  0.00     0.074 A 
ATOM     61  C   UNL A   1      39.002  33.662  31.355  1.00  0.00     0.029 A 
ATOM     62  N   UNL A   1      39.750  33.982  29.287  1.00  0.00    -0.354 N 
ATOM     63  N   UNL A   1      42.769  32.213  30.288  1.00  0.00    -0.248 NA
ATOM     64  C   UNL A   1      44.970  32.046  29.666  1.00  0.00     0.031 C 
ATOM     65  C   UNL A   1      40.393  33.928  31.414  1.00  0.00     0.029 A 
ATOM     66  C   UNL A   1      40.851  34.115  30.122  1.00  0.00     0.049 A 
ATOM     67  H   UNL A   1      39.771  34.094  28.310  1.00  0.00     0.167 HD
ATOM     68  C   UNL A   1      43.110  33.438  29.769  1.00  0.00     0.074 A 
ATOM     69  C   UNL A   1      44.527  33.302  29.479  1.00  0.00     0.031 C 
ATOM     70  C   UNL A   1      42.170  34.417  29.569  1.00  0.00     0.034 A 
BRANCH  57  71
ATOM     71  C   UNL A   1      36.041  33.828  29.538  1.00  0.00     0.023 A 
ATOM     72  C   UNL A   1      35.346  34.245  28.380  1.00  0.00     0.012 A 
ATOM     73  C   UNL A   1      35.418  34.103  30.776  1.00  0.00     0.148 A 
ATOM     74  C   UNL A   1      34.167  34.992  28.440  1.00  0.00     0.002 A 
ATOM     75  C   UNL A   1      34.277  34.910  30.840  1.00  0.00     0.091 A 
ATOM     76  F   UNL A   1      35.894  33.535  31.891  1.00  0.00    -0.205 F 
ATOM     77  C   UNL A   1      33.653  35.360  29.672  1.00  0.00     0.022 A 
BRANCH  75  78
ATOM     78  S   UNL A   1      33.608  35.522  32.396  1.00  0.00     0.127 S 
ATOM     79  O   UNL A   1      32.657  36.541  31.945  1.00  0.00    -0.237 OA
ATOM     80  O   UNL A   1      32.989  34.328  32.966  1.00  0.00    -0.237 OA
ATOM     81  O   UNL A   1      34.745  36.062  33.132  1.00  0.00    -0.744 OA
ENDBRANCH  75  78
ENDBRANCH  57  71
BRANCH  58  82
ATOM     82  C   UNL A   1      44.305  28.826  29.594  1.00  0.00     0.023 A 
ATOM     83  C   UNL A   1      44.620  27.607  30.243  1.00  0.00     0.012 A 
ATOM     84  C   UNL A   1      44.184  28.839  28.196  1.00  0.00     0.148 A 
ATOM     85  C   UNL A   1      44.620  26.403  29.537  1.00  0.00     0.002 A 
ATOM     86  C   UNL A   1      44.201  27.633  27.498  1.00  0.00     0.091 A 
ATOM     87  F   UNL A   1      43.973  30.005  27.573  1.00  0.00    -0.205 F 
ATOM     88  C   UNL A   1      44.364  26.413  28.170  1.00  0.00     0.022 A 
BRANCH  86  89
ATOM     89  S   UNL A   1      43.882  27.611  25.731  1.00  0.00     0.127 S 
ATOM     90  O   UNL A   1      43.530  26.212  25.513  1.00  0.00    -0.237 OA
ATOM     91  O   UNL A   1      42.771  28.552  25.591  1.00  0.00    -0.237 OA
ATOM     92  O   UNL A   1      45.130  28.074  25.142  1.00  0.00    -0.744 OA
ENDBRANCH  86  89
ENDBRANCH  58  82
BRANCH  70  93
ATOM     93  C   UNL A   1      42.370  35.744  28.843  1.00  0.00     0.023 A 
ATOM     94  C   UNL A   1      41.723  36.062  27.636  1.00  0.00     0.012 A 
ATOM     95  C   UNL A   1      43.150  36.784  29.425  1.00  0.00     0.148 A 
ATOM     96  C   UNL A   1      41.874  37.307  27.010  1.00  0.00     0.002 A 
ATOM     97  C   UNL A   1      43.208  38.056  28.856  1.00  0.00     0.091 A 
ATOM     98  F   UNL A   1      43.879  36.544  30.524  1.00  0.00    -0.205 F 
ATOM     99  C   UNL A   1      42.596  38.314  27.631  1.00  0.00     0.022 A 
BRANCH  97 100
ATOM    100  S   UNL A   1      43.944  39.439  29.742  1.00  0.00     0.127 S 
ATOM    101  O   UNL A   1      45.372  39.167  29.598  1.00  0.00    -0.237 OA
ATOM    102  O   UNL A   1      43.465  40.593  28.977  1.00  0.00    -0.237 OA
ATOM    103  O   UNL A   1      43.403  39.356  31.092  1.00  0.00    -0.744 OA
ENDBRANCH  97 100
ENDBRANCH  70  93
ENDBRANCH  44  45
ENDBRANCH  36  39
ENDBRANCH  34  35
ENDBRANCH  33  34
ENDBRANCH   1  33
TORSDOF 19
ENDMDL
MODEL 2
REMARK VINA RESULT:     -13.5      1.671      2.096
REMARK SMILES CC(=O)Nc1cnc(N2CC=C(c3ccccc3C)CC2)c(C(=O)NCCCCCCNC(=O)c2ccc(-c3c4nc(c(-c5cccc(S(=O)(=O)[O-])c5F)c5ccc([nH]5)c(-c5cccc(S(=O)(=O)[O-])c5F)c5nc(c(-c6cccc(S(=O)(=O)[O-])c6F)c6ccc3[nH]6)C=C5)C=C4)cc2)c1
REMARK SMILES IDX 29 1 28 2 27 3 26 4 25 5 23 6 24 7 22 9 5 10 6 11 98 12 7 13
REMARK SMILES IDX 8 14 4 15 1 16 2 17 3 18 9 20 10 21 21 22 11 23 20 24 12 25
REMARK SMILES IDX 13 26 14 27 18 28 15 29 17 30 19 31 16 32 30 33 31 34 32 35
REMARK SMILES IDX 33 36 34 38 35 39 36 40 97 41 37 42 96 43 38 44 39 45 40 46
REMARK SMILES IDX 90 47 41 48 95 49 89 50 91 51 42 52 94 53 88 54 87 55 43 57
REMARK SMILES IDX 75 58 55 59 74 60 56 61 59 62 73 63 92 64 57 65 58 66 72 68
REMARK SMILES IDX 93 69 60 70 44 71 45 72 53 73 46 74 48 75 54 76 47 77 49 78
REMARK SMILES IDX 50 79 51 80 52 81 76 82 77 83 85 84 78 85 80 86 86 87 79 88
REMARK SMILES IDX 81 89 82 90 83 91 84 92 61 93 62 94 70 95 63 96 65 97 71 98
REMARK SMILES IDX 64 99 66 100 67 101 68 102 69 103
REMARK H PARENT 25 8 4 19 32 37 91 56 59 67
REMARK Flexibility Score: inf
ROOT
ATOM      1  C   UNL A   1      36.169  21.215  25.172  1.00  0.00     0.002 C 
ENDROOT
BRANCH   1   2
ATOM      2  C   UNL A   1      35.379  22.506  25.452  1.00  0.00     0.002 C 
BRANCH   2   3
ATOM      3  C   UNL A   1      35.040  22.790  26.922  1.00  0.00     0.021 C 
BRANCH   3   4
ATOM      4  C   UNL A   1      33.936  21.901  27.487  1.00  0.00     0.116 C 
BRANCH   4   5
ATOM      5  N   UNL A   1      32.620  22.414  27.196  1.00  0.00    -0.352 N 
ATOM      6  C   UNL A   1      31.684  22.178  26.224  1.00  0.00     0.255 C 
ATOM      7  O   UNL A   1      30.536  22.394  26.616  1.00  0.00    -0.269 OA
ATOM      8  H   UNL A   1      32.325  23.091  27.848  1.00  0.00     0.163 HD
BRANCH   6   9
ATOM      9  C   UNL A   1      31.956  21.660  24.835  1.00  0.00     0.084 A 
ATOM     10  C   UNL A   1      32.266  19.802  23.280  1.00  0.00     0.060 A 
ATOM     11  C   UNL A   1      32.104  20.703  22.249  1.00  0.00     0.139 A 
ATOM     12  C   UNL A   1      32.261  20.313  24.576  1.00  0.00     0.045 A 
ATOM     13  N   UNL A   1      31.890  22.018  22.441  1.00  0.00    -0.236 NA
ATOM     14  C   UNL A   1      31.839  22.511  23.712  1.00  0.00     0.141 A 
BRANCH  10  15
ATOM     15  N   UNL A   1      32.449  18.443  22.981  1.00  0.00    -0.325 N 
ATOM     16  C   UNL A   1      34.490  18.022  24.347  1.00  0.00     0.114 C 
ATOM     17  C   UNL A   1      33.472  17.599  23.320  1.00  0.00     0.221 C 
ATOM     18  O   UNL A   1      33.496  16.465  22.841  1.00  0.00    -0.275 OA
ATOM     19  H   UNL A   1      31.733  18.034  22.444  1.00  0.00     0.169 HD
ENDBRANCH  10  15
BRANCH  14  20
ATOM     20  N   UNL A   1      31.755  23.880  23.746  1.00  0.00    -0.352 N 
ATOM     21  C   UNL A   1      32.977  24.638  23.566  1.00  0.00     0.146 C 
ATOM     22  C   UNL A   1      30.478  24.584  23.699  1.00  0.00     0.123 C 
ATOM     23  C   UNL A   1      32.849  26.012  24.168  1.00  0.00    -0.002 C 
ATOM     24  C   UNL A   1      30.462  25.670  24.776  1.00  0.00     0.057 C 
ATOM     25  C   UNL A   1      31.725  26.495  24.736  1.00  0.00    -0.041 C 
BRANCH  25  26
ATOM     26  C   UNL A   1      31.695  27.852  25.309  1.00  0.00    -0.020 A 
ATOM     27  C   UNL A   1      32.021  28.002  26.670  1.00  0.00     0.008 A 
ATOM     28  C   UNL A   1      31.358  28.993  24.554  1.00  0.00    -0.044 A 
ATOM     29  C   UNL A   1      32.020  29.258  27.274  1.00  0.00     0.001 A 
ATOM     30  C   UNL A   1      31.378  30.253  25.174  1.00  0.00     0.004 A 
ATOM     31  C   UNL A   1      30.998  28.917  23.095  1.00  0.00     0.045 C 
ATOM     32  C   UNL A   1      31.701  30.385  26.525  1.00  0.00     0.000 A 
ENDBRANCH  25  26
ENDBRANCH  14  20
ENDBRANCH   6   9
ENDBRANCH   4   5
ENDBRANCH   3   4
ENDBRANCH   2   3
ENDBRANCH   1   2
BRANCH   1  33
ATOM     33  C   UNL A   1      37.595  21.148  25.728  1.00  0.00     0.021 C 
BRANCH  33  34
ATOM     34  C   UNL A   1      38.397  22.424  25.525  1.00  0.00     0.116 C 
BRANCH  34  35
ATOM     35  N   UNL A   1      39.811  22.273  25.842  1.00  0.00    -0.352 N 
ATOM     36  C   UNL A   1      40.687  23.228  26.328  1.00  0.00     0.251 C 
ATOM     37  H   UNL A   1      40.191  21.378  25.692  1.00  0.00     0.163 HD
ATOM     38  O   UNL A   1      41.876  22.958  26.471  1.00  0.00    -0.269 OA
BRANCH  36  39
ATOM     39  C   UNL A   1      40.133  24.532  26.752  1.00  0.00     0.039 A 
ATOM     40  C   UNL A   1      40.712  25.692  26.229  1.00  0.00     0.014 A 
ATOM     41  C   UNL A   1      39.268  24.596  27.843  1.00  0.00     0.014 A 
ATOM     42  C   UNL A   1      40.621  26.881  26.950  1.00  0.00     0.010 A 
ATOM     43  C   UNL A   1      39.244  25.749  28.600  1.00  0.00     0.010 A 
ATOM     44  C   UNL A   1      39.979  26.866  28.185  1.00  0.00    -0.014 A 
BRANCH  44  45
ATOM     45  C   UNL A   1      40.081  27.942  29.158  1.00  0.00     0.031 A 
ATOM     46  C   UNL A   1      39.194  29.112  29.070  1.00  0.00     0.074 A 
ATOM     47  C   UNL A   1      40.944  27.826  30.191  1.00  0.00     0.049 A 
ATOM     48  N   UNL A   1      39.498  30.273  29.541  1.00  0.00    -0.248 NA
ATOM     49  C   UNL A   1      37.894  29.059  28.418  1.00  0.00     0.031 C 
ATOM     50  C   UNL A   1      40.970  28.618  31.415  1.00  0.00     0.029 A 
ATOM     51  N   UNL A   1      42.127  27.085  30.236  1.00  0.00    -0.354 N 
ATOM     52  C   UNL A   1      38.353  31.036  29.503  1.00  0.00     0.074 A 
ATOM     53  C   UNL A   1      37.407  30.266  28.726  1.00  0.00     0.031 C 
ATOM     54  C   UNL A   1      42.198  28.545  31.948  1.00  0.00     0.029 A 
ATOM     55  C   UNL A   1      43.039  27.835  31.001  1.00  0.00     0.049 A 
ATOM     56  H   UNL A   1      42.291  26.211  29.816  1.00  0.00     0.167 HD
ATOM     57  C   UNL A   1      38.267  32.155  30.276  1.00  0.00     0.034 A 
ATOM     58  C   UNL A   1      44.267  28.237  30.558  1.00  0.00     0.034 A 
ATOM     59  C   UNL A   1      39.496  32.369  31.047  1.00  0.00     0.049 A 
ATOM     60  C   UNL A   1      44.467  29.739  30.641  1.00  0.00     0.074 A 
ATOM     61  C   UNL A   1      39.860  32.023  32.339  1.00  0.00     0.029 A 
ATOM     62  N   UNL A   1      40.663  32.759  30.402  1.00  0.00    -0.354 N 
ATOM     63  N   UNL A   1      43.531  30.588  30.961  1.00  0.00    -0.248 NA
ATOM     64  C   UNL A   1      45.723  30.409  30.315  1.00  0.00     0.031 C 
ATOM     65  C   UNL A   1      41.266  32.165  32.457  1.00  0.00     0.029 A 
ATOM     66  C   UNL A   1      41.758  32.613  31.244  1.00  0.00     0.049 A 
ATOM     67  H   UNL A   1      40.708  33.092  29.478  1.00  0.00     0.167 HD
ATOM     68  C   UNL A   1      43.967  31.872  30.741  1.00  0.00     0.074 A 
ATOM     69  C   UNL A   1      45.375  31.703  30.426  1.00  0.00     0.031 C 
ATOM     70  C   UNL A   1      43.103  32.937  30.776  1.00  0.00     0.034 A 
BRANCH  57  71
ATOM     71  C   UNL A   1      36.949  32.824  30.613  1.00  0.00     0.023 A 
ATOM     72  C   UNL A   1      36.440  32.641  31.919  1.00  0.00     0.012 A 
ATOM     73  C   UNL A   1      36.140  33.565  29.724  1.00  0.00     0.148 A 
ATOM     74  C   UNL A   1      35.162  33.060  32.293  1.00  0.00     0.002 A 
ATOM     75  C   UNL A   1      34.833  33.923  30.074  1.00  0.00     0.091 A 
ATOM     76  F   UNL A   1      36.652  33.978  28.558  1.00  0.00    -0.205 F 
ATOM     77  C   UNL A   1      34.341  33.666  31.358  1.00  0.00     0.022 A 
BRANCH  75  78
ATOM     78  S   UNL A   1      33.666  34.615  28.889  1.00  0.00     0.127 S 
ATOM     79  O   UNL A   1      34.410  35.758  28.354  1.00  0.00    -0.237 OA
ATOM     80  O   UNL A   1      33.485  33.516  27.944  1.00  0.00    -0.237 OA
ATOM     81  O   UNL A   1      32.488  34.988  29.663  1.00  0.00    -0.744 OA
ENDBRANCH  75  78
ENDBRANCH  57  71
BRANCH  58  82
ATOM     82  C   UNL A   1      44.830  27.351  29.496  1.00  0.00     0.023 A 
ATOM     83  C   UNL A   1      45.068  26.000  29.850  1.00  0.00     0.012 A 
ATOM     84  C   UNL A   1      44.714  27.686  28.138  1.00  0.00     0.148 A 
ATOM     85  C   UNL A   1      44.996  24.989  28.891  1.00  0.00     0.002 A 
ATOM     86  C   UNL A   1      44.659  26.670  27.186  1.00  0.00     0.091 A 
ATOM     87  F   UNL A   1      44.577  28.973  27.796  1.00  0.00    -0.205 F 
ATOM     88  C   UNL A   1      44.745  25.322  27.565  1.00  0.00     0.022 A 
BRANCH  86  89
ATOM     89  S   UNL A   1      44.343  27.067  25.464  1.00  0.00     0.127 S 
ATOM     90  O   UNL A   1      43.334  28.115  25.584  1.00  0.00    -0.237 OA
ATOM     91  O   UNL A   1      45.649  27.523  24.992  1.00  0.00    -0.237 OA
ATOM     92  O   UNL A   1      43.910  25.803  24.885  1.00  0.00    -0.744 OA
ENDBRANCH  86  89
ENDBRANCH  58  82
BRANCH  70  93
ATOM     93  C   UNL A   1      43.410  34.378  30.378  1.00  0.00     0.023 A 
ATOM     94  C   UNL A   1      43.754  35.373  31.309  1.00  0.00     0.012 A 
ATOM     95  C   UNL A   1      43.473  34.759  29.007  1.00  0.00     0.148 A 
ATOM     96  C   UNL A   1      44.088  36.678  30.922  1.00  0.00     0.002 A 
ATOM     97  C   UNL A   1      43.913  36.025  28.622  1.00  0.00     0.091 A 
ATOM     98  F   UNL A   1      43.071  33.907  28.053  1.00  0.00    -0.205 F 
ATOM     99  C   UNL A   1      44.193  36.999  29.578  1.00  0.00     0.022 A 
BRANCH  97 100
ATOM    100  S   UNL A   1      44.272  36.402  26.900  1.00  0.00     0.127 S 
ATOM    101  O   UNL A   1      45.337  35.449  26.596  1.00  0.00    -0.237 OA
ATOM    102  O   UNL A   1      42.995  36.116  26.242  1.00  0.00    -0.237 OA
ATOM    103  O   UNL A   1      44.643  37.810  26.889  1.00  0.00    -0.744 OA
ENDBRANCH  97 100
ENDBRANCH  70  93
ENDBRANCH  44  45
ENDBRANCH  36  39
ENDBRANCH  34  35
ENDBRANCH  33  34
ENDBRANCH   1  33
TORSDOF 19
ENDMDL
MODEL 3
REMARK VINA RESULT:     -13.2      3.904     10.198
REMARK SMILES CC(=O)Nc1cnc(N2CC=C(c3ccccc3C)CC2)c(C(=O)NCCCCCCNC(=O)c2ccc(-c3c4nc(c(-c5cccc(S(=O)(=O)[O-])c5F)c5ccc([nH]5)c(-c5cccc(S(=O)(=O)[O-])c5F)c5nc(c(-c6cccc(S(=O)(=O)[O-])c6F)c6ccc3[nH]6)C=C5)C=C4)cc2)c1
REMARK SMILES IDX 29 1 28 2 27 3 26 4 25 5 23 6 24 7 22 9 5 10 6 11 98 12 7 13
REMARK SMILES IDX 8 14 4 15 1 16 2 17 3 18 9 20 10 21 21 22 11 23 20 24 12 25
REMARK SMILES IDX 13 26 14 27 18 28 15 29 17 30 19 31 16 32 30 33 31 34 32 35
REMARK SMILES IDX 33 36 34 38 35 39 36 40 97 41 37 42 96 43 38 44 39 45 40 46
REMARK SMILES IDX 90 47 41 48 95 49 89 50 91 51 42 52 94 53 88 54 87 55 43 57
REMARK SMILES IDX 75 58 55 59 74 60 56 61 59 62 73 63 92 64 57 65 58 66 72 68
REMARK SMILES IDX 93 69 60 70 44 71 45 72 53 73 46 74 48 75 54 76 47 77 49 78
REMARK SMILES IDX 50 79 51 80 52 81 76 82 77 83 85 84 78 85 80 86 86 87 79 88
REMARK SMILES IDX 81 89 82 90 83 91 84 92 61 93 62 94 70 95 63 96 65 97 71 98
REMARK SMILES IDX 64 99 66 100 67 101 68 102 69 103
REMARK H PARENT 25 8 4 19 32 37 91 56 59 67
REMARK Flexibility Score: inf
ROOT
ATOM      1  C   UNL A   1      32.631  30.484  27.216  1.00  0.00     0.002 C 
ENDROOT
BRANCH   1   2
ATOM      2  C   UNL A   1      31.809  29.380  26.529  1.00  0.00     0.002 C 
BRANCH   2   3
ATOM      3  C   UNL A   1      31.252  28.279  27.444  1.00  0.00     0.021 C 
BRANCH   3   4
ATOM      4  C   UNL A   1      31.745  26.877  27.099  1.00  0.00     0.116 C 
BRANCH   4   5
ATOM      5  N   UNL A   1      30.756  26.111  26.382  1.00  0.00    -0.352 N 
ATOM      6  C   UNL A   1      30.376  26.012  25.070  1.00  0.00     0.255 C 
ATOM      7  O   UNL A   1      29.903  24.906  24.802  1.00  0.00    -0.269 OA
ATOM      8  H   UNL A   1      30.232  25.523  26.973  1.00  0.00     0.163 HD
BRANCH   6   9
ATOM      9  C   UNL A   1      30.541  27.074  24.013  1.00  0.00     0.084 A 
ATOM     10  C   UNL A   1      29.734  29.071  22.862  1.00  0.00     0.060 A 
ATOM     11  C   UNL A   1      30.996  29.212  22.326  1.00  0.00     0.139 A 
ATOM     12  C   UNL A   1      29.501  27.948  23.652  1.00  0.00     0.045 A 
ATOM     13  N   UNL A   1      32.007  28.358  22.575  1.00  0.00    -0.236 NA
ATOM     14  C   UNL A   1      31.790  27.282  23.386  1.00  0.00     0.141 A 
BRANCH  10  15
ATOM     15  N   UNL A   1      28.755  30.035  22.572  1.00  0.00    -0.325 N 
ATOM     16  C   UNL A   1      29.398  31.753  24.258  1.00  0.00     0.114 C 
ATOM     17  C   UNL A   1      28.459  31.207  23.214  1.00  0.00     0.221 C 
ATOM     18  O   UNL A   1      27.468  31.848  22.864  1.00  0.00    -0.275 OA
ATOM     19  H   UNL A   1      28.194  29.838  21.788  1.00  0.00     0.169 HD
ENDBRANCH  10  15
BRANCH  14  20
ATOM     20  N   UNL A   1      32.865  26.431  23.434  1.00  0.00    -0.352 N 
ATOM     21  C   UNL A   1      33.071  25.537  22.312  1.00  0.00     0.146 C 
ATOM     22  C   UNL A   1      33.925  26.568  24.427  1.00  0.00     0.123 C 
ATOM     23  C   UNL A   1      33.882  24.337  22.724  1.00  0.00    -0.002 C 
ATOM     24  C   UNL A   1      34.231  25.197  25.031  1.00  0.00     0.057 C 
ATOM     25  C   UNL A   1      34.403  24.154  23.954  1.00  0.00    -0.041 C 
BRANCH  25  26
ATOM     26  C   UNL A   1      35.176  22.940  24.270  1.00  0.00    -0.020 A 
ATOM     27  C   UNL A   1      36.564  22.962  24.041  1.00  0.00     0.008 A 
ATOM     28  C   UNL A   1      34.583  21.770  24.788  1.00  0.00    -0.044 A 
ATOM     29  C   UNL A   1      37.356  21.852  24.326  1.00  0.00     0.001 A 
ATOM     30  C   UNL A   1      35.399  20.665  25.084  1.00  0.00     0.004 A 
ATOM     31  C   UNL A   1      33.107  21.666  25.058  1.00  0.00     0.045 C 
ATOM     32  C   UNL A   1      36.774  20.703  24.850  1.00  0.00     0.000 A 
ENDBRANCH  25  26
ENDBRANCH  14  20
ENDBRANCH   6   9
ENDBRANCH   4   5
ENDBRANCH   3   4
ENDBRANCH   2   3
ENDBRANCH   1   2
BRANCH   1  33
ATOM     33  C   UNL A   1      34.153  30.403  27.066  1.00  0.00     0.021 C 
BRANCH  33  34
ATOM     34  C   UNL A   1      34.916  31.317  28.013  1.00  0.00     0.116 C 
BRANCH  34  35
ATOM     35  N   UNL A   1      34.164  32.502  28.403  1.00  0.00    -0.352 N 
ATOM     36  C   UNL A   1      34.504  33.464  29.337  1.00  0.00     0.251 C 
ATOM     37  H   UNL A   1      33.304  32.635  27.942  1.00  0.00     0.163 HD
ATOM     38  O   UNL A   1      33.717  34.367  29.606  1.00  0.00    -0.269 OA
BRANCH  36  39
ATOM     39  C   UNL A   1      35.862  33.422  29.920  1.00  0.00     0.039 A 
ATOM     40  C   UNL A   1      36.919  33.931  29.159  1.00  0.00     0.014 A 
ATOM     41  C   UNL A   1      36.106  32.646  31.052  1.00  0.00     0.014 A 
ATOM     42  C   UNL A   1      38.210  33.458  29.387  1.00  0.00     0.010 A 
ATOM     43  C   UNL A   1      37.367  32.115  31.229  1.00  0.00     0.010 A 
ATOM     44  C   UNL A   1      38.398  32.470  30.351  1.00  0.00    -0.014 A 
BRANCH  44  45
ATOM     45  C   UNL A   1      39.618  31.687  30.471  1.00  0.00     0.031 A 
ATOM     46  C   UNL A   1      39.734  30.382  29.804  1.00  0.00     0.074 A 
ATOM     47  C   UNL A   1      40.676  32.201  31.136  1.00  0.00     0.049 A 
ATOM     48  N   UNL A   1      40.515  29.440  30.212  1.00  0.00    -0.248 NA
ATOM     49  C   UNL A   1      38.951  30.034  28.627  1.00  0.00     0.031 C 
ATOM     50  C   UNL A   1      42.056  31.733  31.098  1.00  0.00     0.029 A 
ATOM     51  N   UNL A   1      40.661  33.143  32.167  1.00  0.00    -0.354 N 
ATOM     52  C   UNL A   1      40.547  28.486  29.220  1.00  0.00     0.074 A 
ATOM     53  C   UNL A   1      39.500  28.860  28.295  1.00  0.00     0.031 C 
ATOM     54  C   UNL A   1      42.685  32.159  32.204  1.00  0.00     0.029 A 
ATOM     55  C   UNL A   1      41.687  32.778  33.058  1.00  0.00     0.049 A 
ATOM     56  H   UNL A   1      40.053  33.912  32.253  1.00  0.00     0.167 HD
ATOM     57  C   UNL A   1      41.565  27.580  29.195  1.00  0.00     0.034 A 
ATOM     58  C   UNL A   1      41.499  32.527  34.387  1.00  0.00     0.034 A 
ATOM     59  C   UNL A   1      42.495  27.788  30.309  1.00  0.00     0.049 A 
ATOM     60  C   UNL A   1      41.982  31.151  34.805  1.00  0.00     0.074 A 
ATOM     61  C   UNL A   1      43.689  28.486  30.411  1.00  0.00     0.029 A 
ATOM     62  N   UNL A   1      42.103  27.490  31.608  1.00  0.00    -0.354 N 
ATOM     63  N   UNL A   1      42.403  30.236  33.977  1.00  0.00    -0.248 NA
ATOM     64  C   UNL A   1      41.978  30.676  36.187  1.00  0.00     0.031 C 
ATOM     65  C   UNL A   1      43.993  28.645  31.787  1.00  0.00     0.029 A 
ATOM     66  C   UNL A   1      42.995  28.032  32.523  1.00  0.00     0.049 A 
ATOM     67  H   UNL A   1      41.304  26.967  31.846  1.00  0.00     0.167 HD
ATOM     68  C   UNL A   1      42.566  29.043  34.639  1.00  0.00     0.074 A 
ATOM     69  C   UNL A   1      42.376  29.400  36.034  1.00  0.00     0.031 C 
ATOM     70  C   UNL A   1      42.775  27.870  33.958  1.00  0.00     0.034 A 
BRANCH  57  71
ATOM     71  C   UNL A   1      41.914  26.768  27.962  1.00  0.00     0.023 A 
ATOM     72  C   UNL A   1      41.866  27.427  26.713  1.00  0.00     0.012 A 
ATOM     73  C   UNL A   1      42.223  25.391  27.933  1.00  0.00     0.148 A 
ATOM     74  C   UNL A   1      41.996  26.748  25.500  1.00  0.00     0.002 A 
ATOM     75  C   UNL A   1      42.284  24.696  26.719  1.00  0.00     0.091 A 
ATOM     76  F   UNL A   1      42.517  24.758  29.075  1.00  0.00    -0.205 F 
ATOM     77  C   UNL A   1      42.165  25.374  25.501  1.00  0.00     0.022 A 
BRANCH  75  78
ATOM     78  S   UNL A   1      42.393  22.900  26.633  1.00  0.00     0.127 S 
ATOM     79  O   UNL A   1      43.717  22.643  27.205  1.00  0.00    -0.237 OA
ATOM     80  O   UNL A   1      41.278  22.475  27.475  1.00  0.00    -0.237 OA
ATOM     81  O   UNL A   1      42.286  22.563  25.219  1.00  0.00    -0.744 OA
ENDBRANCH  75  78
ENDBRANCH  57  71
BRANCH  58  82
ATOM     82  C   UNL A   1      40.315  33.234  34.959  1.00  0.00     0.023 A 
ATOM     83  C   UNL A   1      39.059  32.594  34.821  1.00  0.00     0.012 A 
ATOM     84  C   UNL A   1      40.469  34.220  35.946  1.00  0.00     0.148 A 
ATOM     85  C   UNL A   1      38.051  32.791  35.766  1.00  0.00     0.002 A 
ATOM     86  C   UNL A   1      39.450  34.420  36.875  1.00  0.00     0.091 A 
ATOM     87  F   UNL A   1      41.626  34.888  36.022  1.00  0.00    -0.205 F 
ATOM     88  C   UNL A   1      38.265  33.671  36.820  1.00  0.00     0.022 A 
BRANCH  86  89
ATOM     89  S   UNL A   1      39.692  35.555  38.246  1.00  0.00     0.127 S 
ATOM     90  O   UNL A   1      38.548  35.240  39.094  1.00  0.00    -0.237 OA
ATOM     91  O   UNL A   1      40.987  35.141  38.784  1.00  0.00    -0.237 OA
ATOM     92  O   UNL A   1      39.702  36.868  37.618  1.00  0.00    -0.744 OA
ENDBRANCH  86  89
ENDBRANCH  58  82
BRANCH  70  93
ATOM     93  C   UNL A   1      42.793  26.463  34.546  1.00  0.00     0.023 A 
ATOM     94  C   UNL A   1      41.746  25.946  35.330  1.00  0.00     0.012 A 
ATOM     95  C   UNL A   1      43.841  25.552  34.227  1.00  0.00     0.148 A 
ATOM     96  C   UNL A   1      41.753  24.631  35.816  1.00  0.00     0.002 A 
ATOM     97  C   UNL A   1      43.788  24.215  34.619  1.00  0.00     0.091 A 
ATOM     98  F   UNL A   1      44.926  25.979  33.566  1.00  0.00    -0.205 F 
ATOM     99  C   UNL A   1      42.760  23.756  35.441  1.00  0.00     0.022 A 
BRANCH  97 100
ATOM    100  S   UNL A   1      44.953  23.007  33.968  1.00  0.00     0.127 S 
ATOM    101  O   UNL A   1      44.473  21.766  34.573  1.00  0.00    -0.237 OA
ATOM    102  O   UNL A   1      44.732  23.104  32.523  1.00  0.00    -0.237 OA
ATOM    103  O   UNL A   1      46.263  23.472  34.401  1.00  0.00    -0.744 OA
ENDBRANCH  97 100
ENDBRANCH  70  93
ENDBRANCH  44  45
ENDBRANCH  36  39
ENDBRANCH  34  35
ENDBRANCH  33  34
ENDBRANCH   1  33
TORSDOF 19
ENDMDL
