MODEL 1
REMARK VINA RESULT:     -12.0      0.000      0.000
REMARK SMILES O=C(NCCCCCCNC(=O)c1ccc(-c2ccn(C(F)F)c(=O)c2)cc1O)c1ccc(-c2c3nc(c(-c4cccc(S(=O)(=O)[O-])c4F)c4ccc([nH]4)c(-c4cccc(S(=O)(=O)[O-])c4F)c4nc(c(-c5cccc(S(=O)(=O)[O-])c5F)c5ccc2[nH]5)C=C4)C=C3)cc1
REMARK SMILES IDX 6 1 5 2 4 3 3 4 1 5 2 6 30 8 31 9 92 10 32 11 91 12 33 13
REMARK SMILES IDX 34 14 35 15 85 16 36 17 90 18 84 19 86 20 37 21 89 22 83 23
REMARK SMILES IDX 82 24 38 26 70 27 50 28 69 29 51 30 54 31 68 32 87 33 52 34
REMARK SMILES IDX 53 35 67 37 88 38 55 39 39 40 40 41 48 42 41 43 43 44 49 45
REMARK SMILES IDX 42 46 44 47 45 48 46 49 47 50 71 51 72 52 80 53 73 54 75 55
REMARK SMILES IDX 81 56 74 57 76 58 77 59 78 60 79 61 56 62 57 63 65 64 58 65
REMARK SMILES IDX 60 66 66 67 59 68 61 69 62 70 63 71 64 72 7 73 8 74 9 75
REMARK SMILES IDX 10 76 11 77 12 79 13 80 14 81 28 82 15 83 27 84 16 85 29 86
REMARK SMILES IDX 17 88 18 89 26 90 19 91 24 92 20 93 25 94 21 95 22 96 23 97
REMARK H PARENT 3 7 86 25 54 36 10 78 29 87
REMARK Flexibility Score: inf
ROOT
ATOM      1  C   UNL A   1      34.570  23.685  25.674  1.00  0.00     0.002 C 
ENDROOT
BRANCH   1   2
ATOM      2  C   UNL A   1      35.666  22.690  26.065  1.00  0.00     0.021 C 
BRANCH   2   3
ATOM      3  C   UNL A   1      36.660  22.351  24.960  1.00  0.00     0.116 C 
BRANCH   3   4
ATOM      4  N   UNL A   1      37.527  21.245  25.319  1.00  0.00    -0.352 N 
ATOM      5  O   UNL A   1      39.419  20.215  25.959  1.00  0.00    -0.269 OA
ATOM      6  C   UNL A   1      38.769  21.259  25.901  1.00  0.00     0.251 C 
ATOM      7  H   UNL A   1      37.171  20.350  25.114  1.00  0.00     0.163 HD
BRANCH   6   8
ATOM      8  C   UNL A   1      39.333  22.510  26.454  1.00  0.00     0.039 A 
ATOM      9  C   UNL A   1      38.837  23.731  25.988  1.00  0.00     0.014 A 
ATOM     10  C   UNL A   1      40.388  22.493  27.373  1.00  0.00     0.014 A 
ATOM     11  C   UNL A   1      39.394  24.929  26.441  1.00  0.00     0.010 A 
ATOM     12  C   UNL A   1      40.890  23.689  27.882  1.00  0.00     0.010 A 
ATOM     13  C   UNL A   1      40.427  24.918  27.390  1.00  0.00    -0.014 A 
BRANCH  13  14
ATOM     14  C   UNL A   1      41.091  26.179  27.807  1.00  0.00     0.031 A 
ATOM     15  C   UNL A   1      42.505  26.459  27.370  1.00  0.00     0.074 A 
ATOM     16  C   UNL A   1      40.443  27.060  28.593  1.00  0.00     0.049 A 
ATOM     17  N   UNL A   1      43.257  27.495  27.634  1.00  0.00    -0.248 NA
ATOM     18  C   UNL A   1      43.172  25.435  26.546  1.00  0.00     0.031 C 
ATOM     19  C   UNL A   1      39.094  26.881  29.131  1.00  0.00     0.029 A 
ATOM     20  N   UNL A   1      40.838  28.282  29.081  1.00  0.00    -0.354 N 
ATOM     21  C   UNL A   1      44.490  27.228  27.051  1.00  0.00     0.074 A 
ATOM     22  C   UNL A   1      44.400  25.922  26.440  1.00  0.00     0.031 C 
ATOM     23  C   UNL A   1      38.764  27.965  29.853  1.00  0.00     0.029 A 
ATOM     24  C   UNL A   1      39.882  28.905  29.848  1.00  0.00     0.049 A 
ATOM     25  H   UNL A   1      41.722  28.675  28.898  1.00  0.00     0.167 HD
ATOM     26  C   UNL A   1      45.588  28.014  26.994  1.00  0.00     0.034 A 
ATOM     27  C   UNL A   1      39.898  30.102  30.467  1.00  0.00     0.034 A 
ATOM     28  C   UNL A   1      45.651  29.348  27.518  1.00  0.00     0.049 A 
ATOM     29  C   UNL A   1      41.110  30.984  30.343  1.00  0.00     0.074 A 
ATOM     30  C   UNL A   1      46.683  30.262  27.408  1.00  0.00     0.029 A 
ATOM     31  N   UNL A   1      44.643  29.960  28.243  1.00  0.00    -0.354 N 
ATOM     32  N   UNL A   1      42.217  30.765  29.676  1.00  0.00    -0.248 NA
ATOM     33  C   UNL A   1      41.071  32.281  31.033  1.00  0.00     0.031 C 
ATOM     34  C   UNL A   1      46.301  31.428  28.075  1.00  0.00     0.029 A 
ATOM     35  C   UNL A   1      45.029  31.239  28.595  1.00  0.00     0.049 A 
ATOM     36  H   UNL A   1      43.779  29.547  28.472  1.00  0.00     0.167 HD
ATOM     37  C   UNL A   1      42.998  31.902  29.848  1.00  0.00     0.074 A 
ATOM     38  C   UNL A   1      42.234  32.815  30.675  1.00  0.00     0.031 C 
ATOM     39  C   UNL A   1      44.241  32.155  29.375  1.00  0.00     0.034 A 
BRANCH  26  40
ATOM     40  C   UNL A   1      46.796  27.489  26.272  1.00  0.00     0.023 A 
ATOM     41  C   UNL A   1      46.971  27.797  24.908  1.00  0.00     0.012 A 
ATOM     42  C   UNL A   1      47.799  26.780  26.962  1.00  0.00     0.148 A 
ATOM     43  C   UNL A   1      48.122  27.393  24.235  1.00  0.00     0.002 A 
ATOM     44  C   UNL A   1      48.958  26.409  26.291  1.00  0.00     0.091 A 
ATOM     45  F   UNL A   1      47.600  26.490  28.255  1.00  0.00    -0.205 F 
ATOM     46  C   UNL A   1      49.119  26.710  24.928  1.00  0.00     0.022 A 
BRANCH  44  47
ATOM     47  S   UNL A   1      50.327  25.575  27.102  1.00  0.00     0.127 S 
ATOM     48  O   UNL A   1      51.267  25.409  25.993  1.00  0.00    -0.237 OA
ATOM     49  O   UNL A   1      50.733  26.559  28.104  1.00  0.00    -0.237 OA
ATOM     50  O   UNL A   1      49.784  24.337  27.641  1.00  0.00    -0.744 OA
ENDBRANCH  44  47
ENDBRANCH  26  40
BRANCH  27  51
ATOM     51  C   UNL A   1      38.679  30.562  31.186  1.00  0.00     0.023 A 
ATOM     52  C   UNL A   1      38.621  30.431  32.586  1.00  0.00     0.012 A 
ATOM     53  C   UNL A   1      37.626  31.205  30.506  1.00  0.00     0.148 A 
ATOM     54  C   UNL A   1      37.533  30.931  33.300  1.00  0.00     0.002 A 
ATOM     55  C   UNL A   1      36.562  31.733  31.228  1.00  0.00     0.091 A 
ATOM     56  F   UNL A   1      37.708  31.316  29.174  1.00  0.00    -0.205 F 
ATOM     57  C   UNL A   1      36.509  31.590  32.624  1.00  0.00     0.022 A 
BRANCH  55  58
ATOM     58  S   UNL A   1      35.248  32.689  30.463  1.00  0.00     0.127 S 
ATOM     59  O   UNL A   1      34.290  32.813  31.559  1.00  0.00    -0.237 OA
ATOM     60  O   UNL A   1      35.945  33.925  30.111  1.00  0.00    -0.237 OA
ATOM     61  O   UNL A   1      34.792  31.903  29.324  1.00  0.00    -0.744 OA
ENDBRANCH  55  58
ENDBRANCH  27  51
BRANCH  39  62
ATOM     62  C   UNL A   1      44.889  33.467  29.720  1.00  0.00     0.023 A 
ATOM     63  C   UNL A   1      45.688  33.551  30.876  1.00  0.00     0.012 A 
ATOM     64  C   UNL A   1      44.855  34.544  28.813  1.00  0.00     0.148 A 
ATOM     65  C   UNL A   1      46.452  34.690  31.122  1.00  0.00     0.002 A 
ATOM     66  C   UNL A   1      45.645  35.662  29.048  1.00  0.00     0.091 A 
ATOM     67  F   UNL A   1      44.086  34.434  27.720  1.00  0.00    -0.205 F 
ATOM     68  C   UNL A   1      46.442  35.738  30.203  1.00  0.00     0.022 A 
BRANCH  66  69
ATOM     69  S   UNL A   1      45.768  37.027  27.887  1.00  0.00     0.127 S 
ATOM     70  O   UNL A   1      44.508  37.733  28.122  1.00  0.00    -0.237 OA
ATOM     71  O   UNL A   1      46.960  37.729  28.362  1.00  0.00    -0.237 OA
ATOM     72  O   UNL A   1      45.898  36.425  26.566  1.00  0.00    -0.744 OA
ENDBRANCH  66  69
ENDBRANCH  39  62
ENDBRANCH  13  14
ENDBRANCH   6   8
ENDBRANCH   3   4
ENDBRANCH   2   3
ENDBRANCH   1   2
BRANCH   1  73
ATOM     73  C   UNL A   1      34.955  25.163  25.765  1.00  0.00     0.002 C 
BRANCH  73  74
ATOM     74  C   UNL A   1      33.802  26.159  25.616  1.00  0.00     0.021 C 
BRANCH  74  75
ATOM     75  C   UNL A   1      33.664  26.791  24.234  1.00  0.00     0.116 C 
BRANCH  75  76
ATOM     76  N   UNL A   1      32.281  27.078  23.895  1.00  0.00    -0.352 N 
ATOM     77  C   UNL A   1      31.271  26.191  23.627  1.00  0.00     0.255 C 
ATOM     78  H   UNL A   1      32.038  28.031  23.850  1.00  0.00     0.163 HD
ATOM     79  O   UNL A   1      30.160  26.590  23.280  1.00  0.00    -0.269 OA
BRANCH  77  80
ATOM     80  C   UNL A   1      31.537  24.740  23.679  1.00  0.00     0.081 A 
ATOM     81  C   UNL A   1      32.360  24.199  22.683  1.00  0.00     0.018 A 
ATOM     82  C   UNL A   1      31.003  23.911  24.671  1.00  0.00     0.128 A 
ATOM     83  C   UNL A   1      32.687  22.841  22.708  1.00  0.00     0.010 A 
ATOM     84  C   UNL A   1      31.338  22.558  24.702  1.00  0.00     0.055 A 
ATOM     85  C   UNL A   1      32.188  22.015  23.726  1.00  0.00    -0.014 A 
BRANCH  82  86
ATOM     86  O   UNL A   1      30.161  24.419  25.620  1.00  0.00    -0.507 OA
ATOM     87  H   UNL A   1      30.010  25.342  25.667  1.00  0.00     0.293 HD
ENDBRANCH  82  86
BRANCH  85  88
ATOM     88  C   UNL A   1      32.530  20.582  23.793  1.00  0.00    -0.011 A 
ATOM     89  C   UNL A   1      33.329  20.024  24.868  1.00  0.00     0.027 A 
ATOM     90  C   UNL A   1      32.140  19.777  22.787  1.00  0.00     0.080 A 
ATOM     91  C   UNL A   1      33.718  18.745  24.836  1.00  0.00     0.095 A 
ATOM     92  C   UNL A   1      32.532  18.340  22.761  1.00  0.00     0.255 A 
ATOM     93  N   UNL A   1      33.344  17.915  23.798  1.00  0.00    -0.258 N 
ATOM     94  O   UNL A   1      32.125  17.639  21.837  1.00  0.00    -0.269 OA
BRANCH  93  95
ATOM     95  C   UNL A   1      33.796  16.548  23.758  1.00  0.00     0.451 C 
ATOM     96  F   UNL A   1      35.001  16.413  24.361  1.00  0.00    -0.185 F 
ATOM     97  F   UNL A   1      32.917  15.725  24.380  1.00  0.00    -0.185 F 
ENDBRANCH  93  95
ENDBRANCH  85  88
ENDBRANCH  77  80
ENDBRANCH  75  76
ENDBRANCH  74  75
ENDBRANCH  73  74
ENDBRANCH   1  73
TORSDOF 19
ENDMDL
MODEL 2
REMARK VINA RESULT:     -11.6      3.157      4.878
REMARK SMILES O=C(NCCCCCCNC(=O)c1ccc(-c2ccn(C(F)F)c(=O)c2)cc1O)c1ccc(-c2c3nc(c(-c4cccc(S(=O)(=O)[O-])c4F)c4ccc([nH]4)c(-c4cccc(S(=O)(=O)[O-])c4F)c4nc(c(-c5cccc(S(=O)(=O)[O-])c5F)c5ccc2[nH]5)C=C4)C=C3)cc1
REMARK SMILES IDX 6 1 5 2 4 3 3 4 1 5 2 6 30 8 31 9 92 10 32 11 91 12 33 13
REMARK SMILES IDX 34 14 35 15 85 16 36 17 90 18 84 19 86 20 37 21 89 22 83 23
REMARK SMILES IDX 82 24 38 26 70 27 50 28 69 29 51 30 54 31 68 32 87 33 52 34
REMARK SMILES IDX 53 35 67 37 88 38 55 39 39 40 40 41 48 42 41 43 43 44 49 45
REMARK SMILES IDX 42 46 44 47 45 48 46 49 47 50 71 51 72 52 80 53 73 54 75 55
REMARK SMILES IDX 81 56 74 57 76 58 77 59 78 60 79 61 56 62 57 63 65 64 58 65
REMARK SMILES IDX 60 66 66 67 59 68 61 69 62 70 63 71 64 72 7 73 8 74 9 75
REMARK SMILES IDX 10 76 11 77 12 79 13 80 14 81 28 82 15 83 27 84 16 85 29 86
REMARK SMILES IDX 17 88 18 89 26 90 19 91 24 92 20 93 25 94 21 95 22 96 23 97
REMARK H PARENT 3 7 86 25 54 36 10 78 29 87
REMARK Flexibility Score: inf
ROOT
ATOM      1  C   UNL A   1      37.203  21.365  24.537  1.00  0.00     0.002 C 
ENDROOT
BRANCH   1   2
ATOM      2  C   UNL A   1      37.992  20.136  24.995  1.00  0.00     0.021 C 
BRANCH   2   3
ATOM      3  C   UNL A   1      38.975  20.382  26.134  1.00  0.00     0.116 C 
BRANCH   3   4
ATOM      4  N   UNL A   1      40.135  19.514  26.058  1.00  0.00    -0.352 N 
ATOM      5  O   UNL A   1      42.301  18.962  25.836  1.00  0.00    -0.269 OA
ATOM      6  C   UNL A   1      41.469  19.829  26.098  1.00  0.00     0.251 C 
ATOM      7  H   UNL A   1      39.934  18.554  25.965  1.00  0.00     0.163 HD
BRANCH   6   8
ATOM      8  C   UNL A   1      41.915  21.197  26.448  1.00  0.00     0.039 A 
ATOM      9  C   UNL A   1      42.145  21.502  27.792  1.00  0.00     0.014 A 
ATOM     10  C   UNL A   1      42.041  22.196  25.477  1.00  0.00     0.014 A 
ATOM     11  C   UNL A   1      42.502  22.801  28.162  1.00  0.00     0.010 A 
ATOM     12  C   UNL A   1      42.473  23.471  25.837  1.00  0.00     0.010 A 
ATOM     13  C   UNL A   1      42.667  23.796  27.187  1.00  0.00    -0.014 A 
BRANCH  13  14
ATOM     14  C   UNL A   1      42.951  25.202  27.576  1.00  0.00     0.031 A 
ATOM     15  C   UNL A   1      44.346  25.749  27.431  1.00  0.00     0.074 A 
ATOM     16  C   UNL A   1      41.972  25.978  28.079  1.00  0.00     0.049 A 
ATOM     17  N   UNL A   1      44.795  26.943  27.720  1.00  0.00    -0.248 NA
ATOM     18  C   UNL A   1      45.381  24.835  26.914  1.00  0.00     0.031 C 
ATOM     19  C   UNL A   1      40.594  25.551  28.322  1.00  0.00     0.029 A 
ATOM     20  N   UNL A   1      41.990  27.291  28.481  1.00  0.00    -0.354 N 
ATOM     21  C   UNL A   1      46.160  26.907  27.465  1.00  0.00     0.074 A 
ATOM     22  C   UNL A   1      46.478  25.569  27.023  1.00  0.00     0.031 C 
ATOM     23  C   UNL A   1      39.893  26.589  28.808  1.00  0.00     0.029 A 
ATOM     24  C   UNL A   1      40.774  27.748  28.930  1.00  0.00     0.049 A 
ATOM     25  H   UNL A   1      42.798  27.852  28.450  1.00  0.00     0.167 HD
ATOM     26  C   UNL A   1      47.064  27.908  27.553  1.00  0.00     0.034 A 
ATOM     27  C   UNL A   1      40.405  28.964  29.378  1.00  0.00     0.034 A 
ATOM     28  C   UNL A   1      46.737  29.260  27.903  1.00  0.00     0.049 A 
ATOM     29  C   UNL A   1      41.416  30.078  29.415  1.00  0.00     0.074 A 
ATOM     30  C   UNL A   1      47.567  30.367  27.908  1.00  0.00     0.029 A 
ATOM     31  N   UNL A   1      45.483  29.691  28.300  1.00  0.00    -0.354 N 
ATOM     32  N   UNL A   1      42.672  30.055  29.044  1.00  0.00    -0.248 NA
ATOM     33  C   UNL A   1      40.958  31.385  29.907  1.00  0.00     0.031 C 
ATOM     34  C   UNL A   1      46.814  31.469  28.318  1.00  0.00     0.029 A 
ATOM     35  C   UNL A   1      45.516  31.047  28.563  1.00  0.00     0.049 A 
ATOM     36  H   UNL A   1      44.687  29.118  28.383  1.00  0.00     0.167 HD
ATOM     37  C   UNL A   1      43.151  31.346  29.238  1.00  0.00     0.074 A 
ATOM     38  C   UNL A   1      42.046  32.131  29.750  1.00  0.00     0.031 C 
ATOM     39  C   UNL A   1      44.398  31.827  29.024  1.00  0.00     0.034 A 
BRANCH  26  40
ATOM     40  C   UNL A   1      48.491  27.606  27.191  1.00  0.00     0.023 A 
ATOM     41  C   UNL A   1      49.361  27.107  28.180  1.00  0.00     0.012 A 
ATOM     42  C   UNL A   1      48.940  27.722  25.861  1.00  0.00     0.148 A 
ATOM     43  C   UNL A   1      50.665  26.740  27.854  1.00  0.00     0.002 A 
ATOM     44  C   UNL A   1      50.232  27.324  25.539  1.00  0.00     0.091 A 
ATOM     45  F   UNL A   1      48.095  28.213  24.944  1.00  0.00    -0.205 F 
ATOM     46  C   UNL A   1      51.096  26.838  26.534  1.00  0.00     0.022 A 
BRANCH  44  47
ATOM     47  S   UNL A   1      50.869  27.357  23.860  1.00  0.00     0.127 S 
ATOM     48  O   UNL A   1      51.006  28.795  23.626  1.00  0.00    -0.237 OA
ATOM     49  O   UNL A   1      52.135  26.638  24.000  1.00  0.00    -0.237 OA
ATOM     50  O   UNL A   1      49.872  26.690  23.035  1.00  0.00    -0.744 OA
ENDBRANCH  44  47
ENDBRANCH  26  40
BRANCH  27  51
ATOM     51  C   UNL A   1      38.982  29.200  29.744  1.00  0.00     0.023 A 
ATOM     52  C   UNL A   1      38.562  28.940  31.062  1.00  0.00     0.012 A 
ATOM     53  C   UNL A   1      38.073  29.763  28.826  1.00  0.00     0.148 A 
ATOM     54  C   UNL A   1      37.259  29.233  31.462  1.00  0.00     0.002 A 
ATOM     55  C   UNL A   1      36.787  30.086  29.242  1.00  0.00     0.091 A 
ATOM     56  F   UNL A   1      38.500  30.002  27.579  1.00  0.00    -0.205 F 
ATOM     57  C   UNL A   1      36.375  29.815  30.556  1.00  0.00     0.022 A 
BRANCH  55  58
ATOM     58  S   UNL A   1      35.608  30.933  28.183  1.00  0.00     0.127 S 
ATOM     59  O   UNL A   1      35.273  29.890  27.215  1.00  0.00    -0.237 OA
ATOM     60  O   UNL A   1      34.541  31.260  29.129  1.00  0.00    -0.237 OA
ATOM     61  O   UNL A   1      36.314  32.084  27.639  1.00  0.00    -0.744 OA
ENDBRANCH  55  58
ENDBRANCH  27  51
BRANCH  39  62
ATOM     62  C   UNL A   1      44.675  33.273  29.333  1.00  0.00     0.023 A 
ATOM     63  C   UNL A   1      45.164  33.617  30.607  1.00  0.00     0.012 A 
ATOM     64  C   UNL A   1      44.625  34.245  28.316  1.00  0.00     0.148 A 
ATOM     65  C   UNL A   1      45.608  34.913  30.864  1.00  0.00     0.002 A 
ATOM     66  C   UNL A   1      45.101  35.526  28.570  1.00  0.00     0.091 A 
ATOM     67  F   UNL A   1      44.155  33.886  27.112  1.00  0.00    -0.205 F 
ATOM     68  C   UNL A   1      45.590  35.861  29.843  1.00  0.00     0.022 A 
BRANCH  66  69
ATOM     69  S   UNL A   1      45.199  36.795  27.302  1.00  0.00     0.127 S 
ATOM     70  O   UNL A   1      45.881  37.875  28.015  1.00  0.00    -0.237 OA
ATOM     71  O   UNL A   1      46.003  36.140  26.272  1.00  0.00    -0.237 OA
ATOM     72  O   UNL A   1      43.825  37.087  26.914  1.00  0.00    -0.744 OA
ENDBRANCH  66  69
ENDBRANCH  39  62
ENDBRANCH  13  14
ENDBRANCH   6   8
ENDBRANCH   3   4
ENDBRANCH   2   3
ENDBRANCH   1   2
BRANCH   1  73
ATOM     73  C   UNL A   1      35.869  21.599  25.251  1.00  0.00     0.002 C 
BRANCH  73  74
ATOM     74  C   UNL A   1      35.621  23.027  25.741  1.00  0.00     0.021 C 
BRANCH  74  75
ATOM     75  C   UNL A   1      34.163  23.370  26.030  1.00  0.00     0.116 C 
BRANCH  75  76
ATOM     76  N   UNL A   1      33.289  22.217  25.900  1.00  0.00    -0.352 N 
ATOM     77  C   UNL A   1      32.037  22.159  25.344  1.00  0.00     0.255 C 
ATOM     78  H   UNL A   1      33.640  21.369  26.257  1.00  0.00     0.163 HD
ATOM     79  O   UNL A   1      31.385  21.116  25.374  1.00  0.00    -0.269 OA
BRANCH  77  80
ATOM     80  C   UNL A   1      31.431  23.378  24.774  1.00  0.00     0.081 A 
ATOM     81  C   UNL A   1      30.872  24.299  25.669  1.00  0.00     0.018 A 
ATOM     82  C   UNL A   1      31.400  23.632  23.399  1.00  0.00     0.128 A 
ATOM     83  C   UNL A   1      30.328  25.494  25.192  1.00  0.00     0.010 A 
ATOM     84  C   UNL A   1      30.866  24.828  22.924  1.00  0.00     0.055 A 
ATOM     85  C   UNL A   1      30.333  25.771  23.817  1.00  0.00    -0.014 A 
BRANCH  82  86
ATOM     86  O   UNL A   1      31.899  22.717  22.514  1.00  0.00    -0.507 OA
ATOM     87  H   UNL A   1      31.399  22.473  21.761  1.00  0.00     0.293 HD
ENDBRANCH  82  86
BRANCH  85  88
ATOM     88  C   UNL A   1      29.785  27.032  23.282  1.00  0.00    -0.011 A 
ATOM     89  C   UNL A   1      30.588  27.962  22.510  1.00  0.00     0.027 A 
ATOM     90  C   UNL A   1      28.513  27.359  23.577  1.00  0.00     0.080 A 
ATOM     91  C   UNL A   1      30.093  29.148  22.141  1.00  0.00     0.095 A 
ATOM     92  C   UNL A   1      27.936  28.659  23.135  1.00  0.00     0.255 A 
ATOM     93  N   UNL A   1      28.796  29.505  22.457  1.00  0.00    -0.258 N 
ATOM     94  O   UNL A   1      26.760  28.898  23.401  1.00  0.00    -0.269 OA
BRANCH  93  95
ATOM     95  C   UNL A   1      28.284  30.798  22.082  1.00  0.00     0.451 C 
ATOM     96  F   UNL A   1      29.282  31.707  21.971  1.00  0.00    -0.185 F 
ATOM     97  F   UNL A   1      27.632  30.739  20.896  1.00  0.00    -0.185 F 
ENDBRANCH  93  95
ENDBRANCH  85  88
ENDBRANCH  77  80
ENDBRANCH  75  76
ENDBRANCH  74  75
ENDBRANCH  73  74
ENDBRANCH   1  73
TORSDOF 19
ENDMDL
MODEL 3
REMARK VINA RESULT:     -11.4      3.542      8.939
REMARK SMILES O=C(NCCCCCCNC(=O)c1ccc(-c2ccn(C(F)F)c(=O)c2)cc1O)c1ccc(-c2c3nc(c(-c4cccc(S(=O)(=O)[O-])c4F)c4ccc([nH]4)c(-c4cccc(S(=O)(=O)[O-])c4F)c4nc(c(-c5cccc(S(=O)(=O)[O-])c5F)c5ccc2[nH]5)C=C4)C=C3)cc1
REMARK SMILES IDX 6 1 5 2 4 3 3 4 1 5 2 6 30 8 31 9 92 10 32 11 91 12 33 13
REMARK SMILES IDX 34 14 35 15 85 16 36 17 90 18 84 19 86 20 37 21 89 22 83 23
REMARK SMILES IDX 82 24 38 26 70 27 50 28 69 29 51 30 54 31 68 32 87 33 52 34
REMARK SMILES IDX 53 35 67 37 88 38 55 39 39 40 40 41 48 42 41 43 43 44 49 45
REMARK SMILES IDX 42 46 44 47 45 48 46 49 47 50 71 51 72 52 80 53 73 54 75 55
REMARK SMILES IDX 81 56 74 57 76 58 77 59 78 60 79 61 56 62 57 63 65 64 58 65
REMARK SMILES IDX 60 66 66 67 59 68 61 69 62 70 63 71 64 72 7 73 8 74 9 75
REMARK SMILES IDX 10 76 11 77 12 79 13 80 14 81 28 82 15 83 27 84 16 85 29 86
REMARK SMILES IDX 17 88 18 89 26 90 19 91 24 92 20 93 25 94 21 95 22 96 23 97
REMARK H PARENT 3 7 86 25 54 36 10 78 29 87
REMARK Flexibility Score: inf
ROOT
ATOM      1  C   UNL A   1      37.762  21.183  24.876  1.00  0.00     0.002 C 
ENDROOT
BRANCH   1   2
ATOM      2  C   UNL A   1      38.538  19.880  25.084  1.00  0.00     0.021 C 
BRANCH   2   3
ATOM      3  C   UNL A   1      39.510  19.883  26.260  1.00  0.00     0.116 C 
BRANCH   3   4
ATOM      4  N   UNL A   1      40.712  19.121  25.982  1.00  0.00    -0.352 N 
ATOM      5  O   UNL A   1      42.864  18.766  25.440  1.00  0.00    -0.269 OA
ATOM      6  C   UNL A   1      42.010  19.548  25.857  1.00  0.00     0.251 C 
ATOM      7  H   UNL A   1      40.577  18.153  25.866  1.00  0.00     0.163 HD
BRANCH   6   8
ATOM      8  C   UNL A   1      42.390  20.933  26.215  1.00  0.00     0.039 A 
ATOM      9  C   UNL A   1      42.507  21.879  25.192  1.00  0.00     0.014 A 
ATOM     10  C   UNL A   1      42.699  21.290  27.532  1.00  0.00     0.014 A 
ATOM     11  C   UNL A   1      42.929  23.177  25.489  1.00  0.00     0.010 A 
ATOM     12  C   UNL A   1      43.044  22.605  27.837  1.00  0.00     0.010 A 
ATOM     13  C   UNL A   1      43.203  23.550  26.813  1.00  0.00    -0.014 A 
BRANCH  13  14
ATOM     14  C   UNL A   1      43.744  24.897  27.128  1.00  0.00     0.031 A 
ATOM     15  C   UNL A   1      42.835  25.954  27.695  1.00  0.00     0.074 A 
ATOM     16  C   UNL A   1      45.038  25.182  26.885  1.00  0.00     0.049 A 
ATOM     17  N   UNL A   1      43.114  27.188  28.028  1.00  0.00    -0.248 NA
ATOM     18  C   UNL A   1      41.420  25.591  27.897  1.00  0.00     0.031 C 
ATOM     19  C   UNL A   1      46.009  24.265  26.286  1.00  0.00     0.029 A 
ATOM     20  N   UNL A   1      45.758  26.330  27.110  1.00  0.00    -0.354 N 
ATOM     21  C   UNL A   1      41.912  27.754  28.431  1.00  0.00     0.074 A 
ATOM     22  C   UNL A   1      40.891  26.743  28.280  1.00  0.00     0.031 C 
ATOM     23  C   UNL A   1      47.203  24.878  26.214  1.00  0.00     0.029 A 
ATOM     24  C   UNL A   1      47.079  26.235  26.740  1.00  0.00     0.049 A 
ATOM     25  H   UNL A   1      45.365  27.145  27.499  1.00  0.00     0.167 HD
ATOM     26  C   UNL A   1      41.682  28.992  28.923  1.00  0.00     0.034 A 
ATOM     27  C   UNL A   1      48.080  27.133  26.826  1.00  0.00     0.034 A 
ATOM     28  C   UNL A   1      42.707  29.966  29.162  1.00  0.00     0.049 A 
ATOM     29  C   UNL A   1      47.813  28.485  27.427  1.00  0.00     0.074 A 
ATOM     30  C   UNL A   1      42.585  31.207  29.762  1.00  0.00     0.029 A 
ATOM     31  N   UNL A   1      44.039  29.810  28.821  1.00  0.00    -0.354 N 
ATOM     32  N   UNL A   1      46.694  28.953  27.924  1.00  0.00    -0.248 NA
ATOM     33  C   UNL A   1      48.943  29.423  27.502  1.00  0.00     0.031 C 
ATOM     34  C   UNL A   1      43.846  31.806  29.777  1.00  0.00     0.029 A 
ATOM     35  C   UNL A   1      44.752  30.935  29.190  1.00  0.00     0.049 A 
ATOM     36  H   UNL A   1      44.423  29.017  28.383  1.00  0.00     0.167 HD
ATOM     37  C   UNL A   1      46.987  30.231  28.389  1.00  0.00     0.074 A 
ATOM     38  C   UNL A   1      48.393  30.461  28.124  1.00  0.00     0.031 C 
ATOM     39  C   UNL A   1      46.159  31.132  28.966  1.00  0.00     0.034 A 
BRANCH  26  40
ATOM     40  C   UNL A   1      40.275  29.348  29.312  1.00  0.00     0.023 A 
ATOM     41  C   UNL A   1      39.367  29.758  28.316  1.00  0.00     0.012 A 
ATOM     42  C   UNL A   1      39.828  29.183  30.638  1.00  0.00     0.148 A 
ATOM     43  C   UNL A   1      38.036  30.015  28.635  1.00  0.00     0.002 A 
ATOM     44  C   UNL A   1      38.491  29.410  30.942  1.00  0.00     0.091 A 
ATOM     45  F   UNL A   1      40.716  28.805  31.568  1.00  0.00    -0.205 F 
ATOM     46  C   UNL A   1      37.596  29.830  29.944  1.00  0.00     0.022 A 
BRANCH  44  47
ATOM     47  S   UNL A   1      37.809  29.149  32.582  1.00  0.00     0.127 S 
ATOM     48  O   UNL A   1      38.643  30.038  33.392  1.00  0.00    -0.237 OA
ATOM     49  O   UNL A   1      36.427  29.596  32.412  1.00  0.00    -0.237 OA
ATOM     50  O   UNL A   1      37.965  27.730  32.865  1.00  0.00    -0.744 OA
ENDBRANCH  44  47
ENDBRANCH  26  40
BRANCH  27  51
ATOM     51  C   UNL A   1      49.450  26.732  26.405  1.00  0.00     0.023 A 
ATOM     52  C   UNL A   1      50.175  25.830  27.205  1.00  0.00     0.012 A 
ATOM     53  C   UNL A   1      49.997  27.164  25.180  1.00  0.00     0.148 A 
ATOM     54  C   UNL A   1      51.424  25.365  26.797  1.00  0.00     0.002 A 
ATOM     55  C   UNL A   1      51.226  26.669  24.762  1.00  0.00     0.091 A 
ATOM     56  F   UNL A   1      49.284  28.022  24.438  1.00  0.00    -0.205 F 
ATOM     57  C   UNL A   1      51.946  25.776  25.573  1.00  0.00     0.022 A 
BRANCH  55  58
ATOM     58  S   UNL A   1      51.934  27.055  23.157  1.00  0.00     0.127 S 
ATOM     59  O   UNL A   1      52.482  28.390  23.385  1.00  0.00    -0.237 OA
ATOM     60  O   UNL A   1      52.932  25.996  23.010  1.00  0.00    -0.237 OA
ATOM     61  O   UNL A   1      50.832  26.988  22.207  1.00  0.00    -0.744 OA
ENDBRANCH  55  58
ENDBRANCH  27  51
BRANCH  39  62
ATOM     62  C   UNL A   1      46.718  32.469  29.368  1.00  0.00     0.023 A 
ATOM     63  C   UNL A   1      47.411  32.580  30.589  1.00  0.00     0.012 A 
ATOM     64  C   UNL A   1      46.715  33.549  28.464  1.00  0.00     0.148 A 
ATOM     65  C   UNL A   1      48.101  33.750  30.902  1.00  0.00     0.002 A 
ATOM     66  C   UNL A   1      47.434  34.698  28.769  1.00  0.00     0.091 A 
ATOM     67  F   UNL A   1      46.048  33.412  27.309  1.00  0.00    -0.205 F 
ATOM     68  C   UNL A   1      48.125  34.801  29.988  1.00  0.00     0.022 A 
BRANCH  66  69
ATOM     69  S   UNL A   1      47.596  36.075  27.625  1.00  0.00     0.127 S 
ATOM     70  O   UNL A   1      48.840  36.695  28.081  1.00  0.00    -0.237 OA
ATOM     71  O   UNL A   1      47.690  35.393  26.335  1.00  0.00    -0.237 OA
ATOM     72  O   UNL A   1      46.402  36.890  27.801  1.00  0.00    -0.744 OA
ENDBRANCH  66  69
ENDBRANCH  39  62
ENDBRANCH  13  14
ENDBRANCH   6   8
ENDBRANCH   3   4
ENDBRANCH   2   3
ENDBRANCH   1   2
BRANCH   1  73
ATOM     73  C   UNL A   1      36.256  21.105  25.136  1.00  0.00     0.002 C 
BRANCH  73  74
ATOM     74  C   UNL A   1      35.612  22.379  25.691  1.00  0.00     0.021 C 
BRANCH  74  75
ATOM     75  C   UNL A   1      34.292  22.776  25.037  1.00  0.00     0.116 C 
BRANCH  75  76
ATOM     76  N   UNL A   1      33.236  21.814  25.299  1.00  0.00    -0.352 N 
ATOM     77  C   UNL A   1      31.879  22.009  25.257  1.00  0.00     0.255 C 
ATOM     78  H   UNL A   1      33.531  20.906  25.538  1.00  0.00     0.163 HD
ATOM     79  O   UNL A   1      31.105  21.109  25.579  1.00  0.00    -0.269 OA
BRANCH  77  80
ATOM     80  C   UNL A   1      31.341  23.336  24.899  1.00  0.00     0.081 A 
ATOM     81  C   UNL A   1      31.272  23.657  23.537  1.00  0.00     0.018 A 
ATOM     82  C   UNL A   1      30.908  24.258  25.857  1.00  0.00     0.128 A 
ATOM     83  C   UNL A   1      30.726  24.879  23.135  1.00  0.00     0.010 A 
ATOM     84  C   UNL A   1      30.355  25.472  25.455  1.00  0.00     0.055 A 
ATOM     85  C   UNL A   1      30.252  25.788  24.091  1.00  0.00    -0.014 A 
BRANCH  82  86
ATOM     86  O   UNL A   1      31.015  23.974  27.190  1.00  0.00    -0.507 OA
ATOM     87  H   UNL A   1      31.484  24.554  27.756  1.00  0.00     0.293 HD
ENDBRANCH  82  86
BRANCH  85  88
ATOM     88  C   UNL A   1      29.652  27.078  23.699  1.00  0.00    -0.011 A 
ATOM     89  C   UNL A   1      30.454  28.254  23.420  1.00  0.00     0.027 A 
ATOM     90  C   UNL A   1      28.311  27.180  23.663  1.00  0.00     0.080 A 
ATOM     91  C   UNL A   1      29.874  29.434  23.182  1.00  0.00     0.095 A 
ATOM     92  C   UNL A   1      27.652  28.481  23.357  1.00  0.00     0.255 A 
ATOM     93  N   UNL A   1      28.498  29.559  23.164  1.00  0.00    -0.258 N 
ATOM     94  O   UNL A   1      26.424  28.517  23.305  1.00  0.00    -0.269 OA
BRANCH  93  95
ATOM     95  C   UNL A   1      27.884  30.842  22.939  1.00  0.00     0.451 C 
ATOM     96  F   UNL A   1      27.467  31.396  24.102  1.00  0.00    -0.185 F 
ATOM     97  F   UNL A   1      28.750  31.700  22.348  1.00  0.00    -0.185 F 
ENDBRANCH  93  95
ENDBRANCH  85  88
ENDBRANCH  77  80
ENDBRANCH  75  76
ENDBRANCH  74  75
ENDBRANCH  73  74
ENDBRANCH   1  73
TORSDOF 19
ENDMDL
