MODEL 1
REMARK VINA RESULT:      -9.6      0.000      0.000
REMARK SMILES C[C@@H]1CCCCN1S(=O)(=O)c1ccc(CCC(=O)NCCCCCCNC(=O)c2ccc(-c3c4nc(c(-c5cccc(S(=O)(=O)[O-])c5F)c5ccc([nH]5)c(-c5cccc(S(=O)(=O)[O-])c5F)c5nc(c(-c6cccc(S(=O)(=O)[O-])c6F)c6ccc3[nH]6)C=C5)C=C4)cc2)cc1
REMARK SMILES IDX 22 1 21 2 20 3 19 4 17 5 18 6 16 8 15 9 14 10 11 11 12 12
REMARK SMILES IDX 93 13 13 14 92 15 8 16 9 17 10 18 7 19 1 20 2 21 3 22 4 23
REMARK SMILES IDX 6 24 5 25 23 26 24 27 25 28 26 29 27 30 28 32 29 33 30 34
REMARK SMILES IDX 91 35 31 36 90 37 32 38 33 39 34 40 84 41 35 42 89 43 83 44
REMARK SMILES IDX 85 45 36 46 88 47 82 48 81 49 37 51 69 52 49 53 68 54 50 55
REMARK SMILES IDX 53 56 67 57 86 58 51 59 52 60 66 62 87 63 54 64 38 65 39 66
REMARK SMILES IDX 47 67 40 68 42 69 48 70 41 71 43 72 44 73 45 74 46 75 70 76
REMARK SMILES IDX 71 77 79 78 72 79 74 80 80 81 73 82 75 83 76 84 77 85 78 86
REMARK SMILES IDX 55 87 56 88 64 89 57 90 59 91 65 92 58 93 60 94 61 95 62 96
REMARK SMILES IDX 63 97
REMARK H PARENT 19 7 26 31 85 50 53 61
REMARK Flexibility Score: inf
ROOT
ATOM      1  C   UNL A   1      33.482  35.198  30.929  1.00  0.00     0.002 C 
ENDROOT
BRANCH   1   2
ATOM      2  C   UNL A   1      33.055  36.183  32.023  1.00  0.00     0.021 C 
BRANCH   2   3
ATOM      3  C   UNL A   1      34.115  36.517  33.075  1.00  0.00     0.116 C 
BRANCH   3   4
ATOM      4  N   UNL A   1      34.321  35.397  33.984  1.00  0.00    -0.356 N 
ATOM      5  C   UNL A   1      35.285  34.434  34.003  1.00  0.00     0.220 C 
ATOM      6  O   UNL A   1      35.162  33.502  34.802  1.00  0.00    -0.275 OA
ATOM      7  H   UNL A   1      33.653  35.324  34.703  1.00  0.00     0.163 HD
BRANCH   5   8
ATOM      8  C   UNL A   1      36.499  34.509  33.096  1.00  0.00     0.105 C 
BRANCH   8   9
ATOM      9  C   UNL A   1      37.822  34.337  33.857  1.00  0.00     0.045 C 
BRANCH   9  10
ATOM     10  C   UNL A   1      39.026  34.577  32.977  1.00  0.00    -0.047 A 
ATOM     11  C   UNL A   1      41.277  34.528  31.314  1.00  0.00     0.082 A 
ATOM     12  C   UNL A   1      41.435  34.664  32.699  1.00  0.00     0.022 A 
ATOM     13  C   UNL A   1      39.997  34.528  30.755  1.00  0.00     0.022 A 
ATOM     14  C   UNL A   1      40.310  34.683  33.528  1.00  0.00     0.005 A 
ATOM     15  C   UNL A   1      38.878  34.584  31.584  1.00  0.00     0.005 A 
BRANCH  11  16
ATOM     16  S   UNL A   1      42.631  33.872  30.357  1.00  0.00     0.243 S 
ATOM     17  O   UNL A   1      42.280  32.518  29.986  1.00  0.00    -0.207 OA
ATOM     18  O   UNL A   1      43.831  34.089  31.148  1.00  0.00    -0.207 OA
BRANCH  16  19
ATOM     19  N   UNL A   1      42.788  34.804  28.953  1.00  0.00    -0.195 NA
ATOM     20  C   UNL A   1      44.642  33.524  27.767  1.00  0.00     0.026 C 
ATOM     21  C   UNL A   1      43.271  34.197  27.671  1.00  0.00     0.070 C 
ATOM     22  C   UNL A   1      43.321  35.273  26.557  1.00  0.00     0.020 C 
ATOM     23  C   UNL A   1      42.541  36.535  26.900  1.00  0.00     0.003 C 
ATOM     24  C   UNL A   1      43.453  36.106  29.226  1.00  0.00     0.103 C 
ATOM     25  C   UNL A   1      43.064  37.151  28.189  1.00  0.00     0.017 C 
ENDBRANCH  16  19
ENDBRANCH  11  16
ENDBRANCH   9  10
ENDBRANCH   8   9
ENDBRANCH   5   8
ENDBRANCH   3   4
ENDBRANCH   2   3
ENDBRANCH   1   2
BRANCH   1  26
ATOM     26  C   UNL A   1      33.298  35.679  29.483  1.00  0.00     0.002 C 
BRANCH  26  27
ATOM     27  C   UNL A   1      33.474  34.630  28.374  1.00  0.00     0.021 C 
BRANCH  27  28
ATOM     28  C   UNL A   1      34.103  33.296  28.787  1.00  0.00     0.116 C 
BRANCH  28  29
ATOM     29  N   UNL A   1      33.713  32.191  27.924  1.00  0.00    -0.352 N 
ATOM     30  C   UNL A   1      34.368  31.025  27.603  1.00  0.00     0.251 C 
ATOM     31  H   UNL A   1      32.831  32.296  27.497  1.00  0.00     0.163 HD
ATOM     32  O   UNL A   1      33.867  30.279  26.761  1.00  0.00    -0.269 OA
BRANCH  30  33
ATOM     33  C   UNL A   1      35.669  30.647  28.217  1.00  0.00     0.039 A 
ATOM     34  C   UNL A   1      35.686  29.617  29.164  1.00  0.00     0.014 A 
ATOM     35  C   UNL A   1      36.857  31.327  27.942  1.00  0.00     0.014 A 
ATOM     36  C   UNL A   1      36.890  29.225  29.772  1.00  0.00     0.010 A 
ATOM     37  C   UNL A   1      38.063  30.898  28.517  1.00  0.00     0.010 A 
ATOM     38  C   UNL A   1      38.109  29.834  29.427  1.00  0.00    -0.014 A 
BRANCH  38  39
ATOM     39  C   UNL A   1      39.408  29.299  29.945  1.00  0.00     0.031 A 
ATOM     40  C   UNL A   1      40.068  29.821  31.202  1.00  0.00     0.074 A 
ATOM     41  C   UNL A   1      40.060  28.358  29.229  1.00  0.00     0.049 A 
ATOM     42  N   UNL A   1      41.135  29.370  31.816  1.00  0.00    -0.248 NA
ATOM     43  C   UNL A   1      39.489  31.019  31.829  1.00  0.00     0.031 C 
ATOM     44  C   UNL A   1      39.653  27.866  27.912  1.00  0.00     0.029 A 
ATOM     45  N   UNL A   1      41.207  27.649  29.503  1.00  0.00    -0.354 N 
ATOM     46  C   UNL A   1      41.371  30.235  32.880  1.00  0.00     0.074 A 
ATOM     47  C   UNL A   1      40.361  31.269  32.799  1.00  0.00     0.031 C 
ATOM     48  C   UNL A   1      40.503  26.905  27.515  1.00  0.00     0.029 A 
ATOM     49  C   UNL A   1      41.520  26.712  28.545  1.00  0.00     0.049 A 
ATOM     50  H   UNL A   1      41.753  27.798  30.309  1.00  0.00     0.167 HD
ATOM     51  C   UNL A   1      42.307  30.158  33.859  1.00  0.00     0.034 A 
ATOM     52  C   UNL A   1      42.486  25.774  28.506  1.00  0.00     0.034 A 
ATOM     53  C   UNL A   1      43.272  29.095  33.990  1.00  0.00     0.049 A 
ATOM     54  C   UNL A   1      43.415  25.611  29.679  1.00  0.00     0.074 A 
ATOM     55  C   UNL A   1      44.172  28.868  35.019  1.00  0.00     0.029 A 
ATOM     56  N   UNL A   1      43.462  28.078  33.070  1.00  0.00    -0.354 N 
ATOM     57  N   UNL A   1      43.468  26.301  30.792  1.00  0.00    -0.248 NA
ATOM     58  C   UNL A   1      44.383  24.504  29.612  1.00  0.00     0.031 C 
ATOM     59  C   UNL A   1      44.906  27.714  34.721  1.00  0.00     0.029 A 
ATOM     60  C   UNL A   1      44.459  27.218  33.508  1.00  0.00     0.049 A 
ATOM     61  H   UNL A   1      42.963  27.978  32.227  1.00  0.00     0.167 HD
ATOM     62  C   UNL A   1      44.447  25.690  31.570  1.00  0.00     0.074 A 
ATOM     63  C   UNL A   1      44.938  24.558  30.815  1.00  0.00     0.031 C 
ATOM     64  C   UNL A   1      44.909  26.055  32.791  1.00  0.00     0.034 A 
BRANCH  51  65
ATOM     65  C   UNL A   1      42.275  31.201  34.951  1.00  0.00     0.023 A 
ATOM     66  C   UNL A   1      41.414  31.011  36.051  1.00  0.00     0.012 A 
ATOM     67  C   UNL A   1      43.157  32.301  34.948  1.00  0.00     0.148 A 
ATOM     68  C   UNL A   1      41.405  31.912  37.114  1.00  0.00     0.002 A 
ATOM     69  C   UNL A   1      43.171  33.174  36.034  1.00  0.00     0.091 A 
ATOM     70  F   UNL A   1      43.961  32.477  33.890  1.00  0.00    -0.205 F 
ATOM     71  C   UNL A   1      42.290  32.986  37.112  1.00  0.00     0.022 A 
BRANCH  69  72
ATOM     72  S   UNL A   1      44.334  34.538  36.166  1.00  0.00     0.127 S 
ATOM     73  O   UNL A   1      43.973  35.109  37.463  1.00  0.00    -0.237 OA
ATOM     74  O   UNL A   1      45.625  33.850  36.141  1.00  0.00    -0.237 OA
ATOM     75  O   UNL A   1      44.082  35.391  35.013  1.00  0.00    -0.744 OA
ENDBRANCH  69  72
ENDBRANCH  51  65
BRANCH  52  76
ATOM     76  C   UNL A   1      42.537  24.811  27.370  1.00  0.00     0.023 A 
ATOM     77  C   UNL A   1      43.252  25.163  26.208  1.00  0.00     0.012 A 
ATOM     78  C   UNL A   1      41.912  23.552  27.439  1.00  0.00     0.148 A 
ATOM     79  C   UNL A   1      43.312  24.293  25.119  1.00  0.00     0.002 A 
ATOM     80  C   UNL A   1      42.022  22.669  26.370  1.00  0.00     0.091 A 
ATOM     81  F   UNL A   1      41.225  23.242  28.548  1.00  0.00    -0.205 F 
ATOM     82  C   UNL A   1      42.707  23.044  25.204  1.00  0.00     0.022 A 
BRANCH  80  83
ATOM     83  S   UNL A   1      41.381  20.993  26.454  1.00  0.00     0.127 S 
ATOM     84  O   UNL A   1      42.147  20.326  25.404  1.00  0.00    -0.237 OA
ATOM     85  O   UNL A   1      41.731  20.597  27.819  1.00  0.00    -0.237 OA
ATOM     86  O   UNL A   1      39.949  21.117  26.220  1.00  0.00    -0.744 OA
ENDBRANCH  80  83
ENDBRANCH  52  76
BRANCH  64  87
ATOM     87  C   UNL A   1      45.994  25.208  33.407  1.00  0.00     0.023 A 
ATOM     88  C   UNL A   1      47.344  25.575  33.238  1.00  0.00     0.012 A 
ATOM     89  C   UNL A   1      45.682  24.074  34.183  1.00  0.00     0.148 A 
ATOM     90  C   UNL A   1      48.367  24.806  33.794  1.00  0.00     0.002 A 
ATOM     91  C   UNL A   1      46.706  23.336  34.770  1.00  0.00     0.091 A 
ATOM     92  F   UNL A   1      44.396  23.721  34.319  1.00  0.00    -0.205 F 
ATOM     93  C   UNL A   1      48.048  23.692  34.566  1.00  0.00     0.022 A 
BRANCH  91  94
ATOM     94  S   UNL A   1      46.367  21.939  35.849  1.00  0.00     0.127 S 
ATOM     95  O   UNL A   1      47.712  21.533  36.247  1.00  0.00    -0.237 OA
ATOM     96  O   UNL A   1      45.573  22.547  36.918  1.00  0.00    -0.237 OA
ATOM     97  O   UNL A   1      45.631  20.984  35.030  1.00  0.00    -0.744 OA
ENDBRANCH  91  94
ENDBRANCH  64  87
ENDBRANCH  38  39
ENDBRANCH  30  33
ENDBRANCH  28  29
ENDBRANCH  27  28
ENDBRANCH  26  27
ENDBRANCH   1  26
TORSDOF 20
ENDMDL
MODEL 2
REMARK VINA RESULT:      -9.4      5.811     12.594
REMARK SMILES C[C@@H]1CCCCN1S(=O)(=O)c1ccc(CCC(=O)NCCCCCCNC(=O)c2ccc(-c3c4nc(c(-c5cccc(S(=O)(=O)[O-])c5F)c5ccc([nH]5)c(-c5cccc(S(=O)(=O)[O-])c5F)c5nc(c(-c6cccc(S(=O)(=O)[O-])c6F)c6ccc3[nH]6)C=C5)C=C4)cc2)cc1
REMARK SMILES IDX 22 1 21 2 20 3 19 4 17 5 18 6 16 8 15 9 14 10 11 11 12 12
REMARK SMILES IDX 93 13 13 14 92 15 8 16 9 17 10 18 7 19 1 20 2 21 3 22 4 23
REMARK SMILES IDX 6 24 5 25 23 26 24 27 25 28 26 29 27 30 28 32 29 33 30 34
REMARK SMILES IDX 91 35 31 36 90 37 32 38 33 39 34 40 84 41 35 42 89 43 83 44
REMARK SMILES IDX 85 45 36 46 88 47 82 48 81 49 37 51 69 52 49 53 68 54 50 55
REMARK SMILES IDX 53 56 67 57 86 58 51 59 52 60 66 62 87 63 54 64 38 65 39 66
REMARK SMILES IDX 47 67 40 68 42 69 48 70 41 71 43 72 44 73 45 74 46 75 70 76
REMARK SMILES IDX 71 77 79 78 72 79 74 80 80 81 73 82 75 83 76 84 77 85 78 86
REMARK SMILES IDX 55 87 56 88 64 89 57 90 59 91 65 92 58 93 60 94 61 95 62 96
REMARK SMILES IDX 63 97
REMARK H PARENT 19 7 26 31 85 50 53 61
REMARK Flexibility Score: inf
ROOT
ATOM      1  C   UNL A   1      41.692  21.507  27.645  1.00  0.00     0.002 C 
ENDROOT
BRANCH   1   2
ATOM      2  C   UNL A   1      41.274  22.315  26.411  1.00  0.00     0.021 C 
BRANCH   2   3
ATOM      3  C   UNL A   1      39.809  22.752  26.362  1.00  0.00     0.116 C 
BRANCH   3   4
ATOM      4  N   UNL A   1      38.998  21.784  25.634  1.00  0.00    -0.356 N 
ATOM      5  C   UNL A   1      37.766  21.906  25.067  1.00  0.00     0.220 C 
ATOM      6  O   UNL A   1      37.226  20.889  24.622  1.00  0.00    -0.275 OA
ATOM      7  H   UNL A   1      39.409  20.895  25.537  1.00  0.00     0.163 HD
BRANCH   5   8
ATOM      8  C   UNL A   1      37.077  23.252  24.946  1.00  0.00     0.105 C 
BRANCH   8   9
ATOM      9  C   UNL A   1      36.124  23.541  26.115  1.00  0.00     0.045 C 
BRANCH   9  10
ATOM     10  C   UNL A   1      34.681  23.622  25.675  1.00  0.00    -0.047 A 
ATOM     11  C   UNL A   1      32.079  24.260  24.869  1.00  0.00     0.082 A 
ATOM     12  C   UNL A   1      32.342  23.975  26.214  1.00  0.00     0.022 A 
ATOM     13  C   UNL A   1      33.089  24.119  23.915  1.00  0.00     0.022 A 
ATOM     14  C   UNL A   1      33.644  23.661  26.615  1.00  0.00     0.005 A 
ATOM     15  C   UNL A   1      34.378  23.771  24.316  1.00  0.00     0.005 A 
BRANCH  11  16
ATOM     16  S   UNL A   1      30.652  25.251  24.467  1.00  0.00     0.243 S 
ATOM     17  O   UNL A   1      29.861  25.377  25.672  1.00  0.00    -0.207 OA
ATOM     18  O   UNL A   1      30.046  24.637  23.297  1.00  0.00    -0.207 OA
BRANCH  16  19
ATOM     19  N   UNL A   1      31.188  26.787  23.998  1.00  0.00    -0.195 NA
ATOM     20  C   UNL A   1      31.887  27.731  26.256  1.00  0.00     0.026 C 
ATOM     21  C   UNL A   1      32.236  27.514  24.783  1.00  0.00     0.070 C 
ATOM     22  C   UNL A   1      32.531  28.890  24.134  1.00  0.00     0.020 C 
ATOM     23  C   UNL A   1      32.002  29.012  22.711  1.00  0.00     0.003 C 
ATOM     24  C   UNL A   1      30.055  27.682  23.640  1.00  0.00     0.103 C 
ATOM     25  C   UNL A   1      30.499  28.776  22.679  1.00  0.00     0.017 C 
ENDBRANCH  16  19
ENDBRANCH  11  16
ENDBRANCH   9  10
ENDBRANCH   8   9
ENDBRANCH   5   8
ENDBRANCH   3   4
ENDBRANCH   2   3
ENDBRANCH   1   2
BRANCH   1  26
ATOM     26  C   UNL A   1      41.669  19.980  27.487  1.00  0.00     0.002 C 
BRANCH  26  27
ATOM     27  C   UNL A   1      42.022  19.420  26.101  1.00  0.00     0.021 C 
BRANCH  27  28
ATOM     28  C   UNL A   1      43.410  18.788  25.950  1.00  0.00     0.116 C 
BRANCH  28  29
ATOM     29  N   UNL A   1      43.969  18.951  24.617  1.00  0.00    -0.352 N 
ATOM     30  C   UNL A   1      44.443  20.068  23.969  1.00  0.00     0.251 C 
ATOM     31  H   UNL A   1      44.016  18.121  24.088  1.00  0.00     0.163 HD
ATOM     32  O   UNL A   1      44.781  19.968  22.790  1.00  0.00    -0.269 OA
BRANCH  30  33
ATOM     33  C   UNL A   1      44.537  21.394  24.636  1.00  0.00     0.039 A 
ATOM     34  C   UNL A   1      45.052  21.454  25.936  1.00  0.00     0.014 A 
ATOM     35  C   UNL A   1      44.065  22.568  24.047  1.00  0.00     0.014 A 
ATOM     36  C   UNL A   1      45.160  22.682  26.607  1.00  0.00     0.010 A 
ATOM     37  C   UNL A   1      44.221  23.799  24.704  1.00  0.00     0.010 A 
ATOM     38  C   UNL A   1      44.783  23.885  25.984  1.00  0.00    -0.014 A 
BRANCH  38  39
ATOM     39  C   UNL A   1      45.060  25.205  26.633  1.00  0.00     0.031 A 
ATOM     40  C   UNL A   1      46.449  25.795  26.734  1.00  0.00     0.074 A 
ATOM     41  C   UNL A   1      44.043  25.873  27.218  1.00  0.00     0.049 A 
ATOM     42  N   UNL A   1      46.808  26.978  27.174  1.00  0.00    -0.248 NA
ATOM     43  C   UNL A   1      47.581  24.947  26.333  1.00  0.00     0.031 C 
ATOM     44  C   UNL A   1      42.675  25.370  27.362  1.00  0.00     0.029 A 
ATOM     45  N   UNL A   1      43.998  27.116  27.805  1.00  0.00    -0.354 N 
ATOM     46  C   UNL A   1      48.198  27.008  27.127  1.00  0.00     0.074 A 
ATOM     47  C   UNL A   1      48.622  25.705  26.660  1.00  0.00     0.031 C 
ATOM     48  C   UNL A   1      41.917  26.310  27.950  1.00  0.00     0.029 A 
ATOM     49  C   UNL A   1      42.741  27.482  28.229  1.00  0.00     0.049 A 
ATOM     50  H   UNL A   1      44.791  27.690  27.913  1.00  0.00     0.167 HD
ATOM     51  C   UNL A   1      49.046  28.032  27.400  1.00  0.00     0.034 A 
ATOM     52  C   UNL A   1      42.283  28.640  28.747  1.00  0.00     0.034 A 
ATOM     53  C   UNL A   1      48.632  29.355  27.796  1.00  0.00     0.049 A 
ATOM     54  C   UNL A   1      43.216  29.811  28.895  1.00  0.00     0.074 A 
ATOM     55  C   UNL A   1      49.411  30.488  27.970  1.00  0.00     0.029 A 
ATOM     56  N   UNL A   1      47.328  29.729  28.076  1.00  0.00    -0.354 N 
ATOM     57  N   UNL A   1      44.495  29.887  28.620  1.00  0.00    -0.248 NA
ATOM     58  C   UNL A   1      42.628  31.072  29.375  1.00  0.00     0.031 C 
ATOM     59  C   UNL A   1      48.580  31.546  28.355  1.00  0.00     0.029 A 
ATOM     60  C   UNL A   1      47.280  31.074  28.415  1.00  0.00     0.049 A 
ATOM     61  H   UNL A   1      46.548  29.129  28.041  1.00  0.00     0.167 HD
ATOM     62  C   UNL A   1      44.856  31.210  28.858  1.00  0.00     0.074 A 
ATOM     63  C   UNL A   1      43.655  31.905  29.270  1.00  0.00     0.031 C 
ATOM     64  C   UNL A   1      46.079  31.786  28.765  1.00  0.00     0.034 A 
BRANCH  51  65
ATOM     65  C   UNL A   1      50.522  27.808  27.176  1.00  0.00     0.023 A 
ATOM     66  C   UNL A   1      51.319  27.378  28.257  1.00  0.00     0.012 A 
ATOM     67  C   UNL A   1      51.099  27.914  25.894  1.00  0.00     0.148 A 
ATOM     68  C   UNL A   1      52.670  27.090  28.077  1.00  0.00     0.002 A 
ATOM     69  C   UNL A   1      52.441  27.584  25.714  1.00  0.00     0.091 A 
ATOM     70  F   UNL A   1      50.333  28.336  24.878  1.00  0.00    -0.205 F 
ATOM     71  C   UNL A   1      53.228  27.182  26.805  1.00  0.00     0.022 A 
BRANCH  69  72
ATOM     72  S   UNL A   1      53.231  27.587  24.100  1.00  0.00     0.127 S 
ATOM     73  O   UNL A   1      53.251  29.014  23.784  1.00  0.00    -0.237 OA
ATOM     74  O   UNL A   1      54.543  27.009  24.395  1.00  0.00    -0.237 OA
ATOM     75  O   UNL A   1      52.389  26.766  23.241  1.00  0.00    -0.744 OA
ENDBRANCH  69  72
ENDBRANCH  51  65
BRANCH  52  76
ATOM     76  C   UNL A   1      40.829  28.798  29.034  1.00  0.00     0.023 A 
ATOM     77  C   UNL A   1      39.936  28.970  27.958  1.00  0.00     0.012 A 
ATOM     78  C   UNL A   1      40.326  28.754  30.346  1.00  0.00     0.148 A 
ATOM     79  C   UNL A   1      38.570  29.133  28.186  1.00  0.00     0.002 A 
ATOM     80  C   UNL A   1      38.956  28.864  30.563  1.00  0.00     0.091 A 
ATOM     81  F   UNL A   1      41.194  28.604  31.357  1.00  0.00    -0.205 F 
ATOM     82  C   UNL A   1      38.080  29.070  29.486  1.00  0.00     0.022 A 
BRANCH  80  83
ATOM     83  S   UNL A   1      38.233  28.663  32.195  1.00  0.00     0.127 S 
ATOM     84  O   UNL A   1      38.980  29.644  32.977  1.00  0.00    -0.237 OA
ATOM     85  O   UNL A   1      36.830  29.004  31.955  1.00  0.00    -0.237 OA
ATOM     86  O   UNL A   1      38.455  27.266  32.543  1.00  0.00    -0.744 OA
ENDBRANCH  80  83
ENDBRANCH  52  76
BRANCH  64  87
ATOM     87  C   UNL A   1      46.187  33.253  29.095  1.00  0.00     0.023 A 
ATOM     88  C   UNL A   1      46.581  33.649  30.388  1.00  0.00     0.012 A 
ATOM     89  C   UNL A   1      45.935  34.239  28.121  1.00  0.00     0.148 A 
ATOM     90  C   UNL A   1      46.684  35.001  30.720  1.00  0.00     0.002 A 
ATOM     91  C   UNL A   1      46.081  35.585  28.447  1.00  0.00     0.091 A 
ATOM     92  F   UNL A   1      45.538  33.852  26.900  1.00  0.00    -0.205 F 
ATOM     93  C   UNL A   1      46.442  35.968  29.748  1.00  0.00     0.022 A 
BRANCH  91  94
ATOM     94  S   UNL A   1      45.869  36.884  27.222  1.00  0.00     0.127 S 
ATOM     95  O   UNL A   1      46.230  38.077  27.984  1.00  0.00    -0.237 OA
ATOM     96  O   UNL A   1      46.835  36.507  26.188  1.00  0.00    -0.237 OA
ATOM     97  O   UNL A   1      44.478  36.796  26.799  1.00  0.00    -0.744 OA
ENDBRANCH  91  94
ENDBRANCH  64  87
ENDBRANCH  38  39
ENDBRANCH  30  33
ENDBRANCH  28  29
ENDBRANCH  27  28
ENDBRANCH  26  27
ENDBRANCH   1  26
TORSDOF 20
ENDMDL
MODEL 3
REMARK VINA RESULT:      -9.2      2.430      4.829
REMARK SMILES C[C@@H]1CCCCN1S(=O)(=O)c1ccc(CCC(=O)NCCCCCCNC(=O)c2ccc(-c3c4nc(c(-c5cccc(S(=O)(=O)[O-])c5F)c5ccc([nH]5)c(-c5cccc(S(=O)(=O)[O-])c5F)c5nc(c(-c6cccc(S(=O)(=O)[O-])c6F)c6ccc3[nH]6)C=C5)C=C4)cc2)cc1
REMARK SMILES IDX 22 1 21 2 20 3 19 4 17 5 18 6 16 8 15 9 14 10 11 11 12 12
REMARK SMILES IDX 93 13 13 14 92 15 8 16 9 17 10 18 7 19 1 20 2 21 3 22 4 23
REMARK SMILES IDX 6 24 5 25 23 26 24 27 25 28 26 29 27 30 28 32 29 33 30 34
REMARK SMILES IDX 91 35 31 36 90 37 32 38 33 39 34 40 84 41 35 42 89 43 83 44
REMARK SMILES IDX 85 45 36 46 88 47 82 48 81 49 37 51 69 52 49 53 68 54 50 55
REMARK SMILES IDX 53 56 67 57 86 58 51 59 52 60 66 62 87 63 54 64 38 65 39 66
REMARK SMILES IDX 47 67 40 68 42 69 48 70 41 71 43 72 44 73 45 74 46 75 70 76
REMARK SMILES IDX 71 77 79 78 72 79 74 80 80 81 73 82 75 83 76 84 77 85 78 86
REMARK SMILES IDX 55 87 56 88 64 89 57 90 59 91 65 92 58 93 60 94 61 95 62 96
REMARK SMILES IDX 63 97
REMARK H PARENT 19 7 26 31 85 50 53 61
REMARK Flexibility Score: inf
ROOT
ATOM      1  C   UNL A   1      33.903  35.285  30.101  1.00  0.00     0.002 C 
ENDROOT
BRANCH   1   2
ATOM      2  C   UNL A   1      33.184  35.756  31.370  1.00  0.00     0.021 C 
BRANCH   2   3
ATOM      3  C   UNL A   1      33.450  34.936  32.635  1.00  0.00     0.116 C 
BRANCH   3   4
ATOM      4  N   UNL A   1      33.944  33.606  32.301  1.00  0.00    -0.356 N 
ATOM      5  C   UNL A   1      35.208  33.100  32.313  1.00  0.00     0.220 C 
ATOM      6  O   UNL A   1      35.387  31.970  31.849  1.00  0.00    -0.275 OA
ATOM      7  H   UNL A   1      33.248  32.969  32.021  1.00  0.00     0.163 HD
BRANCH   5   8
ATOM      8  C   UNL A   1      36.369  33.875  32.906  1.00  0.00     0.105 C 
BRANCH   8   9
ATOM      9  C   UNL A   1      37.590  32.991  33.196  1.00  0.00     0.045 C 
BRANCH   9  10
ATOM     10  C   UNL A   1      37.782  32.743  34.674  1.00  0.00    -0.047 A 
ATOM     11  C   UNL A   1      37.680  32.099  37.395  1.00  0.00     0.082 A 
ATOM     12  C   UNL A   1      37.407  33.407  36.978  1.00  0.00     0.022 A 
ATOM     13  C   UNL A   1      38.109  31.146  36.469  1.00  0.00     0.022 A 
ATOM     14  C   UNL A   1      37.454  33.725  35.617  1.00  0.00     0.005 A 
ATOM     15  C   UNL A   1      38.188  31.478  35.118  1.00  0.00     0.005 A 
BRANCH  11  16
ATOM     16  S   UNL A   1      37.018  31.542  38.955  1.00  0.00     0.243 S 
ATOM     17  O   UNL A   1      36.749  30.126  38.828  1.00  0.00    -0.207 OA
ATOM     18  O   UNL A   1      35.916  32.435  39.273  1.00  0.00    -0.207 OA
BRANCH  16  19
ATOM     19  N   UNL A   1      38.200  31.773  40.145  1.00  0.00    -0.195 NA
ATOM     20  C   UNL A   1      36.857  31.210  42.232  1.00  0.00     0.026 C 
ATOM     21  C   UNL A   1      38.152  31.022  41.440  1.00  0.00     0.070 C 
ATOM     22  C   UNL A   1      39.348  31.429  42.338  1.00  0.00     0.020 C 
ATOM     23  C   UNL A   1      40.448  32.162  41.583  1.00  0.00     0.003 C 
ATOM     24  C   UNL A   1      38.493  33.215  40.360  1.00  0.00     0.103 C 
ATOM     25  C   UNL A   1      39.895  33.415  40.919  1.00  0.00     0.017 C 
ENDBRANCH  16  19
ENDBRANCH  11  16
ENDBRANCH   9  10
ENDBRANCH   8   9
ENDBRANCH   5   8
ENDBRANCH   3   4
ENDBRANCH   2   3
ENDBRANCH   1   2
BRANCH   1  26
ATOM     26  C   UNL A   1      32.999  34.806  28.956  1.00  0.00     0.002 C 
BRANCH  26  27
ATOM     27  C   UNL A   1      33.608  33.806  27.962  1.00  0.00     0.021 C 
BRANCH  27  28
ATOM     28  C   UNL A   1      34.156  32.502  28.550  1.00  0.00     0.116 C 
BRANCH  28  29
ATOM     29  N   UNL A   1      33.743  31.322  27.806  1.00  0.00    -0.352 N 
ATOM     30  C   UNL A   1      34.413  30.154  27.525  1.00  0.00     0.251 C 
ATOM     31  H   UNL A   1      32.829  31.367  27.441  1.00  0.00     0.163 HD
ATOM     32  O   UNL A   1      33.879  29.330  26.782  1.00  0.00    -0.269 OA
BRANCH  30  33
ATOM     33  C   UNL A   1      35.768  29.865  28.065  1.00  0.00     0.039 A 
ATOM     34  C   UNL A   1      35.876  29.380  29.374  1.00  0.00     0.014 A 
ATOM     35  C   UNL A   1      36.936  30.125  27.347  1.00  0.00     0.014 A 
ATOM     36  C   UNL A   1      37.133  29.093  29.929  1.00  0.00     0.010 A 
ATOM     37  C   UNL A   1      38.187  29.789  27.890  1.00  0.00     0.010 A 
ATOM     38  C   UNL A   1      38.311  29.254  29.178  1.00  0.00    -0.014 A 
BRANCH  38  39
ATOM     39  C   UNL A   1      39.629  28.784  29.710  1.00  0.00     0.031 A 
ATOM     40  C   UNL A   1      40.284  29.386  30.934  1.00  0.00     0.074 A 
ATOM     41  C   UNL A   1      40.304  27.829  29.034  1.00  0.00     0.049 A 
ATOM     42  N   UNL A   1      41.370  28.997  31.558  1.00  0.00    -0.248 NA
ATOM     43  C   UNL A   1      39.675  30.595  31.507  1.00  0.00     0.031 C 
ATOM     44  C   UNL A   1      39.901  27.261  27.746  1.00  0.00     0.029 A 
ATOM     45  N   UNL A   1      41.474  27.168  29.331  1.00  0.00    -0.354 N 
ATOM     46  C   UNL A   1      41.588  29.920  32.576  1.00  0.00     0.074 A 
ATOM     47  C   UNL A   1      40.546  30.918  32.456  1.00  0.00     0.031 C 
ATOM     48  C   UNL A   1      40.776  26.308  27.388  1.00  0.00     0.029 A 
ATOM     49  C   UNL A   1      41.807  26.196  28.416  1.00  0.00     0.049 A 
ATOM     50  H   UNL A   1      42.022  27.373  30.123  1.00  0.00     0.167 HD
ATOM     51  C   UNL A   1      42.534  29.919  33.549  1.00  0.00     0.034 A 
ATOM     52  C   UNL A   1      42.801  25.285  28.414  1.00  0.00     0.034 A 
ATOM     53  C   UNL A   1      43.531  28.892  33.722  1.00  0.00     0.049 A 
ATOM     54  C   UNL A   1      43.744  25.208  29.584  1.00  0.00     0.074 A 
ATOM     55  C   UNL A   1      44.446  28.742  34.752  1.00  0.00     0.029 A 
ATOM     56  N   UNL A   1      43.744  27.837  32.851  1.00  0.00    -0.354 N 
ATOM     57  N   UNL A   1      43.785  25.952  30.662  1.00  0.00    -0.248 NA
ATOM     58  C   UNL A   1      44.743  24.128  29.561  1.00  0.00     0.031 C 
ATOM     59  C   UNL A   1      45.212  27.597  34.503  1.00  0.00     0.029 A 
ATOM     60  C   UNL A   1      44.770  27.030  33.321  1.00  0.00     0.049 A 
ATOM     61  H   UNL A   1      43.242  27.681  32.019  1.00  0.00     0.167 HD
ATOM     62  C   UNL A   1      44.788  25.410  31.459  1.00  0.00     0.074 A 
ATOM     63  C   UNL A   1      45.307  24.257  30.755  1.00  0.00     0.031 C 
ATOM     64  C   UNL A   1      45.249  25.847  32.657  1.00  0.00     0.034 A 
BRANCH  51  65
ATOM     65  C   UNL A   1      42.479  31.012  34.589  1.00  0.00     0.023 A 
ATOM     66  C   UNL A   1      41.862  30.745  35.828  1.00  0.00     0.012 A 
ATOM     67  C   UNL A   1      43.120  32.252  34.392  1.00  0.00     0.148 A 
ATOM     68  C   UNL A   1      41.852  31.702  36.842  1.00  0.00     0.002 A 
ATOM     69  C   UNL A   1      43.143  33.187  35.425  1.00  0.00     0.091 A 
ATOM     70  F   UNL A   1      43.693  32.497  33.205  1.00  0.00    -0.205 F 
ATOM     71  C   UNL A   1      42.501  32.917  36.645  1.00  0.00     0.022 A 
BRANCH  69  72
ATOM     72  S   UNL A   1      44.027  34.747  35.302  1.00  0.00     0.127 S 
ATOM     73  O   UNL A   1      43.031  35.600  34.655  1.00  0.00    -0.237 OA
ATOM     74  O   UNL A   1      44.287  35.069  36.705  1.00  0.00    -0.237 OA
ATOM     75  O   UNL A   1      45.220  34.468  34.514  1.00  0.00    -0.744 OA
ENDBRANCH  69  72
ENDBRANCH  51  65
BRANCH  52  76
ATOM     76  C   UNL A   1      42.871  24.270  27.325  1.00  0.00     0.023 A 
ATOM     77  C   UNL A   1      43.658  24.542  26.188  1.00  0.00     0.012 A 
ATOM     78  C   UNL A   1      42.194  23.041  27.416  1.00  0.00     0.148 A 
ATOM     79  C   UNL A   1      43.739  23.621  25.144  1.00  0.00     0.002 A 
ATOM     80  C   UNL A   1      42.323  22.106  26.394  1.00  0.00     0.091 A 
ATOM     81  F   UNL A   1      41.439  22.807  28.500  1.00  0.00    -0.205 F 
ATOM     82  C   UNL A   1      43.081  22.401  25.251  1.00  0.00     0.022 A 
BRANCH  80  83
ATOM     83  S   UNL A   1      41.612  20.460  26.517  1.00  0.00     0.127 S 
ATOM     84  O   UNL A   1      40.182  20.746  26.460  1.00  0.00    -0.237 OA
ATOM     85  O   UNL A   1      42.157  19.800  25.330  1.00  0.00    -0.237 OA
ATOM     86  O   UNL A   1      42.107  19.922  27.777  1.00  0.00    -0.744 OA
ENDBRANCH  80  83
ENDBRANCH  52  76
BRANCH  64  87
ATOM     87  C   UNL A   1      46.364  25.064  33.302  1.00  0.00     0.023 A 
ATOM     88  C   UNL A   1      47.704  25.417  33.044  1.00  0.00     0.012 A 
ATOM     89  C   UNL A   1      46.092  24.006  34.192  1.00  0.00     0.148 A 
ATOM     90  C   UNL A   1      48.754  24.705  33.625  1.00  0.00     0.002 A 
ATOM     91  C   UNL A   1      47.144  23.327  34.801  1.00  0.00     0.091 A 
ATOM     92  F   UNL A   1      44.814  23.663  34.413  1.00  0.00    -0.205 F 
ATOM     93  C   UNL A   1      48.474  23.667  34.510  1.00  0.00     0.022 A 
BRANCH  91  94
ATOM     94  S   UNL A   1      46.859  22.035  36.017  1.00  0.00     0.127 S 
ATOM     95  O   UNL A   1      45.985  21.121  35.286  1.00  0.00    -0.237 OA
ATOM     96  O   UNL A   1      48.208  21.523  36.261  1.00  0.00    -0.237 OA
ATOM     97  O   UNL A   1      46.260  22.706  37.164  1.00  0.00    -0.744 OA
ENDBRANCH  91  94
ENDBRANCH  64  87
ENDBRANCH  38  39
ENDBRANCH  30  33
ENDBRANCH  28  29
ENDBRANCH  27  28
ENDBRANCH  26  27
ENDBRANCH   1  26
TORSDOF 20
ENDMDL
