MODEL 1
REMARK VINA RESULT:     -12.6      0.000      0.000
REMARK SMILES CC(C)=C1[C@H]2CC[C@@H]1[C@H](C(=O)NNC(=O)c1ccoc1C)[C@H]2C(=O)NCCCCCCNC(=O)c1ccc(-c2c3nc(c(-c4cccc(S(=O)(=O)[O-])c4F)c4ccc([nH]4)c(-c4cccc(S(=O)(=O)[O-])c4F)c4nc(c(-c5cccc(S(=O)(=O)[O-])c5F)c5ccc2[nH]5)C=C4)C=C3)cc1
REMARK SMILES IDX 28 1 27 2 26 3 25 4 23 5 24 6 22 8 1 9 2 10 3 11 4 12 5 13
REMARK SMILES IDX 8 14 6 15 7 16 9 17 10 18 11 19 12 20 13 22 14 23 15 25
REMARK SMILES IDX 16 26 17 27 20 28 18 29 19 30 21 31 29 32 30 33 31 34 32 35
REMARK SMILES IDX 33 36 34 38 35 39 36 40 97 41 37 42 96 43 38 44 39 45 40 46
REMARK SMILES IDX 90 47 41 48 95 49 89 50 91 51 42 52 94 53 88 54 87 55 43 57
REMARK SMILES IDX 75 58 55 59 74 60 56 61 59 62 73 63 92 64 57 65 58 66 72 68
REMARK SMILES IDX 93 69 60 70 44 71 45 72 53 73 46 74 48 75 54 76 47 77 49 78
REMARK SMILES IDX 50 79 51 80 52 81 76 82 77 83 85 84 78 85 80 86 86 87 79 88
REMARK SMILES IDX 81 89 82 90 83 91 84 92 61 93 62 94 70 95 63 96 65 97 71 98
REMARK SMILES IDX 64 99 66 100 67 101 68 102 69 103
REMARK H PARENT 25 7 12 21 13 24 32 37 91 56 59 67
REMARK Flexibility Score: inf
ROOT
ATOM      1  C   UNL A   1      32.354  28.200  22.587  1.00  0.00     0.002 C 
ENDROOT
BRANCH   1   2
ATOM      2  C   UNL A   1      31.956  26.809  22.085  1.00  0.00     0.021 C 
BRANCH   2   3
ATOM      3  C   UNL A   1      33.100  25.986  21.493  1.00  0.00     0.116 C 
BRANCH   3   4
ATOM      4  N   UNL A   1      32.764  24.572  21.423  1.00  0.00    -0.356 N 
ATOM      5  C   UNL A   1      33.023  23.501  22.208  1.00  0.00     0.224 C 
ATOM      6  O   UNL A   1      32.607  22.414  21.784  1.00  0.00    -0.275 OA
ATOM      7  H   UNL A   1      32.229  24.344  20.628  1.00  0.00     0.163 HD
BRANCH   5   8
ATOM      8  C   UNL A   1      33.749  23.520  23.551  1.00  0.00     0.098 C 
ATOM      9  C   UNL A   1      30.234  23.542  26.710  1.00  0.00     0.039 C 
ATOM     10  C   UNL A   1      31.073  24.340  25.750  1.00  0.00    -0.077 C 
ATOM     11  C   UNL A   1      30.461  25.649  25.323  1.00  0.00     0.039 C 
ATOM     12  C   UNL A   1      32.297  23.952  25.351  1.00  0.00    -0.064 C 
ATOM     13  C   UNL A   1      33.295  24.657  24.481  1.00  0.00     0.028 C 
ATOM     14  C   UNL A   1      33.188  22.806  25.790  1.00  0.00     0.028 C 
ATOM     15  C   UNL A   1      34.381  24.901  25.548  1.00  0.00     0.009 C 
ATOM     16  C   UNL A   1      34.224  23.700  26.500  1.00  0.00     0.009 C 
ATOM     17  C   UNL A   1      33.690  22.247  24.424  1.00  0.00     0.100 C 
BRANCH  17  18
ATOM     18  C   UNL A   1      35.050  21.553  24.507  1.00  0.00     0.242 C 
ATOM     19  O   UNL A   1      36.110  22.096  24.202  1.00  0.00    -0.273 OA
ATOM     20  N   UNL A   1      35.115  20.259  24.958  1.00  0.00    -0.267 N 
ATOM     21  H   UNL A   1      35.860  19.702  24.637  1.00  0.00     0.191 HD
BRANCH  20  22
ATOM     22  N   UNL A   1      34.206  19.675  25.837  1.00  0.00    -0.263 N 
ATOM     23  C   UNL A   1      33.162  18.848  25.457  1.00  0.00     0.273 C 
ATOM     24  H   UNL A   1      34.313  19.865  26.797  1.00  0.00     0.191 HD
ATOM     25  O   UNL A   1      32.351  18.481  26.305  1.00  0.00    -0.267 OA
BRANCH  23  26
ATOM     26  C   UNL A   1      32.999  18.484  24.057  1.00  0.00     0.082 A 
ATOM     27  C   UNL A   1      32.172  19.166  23.113  1.00  0.00     0.056 A 
ATOM     28  C   UNL A   1      33.508  17.390  23.370  1.00  0.00     0.113 A 
ATOM     29  C   UNL A   1      32.293  18.498  21.921  1.00  0.00     0.196 A 
ATOM     30  O   UNL A   1      33.105  17.424  22.066  1.00  0.00    -0.469 OA
ATOM     31  C   UNL A   1      34.346  16.223  23.728  1.00  0.00     0.088 C 
ENDBRANCH  23  26
ENDBRANCH  20  22
ENDBRANCH  17  18
ENDBRANCH   5   8
ENDBRANCH   3   4
ENDBRANCH   2   3
ENDBRANCH   1   2
BRANCH   1  32
ATOM     32  C   UNL A   1      32.986  28.242  23.984  1.00  0.00     0.002 C 
BRANCH  32  33
ATOM     33  C   UNL A   1      32.346  29.198  24.998  1.00  0.00     0.021 C 
BRANCH  33  34
ATOM     34  C   UNL A   1      33.226  29.621  26.174  1.00  0.00     0.116 C 
BRANCH  34  35
ATOM     35  N   UNL A   1      33.028  31.011  26.545  1.00  0.00    -0.352 N 
ATOM     36  C   UNL A   1      33.710  31.805  27.433  1.00  0.00     0.251 C 
ATOM     37  H   UNL A   1      32.282  31.457  26.083  1.00  0.00     0.163 HD
ATOM     38  O   UNL A   1      33.256  32.915  27.709  1.00  0.00    -0.269 OA
BRANCH  36  39
ATOM     39  C   UNL A   1      34.968  31.352  28.071  1.00  0.00     0.039 A 
ATOM     40  C   UNL A   1      34.977  30.109  28.713  1.00  0.00     0.014 A 
ATOM     41  C   UNL A   1      36.110  32.158  28.112  1.00  0.00     0.014 A 
ATOM     42  C   UNL A   1      36.136  29.655  29.352  1.00  0.00     0.010 A 
ATOM     43  C   UNL A   1      37.283  31.683  28.704  1.00  0.00     0.010 A 
ATOM     44  C   UNL A   1      37.305  30.432  29.339  1.00  0.00    -0.014 A 
BRANCH  44  45
ATOM     45  C   UNL A   1      38.552  29.940  29.984  1.00  0.00     0.031 A 
ATOM     46  C   UNL A   1      38.958  30.434  31.347  1.00  0.00     0.074 A 
ATOM     47  C   UNL A   1      39.357  29.091  29.315  1.00  0.00     0.049 A 
ATOM     48  N   UNL A   1      40.010  30.117  32.058  1.00  0.00    -0.248 NA
ATOM     49  C   UNL A   1      38.080  31.428  31.986  1.00  0.00     0.031 C 
ATOM     50  C   UNL A   1      39.121  28.599  27.956  1.00  0.00     0.029 A 
ATOM     51  N   UNL A   1      40.545  28.508  29.678  1.00  0.00    -0.354 N 
ATOM     52  C   UNL A   1      39.939  30.891  33.210  1.00  0.00     0.074 A 
ATOM     53  C   UNL A   1      38.755  31.713  33.092  1.00  0.00     0.031 C 
ATOM     54  C   UNL A   1      40.131  27.788  27.602  1.00  0.00     0.029 A 
ATOM     55  C   UNL A   1      41.090  27.709  28.701  1.00  0.00     0.049 A 
ATOM     56  H   UNL A   1      40.968  28.649  30.557  1.00  0.00     0.167 HD
ATOM     57  C   UNL A   1      40.765  30.894  34.285  1.00  0.00     0.034 A 
ATOM     58  C   UNL A   1      42.226  26.984  28.692  1.00  0.00     0.034 A 
ATOM     59  C   UNL A   1      41.909  30.036  34.430  1.00  0.00     0.049 A 
ATOM     60  C   UNL A   1      43.085  26.948  29.927  1.00  0.00     0.074 A 
ATOM     61  C   UNL A   1      42.754  29.904  35.519  1.00  0.00     0.029 A 
ATOM     62  N   UNL A   1      42.368  29.158  33.461  1.00  0.00    -0.354 N 
ATOM     63  N   UNL A   1      42.905  27.557  31.073  1.00  0.00    -0.248 NA
ATOM     64  C   UNL A   1      44.279  26.089  29.884  1.00  0.00     0.031 C 
ATOM     65  C   UNL A   1      43.725  28.945  35.207  1.00  0.00     0.029 A 
ATOM     66  C   UNL A   1      43.483  28.480  33.925  1.00  0.00     0.049 A 
ATOM     67  H   UNL A   1      41.962  29.036  32.573  1.00  0.00     0.167 HD
ATOM     68  C   UNL A   1      43.942  27.134  31.898  1.00  0.00     0.074 A 
ATOM     69  C   UNL A   1      44.733  26.197  31.125  1.00  0.00     0.031 C 
ATOM     70  C   UNL A   1      44.225  27.503  33.171  1.00  0.00     0.034 A 
BRANCH  57  71
ATOM     71  C   UNL A   1      40.414  31.806  35.430  1.00  0.00     0.023 A 
ATOM     72  C   UNL A   1      41.183  32.969  35.640  1.00  0.00     0.012 A 
ATOM     73  C   UNL A   1      39.302  31.554  36.255  1.00  0.00     0.148 A 
ATOM     74  C   UNL A   1      40.868  33.852  36.672  1.00  0.00     0.002 A 
ATOM     75  C   UNL A   1      38.974  32.458  37.261  1.00  0.00     0.091 A 
ATOM     76  F   UNL A   1      38.597  30.430  36.058  1.00  0.00    -0.205 F 
ATOM     77  C   UNL A   1      39.758  33.603  37.475  1.00  0.00     0.022 A 
BRANCH  75  78
ATOM     78  S   UNL A   1      37.522  32.251  38.300  1.00  0.00     0.127 S 
ATOM     79  O   UNL A   1      37.328  30.803  38.252  1.00  0.00    -0.237 OA
ATOM     80  O   UNL A   1      37.986  32.760  39.592  1.00  0.00    -0.237 OA
ATOM     81  O   UNL A   1      36.475  33.050  37.680  1.00  0.00    -0.744 OA
ENDBRANCH  75  78
ENDBRANCH  57  71
BRANCH  58  82
ATOM     82  C   UNL A   1      42.561  26.152  27.504  1.00  0.00     0.023 A 
ATOM     83  C   UNL A   1      43.358  26.706  26.481  1.00  0.00     0.012 A 
ATOM     84  C   UNL A   1      42.144  24.812  27.399  1.00  0.00     0.148 A 
ATOM     85  C   UNL A   1      43.712  25.947  25.366  1.00  0.00     0.002 A 
ATOM     86  C   UNL A   1      42.543  24.045  26.309  1.00  0.00     0.091 A 
ATOM     87  F   UNL A   1      41.371  24.306  28.371  1.00  0.00    -0.205 F 
ATOM     88  C   UNL A   1      43.315  24.614  25.285  1.00  0.00     0.022 A 
BRANCH  86  89
ATOM     89  S   UNL A   1      42.186  22.288  26.204  1.00  0.00     0.127 S 
ATOM     90  O   UNL A   1      42.802  21.782  27.427  1.00  0.00    -0.237 OA
ATOM     91  O   UNL A   1      40.721  22.269  26.199  1.00  0.00    -0.237 OA
ATOM     92  O   UNL A   1      42.788  21.849  24.952  1.00  0.00    -0.744 OA
ENDBRANCH  86  89
ENDBRANCH  58  82
BRANCH  70  93
ATOM     93  C   UNL A   1      45.429  26.882  33.827  1.00  0.00     0.023 A 
ATOM     94  C   UNL A   1      46.674  27.537  33.747  1.00  0.00     0.012 A 
ATOM     95  C   UNL A   1      45.318  25.696  34.577  1.00  0.00     0.148 A 
ATOM     96  C   UNL A   1      47.795  27.008  34.384  1.00  0.00     0.002 A 
ATOM     97  C   UNL A   1      46.432  25.194  35.242  1.00  0.00     0.091 A 
ATOM     98  F   UNL A   1      44.132  25.071  34.622  1.00  0.00    -0.205 F 
ATOM     99  C   UNL A   1      47.673  25.845  35.141  1.00  0.00     0.022 A 
BRANCH  97 100
ATOM    100  S   UNL A   1      46.328  23.749  36.304  1.00  0.00     0.127 S 
ATOM    101  O   UNL A   1      47.695  23.647  36.808  1.00  0.00    -0.237 OA
ATOM    102  O   UNL A   1      45.339  24.155  37.304  1.00  0.00    -0.237 OA
ATOM    103  O   UNL A   1      45.888  22.662  35.438  1.00  0.00    -0.744 OA
ENDBRANCH  97 100
ENDBRANCH  70  93
ENDBRANCH  44  45
ENDBRANCH  36  39
ENDBRANCH  34  35
ENDBRANCH  33  34
ENDBRANCH  32  33
ENDBRANCH   1  32
TORSDOF 19
ENDMDL
MODEL 2
REMARK VINA RESULT:     -12.4      2.018      2.291
REMARK SMILES CC(C)=C1[C@H]2CC[C@@H]1[C@H](C(=O)NNC(=O)c1ccoc1C)[C@H]2C(=O)NCCCCCCNC(=O)c1ccc(-c2c3nc(c(-c4cccc(S(=O)(=O)[O-])c4F)c4ccc([nH]4)c(-c4cccc(S(=O)(=O)[O-])c4F)c4nc(c(-c5cccc(S(=O)(=O)[O-])c5F)c5ccc2[nH]5)C=C4)C=C3)cc1
REMARK SMILES IDX 28 1 27 2 26 3 25 4 23 5 24 6 22 8 1 9 2 10 3 11 4 12 5 13
REMARK SMILES IDX 8 14 6 15 7 16 9 17 10 18 11 19 12 20 13 22 14 23 15 25
REMARK SMILES IDX 16 26 17 27 20 28 18 29 19 30 21 31 29 32 30 33 31 34 32 35
REMARK SMILES IDX 33 36 34 38 35 39 36 40 97 41 37 42 96 43 38 44 39 45 40 46
REMARK SMILES IDX 90 47 41 48 95 49 89 50 91 51 42 52 94 53 88 54 87 55 43 57
REMARK SMILES IDX 75 58 55 59 74 60 56 61 59 62 73 63 92 64 57 65 58 66 72 68
REMARK SMILES IDX 93 69 60 70 44 71 45 72 53 73 46 74 48 75 54 76 47 77 49 78
REMARK SMILES IDX 50 79 51 80 52 81 76 82 77 83 85 84 78 85 80 86 86 87 79 88
REMARK SMILES IDX 81 89 82 90 83 91 84 92 61 93 62 94 70 95 63 96 65 97 71 98
REMARK SMILES IDX 64 99 66 100 67 101 68 102 69 103
REMARK H PARENT 25 7 12 21 13 24 32 37 91 56 59 67
REMARK Flexibility Score: inf
ROOT
ATOM      1  C   UNL A   1      32.384  28.515  23.056  1.00  0.00     0.002 C 
ENDROOT
BRANCH   1   2
ATOM      2  C   UNL A   1      32.004  27.211  22.349  1.00  0.00     0.021 C 
BRANCH   2   3
ATOM      3  C   UNL A   1      33.182  26.414  21.790  1.00  0.00     0.116 C 
BRANCH   3   4
ATOM      4  N   UNL A   1      32.833  25.018  21.575  1.00  0.00    -0.356 N 
ATOM      5  C   UNL A   1      33.075  23.871  22.251  1.00  0.00     0.224 C 
ATOM      6  O   UNL A   1      32.652  22.837  21.717  1.00  0.00    -0.275 OA
ATOM      7  H   UNL A   1      32.304  24.876  20.757  1.00  0.00     0.163 HD
BRANCH   5   8
ATOM      8  C   UNL A   1      33.788  23.747  23.596  1.00  0.00     0.098 C 
ATOM      9  C   UNL A   1      30.244  23.508  26.713  1.00  0.00     0.039 C 
ATOM     10  C   UNL A   1      31.103  24.384  25.843  1.00  0.00    -0.077 C 
ATOM     11  C   UNL A   1      30.512  25.738  25.542  1.00  0.00     0.039 C 
ATOM     12  C   UNL A   1      32.326  24.020  25.418  1.00  0.00    -0.064 C 
ATOM     13  C   UNL A   1      33.340  24.794  24.629  1.00  0.00     0.028 C 
ATOM     14  C   UNL A   1      33.197  22.824  25.748  1.00  0.00     0.028 C 
ATOM     15  C   UNL A   1      34.419  24.917  25.724  1.00  0.00     0.009 C 
ATOM     16  C   UNL A   1      34.238  23.630  26.552  1.00  0.00     0.009 C 
ATOM     17  C   UNL A   1      33.705  22.395  24.338  1.00  0.00     0.100 C 
BRANCH  17  18
ATOM     18  C   UNL A   1      35.054  21.678  24.363  1.00  0.00     0.242 C 
ATOM     19  O   UNL A   1      36.109  22.201  24.009  1.00  0.00    -0.273 OA
ATOM     20  N   UNL A   1      35.117  20.385  24.816  1.00  0.00    -0.267 N 
ATOM     21  H   UNL A   1      35.838  19.814  24.465  1.00  0.00     0.191 HD
BRANCH  20  22
ATOM     22  N   UNL A   1      34.239  19.821  25.737  1.00  0.00    -0.263 N 
ATOM     23  C   UNL A   1      33.192  18.974  25.413  1.00  0.00     0.273 C 
ATOM     24  H   UNL A   1      34.371  20.040  26.688  1.00  0.00     0.191 HD
ATOM     25  O   UNL A   1      32.409  18.625  26.294  1.00  0.00    -0.267 OA
BRANCH  23  26
ATOM     26  C   UNL A   1      32.993  18.565  24.029  1.00  0.00     0.082 A 
ATOM     27  C   UNL A   1      32.161  19.232  23.079  1.00  0.00     0.056 A 
ATOM     28  C   UNL A   1      33.467  17.439  23.370  1.00  0.00     0.113 A 
ATOM     29  C   UNL A   1      32.245  18.522  21.908  1.00  0.00     0.196 A 
ATOM     30  O   UNL A   1      33.038  17.437  22.074  1.00  0.00    -0.469 OA
ATOM     31  C   UNL A   1      34.288  16.267  23.752  1.00  0.00     0.088 C 
ENDBRANCH  23  26
ENDBRANCH  20  22
ENDBRANCH  17  18
ENDBRANCH   5   8
ENDBRANCH   3   4
ENDBRANCH   2   3
ENDBRANCH   1   2
BRANCH   1  32
ATOM     32  C   UNL A   1      33.180  28.353  24.358  1.00  0.00     0.002 C 
BRANCH  32  33
ATOM     33  C   UNL A   1      32.629  29.076  25.592  1.00  0.00     0.021 C 
BRANCH  33  34
ATOM     34  C   UNL A   1      33.640  29.395  26.694  1.00  0.00     0.116 C 
BRANCH  34  35
ATOM     35  N   UNL A   1      33.596  30.788  27.104  1.00  0.00    -0.352 N 
ATOM     36  C   UNL A   1      34.430  31.505  27.923  1.00  0.00     0.251 C 
ATOM     37  H   UNL A   1      32.844  31.302  26.731  1.00  0.00     0.163 HD
ATOM     38  O   UNL A   1      34.100  32.641  28.261  1.00  0.00    -0.269 OA
BRANCH  36  39
ATOM     39  C   UNL A   1      35.709  30.939  28.416  1.00  0.00     0.039 A 
ATOM     40  C   UNL A   1      35.663  29.787  29.209  1.00  0.00     0.014 A 
ATOM     41  C   UNL A   1      36.937  31.561  28.173  1.00  0.00     0.014 A 
ATOM     42  C   UNL A   1      36.844  29.236  29.718  1.00  0.00     0.010 A 
ATOM     43  C   UNL A   1      38.121  30.981  28.636  1.00  0.00     0.010 A 
ATOM     44  C   UNL A   1      38.086  29.819  29.422  1.00  0.00    -0.014 A 
BRANCH  44  45
ATOM     45  C   UNL A   1      39.348  29.219  29.927  1.00  0.00     0.031 A 
ATOM     46  C   UNL A   1      40.036  29.784  31.142  1.00  0.00     0.074 A 
ATOM     47  C   UNL A   1      39.914  28.196  29.256  1.00  0.00     0.049 A 
ATOM     48  N   UNL A   1      41.142  29.390  31.720  1.00  0.00    -0.248 NA
ATOM     49  C   UNL A   1      39.412  30.956  31.777  1.00  0.00     0.031 C 
ATOM     50  C   UNL A   1      39.395  27.608  28.020  1.00  0.00     0.029 A 
ATOM     51  N   UNL A   1      41.061  27.485  29.506  1.00  0.00    -0.354 N 
ATOM     52  C   UNL A   1      41.364  30.279  32.764  1.00  0.00     0.074 A 
ATOM     53  C   UNL A   1      40.293  31.251  32.725  1.00  0.00     0.031 C 
ATOM     54  C   UNL A   1      40.219  26.625  27.622  1.00  0.00     0.029 A 
ATOM     55  C   UNL A   1      41.328  26.518  28.565  1.00  0.00     0.049 A 
ATOM     56  H   UNL A   1      41.639  27.651  30.286  1.00  0.00     0.167 HD
ATOM     57  C   UNL A   1      42.351  30.271  33.694  1.00  0.00     0.034 A 
ATOM     58  C   UNL A   1      42.344  25.637  28.475  1.00  0.00     0.034 A 
ATOM     59  C   UNL A   1      43.383  29.273  33.771  1.00  0.00     0.049 A 
ATOM     60  C   UNL A   1      43.384  25.601  29.562  1.00  0.00     0.074 A 
ATOM     61  C   UNL A   1      44.373  29.130  34.729  1.00  0.00     0.029 A 
ATOM     62  N   UNL A   1      43.557  28.243  32.861  1.00  0.00    -0.354 N 
ATOM     63  N   UNL A   1      43.478  26.345  30.638  1.00  0.00    -0.248 NA
ATOM     64  C   UNL A   1      44.434  24.576  29.447  1.00  0.00     0.031 C 
ATOM     65  C   UNL A   1      45.147  28.012  34.395  1.00  0.00     0.029 A 
ATOM     66  C   UNL A   1      44.637  27.459  33.232  1.00  0.00     0.049 A 
ATOM     67  H   UNL A   1      42.997  28.091  32.066  1.00  0.00     0.167 HD
ATOM     68  C   UNL A   1      44.574  25.859  31.342  1.00  0.00     0.074 A 
ATOM     69  C   UNL A   1      45.098  24.742  30.583  1.00  0.00     0.031 C 
ATOM     70  C   UNL A   1      45.110  26.311  32.503  1.00  0.00     0.034 A 
BRANCH  57  71
ATOM     71  C   UNL A   1      42.316  31.337  34.756  1.00  0.00     0.023 A 
ATOM     72  C   UNL A   1      41.700  31.051  35.993  1.00  0.00     0.012 A 
ATOM     73  C   UNL A   1      42.933  32.587  34.564  1.00  0.00     0.148 A 
ATOM     74  C   UNL A   1      41.676  32.002  37.011  1.00  0.00     0.002 A 
ATOM     75  C   UNL A   1      42.935  33.518  35.598  1.00  0.00     0.091 A 
ATOM     76  F   UNL A   1      43.491  32.852  33.374  1.00  0.00    -0.205 F 
ATOM     77  C   UNL A   1      42.302  33.231  36.818  1.00  0.00     0.022 A 
BRANCH  75  78
ATOM     78  S   UNL A   1      43.775  35.101  35.461  1.00  0.00     0.127 S 
ATOM     79  O   UNL A   1      45.130  34.686  35.102  1.00  0.00    -0.237 OA
ATOM     80  O   UNL A   1      43.034  35.758  34.382  1.00  0.00    -0.237 OA
ATOM     81  O   UNL A   1      43.632  35.738  36.762  1.00  0.00    -0.744 OA
ENDBRANCH  75  78
ENDBRANCH  57  71
BRANCH  58  82
ATOM     82  C   UNL A   1      42.366  24.647  27.363  1.00  0.00     0.023 A 
ATOM     83  C   UNL A   1      43.225  24.867  26.267  1.00  0.00     0.012 A 
ATOM     84  C   UNL A   1      41.589  23.475  27.403  1.00  0.00     0.148 A 
ATOM     85  C   UNL A   1      43.290  23.949  25.220  1.00  0.00     0.002 A 
ATOM     86  C   UNL A   1      41.698  22.538  26.379  1.00  0.00     0.091 A 
ATOM     87  F   UNL A   1      40.764  23.290  28.443  1.00  0.00    -0.205 F 
ATOM     88  C   UNL A   1      42.536  22.780  25.281  1.00  0.00     0.022 A 
BRANCH  86  89
ATOM     89  S   UNL A   1      40.862  20.949  26.457  1.00  0.00     0.127 S 
ATOM     90  O   UNL A   1      40.840  20.691  27.893  1.00  0.00    -0.237 OA
ATOM     91  O   UNL A   1      39.558  21.255  25.865  1.00  0.00    -0.237 OA
ATOM     92  O   UNL A   1      41.680  20.049  25.654  1.00  0.00    -0.744 OA
ENDBRANCH  86  89
ENDBRANCH  58  82
BRANCH  70  93
ATOM     93  C   UNL A   1      46.316  25.590  33.042  1.00  0.00     0.023 A 
ATOM     94  C   UNL A   1      47.603  26.086  32.756  1.00  0.00     0.012 A 
ATOM     95  C   UNL A   1      46.179  24.471  33.885  1.00  0.00     0.148 A 
ATOM     96  C   UNL A   1      48.736  25.465  33.280  1.00  0.00     0.002 A 
ATOM     97  C   UNL A   1      47.310  23.879  34.436  1.00  0.00     0.091 A 
ATOM     98  F   UNL A   1      44.948  23.996  34.127  1.00  0.00    -0.205 F 
ATOM     99  C   UNL A   1      48.590  24.370  34.130  1.00  0.00     0.022 A 
BRANCH  97 100
ATOM    100  S   UNL A   1      47.193  22.520  35.604  1.00  0.00     0.127 S 
ATOM    101  O   UNL A   1      46.876  21.396  34.727  1.00  0.00    -0.237 OA
ATOM    102  O   UNL A   1      48.536  22.479  36.186  1.00  0.00    -0.237 OA
ATOM    103  O   UNL A   1      46.148  22.905  36.545  1.00  0.00    -0.744 OA
ENDBRANCH  97 100
ENDBRANCH  70  93
ENDBRANCH  44  45
ENDBRANCH  36  39
ENDBRANCH  34  35
ENDBRANCH  33  34
ENDBRANCH  32  33
ENDBRANCH   1  32
TORSDOF 19
ENDMDL
MODEL 3
REMARK VINA RESULT:     -11.9      2.596      8.276
REMARK SMILES CC(C)=C1[C@H]2CC[C@@H]1[C@H](C(=O)NNC(=O)c1ccoc1C)[C@H]2C(=O)NCCCCCCNC(=O)c1ccc(-c2c3nc(c(-c4cccc(S(=O)(=O)[O-])c4F)c4ccc([nH]4)c(-c4cccc(S(=O)(=O)[O-])c4F)c4nc(c(-c5cccc(S(=O)(=O)[O-])c5F)c5ccc2[nH]5)C=C4)C=C3)cc1
REMARK SMILES IDX 28 1 27 2 26 3 25 4 23 5 24 6 22 8 1 9 2 10 3 11 4 12 5 13
REMARK SMILES IDX 8 14 6 15 7 16 9 17 10 18 11 19 12 20 13 22 14 23 15 25
REMARK SMILES IDX 16 26 17 27 20 28 18 29 19 30 21 31 29 32 30 33 31 34 32 35
REMARK SMILES IDX 33 36 34 38 35 39 36 40 97 41 37 42 96 43 38 44 39 45 40 46
REMARK SMILES IDX 90 47 41 48 95 49 89 50 91 51 42 52 94 53 88 54 87 55 43 57
REMARK SMILES IDX 75 58 55 59 74 60 56 61 59 62 73 63 92 64 57 65 58 66 72 68
REMARK SMILES IDX 93 69 60 70 44 71 45 72 53 73 46 74 48 75 54 76 47 77 49 78
REMARK SMILES IDX 50 79 51 80 52 81 76 82 77 83 85 84 78 85 80 86 86 87 79 88
REMARK SMILES IDX 81 89 82 90 83 91 84 92 61 93 62 94 70 95 63 96 65 97 71 98
REMARK SMILES IDX 64 99 66 100 67 101 68 102 69 103
REMARK H PARENT 25 7 12 21 13 24 32 37 91 56 59 67
REMARK Flexibility Score: inf
ROOT
ATOM      1  C   UNL A   1      34.995  30.876  27.299  1.00  0.00     0.002 C 
ENDROOT
BRANCH   1   2
ATOM      2  C   UNL A   1      35.165  29.360  27.428  1.00  0.00     0.021 C 
BRANCH   2   3
ATOM      3  C   UNL A   1      34.101  28.528  26.712  1.00  0.00     0.116 C 
BRANCH   3   4
ATOM      4  N   UNL A   1      32.853  28.495  27.459  1.00  0.00    -0.356 N 
ATOM      5  C   UNL A   1      31.726  27.750  27.380  1.00  0.00     0.224 C 
ATOM      6  O   UNL A   1      30.827  28.055  28.175  1.00  0.00    -0.275 OA
ATOM      7  H   UNL A   1      32.821  29.162  28.183  1.00  0.00     0.163 HD
BRANCH   5   8
ATOM      8  C   UNL A   1      31.481  26.578  26.432  1.00  0.00     0.098 C 
ATOM      9  C   UNL A   1      33.670  27.895  22.456  1.00  0.00     0.039 C 
ATOM     10  C   UNL A   1      32.447  28.016  23.323  1.00  0.00    -0.077 C 
ATOM     11  C   UNL A   1      31.617  29.247  23.064  1.00  0.00     0.039 C 
ATOM     12  C   UNL A   1      32.086  27.076  24.214  1.00  0.00    -0.064 C 
ATOM     13  C   UNL A   1      30.867  26.994  25.085  1.00  0.00     0.028 C 
ATOM     14  C   UNL A   1      32.633  25.692  24.502  1.00  0.00     0.028 C 
ATOM     15  C   UNL A   1      30.212  25.763  24.428  1.00  0.00     0.009 C 
ATOM     16  C   UNL A   1      31.415  24.939  23.929  1.00  0.00     0.009 C 
ATOM     17  C   UNL A   1      32.685  25.684  26.061  1.00  0.00     0.100 C 
BRANCH  17  18
ATOM     18  C   UNL A   1      32.564  24.288  26.672  1.00  0.00     0.242 C 
ATOM     19  O   UNL A   1      31.559  23.887  27.256  1.00  0.00    -0.273 OA
ATOM     20  N   UNL A   1      33.616  23.416  26.562  1.00  0.00    -0.267 N 
ATOM     21  H   UNL A   1      33.714  22.730  27.261  1.00  0.00     0.191 HD
BRANCH  20  22
ATOM     22  N   UNL A   1      34.556  23.427  25.534  1.00  0.00    -0.263 N 
ATOM     23  C   UNL A   1      34.701  22.427  24.587  1.00  0.00     0.273 C 
ATOM     24  H   UNL A   1      35.161  24.201  25.477  1.00  0.00     0.191 HD
ATOM     25  O   UNL A   1      35.638  22.485  23.794  1.00  0.00    -0.267 OA
BRANCH  23  26
ATOM     26  C   UNL A   1      33.788  21.292  24.587  1.00  0.00     0.082 A 
ATOM     27  C   UNL A   1      33.874  20.159  25.452  1.00  0.00     0.056 A 
ATOM     28  C   UNL A   1      32.732  21.015  23.729  1.00  0.00     0.113 A 
ATOM     29  C   UNL A   1      32.839  19.323  25.118  1.00  0.00     0.196 A 
ATOM     30  O   UNL A   1      32.139  19.837  24.078  1.00  0.00    -0.469 OA
ATOM     31  C   UNL A   1      32.139  21.680  22.546  1.00  0.00     0.088 C 
ENDBRANCH  23  26
ENDBRANCH  20  22
ENDBRANCH  17  18
ENDBRANCH   5   8
ENDBRANCH   3   4
ENDBRANCH   2   3
ENDBRANCH   1   2
BRANCH   1  32
ATOM     32  C   UNL A   1      34.055  31.525  28.322  1.00  0.00     0.002 C 
BRANCH  32  33
ATOM     33  C   UNL A   1      32.889  32.346  27.758  1.00  0.00     0.021 C 
BRANCH  33  34
ATOM     34  C   UNL A   1      33.247  33.714  27.175  1.00  0.00     0.116 C 
BRANCH  34  35
ATOM     35  N   UNL A   1      32.810  34.810  28.021  1.00  0.00    -0.352 N 
ATOM     36  C   UNL A   1      33.167  35.148  29.302  1.00  0.00     0.251 C 
ATOM     37  H   UNL A   1      32.149  35.410  27.606  1.00  0.00     0.163 HD
ATOM     38  O   UNL A   1      32.537  36.032  29.881  1.00  0.00    -0.269 OA
BRANCH  36  39
ATOM     39  C   UNL A   1      34.281  34.467  30.002  1.00  0.00     0.039 A 
ATOM     40  C   UNL A   1      35.569  34.579  29.467  1.00  0.00     0.014 A 
ATOM     41  C   UNL A   1      34.069  33.666  31.128  1.00  0.00     0.014 A 
ATOM     42  C   UNL A   1      36.645  33.928  30.081  1.00  0.00     0.010 A 
ATOM     43  C   UNL A   1      35.151  33.061  31.773  1.00  0.00     0.010 A 
ATOM     44  C   UNL A   1      36.448  33.177  31.250  1.00  0.00    -0.014 A 
BRANCH  44  45
ATOM     45  C   UNL A   1      37.592  32.514  31.930  1.00  0.00     0.031 A 
ATOM     46  C   UNL A   1      38.316  31.368  31.275  1.00  0.00     0.074 A 
ATOM     47  C   UNL A   1      37.945  32.904  33.171  1.00  0.00     0.049 A 
ATOM     48  N   UNL A   1      39.330  30.671  31.721  1.00  0.00    -0.248 NA
ATOM     49  C   UNL A   1      37.824  30.933  29.957  1.00  0.00     0.031 C 
ATOM     50  C   UNL A   1      37.275  33.946  33.950  1.00  0.00     0.029 A 
ATOM     51  N   UNL A   1      38.941  32.456  34.003  1.00  0.00    -0.354 N 
ATOM     52  C   UNL A   1      39.579  29.700  30.760  1.00  0.00     0.074 A 
ATOM     53  C   UNL A   1      38.592  29.879  29.716  1.00  0.00     0.031 C 
ATOM     54  C   UNL A   1      37.880  34.058  35.144  1.00  0.00     0.029 A 
ATOM     55  C   UNL A   1      38.971  33.092  35.221  1.00  0.00     0.049 A 
ATOM     56  H   UNL A   1      39.574  31.744  33.750  1.00  0.00     0.167 HD
ATOM     57  C   UNL A   1      40.559  28.765  30.728  1.00  0.00     0.034 A 
ATOM     58  C   UNL A   1      39.792  32.927  36.277  1.00  0.00     0.034 A 
ATOM     59  C   UNL A   1      41.577  28.623  31.734  1.00  0.00     0.049 A 
ATOM     60  C   UNL A   1      40.919  31.933  36.185  1.00  0.00     0.074 A 
ATOM     61  C   UNL A   1      42.663  27.765  31.746  1.00  0.00     0.029 A 
ATOM     62  N   UNL A   1      41.639  29.362  32.905  1.00  0.00    -0.354 N 
ATOM     63  N   UNL A   1      41.240  31.142  35.190  1.00  0.00    -0.248 NA
ATOM     64  C   UNL A   1      41.822  31.840  37.342  1.00  0.00     0.031 C 
ATOM     65  C   UNL A   1      43.383  27.985  32.927  1.00  0.00     0.029 A 
ATOM     66  C   UNL A   1      42.745  28.981  33.648  1.00  0.00     0.049 A 
ATOM     67  H   UNL A   1      40.992  30.054  33.171  1.00  0.00     0.167 HD
ATOM     68  C   UNL A   1      42.398  30.482  35.587  1.00  0.00     0.074 A 
ATOM     69  C   UNL A   1      42.735  30.984  36.904  1.00  0.00     0.031 C 
ATOM     70  C   UNL A   1      43.106  29.532  34.928  1.00  0.00     0.034 A 
BRANCH  57  71
ATOM     71  C   UNL A   1      40.627  27.866  29.522  1.00  0.00     0.023 A 
ATOM     72  C   UNL A   1      39.757  26.758  29.443  1.00  0.00     0.012 A 
ATOM     73  C   UNL A   1      41.494  28.142  28.448  1.00  0.00     0.148 A 
ATOM     74  C   UNL A   1      39.770  25.923  28.328  1.00  0.00     0.002 A 
ATOM     75  C   UNL A   1      41.477  27.323  27.324  1.00  0.00     0.091 A 
ATOM     76  F   UNL A   1      42.333  29.183  28.550  1.00  0.00    -0.205 F 
ATOM     77  C   UNL A   1      40.622  26.211  27.264  1.00  0.00     0.022 A 
BRANCH  75  78
ATOM     78  S   UNL A   1      42.492  27.657  25.878  1.00  0.00     0.127 S 
ATOM     79  O   UNL A   1      42.029  28.990  25.494  1.00  0.00    -0.237 OA
ATOM     80  O   UNL A   1      43.847  27.619  26.431  1.00  0.00    -0.237 OA
ATOM     81  O   UNL A   1      42.198  26.589  24.934  1.00  0.00    -0.744 OA
ENDBRANCH  75  78
ENDBRANCH  57  71
BRANCH  58  82
ATOM     82  C   UNL A   1      39.638  33.798  37.475  1.00  0.00     0.023 A 
ATOM     83  C   UNL A   1      40.170  35.103  37.447  1.00  0.00     0.012 A 
ATOM     84  C   UNL A   1      38.932  33.368  38.614  1.00  0.00     0.148 A 
ATOM     85  C   UNL A   1      40.022  35.954  38.541  1.00  0.00     0.002 A 
ATOM     86  C   UNL A   1      38.743  34.241  39.682  1.00  0.00     0.091 A 
ATOM     87  F   UNL A   1      38.448  32.118  38.631  1.00  0.00    -0.205 F 
ATOM     88  C   UNL A   1      39.300  35.528  39.653  1.00  0.00     0.022 A 
BRANCH  86  89
ATOM     89  S   UNL A   1      37.710  33.810  41.086  1.00  0.00     0.127 S 
ATOM     90  O   UNL A   1      38.582  32.910  41.836  1.00  0.00    -0.237 OA
ATOM     91  O   UNL A   1      37.482  35.113  41.715  1.00  0.00    -0.237 OA
ATOM     92  O   UNL A   1      36.512  33.213  40.510  1.00  0.00    -0.744 OA
ENDBRANCH  86  89
ENDBRANCH  58  82
BRANCH  70  93
ATOM     93  C   UNL A   1      44.331  28.979  35.605  1.00  0.00     0.023 A 
ATOM     94  C   UNL A   1      45.592  29.534  35.314  1.00  0.00     0.012 A 
ATOM     95  C   UNL A   1      44.230  27.966  36.577  1.00  0.00     0.148 A 
ATOM     96  C   UNL A   1      46.737  29.072  35.961  1.00  0.00     0.002 A 
ATOM     97  C   UNL A   1      45.370  27.536  37.247  1.00  0.00     0.091 A 
ATOM     98  F   UNL A   1      43.026  27.430  36.825  1.00  0.00    -0.205 F 
ATOM     99  C   UNL A   1      46.626  28.083  36.936  1.00  0.00     0.022 A 
BRANCH  97 100
ATOM    100  S   UNL A   1      45.290  26.326  38.573  1.00  0.00     0.127 S 
ATOM    101  O   UNL A   1      44.708  25.172  37.892  1.00  0.00    -0.237 OA
ATOM    102  O   UNL A   1      46.696  26.167  38.948  1.00  0.00    -0.237 OA
ATOM    103  O   UNL A   1      44.464  26.937  39.607  1.00  0.00    -0.744 OA
ENDBRANCH  97 100
ENDBRANCH  70  93
ENDBRANCH  44  45
ENDBRANCH  36  39
ENDBRANCH  34  35
ENDBRANCH  33  34
ENDBRANCH  32  33
ENDBRANCH   1  32
TORSDOF 19
ENDMDL
