MODEL 1
REMARK VINA RESULT:     -11.5      0.000      0.000
REMARK SMILES O=C(/C=C/c1ccc(O)c(O)c1)NCCCCCCNC(=O)c1ccc(-c2c3nc(c(-c4cccc(S(=O)(=O)[O-])c4F)c4ccc([nH]4)c(-c4cccc(S(=O)(=O)[O-])c4F)c4nc(c(-c5cccc(S(=O)(=O)[O-])c5F)c5ccc2[nH]5)C=C4)C=C3)cc1
REMARK SMILES IDX 17 1 16 2 15 3 14 4 13 5 1 6 2 7 3 9 4 10 5 11 6 12 12 13
REMARK SMILES IDX 7 14 10 15 8 16 11 17 9 19 18 21 19 22 20 23 21 24 22 26
REMARK SMILES IDX 23 27 24 28 85 29 25 30 84 31 26 32 27 33 28 34 78 35 29 36
REMARK SMILES IDX 83 37 77 38 79 39 30 40 82 41 76 42 75 43 31 45 63 46 43 47
REMARK SMILES IDX 62 48 44 49 47 50 61 51 80 52 45 53 46 54 60 56 81 57 48 58
REMARK SMILES IDX 32 59 33 60 41 61 34 62 36 63 42 64 35 65 37 66 38 67 39 68
REMARK SMILES IDX 40 69 64 70 65 71 73 72 66 73 68 74 74 75 67 76 69 77 70 78
REMARK SMILES IDX 71 79 72 80 49 81 50 82 58 83 51 84 53 85 59 86 52 87 54 88
REMARK SMILES IDX 55 89 56 90 57 91
REMARK H PARENT 13 8 11 18 9 20 20 25 79 44 47 55
REMARK Flexibility Score: inf
ROOT
ATOM      1  C   UNL A   1      32.510  27.621  26.577  1.00  0.00     0.002 C 
ENDROOT
BRANCH   1   2
ATOM      2  C   UNL A   1      31.665  26.351  26.450  1.00  0.00     0.002 C 
BRANCH   2   3
ATOM      3  C   UNL A   1      31.924  25.512  25.191  1.00  0.00     0.021 C 
BRANCH   3   4
ATOM      4  C   UNL A   1      30.702  25.314  24.293  1.00  0.00     0.116 C 
BRANCH   4   5
ATOM      5  N   UNL A   1      30.168  26.583  23.834  1.00  0.00    -0.353 N 
ATOM      6  O   UNL A   1      27.964  26.110  24.281  1.00  0.00    -0.270 OA
ATOM      7  C   UNL A   1      28.828  26.852  23.827  1.00  0.00     0.243 C 
ATOM      8  H   UNL A   1      30.793  27.274  23.515  1.00  0.00     0.163 HD
BRANCH   7   9
ATOM      9  C   UNL A   1      28.417  28.158  23.248  1.00  0.00     0.072 C 
ATOM     10  C   UNL A   1      29.230  29.164  22.885  1.00  0.00     0.014 C 
BRANCH  10  11
ATOM     11  C   UNL A   1      28.730  30.382  22.231  1.00  0.00    -0.022 A 
ATOM     12  C   UNL A   1      28.171  30.359  20.941  1.00  0.00     0.012 A 
ATOM     13  C   UNL A   1      28.793  31.598  22.924  1.00  0.00     0.058 A 
ATOM     14  C   UNL A   1      27.718  31.535  20.333  1.00  0.00     0.051 A 
ATOM     15  C   UNL A   1      28.342  32.761  22.313  1.00  0.00     0.157 A 
ATOM     16  C   UNL A   1      27.814  32.735  21.025  1.00  0.00     0.157 A 
BRANCH  15  17
ATOM     17  O   UNL A   1      28.427  33.945  22.989  1.00  0.00    -0.504 OA
ATOM     18  H   UNL A   1      29.155  34.108  23.557  1.00  0.00     0.293 HD
ENDBRANCH  15  17
BRANCH  16  19
ATOM     19  O   UNL A   1      27.401  33.919  20.481  1.00  0.00    -0.504 OA
ATOM     20  H   UNL A   1      26.778  33.920  19.781  1.00  0.00     0.293 HD
ENDBRANCH  16  19
ENDBRANCH  10  11
ENDBRANCH   7   9
ENDBRANCH   4   5
ENDBRANCH   3   4
ENDBRANCH   2   3
ENDBRANCH   1   2
BRANCH   1  21
ATOM     21  C   UNL A   1      31.801  28.919  26.183  1.00  0.00     0.021 C 
BRANCH  21  22
ATOM     22  C   UNL A   1      32.708  29.998  25.596  1.00  0.00     0.116 C 
BRANCH  22  23
ATOM     23  N   UNL A   1      32.421  31.319  26.137  1.00  0.00    -0.352 N 
ATOM     24  C   UNL A   1      33.052  32.003  27.147  1.00  0.00     0.251 C 
ATOM     25  H   UNL A   1      31.666  31.792  25.717  1.00  0.00     0.163 HD
ATOM     26  O   UNL A   1      32.560  33.043  27.582  1.00  0.00    -0.269 OA
BRANCH  24  27
ATOM     27  C   UNL A   1      34.308  31.480  27.728  1.00  0.00     0.039 A 
ATOM     28  C   UNL A   1      35.357  32.368  27.981  1.00  0.00     0.014 A 
ATOM     29  C   UNL A   1      34.452  30.123  28.027  1.00  0.00     0.014 A 
ATOM     30  C   UNL A   1      36.523  31.905  28.596  1.00  0.00     0.010 A 
ATOM     31  C   UNL A   1      35.581  29.679  28.710  1.00  0.00     0.010 A 
ATOM     32  C   UNL A   1      36.630  30.564  29.002  1.00  0.00    -0.014 A 
BRANCH  32  33
ATOM     33  C   UNL A   1      37.813  30.083  29.762  1.00  0.00     0.031 A 
ATOM     34  C   UNL A   1      38.075  30.564  31.163  1.00  0.00     0.074 A 
ATOM     35  C   UNL A   1      38.707  29.278  29.154  1.00  0.00     0.049 A 
ATOM     36  N   UNL A   1      39.077  30.286  31.956  1.00  0.00    -0.248 NA
ATOM     37  C   UNL A   1      37.098  31.502  31.738  1.00  0.00     0.031 C 
ATOM     38  C   UNL A   1      38.616  28.812  27.768  1.00  0.00     0.029 A 
ATOM     39  N   UNL A   1      39.883  28.735  29.611  1.00  0.00    -0.354 N 
ATOM     40  C   UNL A   1      38.870  31.034  33.109  1.00  0.00     0.074 A 
ATOM     41  C   UNL A   1      37.667  31.810  32.893  1.00  0.00     0.031 C 
ATOM     42  C   UNL A   1      39.688  28.054  27.489  1.00  0.00     0.029 A 
ATOM     43  C   UNL A   1      40.559  28.008  28.659  1.00  0.00     0.049 A 
ATOM     44  H   UNL A   1      40.210  28.856  30.531  1.00  0.00     0.167 HD
ATOM     45  C   UNL A   1      39.596  31.057  34.252  1.00  0.00     0.034 A 
ATOM     46  C   UNL A   1      41.754  27.388  28.713  1.00  0.00     0.034 A 
ATOM     47  C   UNL A   1      40.782  30.270  34.469  1.00  0.00     0.049 A 
ATOM     48  C   UNL A   1      42.532  27.402  29.998  1.00  0.00     0.074 A 
ATOM     49  C   UNL A   1      41.539  30.152  35.623  1.00  0.00     0.029 A 
ATOM     50  N   UNL A   1      41.398  29.482  33.508  1.00  0.00    -0.354 N 
ATOM     51  N   UNL A   1      42.233  27.982  31.136  1.00  0.00    -0.248 NA
ATOM     52  C   UNL A   1      43.794  26.649  30.021  1.00  0.00     0.031 C 
ATOM     53  C   UNL A   1      42.634  29.326  35.346  1.00  0.00     0.029 A 
ATOM     54  C   UNL A   1      42.538  28.893  34.033  1.00  0.00     0.049 A 
ATOM     55  H   UNL A   1      41.073  29.361  32.586  1.00  0.00     0.167 HD
ATOM     56  C   UNL A   1      43.254  27.643  32.017  1.00  0.00     0.074 A 
ATOM     57  C   UNL A   1      44.167  26.787  31.286  1.00  0.00     0.031 C 
ATOM     58  C   UNL A   1      43.424  28.017  33.309  1.00  0.00     0.034 A 
BRANCH  45  59
ATOM     59  C   UNL A   1      39.102  31.939  35.372  1.00  0.00     0.023 A 
ATOM     60  C   UNL A   1      39.318  33.333  35.310  1.00  0.00     0.012 A 
ATOM     61  C   UNL A   1      38.402  31.400  36.468  1.00  0.00     0.148 A 
ATOM     62  C   UNL A   1      38.895  34.166  36.345  1.00  0.00     0.002 A 
ATOM     63  C   UNL A   1      37.937  32.244  37.471  1.00  0.00     0.091 A 
ATOM     64  F   UNL A   1      38.220  30.073  36.522  1.00  0.00    -0.205 F 
ATOM     65  C   UNL A   1      38.198  33.623  37.420  1.00  0.00     0.022 A 
BRANCH  63  66
ATOM     66  S   UNL A   1      36.956  31.653  38.855  1.00  0.00     0.127 S 
ATOM     67  O   UNL A   1      37.924  31.711  39.949  1.00  0.00    -0.237 OA
ATOM     68  O   UNL A   1      35.892  32.656  38.928  1.00  0.00    -0.237 OA
ATOM     69  O   UNL A   1      36.506  30.319  38.486  1.00  0.00    -0.744 OA
ENDBRANCH  63  66
ENDBRANCH  45  59
BRANCH  46  70
ATOM     70  C   UNL A   1      42.256  26.660  27.513  1.00  0.00     0.023 A 
ATOM     71  C   UNL A   1      43.059  27.333  26.574  1.00  0.00     0.012 A 
ATOM     72  C   UNL A   1      41.988  25.288  27.333  1.00  0.00     0.148 A 
ATOM     73  C   UNL A   1      43.570  26.659  25.464  1.00  0.00     0.002 A 
ATOM     74  C   UNL A   1      42.548  24.610  26.258  1.00  0.00     0.091 A 
ATOM     75  F   UNL A   1      41.215  24.670  28.237  1.00  0.00    -0.205 F 
ATOM     76  C   UNL A   1      43.325  25.297  25.313  1.00  0.00     0.022 A 
BRANCH  74  77
ATOM     77  S   UNL A   1      42.403  22.831  26.057  1.00  0.00     0.127 S 
ATOM     78  O   UNL A   1      43.052  22.622  24.766  1.00  0.00    -0.237 OA
ATOM     79  O   UNL A   1      43.154  22.339  27.213  1.00  0.00    -0.237 OA
ATOM     80  O   UNL A   1      40.976  22.542  26.098  1.00  0.00    -0.744 OA
ENDBRANCH  74  77
ENDBRANCH  46  70
BRANCH  58  81
ATOM     81  C   UNL A   1      44.634  27.486  34.036  1.00  0.00     0.023 A 
ATOM     82  C   UNL A   1      45.838  28.219  34.030  1.00  0.00     0.012 A 
ATOM     83  C   UNL A   1      44.557  26.292  34.781  1.00  0.00     0.148 A 
ATOM     84  C   UNL A   1      46.956  27.754  34.723  1.00  0.00     0.002 A 
ATOM     85  C   UNL A   1      45.659  25.863  35.513  1.00  0.00     0.091 A 
ATOM     86  F   UNL A   1      43.409  25.600  34.762  1.00  0.00    -0.205 F 
ATOM     87  C   UNL A   1      46.862  26.585  35.473  1.00  0.00     0.022 A 
BRANCH  85  88
ATOM     88  S   UNL A   1      45.605  24.422  36.584  1.00  0.00     0.127 S 
ATOM     89  O   UNL A   1      45.084  23.398  35.680  1.00  0.00    -0.237 OA
ATOM     90  O   UNL A   1      47.012  24.255  36.949  1.00  0.00    -0.237 OA
ATOM     91  O   UNL A   1      44.729  24.777  37.694  1.00  0.00    -0.744 OA
ENDBRANCH  85  88
ENDBRANCH  58  81
ENDBRANCH  32  33
ENDBRANCH  24  27
ENDBRANCH  22  23
ENDBRANCH  21  22
ENDBRANCH   1  21
TORSDOF 19
ENDMDL
MODEL 2
REMARK VINA RESULT:     -11.1      2.985      9.300
REMARK SMILES O=C(/C=C/c1ccc(O)c(O)c1)NCCCCCCNC(=O)c1ccc(-c2c3nc(c(-c4cccc(S(=O)(=O)[O-])c4F)c4ccc([nH]4)c(-c4cccc(S(=O)(=O)[O-])c4F)c4nc(c(-c5cccc(S(=O)(=O)[O-])c5F)c5ccc2[nH]5)C=C4)C=C3)cc1
REMARK SMILES IDX 17 1 16 2 15 3 14 4 13 5 1 6 2 7 3 9 4 10 5 11 6 12 12 13
REMARK SMILES IDX 7 14 10 15 8 16 11 17 9 19 18 21 19 22 20 23 21 24 22 26
REMARK SMILES IDX 23 27 24 28 85 29 25 30 84 31 26 32 27 33 28 34 78 35 29 36
REMARK SMILES IDX 83 37 77 38 79 39 30 40 82 41 76 42 75 43 31 45 63 46 43 47
REMARK SMILES IDX 62 48 44 49 47 50 61 51 80 52 45 53 46 54 60 56 81 57 48 58
REMARK SMILES IDX 32 59 33 60 41 61 34 62 36 63 42 64 35 65 37 66 38 67 39 68
REMARK SMILES IDX 40 69 64 70 65 71 73 72 66 73 68 74 74 75 67 76 69 77 70 78
REMARK SMILES IDX 71 79 72 80 49 81 50 82 58 83 51 84 53 85 59 86 52 87 54 88
REMARK SMILES IDX 55 89 56 90 57 91
REMARK H PARENT 13 8 11 18 9 20 20 25 79 44 47 55
REMARK Flexibility Score: inf
ROOT
ATOM      1  C   UNL A   1      31.987  29.992  26.013  1.00  0.00     0.002 C 
ENDROOT
BRANCH   1   2
ATOM      2  C   UNL A   1      31.907  28.790  26.958  1.00  0.00     0.002 C 
BRANCH   2   3
ATOM      3  C   UNL A   1      32.888  27.649  26.655  1.00  0.00     0.021 C 
BRANCH   3   4
ATOM      4  C   UNL A   1      32.731  27.024  25.268  1.00  0.00     0.116 C 
BRANCH   4   5
ATOM      5  N   UNL A   1      32.756  25.575  25.331  1.00  0.00    -0.353 N 
ATOM      6  O   UNL A   1      33.645  25.243  23.238  1.00  0.00    -0.270 OA
ATOM      7  C   UNL A   1      33.173  24.805  24.282  1.00  0.00     0.243 C 
ATOM      8  H   UNL A   1      32.461  25.130  26.158  1.00  0.00     0.163 HD
BRANCH   7   9
ATOM      9  C   UNL A   1      33.063  23.333  24.454  1.00  0.00     0.072 C 
ATOM     10  C   UNL A   1      32.383  22.484  23.669  1.00  0.00     0.014 C 
BRANCH  10  11
ATOM     11  C   UNL A   1      32.415  21.027  23.871  1.00  0.00    -0.022 A 
ATOM     12  C   UNL A   1      32.235  20.124  22.808  1.00  0.00     0.012 A 
ATOM     13  C   UNL A   1      32.655  20.526  25.157  1.00  0.00     0.058 A 
ATOM     14  C   UNL A   1      32.253  18.742  23.028  1.00  0.00     0.051 A 
ATOM     15  C   UNL A   1      32.670  19.153  25.367  1.00  0.00     0.157 A 
ATOM     16  C   UNL A   1      32.466  18.265  24.315  1.00  0.00     0.157 A 
BRANCH  15  17
ATOM     17  O   UNL A   1      32.884  18.675  26.629  1.00  0.00    -0.504 OA
ATOM     18  H   UNL A   1      33.493  17.976  26.767  1.00  0.00     0.293 HD
ENDBRANCH  15  17
BRANCH  16  19
ATOM     19  O   UNL A   1      32.481  16.928  24.597  1.00  0.00    -0.504 OA
ATOM     20  H   UNL A   1      31.839  16.362  24.217  1.00  0.00     0.293 HD
ENDBRANCH  16  19
ENDBRANCH  10  11
ENDBRANCH   7   9
ENDBRANCH   4   5
ENDBRANCH   3   4
ENDBRANCH   2   3
ENDBRANCH   1   2
BRANCH   1  21
ATOM     21  C   UNL A   1      31.674  31.347  26.651  1.00  0.00     0.021 C 
BRANCH  21  22
ATOM     22  C   UNL A   1      32.873  32.062  27.270  1.00  0.00     0.116 C 
BRANCH  22  23
ATOM     23  N   UNL A   1      32.601  33.467  27.543  1.00  0.00    -0.352 N 
ATOM     24  C   UNL A   1      33.174  34.301  28.472  1.00  0.00     0.251 C 
ATOM     25  H   UNL A   1      31.907  33.879  26.979  1.00  0.00     0.163 HD
ATOM     26  O   UNL A   1      32.693  35.416  28.671  1.00  0.00    -0.269 OA
BRANCH  24  27
ATOM     27  C   UNL A   1      34.350  33.853  29.248  1.00  0.00     0.039 A 
ATOM     28  C   UNL A   1      34.158  32.985  30.327  1.00  0.00     0.014 A 
ATOM     29  C   UNL A   1      35.638  34.279  28.915  1.00  0.00     0.014 A 
ATOM     30  C   UNL A   1      35.263  32.495  31.027  1.00  0.00     0.010 A 
ATOM     31  C   UNL A   1      36.741  33.729  29.562  1.00  0.00     0.010 A 
ATOM     32  C   UNL A   1      36.567  32.831  30.626  1.00  0.00    -0.014 A 
BRANCH  32  33
ATOM     33  C   UNL A   1      37.754  32.224  31.284  1.00  0.00     0.031 A 
ATOM     34  C   UNL A   1      38.489  31.080  30.642  1.00  0.00     0.074 A 
ATOM     35  C   UNL A   1      38.116  32.647  32.511  1.00  0.00     0.049 A 
ATOM     36  N   UNL A   1      39.514  30.404  31.092  1.00  0.00    -0.248 NA
ATOM     37  C   UNL A   1      37.992  30.620  29.336  1.00  0.00     0.031 C 
ATOM     38  C   UNL A   1      37.431  33.687  33.282  1.00  0.00     0.029 A 
ATOM     39  N   UNL A   1      39.130  32.234  33.340  1.00  0.00    -0.354 N 
ATOM     40  C   UNL A   1      39.766  29.419  30.144  1.00  0.00     0.074 A 
ATOM     41  C   UNL A   1      38.759  29.563  29.113  1.00  0.00     0.031 C 
ATOM     42  C   UNL A   1      38.042  33.831  34.467  1.00  0.00     0.029 A 
ATOM     43  C   UNL A   1      39.140  32.872  34.558  1.00  0.00     0.049 A 
ATOM     44  H   UNL A   1      39.787  31.546  33.087  1.00  0.00     0.167 HD
ATOM     45  C   UNL A   1      40.757  28.496  30.116  1.00  0.00     0.034 A 
ATOM     46  C   UNL A   1      39.929  32.696  35.636  1.00  0.00     0.034 A 
ATOM     47  C   UNL A   1      41.767  28.368  31.134  1.00  0.00     0.049 A 
ATOM     48  C   UNL A   1      41.040  31.686  35.576  1.00  0.00     0.074 A 
ATOM     49  C   UNL A   1      42.867  27.527  31.156  1.00  0.00     0.029 A 
ATOM     50  N   UNL A   1      41.792  29.085  32.321  1.00  0.00    -0.354 N 
ATOM     51  N   UNL A   1      41.366  30.877  34.597  1.00  0.00    -0.248 NA
ATOM     52  C   UNL A   1      41.914  31.588  36.753  1.00  0.00     0.031 C 
ATOM     53  C   UNL A   1      43.532  27.706  32.373  1.00  0.00     0.029 A 
ATOM     54  C   UNL A   1      42.874  28.691  33.093  1.00  0.00     0.049 A 
ATOM     55  H   UNL A   1      41.136  29.773  32.578  1.00  0.00     0.167 HD
ATOM     56  C   UNL A   1      42.496  30.193  35.028  1.00  0.00     0.074 A 
ATOM     57  C   UNL A   1      42.813  30.701  36.347  1.00  0.00     0.031 C 
ATOM     58  C   UNL A   1      43.200  29.224  34.392  1.00  0.00     0.034 A 
BRANCH  45  59
ATOM     59  C   UNL A   1      40.815  27.574  28.923  1.00  0.00     0.023 A 
ATOM     60  C   UNL A   1      39.887  26.516  28.812  1.00  0.00     0.012 A 
ATOM     61  C   UNL A   1      41.763  27.768  27.900  1.00  0.00     0.148 A 
ATOM     62  C   UNL A   1      39.938  25.634  27.733  1.00  0.00     0.002 A 
ATOM     63  C   UNL A   1      41.774  26.916  26.801  1.00  0.00     0.091 A 
ATOM     64  F   UNL A   1      42.649  28.765  28.027  1.00  0.00    -0.205 F 
ATOM     65  C   UNL A   1      40.874  25.839  26.724  1.00  0.00     0.022 A 
BRANCH  63  66
ATOM     66  S   UNL A   1      42.886  27.147  25.409  1.00  0.00     0.127 S 
ATOM     67  O   UNL A   1      42.748  25.872  24.707  1.00  0.00    -0.237 OA
ATOM     68  O   UNL A   1      42.283  28.290  24.720  1.00  0.00    -0.237 OA
ATOM     69  O   UNL A   1      44.197  27.409  25.983  1.00  0.00    -0.744 OA
ENDBRANCH  63  66
ENDBRANCH  45  59
BRANCH  46  70
ATOM     70  C   UNL A   1      39.715  33.541  36.846  1.00  0.00     0.023 A 
ATOM     71  C   UNL A   1      40.172  34.872  36.856  1.00  0.00     0.012 A 
ATOM     72  C   UNL A   1      39.008  33.046  37.959  1.00  0.00     0.148 A 
ATOM     73  C   UNL A   1      39.949  35.690  37.964  1.00  0.00     0.002 A 
ATOM     74  C   UNL A   1      38.738  33.883  39.034  1.00  0.00     0.091 A 
ATOM     75  F   UNL A   1      38.588  31.774  37.928  1.00  0.00    -0.205 F 
ATOM     76  C   UNL A   1      39.222  35.201  39.047  1.00  0.00     0.022 A 
BRANCH  74  77
ATOM     77  S   UNL A   1      37.693  33.385  40.407  1.00  0.00     0.127 S 
ATOM     78  O   UNL A   1      38.473  32.302  40.999  1.00  0.00    -0.237 OA
ATOM     79  O   UNL A   1      37.640  34.614  41.202  1.00  0.00    -0.237 OA
ATOM     80  O   UNL A   1      36.420  32.994  39.816  1.00  0.00    -0.744 OA
ENDBRANCH  74  77
ENDBRANCH  46  70
BRANCH  58  81
ATOM     81  C   UNL A   1      44.405  28.656  35.101  1.00  0.00     0.023 A 
ATOM     82  C   UNL A   1      45.640  29.329  35.040  1.00  0.00     0.012 A 
ATOM     83  C   UNL A   1      44.293  27.488  35.883  1.00  0.00     0.148 A 
ATOM     84  C   UNL A   1      46.755  28.831  35.716  1.00  0.00     0.002 A 
ATOM     85  C   UNL A   1      45.394  27.027  36.595  1.00  0.00     0.091 A 
ATOM     86  F   UNL A   1      43.113  26.851  35.915  1.00  0.00    -0.205 F 
ATOM     87  C   UNL A   1      46.628  27.689  36.502  1.00  0.00     0.022 A 
BRANCH  85  88
ATOM     88  S   UNL A   1      45.302  25.621  37.710  1.00  0.00     0.127 S 
ATOM     89  O   UNL A   1      44.357  26.100  38.717  1.00  0.00    -0.237 OA
ATOM     90  O   UNL A   1      44.782  24.568  36.837  1.00  0.00    -0.237 OA
ATOM     91  O   UNL A   1      46.660  25.395  38.188  1.00  0.00    -0.744 OA
ENDBRANCH  85  88
ENDBRANCH  58  81
ENDBRANCH  32  33
ENDBRANCH  24  27
ENDBRANCH  22  23
ENDBRANCH  21  22
ENDBRANCH   1  21
TORSDOF 19
ENDMDL
MODEL 3
REMARK VINA RESULT:     -11.1      2.434      4.751
REMARK SMILES O=C(/C=C/c1ccc(O)c(O)c1)NCCCCCCNC(=O)c1ccc(-c2c3nc(c(-c4cccc(S(=O)(=O)[O-])c4F)c4ccc([nH]4)c(-c4cccc(S(=O)(=O)[O-])c4F)c4nc(c(-c5cccc(S(=O)(=O)[O-])c5F)c5ccc2[nH]5)C=C4)C=C3)cc1
REMARK SMILES IDX 17 1 16 2 15 3 14 4 13 5 1 6 2 7 3 9 4 10 5 11 6 12 12 13
REMARK SMILES IDX 7 14 10 15 8 16 11 17 9 19 18 21 19 22 20 23 21 24 22 26
REMARK SMILES IDX 23 27 24 28 85 29 25 30 84 31 26 32 27 33 28 34 78 35 29 36
REMARK SMILES IDX 83 37 77 38 79 39 30 40 82 41 76 42 75 43 31 45 63 46 43 47
REMARK SMILES IDX 62 48 44 49 47 50 61 51 80 52 45 53 46 54 60 56 81 57 48 58
REMARK SMILES IDX 32 59 33 60 41 61 34 62 36 63 42 64 35 65 37 66 38 67 39 68
REMARK SMILES IDX 40 69 64 70 65 71 73 72 66 73 68 74 74 75 67 76 69 77 70 78
REMARK SMILES IDX 71 79 72 80 49 81 50 82 58 83 51 84 53 85 59 86 52 87 54 88
REMARK SMILES IDX 55 89 56 90 57 91
REMARK H PARENT 13 8 11 18 9 20 20 25 79 44 47 55
REMARK Flexibility Score: inf
ROOT
ATOM      1  C   UNL A   1      31.755  27.644  25.857  1.00  0.00     0.002 C 
ENDROOT
BRANCH   1   2
ATOM      2  C   UNL A   1      30.665  27.279  24.845  1.00  0.00     0.002 C 
BRANCH   2   3
ATOM      3  C   UNL A   1      30.708  28.056  23.522  1.00  0.00     0.021 C 
BRANCH   3   4
ATOM      4  C   UNL A   1      30.955  27.193  22.285  1.00  0.00     0.116 C 
BRANCH   4   5
ATOM      5  N   UNL A   1      31.470  25.884  22.642  1.00  0.00    -0.353 N 
ATOM      6  O   UNL A   1      33.224  25.884  21.159  1.00  0.00    -0.270 OA
ATOM      7  C   UNL A   1      32.542  25.321  22.009  1.00  0.00     0.243 C 
ATOM      8  H   UNL A   1      31.029  25.382  23.366  1.00  0.00     0.163 HD
BRANCH   7   9
ATOM      9  C   UNL A   1      32.906  23.940  22.419  1.00  0.00     0.072 C 
ATOM     10  C   UNL A   1      33.320  23.549  23.634  1.00  0.00     0.014 C 
BRANCH  10  11
ATOM     11  C   UNL A   1      33.564  22.137  23.966  1.00  0.00    -0.022 A 
ATOM     12  C   UNL A   1      32.602  21.140  23.728  1.00  0.00     0.012 A 
ATOM     13  C   UNL A   1      34.800  21.774  24.516  1.00  0.00     0.058 A 
ATOM     14  C   UNL A   1      32.851  19.805  24.069  1.00  0.00     0.051 A 
ATOM     15  C   UNL A   1      35.039  20.447  24.852  1.00  0.00     0.157 A 
ATOM     16  C   UNL A   1      34.072  19.469  24.637  1.00  0.00     0.157 A 
BRANCH  15  17
ATOM     17  O   UNL A   1      36.240  20.106  25.406  1.00  0.00    -0.504 OA
ATOM     18  H   UNL A   1      36.593  19.249  25.266  1.00  0.00     0.293 HD
ENDBRANCH  15  17
BRANCH  16  19
ATOM     19  O   UNL A   1      34.370  18.186  25.004  1.00  0.00    -0.504 OA
ATOM     20  H   UNL A   1      34.931  18.028  25.737  1.00  0.00     0.293 HD
ENDBRANCH  16  19
ENDBRANCH  10  11
ENDBRANCH   7   9
ENDBRANCH   4   5
ENDBRANCH   3   4
ENDBRANCH   2   3
ENDBRANCH   1   2
BRANCH   1  21
ATOM     21  C   UNL A   1      31.693  29.074  26.398  1.00  0.00     0.021 C 
BRANCH  21  22
ATOM     22  C   UNL A   1      32.797  30.003  25.899  1.00  0.00     0.116 C 
BRANCH  22  23
ATOM     23  N   UNL A   1      32.610  31.377  26.343  1.00  0.00    -0.352 N 
ATOM     24  C   UNL A   1      33.306  32.090  27.288  1.00  0.00     0.251 C 
ATOM     25  H   UNL A   1      31.879  31.867  25.901  1.00  0.00     0.163 HD
ATOM     26  O   UNL A   1      32.892  33.190  27.651  1.00  0.00    -0.269 OA
BRANCH  24  27
ATOM     27  C   UNL A   1      34.536  31.528  27.886  1.00  0.00     0.039 A 
ATOM     28  C   UNL A   1      35.668  32.340  27.994  1.00  0.00     0.014 A 
ATOM     29  C   UNL A   1      34.576  30.208  28.343  1.00  0.00     0.014 A 
ATOM     30  C   UNL A   1      36.816  31.850  28.621  1.00  0.00     0.010 A 
ATOM     31  C   UNL A   1      35.692  29.747  29.036  1.00  0.00     0.010 A 
ATOM     32  C   UNL A   1      36.825  30.562  29.184  1.00  0.00    -0.014 A 
BRANCH  32  33
ATOM     33  C   UNL A   1      37.996  30.070  29.957  1.00  0.00     0.031 A 
ATOM     34  C   UNL A   1      38.261  30.567  31.351  1.00  0.00     0.074 A 
ATOM     35  C   UNL A   1      38.876  29.239  29.365  1.00  0.00     0.049 A 
ATOM     36  N   UNL A   1      39.253  30.280  32.153  1.00  0.00    -0.248 NA
ATOM     37  C   UNL A   1      37.299  31.531  31.907  1.00  0.00     0.031 C 
ATOM     38  C   UNL A   1      38.782  28.754  27.986  1.00  0.00     0.029 A 
ATOM     39  N   UNL A   1      40.039  28.679  29.835  1.00  0.00    -0.354 N 
ATOM     40  C   UNL A   1      39.055  31.050  33.294  1.00  0.00     0.074 A 
ATOM     41  C   UNL A   1      37.869  31.846  33.061  1.00  0.00     0.031 C 
ATOM     42  C   UNL A   1      39.840  27.971  27.723  1.00  0.00     0.029 A 
ATOM     43  C   UNL A   1      40.705  27.925  28.898  1.00  0.00     0.049 A 
ATOM     44  H   UNL A   1      40.364  28.807  30.755  1.00  0.00     0.167 HD
ATOM     45  C   UNL A   1      39.777  31.075  34.441  1.00  0.00     0.034 A 
ATOM     46  C   UNL A   1      41.887  27.283  28.966  1.00  0.00     0.034 A 
ATOM     47  C   UNL A   1      40.946  30.268  34.675  1.00  0.00     0.049 A 
ATOM     48  C   UNL A   1      42.659  27.300  30.255  1.00  0.00     0.074 A 
ATOM     49  C   UNL A   1      41.695  30.153  35.834  1.00  0.00     0.029 A 
ATOM     50  N   UNL A   1      41.550  29.455  33.728  1.00  0.00    -0.354 N 
ATOM     51  N   UNL A   1      42.367  27.903  31.383  1.00  0.00    -0.248 NA
ATOM     52  C   UNL A   1      43.906  26.524  30.295  1.00  0.00     0.031 C 
ATOM     53  C   UNL A   1      42.774  29.302  35.574  1.00  0.00     0.029 A 
ATOM     54  C   UNL A   1      42.676  28.851  34.268  1.00  0.00     0.049 A 
ATOM     55  H   UNL A   1      41.228  29.326  32.807  1.00  0.00     0.167 HD
ATOM     56  C   UNL A   1      43.377  27.557  32.273  1.00  0.00     0.074 A 
ATOM     57  C   UNL A   1      44.276  26.673  31.560  1.00  0.00     0.031 C 
ATOM     58  C   UNL A   1      43.548  27.947  33.561  1.00  0.00     0.034 A 
BRANCH  45  59
ATOM     59  C   UNL A   1      39.295  31.984  35.544  1.00  0.00     0.023 A 
ATOM     60  C   UNL A   1      38.336  31.514  36.467  1.00  0.00     0.012 A 
ATOM     61  C   UNL A   1      39.808  33.287  35.689  1.00  0.00     0.148 A 
ATOM     62  C   UNL A   1      37.854  32.345  37.479  1.00  0.00     0.002 A 
ATOM     63  C   UNL A   1      39.362  34.091  36.732  1.00  0.00     0.091 A 
ATOM     64  F   UNL A   1      40.705  33.726  34.795  1.00  0.00    -0.205 F 
ATOM     65  C   UNL A   1      38.373  33.628  37.617  1.00  0.00     0.022 A 
BRANCH  63  66
ATOM     66  S   UNL A   1      40.030  35.729  37.044  1.00  0.00     0.127 S 
ATOM     67  O   UNL A   1      39.626  36.447  35.836  1.00  0.00    -0.237 OA
ATOM     68  O   UNL A   1      39.313  36.127  38.258  1.00  0.00    -0.237 OA
ATOM     69  O   UNL A   1      41.463  35.551  37.219  1.00  0.00    -0.744 OA
ENDBRANCH  63  66
ENDBRANCH  45  59
BRANCH  46  70
ATOM     70  C   UNL A   1      42.380  26.527  27.780  1.00  0.00     0.023 A 
ATOM     71  C   UNL A   1      43.268  27.145  26.880  1.00  0.00     0.012 A 
ATOM     72  C   UNL A   1      42.017  25.181  27.576  1.00  0.00     0.148 A 
ATOM     73  C   UNL A   1      43.770  26.442  25.784  1.00  0.00     0.002 A 
ATOM     74  C   UNL A   1      42.567  24.470  26.517  1.00  0.00     0.091 A 
ATOM     75  F   UNL A   1      41.165  24.617  28.443  1.00  0.00    -0.205 F 
ATOM     76  C   UNL A   1      43.430  25.103  25.610  1.00  0.00     0.022 A 
BRANCH  74  77
ATOM     77  S   UNL A   1      42.297  22.708  26.293  1.00  0.00     0.127 S 
ATOM     78  O   UNL A   1      43.024  22.450  25.054  1.00  0.00    -0.237 OA
ATOM     79  O   UNL A   1      42.916  22.156  27.500  1.00  0.00    -0.237 OA
ATOM     80  O   UNL A   1      40.853  22.534  26.224  1.00  0.00    -0.744 OA
ENDBRANCH  74  77
ENDBRANCH  46  70
BRANCH  58  81
ATOM     81  C   UNL A   1      44.744  27.404  34.302  1.00  0.00     0.023 A 
ATOM     82  C   UNL A   1      45.968  28.100  34.271  1.00  0.00     0.012 A 
ATOM     83  C   UNL A   1      44.634  26.235  35.083  1.00  0.00     0.148 A 
ATOM     84  C   UNL A   1      47.074  27.624  34.976  1.00  0.00     0.002 A 
ATOM     85  C   UNL A   1      45.725  25.797  35.825  1.00  0.00     0.091 A 
ATOM     86  F   UNL A   1      43.467  25.576  35.087  1.00  0.00    -0.205 F 
ATOM     87  C   UNL A   1      46.949  26.482  35.762  1.00  0.00     0.022 A 
BRANCH  85  88
ATOM     88  S   UNL A   1      45.632  24.391  36.940  1.00  0.00     0.127 S 
ATOM     89  O   UNL A   1      46.952  24.420  37.567  1.00  0.00    -0.237 OA
ATOM     90  O   UNL A   1      44.528  24.769  37.823  1.00  0.00    -0.237 OA
ATOM     91  O   UNL A   1      45.367  23.228  36.103  1.00  0.00    -0.744 OA
ENDBRANCH  85  88
ENDBRANCH  58  81
ENDBRANCH  32  33
ENDBRANCH  24  27
ENDBRANCH  22  23
ENDBRANCH  21  22
ENDBRANCH   1  21
TORSDOF 19
ENDMDL
