MODEL 1
REMARK VINA RESULT:     -13.1      0.000      0.000
REMARK SMILES O=C(NCCCCCCNC(=O)[C@H]1CC=CC[C@H]1c1nc2cc(Br)ccc2o1)c1ccc(-c2c3nc(c(-c4cccc(S(=O)(=O)[O-])c4F)c4ccc([nH]4)c(-c4cccc(S(=O)(=O)[O-])c4F)c4nc(c(-c5cccc(S(=O)(=O)[O-])c5F)c5ccc2[nH]5)C=C4)C=C3)cc1
REMARK SMILES IDX 5 1 4 2 3 3 1 4 2 5 29 7 30 8 91 9 31 10 90 11 32 12 33 13
REMARK SMILES IDX 34 14 84 15 35 16 89 17 83 18 85 19 36 20 88 21 82 22 81 23
REMARK SMILES IDX 37 25 69 26 49 27 68 28 50 29 53 30 67 31 86 32 51 33 52 34
REMARK SMILES IDX 66 36 87 37 54 38 38 39 39 40 47 41 40 42 42 43 48 44 41 45
REMARK SMILES IDX 43 46 44 47 45 48 46 49 70 50 71 51 79 52 72 53 74 54 80 55
REMARK SMILES IDX 73 56 75 57 76 58 77 59 78 60 55 61 56 62 64 63 57 64 59 65
REMARK SMILES IDX 65 66 58 67 60 68 61 69 62 70 63 71 6 72 7 73 8 74 9 75
REMARK SMILES IDX 10 76 11 77 12 79 13 80 14 81 18 82 15 83 17 84 16 85 19 86
REMARK SMILES IDX 20 87 28 88 21 89 27 90 22 91 26 92 23 93 25 94 24 95
REMARK H PARENT 3 6 85 24 53 35 10 78
REMARK Flexibility Score: inf
ROOT
ATOM      1  C   UNL A   1      37.637  19.635  24.694  1.00  0.00     0.021 C 
ENDROOT
BRANCH   1   2
ATOM      2  C   UNL A   1      38.757  20.139  25.578  1.00  0.00     0.116 C 
BRANCH   2   3
ATOM      3  N   UNL A   1      39.840  19.164  25.770  1.00  0.00    -0.352 N 
ATOM      4  O   UNL A   1      42.022  18.515  25.819  1.00  0.00    -0.269 OA
ATOM      5  C   UNL A   1      41.196  19.392  25.998  1.00  0.00     0.251 C 
ATOM      6  H   UNL A   1      39.570  18.217  25.731  1.00  0.00     0.163 HD
BRANCH   5   7
ATOM      7  C   UNL A   1      41.601  20.724  26.487  1.00  0.00     0.039 A 
ATOM      8  C   UNL A   1      42.327  21.663  25.752  1.00  0.00     0.014 A 
ATOM      9  C   UNL A   1      41.167  21.046  27.753  1.00  0.00     0.014 A 
ATOM     10  C   UNL A   1      42.606  22.881  26.372  1.00  0.00     0.010 A 
ATOM     11  C   UNL A   1      40.944  22.352  28.013  1.00  0.00     0.010 A 
ATOM     12  C   UNL A   1      41.930  23.182  27.561  1.00  0.00    -0.014 A 
BRANCH  12  13
ATOM     13  C   UNL A   1      42.151  24.356  28.380  1.00  0.00     0.031 A 
ATOM     14  C   UNL A   1      41.079  25.352  28.235  1.00  0.00     0.074 A 
ATOM     15  C   UNL A   1      43.122  24.427  29.324  1.00  0.00     0.049 A 
ATOM     16  N   UNL A   1      41.134  26.443  27.552  1.00  0.00    -0.248 NA
ATOM     17  C   UNL A   1      39.733  24.995  28.706  1.00  0.00     0.031 C 
ATOM     18  C   UNL A   1      44.042  23.384  29.812  1.00  0.00     0.029 A 
ATOM     19  N   UNL A   1      43.423  25.466  30.144  1.00  0.00    -0.354 N 
ATOM     20  C   UNL A   1      39.894  27.037  27.723  1.00  0.00     0.074 A 
ATOM     21  C   UNL A   1      39.016  26.014  28.229  1.00  0.00     0.031 C 
ATOM     22  C   UNL A   1      44.612  23.778  30.977  1.00  0.00     0.029 A 
ATOM     23  C   UNL A   1      44.238  25.155  31.231  1.00  0.00     0.049 A 
ATOM     24  H   UNL A   1      43.087  26.377  29.983  1.00  0.00     0.167 HD
ATOM     25  C   UNL A   1      39.756  28.389  27.686  1.00  0.00     0.034 A 
ATOM     26  C   UNL A   1      44.530  25.981  32.269  1.00  0.00     0.034 A 
ATOM     27  C   UNL A   1      40.950  29.027  27.192  1.00  0.00     0.049 A 
ATOM     28  C   UNL A   1      44.283  27.359  31.772  1.00  0.00     0.074 A 
ATOM     29  C   UNL A   1      41.647  28.984  26.001  1.00  0.00     0.029 A 
ATOM     30  N   UNL A   1      41.839  29.479  28.140  1.00  0.00    -0.354 N 
ATOM     31  N   UNL A   1      44.962  27.907  30.801  1.00  0.00    -0.248 NA
ATOM     32  C   UNL A   1      42.977  27.943  32.034  1.00  0.00     0.031 C 
ATOM     33  C   UNL A   1      43.023  28.962  26.381  1.00  0.00     0.029 A 
ATOM     34  C   UNL A   1      43.096  29.070  27.772  1.00  0.00     0.049 A 
ATOM     35  H   UNL A   1      41.613  30.002  28.943  1.00  0.00     0.167 HD
ATOM     36  C   UNL A   1      44.007  28.582  30.051  1.00  0.00     0.074 A 
ATOM     37  C   UNL A   1      42.825  28.648  30.910  1.00  0.00     0.031 C 
ATOM     38  C   UNL A   1      44.158  28.757  28.706  1.00  0.00     0.034 A 
BRANCH  25  39
ATOM     39  C   UNL A   1      38.692  29.147  28.423  1.00  0.00     0.023 A 
ATOM     40  C   UNL A   1      37.873  30.017  27.678  1.00  0.00     0.012 A 
ATOM     41  C   UNL A   1      38.616  29.227  29.832  1.00  0.00     0.148 A 
ATOM     42  C   UNL A   1      37.019  30.928  28.307  1.00  0.00     0.002 A 
ATOM     43  C   UNL A   1      37.715  30.081  30.453  1.00  0.00     0.091 A 
ATOM     44  F   UNL A   1      39.507  28.572  30.584  1.00  0.00    -0.205 F 
ATOM     45  C   UNL A   1      36.928  30.950  29.694  1.00  0.00     0.022 A 
BRANCH  43  46
ATOM     46  S   UNL A   1      37.543  30.132  32.240  1.00  0.00     0.127 S 
ATOM     47  O   UNL A   1      36.469  31.108  32.403  1.00  0.00    -0.237 OA
ATOM     48  O   UNL A   1      37.176  28.748  32.544  1.00  0.00    -0.237 OA
ATOM     49  O   UNL A   1      38.852  30.526  32.747  1.00  0.00    -0.744 OA
ENDBRANCH  43  46
ENDBRANCH  25  39
BRANCH  26  50
ATOM     50  C   UNL A   1      44.666  25.694  33.724  1.00  0.00     0.023 A 
ATOM     51  C   UNL A   1      45.961  25.603  34.284  1.00  0.00     0.012 A 
ATOM     52  C   UNL A   1      43.576  25.835  34.612  1.00  0.00     0.148 A 
ATOM     53  C   UNL A   1      46.170  25.732  35.664  1.00  0.00     0.002 A 
ATOM     54  C   UNL A   1      43.790  25.956  35.986  1.00  0.00     0.091 A 
ATOM     55  F   UNL A   1      42.342  25.951  34.110  1.00  0.00    -0.205 F 
ATOM     56  C   UNL A   1      45.086  25.926  36.513  1.00  0.00     0.022 A 
BRANCH  54  57
ATOM     57  S   UNL A   1      42.437  26.224  37.143  1.00  0.00     0.127 S 
ATOM     58  O   UNL A   1      43.138  26.281  38.426  1.00  0.00    -0.237 OA
ATOM     59  O   UNL A   1      41.893  27.498  36.684  1.00  0.00    -0.237 OA
ATOM     60  O   UNL A   1      41.559  25.070  36.994  1.00  0.00    -0.744 OA
ENDBRANCH  54  57
ENDBRANCH  26  50
BRANCH  38  61
ATOM     61  C   UNL A   1      45.487  28.383  28.091  1.00  0.00     0.023 A 
ATOM     62  C   UNL A   1      46.634  29.202  28.201  1.00  0.00     0.012 A 
ATOM     63  C   UNL A   1      45.629  27.086  27.576  1.00  0.00     0.148 A 
ATOM     64  C   UNL A   1      47.892  28.732  27.809  1.00  0.00     0.002 A 
ATOM     65  C   UNL A   1      46.884  26.609  27.221  1.00  0.00     0.091 A 
ATOM     66  F   UNL A   1      44.530  26.322  27.492  1.00  0.00    -0.205 F 
ATOM     67  C   UNL A   1      48.020  27.429  27.332  1.00  0.00     0.022 A 
BRANCH  65  68
ATOM     68  S   UNL A   1      47.136  24.912  26.701  1.00  0.00     0.127 S 
ATOM     69  O   UNL A   1      48.591  24.839  26.589  1.00  0.00    -0.237 OA
ATOM     70  O   UNL A   1      46.568  24.158  27.820  1.00  0.00    -0.237 OA
ATOM     71  O   UNL A   1      46.410  24.759  25.446  1.00  0.00    -0.744 OA
ENDBRANCH  65  68
ENDBRANCH  38  61
ENDBRANCH  12  13
ENDBRANCH   5   7
ENDBRANCH   2   3
ENDBRANCH   1   2
BRANCH   1  72
ATOM     72  C   UNL A   1      36.265  20.249  25.014  1.00  0.00     0.002 C 
BRANCH  72  73
ATOM     73  C   UNL A   1      36.088  21.759  24.765  1.00  0.00     0.002 C 
BRANCH  73  74
ATOM     74  C   UNL A   1      35.487  22.570  25.908  1.00  0.00     0.021 C 
BRANCH  74  75
ATOM     75  C   UNL A   1      34.512  23.649  25.479  1.00  0.00     0.116 C 
BRANCH  75  76
ATOM     76  N   UNL A   1      33.452  23.934  26.399  1.00  0.00    -0.356 N 
ATOM     77  C   UNL A   1      32.147  23.579  26.372  1.00  0.00     0.224 C 
ATOM     78  H   UNL A   1      33.715  24.477  27.177  1.00  0.00     0.163 HD
ATOM     79  O   UNL A   1      31.581  23.663  27.476  1.00  0.00    -0.275 OA
BRANCH  77  80
ATOM     80  C   UNL A   1      31.310  23.108  25.157  1.00  0.00     0.095 C 
ATOM     81  C   UNL A   1      30.547  24.361  24.655  1.00  0.00     0.041 C 
ATOM     82  C   UNL A   1      31.811  22.329  23.911  1.00  0.00     0.092 C 
ATOM     83  C   UNL A   1      31.360  25.171  23.696  1.00  0.00    -0.030 C 
ATOM     84  C   UNL A   1      32.699  23.180  22.970  1.00  0.00     0.041 C 
ATOM     85  C   UNL A   1      32.338  24.637  22.953  1.00  0.00    -0.030 C 
BRANCH  82  86
ATOM     86  C   UNL A   1      32.367  20.965  24.226  1.00  0.00     0.199 A 
ATOM     87  N   UNL A   1      32.308  20.283  25.359  1.00  0.00    -0.213 NA
ATOM     88  O   UNL A   1      32.865  20.241  23.167  1.00  0.00    -0.440 OA
ATOM     89  C   UNL A   1      32.630  19.002  24.998  1.00  0.00     0.111 A 
ATOM     90  C   UNL A   1      32.999  18.976  23.665  1.00  0.00     0.154 A 
ATOM     91  C   UNL A   1      32.561  17.801  25.716  1.00  0.00     0.048 A 
ATOM     92  C   UNL A   1      33.362  17.829  22.969  1.00  0.00     0.050 A 
ATOM     93  C   UNL A   1      32.840  16.617  25.023  1.00  0.00     0.020 A 
ATOM     94  C   UNL A   1      33.253  16.629  23.683  1.00  0.00     0.019 A 
ATOM     95  Br  UNL A   1      32.589  14.956  25.897  1.00  0.00    -0.051 Br
ENDBRANCH  82  86
ENDBRANCH  77  80
ENDBRANCH  75  76
ENDBRANCH  74  75
ENDBRANCH  73  74
ENDBRANCH  72  73
ENDBRANCH   1  72
TORSDOF 17
ENDMDL
MODEL 2
REMARK VINA RESULT:     -13.0      1.957      3.427
REMARK SMILES O=C(NCCCCCCNC(=O)[C@H]1CC=CC[C@H]1c1nc2cc(Br)ccc2o1)c1ccc(-c2c3nc(c(-c4cccc(S(=O)(=O)[O-])c4F)c4ccc([nH]4)c(-c4cccc(S(=O)(=O)[O-])c4F)c4nc(c(-c5cccc(S(=O)(=O)[O-])c5F)c5ccc2[nH]5)C=C4)C=C3)cc1
REMARK SMILES IDX 5 1 4 2 3 3 1 4 2 5 29 7 30 8 91 9 31 10 90 11 32 12 33 13
REMARK SMILES IDX 34 14 84 15 35 16 89 17 83 18 85 19 36 20 88 21 82 22 81 23
REMARK SMILES IDX 37 25 69 26 49 27 68 28 50 29 53 30 67 31 86 32 51 33 52 34
REMARK SMILES IDX 66 36 87 37 54 38 38 39 39 40 47 41 40 42 42 43 48 44 41 45
REMARK SMILES IDX 43 46 44 47 45 48 46 49 70 50 71 51 79 52 72 53 74 54 80 55
REMARK SMILES IDX 73 56 75 57 76 58 77 59 78 60 55 61 56 62 64 63 57 64 59 65
REMARK SMILES IDX 65 66 58 67 60 68 61 69 62 70 63 71 6 72 7 73 8 74 9 75
REMARK SMILES IDX 10 76 11 77 12 79 13 80 14 81 18 82 15 83 17 84 16 85 19 86
REMARK SMILES IDX 20 87 28 88 21 89 27 90 22 91 26 92 23 93 25 94 24 95
REMARK H PARENT 3 6 85 24 53 35 10 78
REMARK Flexibility Score: inf
ROOT
ATOM      1  C   UNL A   1      37.571  19.524  24.998  1.00  0.00     0.021 C 
ENDROOT
BRANCH   1   2
ATOM      2  C   UNL A   1      38.864  20.150  25.473  1.00  0.00     0.116 C 
BRANCH   2   3
ATOM      3  N   UNL A   1      39.934  19.173  25.723  1.00  0.00    -0.352 N 
ATOM      4  O   UNL A   1      42.110  18.517  25.870  1.00  0.00    -0.269 OA
ATOM      5  C   UNL A   1      41.281  19.400  26.003  1.00  0.00     0.251 C 
ATOM      6  H   UNL A   1      39.662  18.228  25.687  1.00  0.00     0.163 HD
BRANCH   5   7
ATOM      7  C   UNL A   1      41.672  20.737  26.489  1.00  0.00     0.039 A 
ATOM      8  C   UNL A   1      42.408  21.673  25.761  1.00  0.00     0.014 A 
ATOM      9  C   UNL A   1      41.213  21.068  27.744  1.00  0.00     0.014 A 
ATOM     10  C   UNL A   1      42.670  22.898  26.376  1.00  0.00     0.010 A 
ATOM     11  C   UNL A   1      40.981  22.374  27.989  1.00  0.00     0.010 A 
ATOM     12  C   UNL A   1      41.971  23.205  27.549  1.00  0.00    -0.014 A 
BRANCH  12  13
ATOM     13  C   UNL A   1      42.172  24.386  28.363  1.00  0.00     0.031 A 
ATOM     14  C   UNL A   1      41.070  25.351  28.235  1.00  0.00     0.074 A 
ATOM     15  C   UNL A   1      43.157  24.487  29.291  1.00  0.00     0.049 A 
ATOM     16  N   UNL A   1      41.083  26.442  27.551  1.00  0.00    -0.248 NA
ATOM     17  C   UNL A   1      39.743  24.956  28.729  1.00  0.00     0.031 C 
ATOM     18  C   UNL A   1      44.114  23.470  29.765  1.00  0.00     0.029 A 
ATOM     19  N   UNL A   1      43.441  25.535  30.105  1.00  0.00    -0.354 N 
ATOM     20  C   UNL A   1      39.829  27.001  27.741  1.00  0.00     0.074 A 
ATOM     21  C   UNL A   1      38.989  25.954  28.263  1.00  0.00     0.031 C 
ATOM     22  C   UNL A   1      44.692  23.883  30.919  1.00  0.00     0.029 A 
ATOM     23  C   UNL A   1      44.283  25.249  31.178  1.00  0.00     0.049 A 
ATOM     24  H   UNL A   1      43.077  26.436  29.948  1.00  0.00     0.167 HD
ATOM     25  C   UNL A   1      39.653  28.348  27.705  1.00  0.00     0.034 A 
ATOM     26  C   UNL A   1      44.569  26.084  32.210  1.00  0.00     0.034 A 
ATOM     27  C   UNL A   1      40.819  29.019  27.190  1.00  0.00     0.049 A 
ATOM     28  C   UNL A   1      44.275  27.454  31.715  1.00  0.00     0.074 A 
ATOM     29  C   UNL A   1      41.497  28.994  25.988  1.00  0.00     0.029 A 
ATOM     30  N   UNL A   1      41.711  29.497  28.123  1.00  0.00    -0.354 N 
ATOM     31  N   UNL A   1      44.921  28.019  30.733  1.00  0.00    -0.248 NA
ATOM     32  C   UNL A   1      42.958  28.001  31.999  1.00  0.00     0.031 C 
ATOM     33  C   UNL A   1      42.879  29.012  26.345  1.00  0.00     0.029 A 
ATOM     34  C   UNL A   1      42.972  29.124  27.734  1.00  0.00     0.049 A 
ATOM     35  H   UNL A   1      41.483  30.015  28.929  1.00  0.00     0.167 HD
ATOM     36  C   UNL A   1      43.935  28.666  29.998  1.00  0.00     0.074 A 
ATOM     37  C   UNL A   1      42.766  28.700  30.877  1.00  0.00     0.031 C 
ATOM     38  C   UNL A   1      44.059  28.842  28.651  1.00  0.00     0.034 A 
BRANCH  25  39
ATOM     39  C   UNL A   1      38.580  29.077  28.459  1.00  0.00     0.023 A 
ATOM     40  C   UNL A   1      37.747  29.950  27.733  1.00  0.00     0.012 A 
ATOM     41  C   UNL A   1      38.506  29.128  29.869  1.00  0.00     0.148 A 
ATOM     42  C   UNL A   1      36.883  30.836  28.381  1.00  0.00     0.002 A 
ATOM     43  C   UNL A   1      37.594  29.957  30.509  1.00  0.00     0.091 A 
ATOM     44  F   UNL A   1      39.407  28.470  30.607  1.00  0.00    -0.205 F 
ATOM     45  C   UNL A   1      36.794  30.830  29.769  1.00  0.00     0.022 A 
BRANCH  43  46
ATOM     46  S   UNL A   1      37.426  29.971  32.297  1.00  0.00     0.127 S 
ATOM     47  O   UNL A   1      37.187  28.558  32.579  1.00  0.00    -0.237 OA
ATOM     48  O   UNL A   1      38.734  30.475  32.717  1.00  0.00    -0.237 OA
ATOM     49  O   UNL A   1      36.320  30.878  32.578  1.00  0.00    -0.744 OA
ENDBRANCH  43  46
ENDBRANCH  25  39
BRANCH  26  50
ATOM     50  C   UNL A   1      44.737  25.803  33.663  1.00  0.00     0.023 A 
ATOM     51  C   UNL A   1      46.044  25.748  34.201  1.00  0.00     0.012 A 
ATOM     52  C   UNL A   1      43.660  25.918  34.570  1.00  0.00     0.148 A 
ATOM     53  C   UNL A   1      46.274  25.885  35.576  1.00  0.00     0.002 A 
ATOM     54  C   UNL A   1      43.894  26.047  35.939  1.00  0.00     0.091 A 
ATOM     55  F   UNL A   1      42.414  26.000  34.088  1.00  0.00    -0.205 F 
ATOM     56  C   UNL A   1      45.200  26.052  36.444  1.00  0.00     0.022 A 
BRANCH  54  57
ATOM     57  S   UNL A   1      42.555  26.281  37.119  1.00  0.00     0.127 S 
ATOM     58  O   UNL A   1      43.268  26.278  38.397  1.00  0.00    -0.237 OA
ATOM     59  O   UNL A   1      42.020  27.579  36.718  1.00  0.00    -0.237 OA
ATOM     60  O   UNL A   1      41.662  25.143  36.932  1.00  0.00    -0.744 OA
ENDBRANCH  54  57
ENDBRANCH  26  50
BRANCH  38  61
ATOM     61  C   UNL A   1      45.388  28.506  28.014  1.00  0.00     0.023 A 
ATOM     62  C   UNL A   1      46.515  29.351  28.114  1.00  0.00     0.012 A 
ATOM     63  C   UNL A   1      45.553  27.217  27.487  1.00  0.00     0.148 A 
ATOM     64  C   UNL A   1      47.778  28.915  27.700  1.00  0.00     0.002 A 
ATOM     65  C   UNL A   1      46.814  26.773  27.110  1.00  0.00     0.091 A 
ATOM     66  F   UNL A   1      44.472  26.427  27.412  1.00  0.00    -0.205 F 
ATOM     67  C   UNL A   1      47.931  27.619  27.212  1.00  0.00     0.022 A 
BRANCH  65  68
ATOM     68  S   UNL A   1      47.099  25.086  26.573  1.00  0.00     0.127 S 
ATOM     69  O   UNL A   1      48.520  25.109  26.234  1.00  0.00    -0.237 OA
ATOM     70  O   UNL A   1      46.767  24.319  27.775  1.00  0.00    -0.237 OA
ATOM     71  O   UNL A   1      46.198  24.859  25.450  1.00  0.00    -0.744 OA
ENDBRANCH  65  68
ENDBRANCH  38  61
ENDBRANCH  12  13
ENDBRANCH   5   7
ENDBRANCH   2   3
ENDBRANCH   1   2
BRANCH   1  72
ATOM     72  C   UNL A   1      36.386  20.501  24.951  1.00  0.00     0.002 C 
BRANCH  72  73
ATOM     73  C   UNL A   1      36.708  22.006  24.893  1.00  0.00     0.002 C 
BRANCH  73  74
ATOM     74  C   UNL A   1      35.874  22.914  25.790  1.00  0.00     0.021 C 
BRANCH  74  75
ATOM     75  C   UNL A   1      34.756  23.655  25.083  1.00  0.00     0.116 C 
BRANCH  75  76
ATOM     76  N   UNL A   1      34.674  23.458  23.667  1.00  0.00    -0.356 N 
ATOM     77  C   UNL A   1      33.602  23.253  22.870  1.00  0.00     0.224 C 
ATOM     78  H   UNL A   1      35.540  23.474  23.197  1.00  0.00     0.163 HD
ATOM     79  O   UNL A   1      33.818  23.485  21.667  1.00  0.00    -0.275 OA
BRANCH  77  80
ATOM     80  C   UNL A   1      32.188  22.767  23.276  1.00  0.00     0.095 C 
ATOM     81  C   UNL A   1      32.117  21.274  22.862  1.00  0.00     0.041 C 
ATOM     82  C   UNL A   1      31.505  22.906  24.664  1.00  0.00     0.092 C 
ATOM     83  C   UNL A   1      32.660  20.367  23.921  1.00  0.00    -0.030 C 
ATOM     84  C   UNL A   1      32.131  21.998  25.751  1.00  0.00     0.041 C 
ATOM     85  C   UNL A   1      32.678  20.706  25.217  1.00  0.00    -0.030 C 
BRANCH  82  86
ATOM     86  C   UNL A   1      31.285  24.332  25.096  1.00  0.00     0.199 A 
ATOM     87  N   UNL A   1      31.583  24.908  26.250  1.00  0.00    -0.213 NA
ATOM     88  O   UNL A   1      30.869  25.215  24.125  1.00  0.00    -0.440 OA
ATOM     89  C   UNL A   1      31.517  26.249  25.983  1.00  0.00     0.111 A 
ATOM     90  C   UNL A   1      31.054  26.443  24.694  1.00  0.00     0.154 A 
ATOM     91  C   UNL A   1      31.903  27.358  26.749  1.00  0.00     0.048 A 
ATOM     92  C   UNL A   1      30.890  27.685  24.093  1.00  0.00     0.050 A 
ATOM     93  C   UNL A   1      31.830  28.618  26.144  1.00  0.00     0.020 A 
ATOM     94  C   UNL A   1      31.315  28.784  24.851  1.00  0.00     0.019 A 
ATOM     95  Br  UNL A   1      32.505  30.126  27.070  1.00  0.00    -0.051 Br
ENDBRANCH  82  86
ENDBRANCH  77  80
ENDBRANCH  75  76
ENDBRANCH  74  75
ENDBRANCH  73  74
ENDBRANCH  72  73
ENDBRANCH   1  72
TORSDOF 17
ENDMDL
MODEL 3
REMARK VINA RESULT:     -12.8      5.125     10.190
REMARK SMILES O=C(NCCCCCCNC(=O)[C@H]1CC=CC[C@H]1c1nc2cc(Br)ccc2o1)c1ccc(-c2c3nc(c(-c4cccc(S(=O)(=O)[O-])c4F)c4ccc([nH]4)c(-c4cccc(S(=O)(=O)[O-])c4F)c4nc(c(-c5cccc(S(=O)(=O)[O-])c5F)c5ccc2[nH]5)C=C4)C=C3)cc1
REMARK SMILES IDX 5 1 4 2 3 3 1 4 2 5 29 7 30 8 91 9 31 10 90 11 32 12 33 13
REMARK SMILES IDX 34 14 84 15 35 16 89 17 83 18 85 19 36 20 88 21 82 22 81 23
REMARK SMILES IDX 37 25 69 26 49 27 68 28 50 29 53 30 67 31 86 32 51 33 52 34
REMARK SMILES IDX 66 36 87 37 54 38 38 39 39 40 47 41 40 42 42 43 48 44 41 45
REMARK SMILES IDX 43 46 44 47 45 48 46 49 70 50 71 51 79 52 72 53 74 54 80 55
REMARK SMILES IDX 73 56 75 57 76 58 77 59 78 60 55 61 56 62 64 63 57 64 59 65
REMARK SMILES IDX 65 66 58 67 60 68 61 69 62 70 63 71 6 72 7 73 8 74 9 75
REMARK SMILES IDX 10 76 11 77 12 79 13 80 14 81 18 82 15 83 17 84 16 85 19 86
REMARK SMILES IDX 20 87 28 88 21 89 27 90 22 91 26 92 23 93 25 94 24 95
REMARK H PARENT 3 6 85 24 53 35 10 78
REMARK Flexibility Score: inf
ROOT
ATOM      1  C   UNL A   1      31.181  31.885  26.247  1.00  0.00     0.021 C 
ENDROOT
BRANCH   1   2
ATOM      2  C   UNL A   1      32.271  32.347  27.189  1.00  0.00     0.116 C 
BRANCH   2   3
ATOM      3  N   UNL A   1      32.200  33.778  27.515  1.00  0.00    -0.352 N 
ATOM      4  O   UNL A   1      32.563  35.593  28.842  1.00  0.00    -0.269 OA
ATOM      5  C   UNL A   1      32.938  34.503  28.449  1.00  0.00     0.251 C 
ATOM      6  H   UNL A   1      31.538  34.297  27.004  1.00  0.00     0.163 HD
BRANCH   5   7
ATOM      7  C   UNL A   1      34.205  33.921  28.933  1.00  0.00     0.039 A 
ATOM      8  C   UNL A   1      34.401  33.358  30.195  1.00  0.00     0.014 A 
ATOM      9  C   UNL A   1      35.236  33.906  28.020  1.00  0.00     0.014 A 
ATOM     10  C   UNL A   1      35.665  32.838  30.474  1.00  0.00     0.010 A 
ATOM     11  C   UNL A   1      36.137  32.907  28.128  1.00  0.00     0.010 A 
ATOM     12  C   UNL A   1      36.556  32.675  29.406  1.00  0.00    -0.014 A 
BRANCH  12  13
ATOM     13  C   UNL A   1      37.930  32.228  29.519  1.00  0.00     0.031 A 
ATOM     14  C   UNL A   1      38.111  30.846  29.053  1.00  0.00     0.074 A 
ATOM     15  C   UNL A   1      38.957  33.062  29.819  1.00  0.00     0.049 A 
ATOM     16  N   UNL A   1      38.245  29.799  29.792  1.00  0.00    -0.248 NA
ATOM     17  C   UNL A   1      37.894  30.561  27.627  1.00  0.00     0.031 C 
ATOM     18  C   UNL A   1      38.968  34.529  29.970  1.00  0.00     0.029 A 
ATOM     19  N   UNL A   1      40.273  32.760  29.952  1.00  0.00    -0.354 N 
ATOM     20  C   UNL A   1      38.385  28.746  28.903  1.00  0.00     0.074 A 
ATOM     21  C   UNL A   1      37.932  29.227  27.623  1.00  0.00     0.031 C 
ATOM     22  C   UNL A   1      40.243  34.986  29.936  1.00  0.00     0.029 A 
ATOM     23  C   UNL A   1      41.142  33.850  29.935  1.00  0.00     0.049 A 
ATOM     24  H   UNL A   1      40.593  31.835  30.053  1.00  0.00     0.167 HD
ATOM     25  C   UNL A   1      39.112  27.646  29.233  1.00  0.00     0.034 A 
ATOM     26  C   UNL A   1      42.497  33.786  29.881  1.00  0.00     0.034 A 
ATOM     27  C   UNL A   1      39.435  27.629  30.637  1.00  0.00     0.049 A 
ATOM     28  C   UNL A   1      42.859  32.432  30.373  1.00  0.00     0.074 A 
ATOM     29  C   UNL A   1      38.691  27.587  31.799  1.00  0.00     0.029 A 
ATOM     30  N   UNL A   1      40.665  28.135  30.988  1.00  0.00    -0.354 N 
ATOM     31  N   UNL A   1      42.625  32.021  31.589  1.00  0.00    -0.248 NA
ATOM     32  C   UNL A   1      43.046  31.385  29.380  1.00  0.00     0.031 C 
ATOM     33  C   UNL A   1      39.343  28.494  32.686  1.00  0.00     0.029 A 
ATOM     34  C   UNL A   1      40.487  28.983  32.051  1.00  0.00     0.049 A 
ATOM     35  H   UNL A   1      41.523  27.926  30.551  1.00  0.00     0.167 HD
ATOM     36  C   UNL A   1      42.188  30.711  31.432  1.00  0.00     0.074 A 
ATOM     37  C   UNL A   1      42.560  30.347  30.065  1.00  0.00     0.031 C 
ATOM     38  C   UNL A   1      41.306  30.151  32.309  1.00  0.00     0.034 A 
BRANCH  25  39
ATOM     39  C   UNL A   1      39.828  26.781  28.239  1.00  0.00     0.023 A 
ATOM     40  C   UNL A   1      39.573  25.397  28.270  1.00  0.00     0.012 A 
ATOM     41  C   UNL A   1      40.908  27.227  27.443  1.00  0.00     0.148 A 
ATOM     42  C   UNL A   1      40.359  24.496  27.546  1.00  0.00     0.002 A 
ATOM     43  C   UNL A   1      41.642  26.337  26.668  1.00  0.00     0.091 A 
ATOM     44  F   UNL A   1      41.319  28.496  27.530  1.00  0.00    -0.205 F 
ATOM     45  C   UNL A   1      41.384  24.966  26.733  1.00  0.00     0.022 A 
BRANCH  43  46
ATOM     46  S   UNL A   1      42.960  26.897  25.584  1.00  0.00     0.127 S 
ATOM     47  O   UNL A   1      43.325  25.658  24.903  1.00  0.00    -0.237 OA
ATOM     48  O   UNL A   1      42.266  27.882  24.753  1.00  0.00    -0.237 OA
ATOM     49  O   UNL A   1      43.972  27.468  26.464  1.00  0.00    -0.744 OA
ENDBRANCH  43  46
ENDBRANCH  25  39
BRANCH  26  50
ATOM     50  C   UNL A   1      43.477  34.629  29.139  1.00  0.00     0.023 A 
ATOM     51  C   UNL A   1      43.736  34.338  27.780  1.00  0.00     0.012 A 
ATOM     52  C   UNL A   1      43.897  35.884  29.633  1.00  0.00     0.148 A 
ATOM     53  C   UNL A   1      44.315  35.289  26.928  1.00  0.00     0.002 A 
ATOM     54  C   UNL A   1      44.479  36.824  28.781  1.00  0.00     0.091 A 
ATOM     55  F   UNL A   1      43.640  36.198  30.908  1.00  0.00    -0.205 F 
ATOM     56  C   UNL A   1      44.670  36.538  27.425  1.00  0.00     0.022 A 
BRANCH  54  57
ATOM     57  S   UNL A   1      44.950  38.466  29.351  1.00  0.00     0.127 S 
ATOM     58  O   UNL A   1      43.663  39.028  29.763  1.00  0.00    -0.237 OA
ATOM     59  O   UNL A   1      45.863  38.157  30.446  1.00  0.00    -0.237 OA
ATOM     60  O   UNL A   1      45.546  39.126  28.196  1.00  0.00    -0.744 OA
ENDBRANCH  54  57
ENDBRANCH  26  50
BRANCH  38  61
ATOM     61  C   UNL A   1      40.980  30.918  33.570  1.00  0.00     0.023 A 
ATOM     62  C   UNL A   1      41.860  30.977  34.674  1.00  0.00     0.012 A 
ATOM     63  C   UNL A   1      39.860  31.763  33.551  1.00  0.00     0.148 A 
ATOM     64  C   UNL A   1      41.627  31.862  35.732  1.00  0.00     0.002 A 
ATOM     65  C   UNL A   1      39.650  32.667  34.585  1.00  0.00     0.091 A 
ATOM     66  F   UNL A   1      39.045  31.700  32.488  1.00  0.00    -0.205 F 
ATOM     67  C   UNL A   1      40.529  32.719  35.680  1.00  0.00     0.022 A 
BRANCH  65  68
ATOM     68  S   UNL A   1      38.321  33.868  34.531  1.00  0.00     0.127 S 
ATOM     69  O   UNL A   1      38.671  34.659  33.353  1.00  0.00    -0.237 OA
ATOM     70  O   UNL A   1      37.140  33.017  34.370  1.00  0.00    -0.237 OA
ATOM     71  O   UNL A   1      38.371  34.588  35.798  1.00  0.00    -0.744 OA
ENDBRANCH  65  68
ENDBRANCH  38  61
ENDBRANCH  12  13
ENDBRANCH   5   7
ENDBRANCH   2   3
ENDBRANCH   1   2
BRANCH   1  72
ATOM     72  C   UNL A   1      31.452  30.516  25.603  1.00  0.00     0.002 C 
BRANCH  72  73
ATOM     73  C   UNL A   1      32.757  29.795  25.989  1.00  0.00     0.002 C 
BRANCH  73  74
ATOM     74  C   UNL A   1      32.613  28.538  26.841  1.00  0.00     0.021 C 
BRANCH  74  75
ATOM     75  C   UNL A   1      31.248  27.881  26.779  1.00  0.00     0.116 C 
BRANCH  75  76
ATOM     76  N   UNL A   1      31.233  26.457  26.930  1.00  0.00    -0.356 N 
ATOM     77  C   UNL A   1      31.887  25.494  26.243  1.00  0.00     0.224 C 
ATOM     78  H   UNL A   1      30.653  26.125  27.653  1.00  0.00     0.163 HD
ATOM     79  O   UNL A   1      31.953  24.406  26.841  1.00  0.00    -0.275 OA
BRANCH  77  80
ATOM     80  C   UNL A   1      32.529  25.593  24.836  1.00  0.00     0.095 C 
ATOM     81  C   UNL A   1      33.494  24.385  24.724  1.00  0.00     0.041 C 
ATOM     82  C   UNL A   1      31.799  25.744  23.474  1.00  0.00     0.092 C 
ATOM     83  C   UNL A   1      32.799  23.149  24.245  1.00  0.00    -0.030 C 
ATOM     84  C   UNL A   1      31.040  24.467  23.039  1.00  0.00     0.041 C 
ATOM     85  C   UNL A   1      31.686  23.193  23.502  1.00  0.00    -0.030 C 
BRANCH  82  86
ATOM     86  C   UNL A   1      31.001  27.016  23.346  1.00  0.00     0.199 A 
ATOM     87  N   UNL A   1      31.355  28.169  22.801  1.00  0.00    -0.213 NA
ATOM     88  O   UNL A   1      29.670  26.947  23.686  1.00  0.00    -0.440 OA
ATOM     89  C   UNL A   1      30.171  28.833  22.624  1.00  0.00     0.111 A 
ATOM     90  C   UNL A   1      29.141  28.103  23.189  1.00  0.00     0.154 A 
ATOM     91  C   UNL A   1      29.876  30.016  21.931  1.00  0.00     0.048 A 
ATOM     92  C   UNL A   1      27.803  28.479  23.167  1.00  0.00     0.050 A 
ATOM     93  C   UNL A   1      28.529  30.379  21.818  1.00  0.00     0.020 A 
ATOM     94  C   UNL A   1      27.513  29.641  22.440  1.00  0.00     0.019 A 
ATOM     95  Br  UNL A   1      28.064  31.868  20.744  1.00  0.00    -0.051 Br
ENDBRANCH  82  86
ENDBRANCH  77  80
ENDBRANCH  75  76
ENDBRANCH  74  75
ENDBRANCH  73  74
ENDBRANCH  72  73
ENDBRANCH   1  72
TORSDOF 17
ENDMDL
