MODEL 1
REMARK VINA RESULT:     -10.9      0.000      0.000
REMARK SMILES CSc1nc(C2CC2)nc(C)c1C(=O)NCCCCCCNC(=O)c1ccc(-c2c3nc(c(-c4cccc(S(=O)(=O)[O-])c4F)c4ccc([nH]4)c(-c4cccc(S(=O)(=O)[O-])c4F)c4nc(c(-c5cccc(S(=O)(=O)[O-])c5F)c5ccc2[nH]5)C=C4)C=C3)cc1
REMARK SMILES IDX 19 1 18 2 17 3 16 4 15 5 13 6 14 7 12 9 3 10 4 11 5 12 10 13
REMARK SMILES IDX 9 14 11 15 2 16 1 17 6 18 7 19 8 20 20 21 21 22 22 23 23 24
REMARK SMILES IDX 24 26 25 27 26 28 87 29 27 30 86 31 28 32 29 33 30 34 80 35
REMARK SMILES IDX 31 36 85 37 79 38 81 39 32 40 84 41 78 42 77 43 33 45 65 46
REMARK SMILES IDX 45 47 64 48 46 49 49 50 63 51 82 52 47 53 48 54 62 56 83 57
REMARK SMILES IDX 50 58 34 59 35 60 43 61 36 62 38 63 44 64 37 65 39 66 40 67
REMARK SMILES IDX 41 68 42 69 66 70 67 71 75 72 68 73 70 74 76 75 69 76 71 77
REMARK SMILES IDX 72 78 73 79 74 80 51 81 52 82 60 83 53 84 55 85 61 86 54 87
REMARK SMILES IDX 56 88 57 89 58 90 59 91
REMARK H PARENT 15 8 22 25 81 44 49 55
REMARK Flexibility Score: inf
ROOT
ATOM      1  C   UNL A   1      31.583  30.018  25.322  1.00  0.00     0.002 C 
ENDROOT
BRANCH   1   2
ATOM      2  C   UNL A   1      30.661  29.733  24.133  1.00  0.00     0.002 C 
BRANCH   2   3
ATOM      3  C   UNL A   1      31.086  28.669  23.117  1.00  0.00     0.021 C 
BRANCH   3   4
ATOM      4  C   UNL A   1      30.539  27.255  23.278  1.00  0.00     0.116 C 
BRANCH   4   5
ATOM      5  N   UNL A   1      30.263  26.815  24.627  1.00  0.00    -0.352 N 
ATOM      6  C   UNL A   1      31.094  26.232  25.564  1.00  0.00     0.255 C 
ATOM      7  O   UNL A   1      30.707  26.255  26.734  1.00  0.00    -0.269 OA
ATOM      8  H   UNL A   1      29.335  26.952  24.925  1.00  0.00     0.163 HD
BRANCH   6   9
ATOM      9  C   UNL A   1      32.396  25.573  25.254  1.00  0.00     0.093 A 
ATOM     10  C   UNL A   1      32.427  24.239  24.832  1.00  0.00     0.113 A 
ATOM     11  N   UNL A   1      33.573  23.533  24.628  1.00  0.00    -0.225 NA
ATOM     12  C   UNL A   1      34.741  24.141  24.860  1.00  0.00     0.133 A 
ATOM     13  C   UNL A   1      33.652  26.100  25.518  1.00  0.00     0.055 A 
ATOM     14  N   UNL A   1      34.800  25.408  25.286  1.00  0.00    -0.237 NA
ATOM     15  C   UNL A   1      33.937  27.443  26.111  1.00  0.00     0.068 C 
BRANCH  10  16
ATOM     16  S   UNL A   1      30.972  23.255  24.454  1.00  0.00    -0.109 SA
ATOM     17  C   UNL A   1      30.668  22.571  26.110  1.00  0.00     0.092 C 
ENDBRANCH  10  16
BRANCH  12  18
ATOM     18  C   UNL A   1      36.049  23.405  24.687  1.00  0.00     0.058 C 
ATOM     19  C   UNL A   1      36.112  21.940  24.325  1.00  0.00     0.012 C 
ATOM     20  C   UNL A   1      36.507  22.976  23.312  1.00  0.00     0.012 C 
ENDBRANCH  12  18
ENDBRANCH   6   9
ENDBRANCH   4   5
ENDBRANCH   3   4
ENDBRANCH   2   3
ENDBRANCH   1   2
BRANCH   1  21
ATOM     21  C   UNL A   1      31.335  31.295  26.129  1.00  0.00     0.021 C 
BRANCH  21  22
ATOM     22  C   UNL A   1      32.411  31.697  27.132  1.00  0.00     0.116 C 
BRANCH  22  23
ATOM     23  N   UNL A   1      32.524  33.133  27.306  1.00  0.00    -0.352 N 
ATOM     24  C   UNL A   1      33.441  33.862  28.025  1.00  0.00     0.251 C 
ATOM     25  H   UNL A   1      31.841  33.666  26.837  1.00  0.00     0.163 HD
ATOM     26  O   UNL A   1      33.284  35.073  28.153  1.00  0.00    -0.269 OA
BRANCH  24  27
ATOM     27  C   UNL A   1      34.606  33.199  28.658  1.00  0.00     0.039 A 
ATOM     28  C   UNL A   1      34.386  32.345  29.743  1.00  0.00     0.014 A 
ATOM     29  C   UNL A   1      35.910  33.442  28.217  1.00  0.00     0.014 A 
ATOM     30  C   UNL A   1      35.466  31.704  30.358  1.00  0.00     0.010 A 
ATOM     31  C   UNL A   1      36.977  32.748  28.786  1.00  0.00     0.010 A 
ATOM     32  C   UNL A   1      36.771  31.884  29.872  1.00  0.00    -0.014 A 
BRANCH  32  33
ATOM     33  C   UNL A   1      37.931  31.198  30.498  1.00  0.00     0.031 A 
ATOM     34  C   UNL A   1      38.345  31.545  31.904  1.00  0.00     0.074 A 
ATOM     35  C   UNL A   1      38.663  30.326  29.776  1.00  0.00     0.049 A 
ATOM     36  N   UNL A   1      39.365  31.107  32.596  1.00  0.00    -0.248 NA
ATOM     37  C   UNL A   1      37.521  32.536  32.617  1.00  0.00     0.031 C 
ATOM     38  C   UNL A   1      38.410  29.962  28.380  1.00  0.00     0.029 A 
ATOM     39  N   UNL A   1      39.785  29.609  30.108  1.00  0.00    -0.354 N 
ATOM     40  C   UNL A   1      39.329  31.795  33.804  1.00  0.00     0.074 A 
ATOM     41  C   UNL A   1      38.205  32.703  33.739  1.00  0.00     0.031 C 
ATOM     42  C   UNL A   1      39.350  29.091  27.977  1.00  0.00     0.029 A 
ATOM     43  C   UNL A   1      40.286  28.855  29.071  1.00  0.00     0.049 A 
ATOM     44  H   UNL A   1      40.195  29.631  31.003  1.00  0.00     0.167 HD
ATOM     45  C   UNL A   1      40.139  31.663  34.882  1.00  0.00     0.034 A 
ATOM     46  C   UNL A   1      41.377  28.067  29.008  1.00  0.00     0.034 A 
ATOM     47  C   UNL A   1      41.221  30.720  34.964  1.00  0.00     0.049 A 
ATOM     48  C   UNL A   1      42.228  27.896  30.238  1.00  0.00     0.074 A 
ATOM     49  C   UNL A   1      42.043  30.446  36.043  1.00  0.00     0.029 A 
ATOM     50  N   UNL A   1      41.635  29.900  33.926  1.00  0.00    -0.354 N 
ATOM     51  N   UNL A   1      42.084  28.441  31.422  1.00  0.00    -0.248 NA
ATOM     52  C   UNL A   1      43.369  26.974  30.137  1.00  0.00     0.031 C 
ATOM     53  C   UNL A   1      42.967  29.470  35.651  1.00  0.00     0.029 A 
ATOM     54  C   UNL A   1      42.703  29.120  34.336  1.00  0.00     0.049 A 
ATOM     55  H   UNL A   1      41.230  29.875  33.029  1.00  0.00     0.167 HD
ATOM     56  C   UNL A   1      43.089  27.897  32.216  1.00  0.00     0.074 A 
ATOM     57  C   UNL A   1      43.822  26.967  31.383  1.00  0.00     0.031 C 
ATOM     58  C   UNL A   1      43.384  28.155  33.513  1.00  0.00     0.034 A 
BRANCH  45  59
ATOM     59  C   UNL A   1      39.847  32.520  36.087  1.00  0.00     0.023 A 
ATOM     60  C   UNL A   1      40.516  33.752  36.243  1.00  0.00     0.012 A 
ATOM     61  C   UNL A   1      38.877  32.137  37.033  1.00  0.00     0.148 A 
ATOM     62  C   UNL A   1      40.251  34.572  37.339  1.00  0.00     0.002 A 
ATOM     63  C   UNL A   1      38.584  32.982  38.099  1.00  0.00     0.091 A 
ATOM     64  F   UNL A   1      38.264  30.954  36.881  1.00  0.00    -0.205 F 
ATOM     65  C   UNL A   1      39.278  34.192  38.260  1.00  0.00     0.022 A 
BRANCH  63  66
ATOM     66  S   UNL A   1      37.293  32.622  39.295  1.00  0.00     0.127 S 
ATOM     67  O   UNL A   1      36.095  32.664  38.457  1.00  0.00    -0.237 OA
ATOM     68  O   UNL A   1      37.667  31.285  39.758  1.00  0.00    -0.237 OA
ATOM     69  O   UNL A   1      37.383  33.663  40.309  1.00  0.00    -0.744 OA
ENDBRANCH  63  66
ENDBRANCH  45  59
BRANCH  46  70
ATOM     70  C   UNL A   1      41.686  27.321  27.755  1.00  0.00     0.023 A 
ATOM     71  C   UNL A   1      42.140  28.027  26.624  1.00  0.00     0.012 A 
ATOM     72  C   UNL A   1      41.561  25.920  27.683  1.00  0.00     0.148 A 
ATOM     73  C   UNL A   1      42.430  27.358  25.435  1.00  0.00     0.002 A 
ATOM     74  C   UNL A   1      41.904  25.253  26.513  1.00  0.00     0.091 A 
ATOM     75  F   UNL A   1      41.117  25.266  28.766  1.00  0.00    -0.205 F 
ATOM     76  C   UNL A   1      42.322  25.971  25.382  1.00  0.00     0.022 A 
BRANCH  74  77
ATOM     77  S   UNL A   1      41.922  23.460  26.398  1.00  0.00     0.127 S 
ATOM     78  O   UNL A   1      40.498  23.143  26.455  1.00  0.00    -0.237 OA
ATOM     79  O   UNL A   1      42.551  23.246  25.095  1.00  0.00    -0.237 OA
ATOM     80  O   UNL A   1      42.720  23.003  27.528  1.00  0.00    -0.744 OA
ENDBRANCH  74  77
ENDBRANCH  46  70
BRANCH  58  81
ATOM     81  C   UNL A   1      44.525  27.392  34.137  1.00  0.00     0.023 A 
ATOM     82  C   UNL A   1      45.835  27.904  34.064  1.00  0.00     0.012 A 
ATOM     83  C   UNL A   1      44.282  26.209  34.863  1.00  0.00     0.148 A 
ATOM     84  C   UNL A   1      46.892  27.234  34.679  1.00  0.00     0.002 A 
ATOM     85  C   UNL A   1      45.333  25.573  35.514  1.00  0.00     0.091 A 
ATOM     86  F   UNL A   1      43.032  25.728  34.903  1.00  0.00    -0.205 F 
ATOM     87  C   UNL A   1      46.640  26.077  35.414  1.00  0.00     0.022 A 
BRANCH  85  88
ATOM     88  S   UNL A   1      45.084  24.135  36.562  1.00  0.00     0.127 S 
ATOM     89  O   UNL A   1      46.454  23.817  36.960  1.00  0.00    -0.237 OA
ATOM     90  O   UNL A   1      44.247  24.674  37.635  1.00  0.00    -0.237 OA
ATOM     91  O   UNL A   1      44.426  23.140  35.727  1.00  0.00    -0.744 OA
ENDBRANCH  85  88
ENDBRANCH  58  81
ENDBRANCH  32  33
ENDBRANCH  24  27
ENDBRANCH  22  23
ENDBRANCH  21  22
ENDBRANCH   1  21
TORSDOF 18
ENDMDL
MODEL 2
REMARK VINA RESULT:     -10.5      5.124     10.489
REMARK SMILES CSc1nc(C2CC2)nc(C)c1C(=O)NCCCCCCNC(=O)c1ccc(-c2c3nc(c(-c4cccc(S(=O)(=O)[O-])c4F)c4ccc([nH]4)c(-c4cccc(S(=O)(=O)[O-])c4F)c4nc(c(-c5cccc(S(=O)(=O)[O-])c5F)c5ccc2[nH]5)C=C4)C=C3)cc1
REMARK SMILES IDX 19 1 18 2 17 3 16 4 15 5 13 6 14 7 12 9 3 10 4 11 5 12 10 13
REMARK SMILES IDX 9 14 11 15 2 16 1 17 6 18 7 19 8 20 20 21 21 22 22 23 23 24
REMARK SMILES IDX 24 26 25 27 26 28 87 29 27 30 86 31 28 32 29 33 30 34 80 35
REMARK SMILES IDX 31 36 85 37 79 38 81 39 32 40 84 41 78 42 77 43 33 45 65 46
REMARK SMILES IDX 45 47 64 48 46 49 49 50 63 51 82 52 47 53 48 54 62 56 83 57
REMARK SMILES IDX 50 58 34 59 35 60 43 61 36 62 38 63 44 64 37 65 39 66 40 67
REMARK SMILES IDX 41 68 42 69 66 70 67 71 75 72 68 73 70 74 76 75 69 76 71 77
REMARK SMILES IDX 72 78 73 79 74 80 51 81 52 82 60 83 53 84 55 85 61 86 54 87
REMARK SMILES IDX 56 88 57 89 58 90 59 91
REMARK H PARENT 15 8 22 25 81 44 49 55
REMARK Flexibility Score: inf
ROOT
ATOM      1  C   UNL A   1      36.175  23.139  23.364  1.00  0.00     0.002 C 
ENDROOT
BRANCH   1   2
ATOM      2  C   UNL A   1      34.763  23.671  23.631  1.00  0.00     0.002 C 
BRANCH   2   3
ATOM      3  C   UNL A   1      34.432  24.193  25.033  1.00  0.00     0.021 C 
BRANCH   3   4
ATOM      4  C   UNL A   1      33.822  25.584  25.162  1.00  0.00     0.116 C 
BRANCH   4   5
ATOM      5  N   UNL A   1      32.753  25.738  26.123  1.00  0.00    -0.352 N 
ATOM      6  C   UNL A   1      31.495  26.290  25.978  1.00  0.00     0.255 C 
ATOM      7  O   UNL A   1      30.665  26.005  26.843  1.00  0.00    -0.269 OA
ATOM      8  H   UNL A   1      32.954  25.396  27.023  1.00  0.00     0.163 HD
BRANCH   6   9
ATOM      9  C   UNL A   1      31.088  27.204  24.871  1.00  0.00     0.093 A 
ATOM     10  C   UNL A   1      31.226  28.589  25.016  1.00  0.00     0.113 A 
ATOM     11  N   UNL A   1      30.787  29.496  24.100  1.00  0.00    -0.225 NA
ATOM     12  C   UNL A   1      30.171  29.042  23.003  1.00  0.00     0.133 A 
ATOM     13  C   UNL A   1      30.392  26.832  23.729  1.00  0.00     0.055 A 
ATOM     14  N   UNL A   1      29.980  27.733  22.798  1.00  0.00    -0.237 NA
ATOM     15  C   UNL A   1      29.966  25.444  23.370  1.00  0.00     0.068 C 
BRANCH  10  16
ATOM     16  S   UNL A   1      32.034  29.393  26.404  1.00  0.00    -0.109 SA
ATOM     17  C   UNL A   1      33.745  29.332  25.797  1.00  0.00     0.092 C 
ENDBRANCH  10  16
BRANCH  12  18
ATOM     18  C   UNL A   1      29.628  29.995  21.965  1.00  0.00     0.058 C 
ATOM     19  C   UNL A   1      28.150  30.133  21.688  1.00  0.00     0.012 C 
ATOM     20  C   UNL A   1      28.883  31.240  22.388  1.00  0.00     0.012 C 
ENDBRANCH  12  18
ENDBRANCH   6   9
ENDBRANCH   4   5
ENDBRANCH   3   4
ENDBRANCH   2   3
ENDBRANCH   1   2
BRANCH   1  21
ATOM     21  C   UNL A   1      36.686  21.994  24.242  1.00  0.00     0.021 C 
BRANCH  21  22
ATOM     22  C   UNL A   1      37.400  22.381  25.533  1.00  0.00     0.116 C 
BRANCH  22  23
ATOM     23  N   UNL A   1      38.406  21.418  25.940  1.00  0.00    -0.352 N 
ATOM     24  C   UNL A   1      39.649  21.624  26.489  1.00  0.00     0.251 C 
ATOM     25  H   UNL A   1      38.161  20.473  25.804  1.00  0.00     0.163 HD
ATOM     26  O   UNL A   1      40.408  20.671  26.642  1.00  0.00    -0.269 OA
BRANCH  24  27
ATOM     27  C   UNL A   1      40.087  22.984  26.883  1.00  0.00     0.039 A 
ATOM     28  C   UNL A   1      40.897  23.128  28.014  1.00  0.00     0.014 A 
ATOM     29  C   UNL A   1      39.676  24.116  26.173  1.00  0.00     0.014 A 
ATOM     30  C   UNL A   1      41.328  24.399  28.407  1.00  0.00     0.010 A 
ATOM     31  C   UNL A   1      40.164  25.373  26.525  1.00  0.00     0.010 A 
ATOM     32  C   UNL A   1      40.981  25.532  27.655  1.00  0.00    -0.014 A 
BRANCH  32  33
ATOM     33  C   UNL A   1      41.444  26.890  28.043  1.00  0.00     0.031 A 
ATOM     34  C   UNL A   1      42.897  27.261  27.906  1.00  0.00     0.074 A 
ATOM     35  C   UNL A   1      40.576  27.761  28.596  1.00  0.00     0.049 A 
ATOM     36  N   UNL A   1      43.503  28.368  28.252  1.00  0.00    -0.248 NA
ATOM     37  C   UNL A   1      43.794  26.244  27.330  1.00  0.00     0.031 C 
ATOM     38  C   UNL A   1      39.159  27.496  28.852  1.00  0.00     0.029 A 
ATOM     39  N   UNL A   1      40.765  29.036  29.069  1.00  0.00    -0.354 N 
ATOM     40  C   UNL A   1      44.851  28.166  27.975  1.00  0.00     0.074 A 
ATOM     41  C   UNL A   1      44.979  26.820  27.462  1.00  0.00     0.031 C 
ATOM     42  C   UNL A   1      38.608  28.573  29.435  1.00  0.00     0.029 A 
ATOM     43  C   UNL A   1      39.634  29.594  29.619  1.00  0.00     0.049 A 
ATOM     44  H   UNL A   1      41.628  29.507  29.020  1.00  0.00     0.167 HD
ATOM     45  C   UNL A   1      45.884  29.032  28.107  1.00  0.00     0.034 A 
ATOM     46  C   UNL A   1      39.446  30.791  30.211  1.00  0.00     0.034 A 
ATOM     47  C   UNL A   1      45.745  30.387  28.565  1.00  0.00     0.049 A 
ATOM     48  C   UNL A   1      40.600  31.754  30.294  1.00  0.00     0.074 A 
ATOM     49  C   UNL A   1      46.714  31.371  28.649  1.00  0.00     0.029 A 
ATOM     50  N   UNL A   1      44.562  30.950  29.020  1.00  0.00    -0.354 N 
ATOM     51  N   UNL A   1      41.836  31.599  29.883  1.00  0.00    -0.248 NA
ATOM     52  C   UNL A   1      40.327  33.071  30.887  1.00  0.00     0.031 C 
ATOM     53  C   UNL A   1      46.121  32.525  29.172  1.00  0.00     0.029 A 
ATOM     54  C   UNL A   1      44.776  32.267  29.389  1.00  0.00     0.049 A 
ATOM     55  H   UNL A   1      43.698  30.482  29.072  1.00  0.00     0.167 HD
ATOM     56  C   UNL A   1      42.475  32.810  30.129  1.00  0.00     0.074 A 
ATOM     57  C   UNL A   1      41.484  33.694  30.709  1.00  0.00     0.031 C 
ATOM     58  C   UNL A   1      43.767  33.153  29.908  1.00  0.00     0.034 A 
BRANCH  45  59
ATOM     59  C   UNL A   1      47.254  28.557  27.693  1.00  0.00     0.023 A 
ATOM     60  C   UNL A   1      48.196  28.205  28.681  1.00  0.00     0.012 A 
ATOM     61  C   UNL A   1      47.590  28.406  26.334  1.00  0.00     0.148 A 
ATOM     62  C   UNL A   1      49.463  27.746  28.325  1.00  0.00     0.002 A 
ATOM     63  C   UNL A   1      48.840  27.902  25.986  1.00  0.00     0.091 A 
ATOM     64  F   UNL A   1      46.690  28.763  25.406  1.00  0.00    -0.205 F 
ATOM     65  C   UNL A   1      49.781  27.584  26.979  1.00  0.00     0.022 A 
BRANCH  63  66
ATOM     66  S   UNL A   1      49.317  27.582  24.284  1.00  0.00     0.127 S 
ATOM     67  O   UNL A   1      49.522  26.135  24.302  1.00  0.00    -0.237 OA
ATOM     68  O   UNL A   1      48.132  28.020  23.545  1.00  0.00    -0.237 OA
ATOM     69  O   UNL A   1      50.511  28.380  24.045  1.00  0.00    -0.744 OA
ENDBRANCH  63  66
ENDBRANCH  45  59
BRANCH  46  70
ATOM     70  C   UNL A   1      38.093  31.174  30.704  1.00  0.00     0.023 A 
ATOM     71  C   UNL A   1      37.752  30.927  32.048  1.00  0.00     0.012 A 
ATOM     72  C   UNL A   1      37.155  31.803  29.863  1.00  0.00     0.148 A 
ATOM     73  C   UNL A   1      36.491  31.268  32.537  1.00  0.00     0.002 A 
ATOM     74  C   UNL A   1      35.920  32.190  30.371  1.00  0.00     0.091 A 
ATOM     75  F   UNL A   1      37.493  32.019  28.584  1.00  0.00    -0.205 F 
ATOM     76  C   UNL A   1      35.579  31.908  31.702  1.00  0.00     0.022 A 
BRANCH  74  77
ATOM     77  S   UNL A   1      34.737  33.136  29.405  1.00  0.00     0.127 S 
ATOM     78  O   UNL A   1      33.850  33.653  30.442  1.00  0.00    -0.237 OA
ATOM     79  O   UNL A   1      35.594  34.137  28.770  1.00  0.00    -0.237 OA
ATOM     80  O   UNL A   1      34.140  32.185  28.476  1.00  0.00    -0.744 OA
ENDBRANCH  74  77
ENDBRANCH  46  70
BRANCH  58  81
ATOM     81  C   UNL A   1      44.187  34.559  30.251  1.00  0.00     0.023 A 
ATOM     82  C   UNL A   1      44.818  34.823  31.482  1.00  0.00     0.012 A 
ATOM     83  C   UNL A   1      44.026  35.602  29.316  1.00  0.00     0.148 A 
ATOM     84  C   UNL A   1      45.256  36.111  31.791  1.00  0.00     0.002 A 
ATOM     85  C   UNL A   1      44.508  36.871  29.611  1.00  0.00     0.091 A 
ATOM     86  F   UNL A   1      43.405  35.334  28.159  1.00  0.00    -0.205 F 
ATOM     87  C   UNL A   1      45.113  37.130  30.852  1.00  0.00     0.022 A 
BRANCH  85  88
ATOM     88  S   UNL A   1      44.456  38.218  28.424  1.00  0.00     0.127 S 
ATOM     89  O   UNL A   1      43.017  38.420  28.266  1.00  0.00    -0.237 OA
ATOM     90  O   UNL A   1      45.148  39.291  29.139  1.00  0.00    -0.237 OA
ATOM     91  O   UNL A   1      45.155  37.736  27.240  1.00  0.00    -0.744 OA
ENDBRANCH  85  88
ENDBRANCH  58  81
ENDBRANCH  32  33
ENDBRANCH  24  27
ENDBRANCH  22  23
ENDBRANCH  21  22
ENDBRANCH   1  21
TORSDOF 18
ENDMDL
MODEL 3
REMARK VINA RESULT:     -10.5      2.748      3.928
REMARK SMILES CSc1nc(C2CC2)nc(C)c1C(=O)NCCCCCCNC(=O)c1ccc(-c2c3nc(c(-c4cccc(S(=O)(=O)[O-])c4F)c4ccc([nH]4)c(-c4cccc(S(=O)(=O)[O-])c4F)c4nc(c(-c5cccc(S(=O)(=O)[O-])c5F)c5ccc2[nH]5)C=C4)C=C3)cc1
REMARK SMILES IDX 19 1 18 2 17 3 16 4 15 5 13 6 14 7 12 9 3 10 4 11 5 12 10 13
REMARK SMILES IDX 9 14 11 15 2 16 1 17 6 18 7 19 8 20 20 21 21 22 22 23 23 24
REMARK SMILES IDX 24 26 25 27 26 28 87 29 27 30 86 31 28 32 29 33 30 34 80 35
REMARK SMILES IDX 31 36 85 37 79 38 81 39 32 40 84 41 78 42 77 43 33 45 65 46
REMARK SMILES IDX 45 47 64 48 46 49 49 50 63 51 82 52 47 53 48 54 62 56 83 57
REMARK SMILES IDX 50 58 34 59 35 60 43 61 36 62 38 63 44 64 37 65 39 66 40 67
REMARK SMILES IDX 41 68 42 69 66 70 67 71 75 72 68 73 70 74 76 75 69 76 71 77
REMARK SMILES IDX 72 78 73 79 74 80 51 81 52 82 60 83 53 84 55 85 61 86 54 87
REMARK SMILES IDX 56 88 57 89 58 90 59 91
REMARK H PARENT 15 8 22 25 81 44 49 55
REMARK Flexibility Score: inf
ROOT
ATOM      1  C   UNL A   1      35.157  32.556  28.020  1.00  0.00     0.002 C 
ENDROOT
BRANCH   1   2
ATOM      2  C   UNL A   1      35.078  31.071  28.390  1.00  0.00     0.002 C 
BRANCH   2   3
ATOM      3  C   UNL A   1      35.571  30.037  27.373  1.00  0.00     0.021 C 
BRANCH   3   4
ATOM      4  C   UNL A   1      34.585  28.991  26.867  1.00  0.00     0.116 C 
BRANCH   4   5
ATOM      5  N   UNL A   1      33.493  28.647  27.750  1.00  0.00    -0.352 N 
ATOM      6  C   UNL A   1      32.190  28.289  27.462  1.00  0.00     0.255 C 
ATOM      7  O   UNL A   1      31.560  27.731  28.361  1.00  0.00    -0.269 OA
ATOM      8  H   UNL A   1      33.713  28.670  28.709  1.00  0.00     0.163 HD
BRANCH   6   9
ATOM      9  C   UNL A   1      31.504  28.547  26.162  1.00  0.00     0.093 A 
ATOM     10  C   UNL A   1      31.226  27.488  25.291  1.00  0.00     0.113 A 
ATOM     11  N   UNL A   1      30.698  27.647  24.046  1.00  0.00    -0.225 NA
ATOM     12  C   UNL A   1      30.445  28.889  23.619  1.00  0.00     0.133 A 
ATOM     13  C   UNL A   1      31.258  29.798  25.612  1.00  0.00     0.055 A 
ATOM     14  N   UNL A   1      30.702  29.959  24.382  1.00  0.00    -0.237 NA
ATOM     15  C   UNL A   1      31.584  31.116  26.239  1.00  0.00     0.068 C 
BRANCH  10  16
ATOM     16  S   UNL A   1      31.479  25.753  25.682  1.00  0.00    -0.109 SA
ATOM     17  C   UNL A   1      30.691  25.026  24.216  1.00  0.00     0.092 C 
ENDBRANCH  10  16
BRANCH  12  18
ATOM     18  C   UNL A   1      29.892  29.139  22.236  1.00  0.00     0.058 C 
ATOM     19  C   UNL A   1      28.467  29.582  22.001  1.00  0.00     0.012 C 
ATOM     20  C   UNL A   1      29.596  30.548  21.776  1.00  0.00     0.012 C 
ENDBRANCH  12  18
ENDBRANCH   6   9
ENDBRANCH   4   5
ENDBRANCH   3   4
ENDBRANCH   2   3
ENDBRANCH   1   2
BRANCH   1  21
ATOM     21  C   UNL A   1      33.859  33.365  28.030  1.00  0.00     0.021 C 
BRANCH  21  22
ATOM     22  C   UNL A   1      33.979  34.858  28.316  1.00  0.00     0.116 C 
BRANCH  22  23
ATOM     23  N   UNL A   1      33.229  35.279  29.485  1.00  0.00    -0.352 N 
ATOM     24  C   UNL A   1      33.427  34.978  30.811  1.00  0.00     0.251 C 
ATOM     25  H   UNL A   1      32.462  35.869  29.300  1.00  0.00     0.163 HD
ATOM     26  O   UNL A   1      32.593  35.330  31.642  1.00  0.00    -0.269 OA
BRANCH  24  27
ATOM     27  C   UNL A   1      34.624  34.220  31.246  1.00  0.00     0.039 A 
ATOM     28  C   UNL A   1      34.445  33.014  31.931  1.00  0.00     0.014 A 
ATOM     29  C   UNL A   1      35.915  34.706  31.018  1.00  0.00     0.014 A 
ATOM     30  C   UNL A   1      35.557  32.277  32.350  1.00  0.00     0.010 A 
ATOM     31  C   UNL A   1      37.021  33.936  31.374  1.00  0.00     0.010 A 
ATOM     32  C   UNL A   1      36.856  32.722  32.058  1.00  0.00    -0.014 A 
BRANCH  32  33
ATOM     33  C   UNL A   1      38.052  31.945  32.477  1.00  0.00     0.031 A 
ATOM     34  C   UNL A   1      38.760  32.282  33.763  1.00  0.00     0.074 A 
ATOM     35  C   UNL A   1      38.552  30.993  31.663  1.00  0.00     0.049 A 
ATOM     36  N   UNL A   1      39.852  31.766  34.265  1.00  0.00    -0.248 NA
ATOM     37  C   UNL A   1      38.178  33.359  34.582  1.00  0.00     0.031 C 
ATOM     38  C   UNL A   1      38.004  30.624  30.356  1.00  0.00     0.029 A 
ATOM     39  N   UNL A   1      39.651  30.183  31.802  1.00  0.00    -0.354 N 
ATOM     40  C   UNL A   1      40.111  32.480  35.429  1.00  0.00     0.074 A 
ATOM     41  C   UNL A   1      39.078  33.486  35.545  1.00  0.00     0.031 C 
ATOM     42  C   UNL A   1      38.768  29.662  29.815  1.00  0.00     0.029 A 
ATOM     43  C   UNL A   1      39.874  29.364  30.718  1.00  0.00     0.049 A 
ATOM     44  H   UNL A   1      40.227  30.186  32.600  1.00  0.00     0.167 HD
ATOM     45  C   UNL A   1      41.099  32.297  36.337  1.00  0.00     0.034 A 
ATOM     46  C   UNL A   1      40.860  28.477  30.478  1.00  0.00     0.034 A 
ATOM     47  C   UNL A   1      42.091  31.260  36.248  1.00  0.00     0.049 A 
ATOM     48  C   UNL A   1      41.915  28.255  31.529  1.00  0.00     0.074 A 
ATOM     49  C   UNL A   1      43.080  30.934  37.159  1.00  0.00     0.029 A 
ATOM     50  N   UNL A   1      42.224  30.383  35.182  1.00  0.00    -0.354 N 
ATOM     51  N   UNL A   1      42.052  28.836  32.697  1.00  0.00    -0.248 NA
ATOM     52  C   UNL A   1      42.931  27.230  31.248  1.00  0.00     0.031 C 
ATOM     53  C   UNL A   1      43.822  29.869  36.637  1.00  0.00     0.029 A 
ATOM     54  C   UNL A   1      43.279  29.517  35.411  1.00  0.00     0.049 A 
ATOM     55  H   UNL A   1      41.652  30.377  34.381  1.00  0.00     0.167 HD
ATOM     56  C   UNL A   1      43.140  28.218  33.305  1.00  0.00     0.074 A 
ATOM     57  C   UNL A   1      43.614  27.207  32.384  1.00  0.00     0.031 C 
ATOM     58  C   UNL A   1      43.702  28.475  34.511  1.00  0.00     0.034 A 
BRANCH  45  59
ATOM     59  C   UNL A   1      41.122  33.202  37.542  1.00  0.00     0.023 A 
ATOM     60  C   UNL A   1      40.402  32.839  38.699  1.00  0.00     0.012 A 
ATOM     61  C   UNL A   1      41.897  34.378  37.552  1.00  0.00     0.148 A 
ATOM     62  C   UNL A   1      40.422  33.649  39.833  1.00  0.00     0.002 A 
ATOM     63  C   UNL A   1      41.950  35.158  38.704  1.00  0.00     0.091 A 
ATOM     64  F   UNL A   1      42.560  34.719  36.438  1.00  0.00    -0.205 F 
ATOM     65  C   UNL A   1      41.204  34.801  39.839  1.00  0.00     0.022 A 
BRANCH  63  66
ATOM     66  S   UNL A   1      42.988  36.617  38.840  1.00  0.00     0.127 S 
ATOM     67  O   UNL A   1      42.322  37.353  39.913  1.00  0.00    -0.237 OA
ATOM     68  O   UNL A   1      44.282  36.041  39.207  1.00  0.00    -0.237 OA
ATOM     69  O   UNL A   1      42.957  37.255  37.532  1.00  0.00    -0.744 OA
ENDBRANCH  63  66
ENDBRANCH  45  59
BRANCH  46  70
ATOM     70  C   UNL A   1      40.855  27.679  29.219  1.00  0.00     0.023 A 
ATOM     71  C   UNL A   1      39.936  26.622  29.075  1.00  0.00     0.012 A 
ATOM     72  C   UNL A   1      41.732  27.975  28.158  1.00  0.00     0.148 A 
ATOM     73  C   UNL A   1      39.912  25.852  27.912  1.00  0.00     0.002 A 
ATOM     74  C   UNL A   1      41.666  27.239  26.980  1.00  0.00     0.091 A 
ATOM     75  F   UNL A   1      42.608  28.977  28.318  1.00  0.00    -0.205 F 
ATOM     76  C   UNL A   1      40.769  26.166  26.861  1.00  0.00     0.022 A 
BRANCH  74  77
ATOM     77  S   UNL A   1      42.639  27.657  25.529  1.00  0.00     0.127 S 
ATOM     78  O   UNL A   1      41.990  28.884  25.077  1.00  0.00    -0.237 OA
ATOM     79  O   UNL A   1      43.974  27.840  26.101  1.00  0.00    -0.237 OA
ATOM     80  O   UNL A   1      42.523  26.512  24.637  1.00  0.00    -0.744 OA
ENDBRANCH  74  77
ENDBRANCH  46  70
BRANCH  58  81
ATOM     81  C   UNL A   1      44.872  27.624  34.934  1.00  0.00     0.023 A 
ATOM     82  C   UNL A   1      46.186  28.070  34.698  1.00  0.00     0.012 A 
ATOM     83  C   UNL A   1      44.663  26.421  35.638  1.00  0.00     0.148 A 
ATOM     84  C   UNL A   1      47.278  27.315  35.128  1.00  0.00     0.002 A 
ATOM     85  C   UNL A   1      45.755  25.699  36.106  1.00  0.00     0.091 A 
ATOM     86  F   UNL A   1      43.405  26.005  35.836  1.00  0.00    -0.205 F 
ATOM     87  C   UNL A   1      47.062  26.139  35.842  1.00  0.00     0.022 A 
BRANCH  85  88
ATOM     88  S   UNL A   1      45.570  24.227  37.120  1.00  0.00     0.127 S 
ATOM     89  O   UNL A   1      44.898  23.314  36.197  1.00  0.00    -0.237 OA
ATOM     90  O   UNL A   1      46.959  23.879  37.419  1.00  0.00    -0.237 OA
ATOM     91  O   UNL A   1      44.788  24.635  38.279  1.00  0.00    -0.744 OA
ENDBRANCH  85  88
ENDBRANCH  58  81
ENDBRANCH  32  33
ENDBRANCH  24  27
ENDBRANCH  22  23
ENDBRANCH  21  22
ENDBRANCH   1  21
TORSDOF 18
ENDMDL
