MODEL 1
REMARK VINA RESULT:     -11.9      0.000      0.000
REMARK SMILES CC[C@](O)(C(=O)NCCCCCCNC(=O)c1ccc(-c2c3nc(c(-c4cccc(S(=O)(=O)[O-])c4F)c4ccc([nH]4)c(-c4cccc(S(=O)(=O)[O-])c4F)c4nc(c(-c5cccc(S(=O)(=O)[O-])c5F)c5ccc2[nH]5)C=C4)C=C3)cc1)[C@@H](C)c1ccc2c(c1)OCCO2
REMARK SMILES IDX 11 1 10 2 9 3 8 4 7 5 5 6 6 7 3 9 2 10 1 11 80 12 81 13
REMARK SMILES IDX 82 14 83 15 87 16 84 17 86 18 85 19 88 20 91 21 89 22 90 23
REMARK SMILES IDX 4 24 12 26 13 27 14 28 15 29 16 31 17 32 18 33 79 34 19 35
REMARK SMILES IDX 78 36 20 37 21 38 22 39 72 40 23 41 77 42 71 43 73 44 24 45
REMARK SMILES IDX 76 46 70 47 69 48 25 50 57 51 37 52 56 53 38 54 41 55 55 56
REMARK SMILES IDX 74 57 39 58 40 59 54 61 75 62 42 63 26 64 27 65 35 66 28 67
REMARK SMILES IDX 30 68 36 69 29 70 31 71 32 72 33 73 34 74 58 75 59 76 67 77
REMARK SMILES IDX 60 78 62 79 68 80 61 81 63 82 64 83 65 84 66 85 43 86 44 87
REMARK SMILES IDX 52 88 45 89 47 90 53 91 46 92 48 93 49 94 50 95 51 96
REMARK H PARENT 7 8 4 25 14 30 73 49 41 60
REMARK Flexibility Score: inf
ROOT
ATOM      1  C   UNL A   1      35.435  22.734  23.479  1.00  0.00     0.002 C 
ENDROOT
BRANCH   1   2
ATOM      2  C   UNL A   1      34.793  24.118  23.623  1.00  0.00     0.002 C 
BRANCH   2   3
ATOM      3  C   UNL A   1      35.073  24.807  24.959  1.00  0.00     0.021 C 
BRANCH   3   4
ATOM      4  C   UNL A   1      33.805  25.249  25.682  1.00  0.00     0.116 C 
BRANCH   4   5
ATOM      5  N   UNL A   1      32.603  25.007  24.895  1.00  0.00    -0.354 N 
ATOM      6  C   UNL A   1      31.639  24.037  25.037  1.00  0.00     0.252 C 
ATOM      7  O   UNL A   1      30.652  24.098  24.299  1.00  0.00    -0.272 OA
ATOM      8  H   UNL A   1      32.460  25.633  24.149  1.00  0.00     0.163 HD
BRANCH   6   9
ATOM      9  C   UNL A   1      31.777  22.980  26.171  1.00  0.00     0.149 C 
BRANCH   9  10
ATOM     10  C   UNL A   1      30.413  22.225  26.167  1.00  0.00     0.043 C 
ATOM     11  C   UNL A   1      29.366  22.630  27.191  1.00  0.00     0.007 C 
ENDBRANCH   9  10
BRANCH   9  12
ATOM     12  C   UNL A   1      33.016  22.025  25.977  1.00  0.00     0.058 C 
ATOM     13  C   UNL A   1      33.589  21.455  27.294  1.00  0.00     0.016 C 
BRANCH  12  14
ATOM     14  C   UNL A   1      32.707  20.792  25.116  1.00  0.00    -0.038 A 
ATOM     15  C   UNL A   1      32.414  20.880  23.744  1.00  0.00     0.008 A 
ATOM     16  C   UNL A   1      32.819  19.515  25.683  1.00  0.00     0.054 A 
ATOM     17  C   UNL A   1      32.314  19.715  22.965  1.00  0.00     0.051 A 
ATOM     18  C   UNL A   1      32.676  18.374  24.936  1.00  0.00     0.161 A 
ATOM     19  C   UNL A   1      32.515  18.474  23.563  1.00  0.00     0.161 A 
ATOM     20  O   UNL A   1      32.851  17.201  25.608  1.00  0.00    -0.486 OA
ATOM     21  O   UNL A   1      32.752  17.365  22.786  1.00  0.00    -0.486 OA
ATOM     22  C   UNL A   1      33.515  16.222  24.816  1.00  0.00     0.271 C 
ATOM     23  C   UNL A   1      33.870  16.697  23.407  1.00  0.00     0.271 C 
ENDBRANCH  12  14
ENDBRANCH   9  12
BRANCH   9  24
ATOM     24  O   UNL A   1      31.955  23.748  27.369  1.00  0.00    -0.379 OA
ATOM     25  H   UNL A   1      31.088  24.001  27.723  1.00  0.00     0.212 HD
ENDBRANCH   9  24
ENDBRANCH   6   9
ENDBRANCH   4   5
ENDBRANCH   3   4
ENDBRANCH   2   3
ENDBRANCH   1   2
BRANCH   1  26
ATOM     26  C   UNL A   1      36.835  22.601  24.090  1.00  0.00     0.021 C 
BRANCH  26  27
ATOM     27  C   UNL A   1      36.848  22.204  25.561  1.00  0.00     0.116 C 
BRANCH  27  28
ATOM     28  N   UNL A   1      37.865  21.201  25.834  1.00  0.00    -0.352 N 
ATOM     29  C   UNL A   1      39.171  21.361  26.199  1.00  0.00     0.251 C 
ATOM     30  H   UNL A   1      37.567  20.267  25.742  1.00  0.00     0.163 HD
ATOM     31  O   UNL A   1      39.937  20.393  26.153  1.00  0.00    -0.269 OA
BRANCH  29  32
ATOM     32  C   UNL A   1      39.673  22.679  26.637  1.00  0.00     0.039 A 
ATOM     33  C   UNL A   1      40.649  22.728  27.634  1.00  0.00     0.014 A 
ATOM     34  C   UNL A   1      39.167  23.864  26.091  1.00  0.00     0.014 A 
ATOM     35  C   UNL A   1      41.148  23.961  28.052  1.00  0.00     0.010 A 
ATOM     36  C   UNL A   1      39.719  25.089  26.458  1.00  0.00     0.010 A 
ATOM     37  C   UNL A   1      40.710  25.152  27.448  1.00  0.00    -0.014 A 
BRANCH  37  38
ATOM     38  C   UNL A   1      41.308  26.457  27.829  1.00  0.00     0.031 A 
ATOM     39  C   UNL A   1      42.740  26.777  27.494  1.00  0.00     0.074 A 
ATOM     40  C   UNL A   1      40.565  27.339  28.527  1.00  0.00     0.049 A 
ATOM     41  N   UNL A   1      43.418  27.868  27.745  1.00  0.00    -0.248 NA
ATOM     42  C   UNL A   1      43.520  25.734  26.805  1.00  0.00     0.031 C 
ATOM     43  C   UNL A   1      39.193  27.109  28.987  1.00  0.00     0.029 A 
ATOM     44  N   UNL A   1      40.860  28.597  28.986  1.00  0.00    -0.354 N 
ATOM     45  C   UNL A   1      44.702  27.640  27.265  1.00  0.00     0.074 A 
ATOM     46  C   UNL A   1      44.722  26.290  26.742  1.00  0.00     0.031 C 
ATOM     47  C   UNL A   1      38.765  28.192  29.656  1.00  0.00     0.029 A 
ATOM     48  C   UNL A   1      39.837  29.181  29.696  1.00  0.00     0.049 A 
ATOM     49  H   UNL A   1      41.725  29.040  28.823  1.00  0.00     0.167 HD
ATOM     50  C   UNL A   1      45.758  28.486  27.229  1.00  0.00     0.034 A 
ATOM     51  C   UNL A   1      39.771  30.375  30.315  1.00  0.00     0.034 A 
ATOM     52  C   UNL A   1      45.727  29.838  27.723  1.00  0.00     0.049 A 
ATOM     53  C   UNL A   1      40.948  31.307  30.229  1.00  0.00     0.074 A 
ATOM     54  C   UNL A   1      46.725  30.796  27.672  1.00  0.00     0.029 A 
ATOM     55  N   UNL A   1      44.646  30.424  28.364  1.00  0.00    -0.354 N 
ATOM     56  N   UNL A   1      42.100  31.129  29.627  1.00  0.00    -0.248 NA
ATOM     57  C   UNL A   1      40.804  32.621  30.872  1.00  0.00     0.031 C 
ATOM     58  C   UNL A   1      46.255  31.953  28.301  1.00  0.00     0.029 A 
ATOM     59  C   UNL A   1      44.954  31.726  28.717  1.00  0.00     0.049 A 
ATOM     60  H   UNL A   1      43.786  29.978  28.540  1.00  0.00     0.167 HD
ATOM     61  C   UNL A   1      42.802  32.317  29.792  1.00  0.00     0.074 A 
ATOM     62  C   UNL A   1      41.932  33.219  30.519  1.00  0.00     0.031 C 
ATOM     63  C   UNL A   1      44.062  32.629  29.398  1.00  0.00     0.034 A 
BRANCH  50  64
ATOM     64  C   UNL A   1      47.027  28.003  26.576  1.00  0.00     0.023 A 
ATOM     65  C   UNL A   1      48.024  27.399  27.367  1.00  0.00     0.012 A 
ATOM     66  C   UNL A   1      47.198  28.063  25.178  1.00  0.00     0.148 A 
ATOM     67  C   UNL A   1      49.182  26.884  26.785  1.00  0.00     0.002 A 
ATOM     68  C   UNL A   1      48.334  27.509  24.600  1.00  0.00     0.091 A 
ATOM     69  F   UNL A   1      46.246  28.656  24.443  1.00  0.00    -0.205 F 
ATOM     70  C   UNL A   1      49.330  26.928  25.403  1.00  0.00     0.022 A 
BRANCH  68  71
ATOM     71  S   UNL A   1      48.589  27.442  22.823  1.00  0.00     0.127 S 
ATOM     72  O   UNL A   1      47.439  28.203  22.331  1.00  0.00    -0.237 OA
ATOM     73  O   UNL A   1      49.877  28.123  22.674  1.00  0.00    -0.237 OA
ATOM     74  O   UNL A   1      48.598  26.033  22.467  1.00  0.00    -0.744 OA
ENDBRANCH  68  71
ENDBRANCH  50  64
BRANCH  51  75
ATOM     75  C   UNL A   1      38.528  30.781  31.033  1.00  0.00     0.023 A 
ATOM     76  C   UNL A   1      38.384  30.479  32.402  1.00  0.00     0.012 A 
ATOM     77  C   UNL A   1      37.491  31.461  30.367  1.00  0.00     0.148 A 
ATOM     78  C   UNL A   1      37.210  30.806  33.082  1.00  0.00     0.002 A 
ATOM     79  C   UNL A   1      36.350  31.839  31.066  1.00  0.00     0.091 A 
ATOM     80  F   UNL A   1      37.639  31.727  29.062  1.00  0.00    -0.205 F 
ATOM     81  C   UNL A   1      36.197  31.493  32.417  1.00  0.00     0.022 A 
BRANCH  79  82
ATOM     82  S   UNL A   1      35.065  32.846  30.318  1.00  0.00     0.127 S 
ATOM     83  O   UNL A   1      34.527  31.941  29.304  1.00  0.00    -0.237 OA
ATOM     84  O   UNL A   1      34.175  33.096  31.454  1.00  0.00    -0.237 OA
ATOM     85  O   UNL A   1      35.742  34.033  29.820  1.00  0.00    -0.744 OA
ENDBRANCH  79  82
ENDBRANCH  51  75
BRANCH  63  86
ATOM     86  C   UNL A   1      44.565  34.013  29.719  1.00  0.00     0.023 A 
ATOM     87  C   UNL A   1      45.235  34.251  30.936  1.00  0.00     0.012 A 
ATOM     88  C   UNL A   1      44.412  35.067  28.797  1.00  0.00     0.148 A 
ATOM     89  C   UNL A   1      45.702  35.526  31.251  1.00  0.00     0.002 A 
ATOM     90  C   UNL A   1      44.927  36.323  29.096  1.00  0.00     0.091 A 
ATOM     91  F   UNL A   1      43.756  34.827  27.652  1.00  0.00    -0.205 F 
ATOM     92  C   UNL A   1      45.557  36.558  30.328  1.00  0.00     0.022 A 
BRANCH  90  93
ATOM     93  S   UNL A   1      44.871  37.687  27.929  1.00  0.00     0.127 S 
ATOM     94  O   UNL A   1      45.496  38.763  28.697  1.00  0.00    -0.237 OA
ATOM     95  O   UNL A   1      45.681  37.181  26.819  1.00  0.00    -0.237 OA
ATOM     96  O   UNL A   1      43.464  37.883  27.608  1.00  0.00    -0.744 OA
ENDBRANCH  90  93
ENDBRANCH  63  86
ENDBRANCH  37  38
ENDBRANCH  29  32
ENDBRANCH  27  28
ENDBRANCH  26  27
ENDBRANCH   1  26
TORSDOF 20
ENDMDL
MODEL 2
REMARK VINA RESULT:     -11.5      4.959      9.648
REMARK SMILES CC[C@](O)(C(=O)NCCCCCCNC(=O)c1ccc(-c2c3nc(c(-c4cccc(S(=O)(=O)[O-])c4F)c4ccc([nH]4)c(-c4cccc(S(=O)(=O)[O-])c4F)c4nc(c(-c5cccc(S(=O)(=O)[O-])c5F)c5ccc2[nH]5)C=C4)C=C3)cc1)[C@@H](C)c1ccc2c(c1)OCCO2
REMARK SMILES IDX 11 1 10 2 9 3 8 4 7 5 5 6 6 7 3 9 2 10 1 11 80 12 81 13
REMARK SMILES IDX 82 14 83 15 87 16 84 17 86 18 85 19 88 20 91 21 89 22 90 23
REMARK SMILES IDX 4 24 12 26 13 27 14 28 15 29 16 31 17 32 18 33 79 34 19 35
REMARK SMILES IDX 78 36 20 37 21 38 22 39 72 40 23 41 77 42 71 43 73 44 24 45
REMARK SMILES IDX 76 46 70 47 69 48 25 50 57 51 37 52 56 53 38 54 41 55 55 56
REMARK SMILES IDX 74 57 39 58 40 59 54 61 75 62 42 63 26 64 27 65 35 66 28 67
REMARK SMILES IDX 30 68 36 69 29 70 31 71 32 72 33 73 34 74 58 75 59 76 67 77
REMARK SMILES IDX 60 78 62 79 68 80 61 81 63 82 64 83 65 84 66 85 43 86 44 87
REMARK SMILES IDX 52 88 45 89 47 90 53 91 46 92 48 93 49 94 50 95 51 96
REMARK H PARENT 7 8 4 25 14 30 73 49 41 60
REMARK Flexibility Score: inf
ROOT
ATOM      1  C   UNL A   1      30.977  28.000  25.355  1.00  0.00     0.002 C 
ENDROOT
BRANCH   1   2
ATOM      2  C   UNL A   1      31.672  27.236  26.488  1.00  0.00     0.002 C 
BRANCH   2   3
ATOM      3  C   UNL A   1      31.998  25.779  26.159  1.00  0.00     0.021 C 
BRANCH   3   4
ATOM      4  C   UNL A   1      33.432  25.579  25.681  1.00  0.00     0.116 C 
BRANCH   4   5
ATOM      5  N   UNL A   1      33.609  25.953  24.284  1.00  0.00    -0.354 N 
ATOM      6  C   UNL A   1      33.786  25.159  23.176  1.00  0.00     0.252 C 
ATOM      7  O   UNL A   1      33.816  25.712  22.073  1.00  0.00    -0.272 OA
ATOM      8  H   UNL A   1      33.602  26.922  24.107  1.00  0.00     0.163 HD
BRANCH   6   9
ATOM      9  C   UNL A   1      33.837  23.612  23.343  1.00  0.00     0.149 C 
BRANCH   9  10
ATOM     10  C   UNL A   1      35.017  23.367  24.333  1.00  0.00     0.043 C 
ATOM     11  C   UNL A   1      35.924  22.173  24.086  1.00  0.00     0.007 C 
ENDBRANCH   9  10
BRANCH   9  12
ATOM     12  C   UNL A   1      32.472  23.001  23.840  1.00  0.00     0.058 C 
ATOM     13  C   UNL A   1      31.219  23.673  23.233  1.00  0.00     0.016 C 
BRANCH  12  14
ATOM     14  C   UNL A   1      32.316  21.509  23.513  1.00  0.00    -0.038 A 
ATOM     15  C   UNL A   1      31.989  21.046  22.227  1.00  0.00     0.008 A 
ATOM     16  C   UNL A   1      32.608  20.557  24.499  1.00  0.00     0.054 A 
ATOM     17  C   UNL A   1      32.033  19.672  21.936  1.00  0.00     0.051 A 
ATOM     18  C   UNL A   1      32.606  19.212  24.232  1.00  0.00     0.161 A 
ATOM     19  C   UNL A   1      32.410  18.775  22.932  1.00  0.00     0.161 A 
ATOM     20  O   UNL A   1      32.949  18.402  25.273  1.00  0.00    -0.486 OA
ATOM     21  O   UNL A   1      32.779  17.493  22.600  1.00  0.00    -0.486 OA
ATOM     22  C   UNL A   1      33.725  17.284  24.852  1.00  0.00     0.271 C 
ATOM     23  C   UNL A   1      33.988  17.240  23.348  1.00  0.00     0.271 C 
ENDBRANCH  12  14
ENDBRANCH   9  12
BRANCH   9  24
ATOM     24  O   UNL A   1      34.131  23.111  22.033  1.00  0.00    -0.379 OA
ATOM     25  H   UNL A   1      34.952  22.596  22.060  1.00  0.00     0.212 HD
ENDBRANCH   9  24
ENDBRANCH   6   9
ENDBRANCH   4   5
ENDBRANCH   3   4
ENDBRANCH   2   3
ENDBRANCH   1   2
BRANCH   1  26
ATOM     26  C   UNL A   1      31.882  28.955  24.567  1.00  0.00     0.021 C 
BRANCH  26  27
ATOM     27  C   UNL A   1      33.009  29.576  25.383  1.00  0.00     0.116 C 
BRANCH  27  28
ATOM     28  N   UNL A   1      32.630  30.877  25.913  1.00  0.00    -0.352 N 
ATOM     29  C   UNL A   1      33.128  31.559  26.987  1.00  0.00     0.251 C 
ATOM     30  H   UNL A   1      31.908  31.333  25.425  1.00  0.00     0.163 HD
ATOM     31  O   UNL A   1      32.515  32.541  27.419  1.00  0.00    -0.269 OA
BRANCH  29  32
ATOM     32  C   UNL A   1      34.381  31.127  27.636  1.00  0.00     0.039 A 
ATOM     33  C   UNL A   1      35.391  32.069  27.842  1.00  0.00     0.014 A 
ATOM     34  C   UNL A   1      34.578  29.794  28.016  1.00  0.00     0.014 A 
ATOM     35  C   UNL A   1      36.577  31.686  28.467  1.00  0.00     0.010 A 
ATOM     36  C   UNL A   1      35.733  29.431  28.705  1.00  0.00     0.010 A 
ATOM     37  C   UNL A   1      36.748  30.371  28.932  1.00  0.00    -0.014 A 
BRANCH  37  38
ATOM     38  C   UNL A   1      37.973  29.988  29.679  1.00  0.00     0.031 A 
ATOM     39  C   UNL A   1      38.237  30.527  31.059  1.00  0.00     0.074 A 
ATOM     40  C   UNL A   1      38.878  29.184  29.084  1.00  0.00     0.049 A 
ATOM     41  N   UNL A   1      39.249  30.291  31.853  1.00  0.00    -0.248 NA
ATOM     42  C   UNL A   1      37.248  31.467  31.614  1.00  0.00     0.031 C 
ATOM     43  C   UNL A   1      38.779  28.667  27.717  1.00  0.00     0.029 A 
ATOM     44  N   UNL A   1      40.066  28.675  29.544  1.00  0.00    -0.354 N 
ATOM     45  C   UNL A   1      39.033  31.062  32.989  1.00  0.00     0.074 A 
ATOM     46  C   UNL A   1      37.811  31.805  32.766  1.00  0.00     0.031 C 
ATOM     47  C   UNL A   1      39.855  27.909  27.453  1.00  0.00     0.029 A 
ATOM     48  C   UNL A   1      40.733  27.908  28.618  1.00  0.00     0.049 A 
ATOM     49  H   UNL A   1      40.408  28.844  30.452  1.00  0.00     0.167 HD
ATOM     50  C   UNL A   1      39.762  31.120  34.128  1.00  0.00     0.034 A 
ATOM     51  C   UNL A   1      41.921  27.279  28.695  1.00  0.00     0.034 A 
ATOM     52  C   UNL A   1      40.961  30.357  34.359  1.00  0.00     0.049 A 
ATOM     53  C   UNL A   1      42.693  27.334  29.984  1.00  0.00     0.074 A 
ATOM     54  C   UNL A   1      41.735  30.296  35.505  1.00  0.00     0.029 A 
ATOM     55  N   UNL A   1      41.565  29.527  33.427  1.00  0.00    -0.354 N 
ATOM     56  N   UNL A   1      42.386  27.942  31.106  1.00  0.00    -0.248 NA
ATOM     57  C   UNL A   1      43.956  26.584  30.036  1.00  0.00     0.031 C 
ATOM     58  C   UNL A   1      42.818  29.446  35.259  1.00  0.00     0.029 A 
ATOM     59  C   UNL A   1      42.703  28.954  33.969  1.00  0.00     0.049 A 
ATOM     60  H   UNL A   1      41.232  29.367  32.514  1.00  0.00     0.167 HD
ATOM     61  C   UNL A   1      43.399  27.622  32.001  1.00  0.00     0.074 A 
ATOM     62  C   UNL A   1      44.309  26.737  31.304  1.00  0.00     0.031 C 
ATOM     63  C   UNL A   1      43.574  28.038  33.280  1.00  0.00     0.034 A 
BRANCH  50  64
ATOM     64  C   UNL A   1      39.254  31.991  35.248  1.00  0.00     0.023 A 
ATOM     65  C   UNL A   1      38.344  31.454  36.181  1.00  0.00     0.012 A 
ATOM     66  C   UNL A   1      39.739  33.301  35.432  1.00  0.00     0.148 A 
ATOM     67  C   UNL A   1      37.905  32.212  37.266  1.00  0.00     0.002 A 
ATOM     68  C   UNL A   1      39.330  34.036  36.540  1.00  0.00     0.091 A 
ATOM     69  F   UNL A   1      40.592  33.800  34.526  1.00  0.00    -0.205 F 
ATOM     70  C   UNL A   1      38.407  33.496  37.451  1.00  0.00     0.022 A 
BRANCH  68  71
ATOM     71  S   UNL A   1      39.975  35.670  36.915  1.00  0.00     0.127 S 
ATOM     72  O   UNL A   1      41.402  35.393  37.084  1.00  0.00    -0.237 OA
ATOM     73  O   UNL A   1      39.639  36.417  35.701  1.00  0.00    -0.237 OA
ATOM     74  O   UNL A   1      39.284  36.112  38.116  1.00  0.00    -0.744 OA
ENDBRANCH  68  71
ENDBRANCH  50  64
BRANCH  51  75
ATOM     75  C   UNL A   1      42.437  26.502  27.531  1.00  0.00     0.023 A 
ATOM     76  C   UNL A   1      43.239  27.142  26.566  1.00  0.00     0.012 A 
ATOM     77  C   UNL A   1      42.134  25.135  27.376  1.00  0.00     0.148 A 
ATOM     78  C   UNL A   1      43.692  26.446  25.443  1.00  0.00     0.002 A 
ATOM     79  C   UNL A   1      42.641  24.433  26.287  1.00  0.00     0.091 A 
ATOM     80  F   UNL A   1      41.359  24.546  28.296  1.00  0.00    -0.205 F 
ATOM     81  C   UNL A   1      43.400  25.091  25.309  1.00  0.00     0.022 A 
BRANCH  79  82
ATOM     82  S   UNL A   1      42.427  22.659  26.117  1.00  0.00     0.127 S 
ATOM     83  O   UNL A   1      40.972  22.532  26.097  1.00  0.00    -0.237 OA
ATOM     84  O   UNL A   1      43.085  22.395  24.835  1.00  0.00    -0.237 OA
ATOM     85  O   UNL A   1      43.104  22.073  27.264  1.00  0.00    -0.744 OA
ENDBRANCH  79  82
ENDBRANCH  51  75
BRANCH  63  86
ATOM     86  C   UNL A   1      44.781  27.518  34.018  1.00  0.00     0.023 A 
ATOM     87  C   UNL A   1      45.978  28.263  34.017  1.00  0.00     0.012 A 
ATOM     88  C   UNL A   1      44.717  26.315  34.747  1.00  0.00     0.148 A 
ATOM     89  C   UNL A   1      47.105  27.794  34.690  1.00  0.00     0.002 A 
ATOM     90  C   UNL A   1      45.829  25.881  35.459  1.00  0.00     0.091 A 
ATOM     91  F   UNL A   1      43.576  25.610  34.722  1.00  0.00    -0.205 F 
ATOM     92  C   UNL A   1      47.028  26.610  35.418  1.00  0.00     0.022 A 
BRANCH  90  93
ATOM     93  S   UNL A   1      45.793  24.418  36.500  1.00  0.00     0.127 S 
ATOM     94  O   UNL A   1      47.202  24.026  36.514  1.00  0.00    -0.237 OA
ATOM     95  O   UNL A   1      45.297  24.953  37.770  1.00  0.00    -0.237 OA
ATOM     96  O   UNL A   1      44.888  23.482  35.847  1.00  0.00    -0.744 OA
ENDBRANCH  90  93
ENDBRANCH  63  86
ENDBRANCH  37  38
ENDBRANCH  29  32
ENDBRANCH  27  28
ENDBRANCH  26  27
ENDBRANCH   1  26
TORSDOF 20
ENDMDL
MODEL 3
REMARK VINA RESULT:     -11.4      1.748      8.302
REMARK SMILES CC[C@](O)(C(=O)NCCCCCCNC(=O)c1ccc(-c2c3nc(c(-c4cccc(S(=O)(=O)[O-])c4F)c4ccc([nH]4)c(-c4cccc(S(=O)(=O)[O-])c4F)c4nc(c(-c5cccc(S(=O)(=O)[O-])c5F)c5ccc2[nH]5)C=C4)C=C3)cc1)[C@@H](C)c1ccc2c(c1)OCCO2
REMARK SMILES IDX 11 1 10 2 9 3 8 4 7 5 5 6 6 7 3 9 2 10 1 11 80 12 81 13
REMARK SMILES IDX 82 14 83 15 87 16 84 17 86 18 85 19 88 20 91 21 89 22 90 23
REMARK SMILES IDX 4 24 12 26 13 27 14 28 15 29 16 31 17 32 18 33 79 34 19 35
REMARK SMILES IDX 78 36 20 37 21 38 22 39 72 40 23 41 77 42 71 43 73 44 24 45
REMARK SMILES IDX 76 46 70 47 69 48 25 50 57 51 37 52 56 53 38 54 41 55 55 56
REMARK SMILES IDX 74 57 39 58 40 59 54 61 75 62 42 63 26 64 27 65 35 66 28 67
REMARK SMILES IDX 30 68 36 69 29 70 31 71 32 72 33 73 34 74 58 75 59 76 67 77
REMARK SMILES IDX 60 78 62 79 68 80 61 81 63 82 64 83 65 84 66 85 43 86 44 87
REMARK SMILES IDX 52 88 45 89 47 90 53 91 46 92 48 93 49 94 50 95 51 96
REMARK H PARENT 7 8 4 25 14 30 73 49 41 60
REMARK Flexibility Score: inf
ROOT
ATOM      1  C   UNL A   1      35.326  22.063  26.774  1.00  0.00     0.002 C 
ENDROOT
BRANCH   1   2
ATOM      2  C   UNL A   1      33.995  21.846  27.502  1.00  0.00     0.002 C 
BRANCH   2   3
ATOM      3  C   UNL A   1      33.017  23.016  27.390  1.00  0.00     0.021 C 
BRANCH   3   4
ATOM      4  C   UNL A   1      31.685  22.625  26.759  1.00  0.00     0.116 C 
BRANCH   4   5
ATOM      5  N   UNL A   1      31.846  21.684  25.658  1.00  0.00    -0.354 N 
ATOM      6  C   UNL A   1      32.124  21.921  24.333  1.00  0.00     0.252 C 
ATOM      7  O   UNL A   1      32.312  20.943  23.604  1.00  0.00    -0.272 OA
ATOM      8  H   UNL A   1      31.738  20.736  25.901  1.00  0.00     0.163 HD
BRANCH   6   9
ATOM      9  C   UNL A   1      32.293  23.386  23.835  1.00  0.00     0.149 C 
BRANCH   9  10
ATOM     10  C   UNL A   1      31.123  24.163  24.513  1.00  0.00     0.043 C 
ATOM     11  C   UNL A   1      30.320  25.135  23.664  1.00  0.00     0.007 C 
ENDBRANCH   9  10
BRANCH   9  12
ATOM     12  C   UNL A   1      33.711  23.990  24.164  1.00  0.00     0.058 C 
ATOM     13  C   UNL A   1      34.795  23.669  23.109  1.00  0.00     0.016 C 
BRANCH  12  14
ATOM     14  C   UNL A   1      33.712  25.521  24.276  1.00  0.00    -0.038 A 
ATOM     15  C   UNL A   1      33.640  26.363  23.153  1.00  0.00     0.008 A 
ATOM     16  C   UNL A   1      33.679  26.114  25.545  1.00  0.00     0.054 A 
ATOM     17  C   UNL A   1      33.464  27.747  23.315  1.00  0.00     0.051 A 
ATOM     18  C   UNL A   1      33.555  27.470  25.709  1.00  0.00     0.161 A 
ATOM     19  C   UNL A   1      33.355  28.275  24.599  1.00  0.00     0.161 A 
ATOM     20  O   UNL A   1      33.494  27.907  26.998  1.00  0.00    -0.486 OA
ATOM     21  O   UNL A   1      32.860  29.545  24.782  1.00  0.00    -0.486 OA
ATOM     22  C   UNL A   1      32.590  28.996  27.155  1.00  0.00     0.271 C 
ATOM     23  C   UNL A   1      31.906  29.429  25.859  1.00  0.00     0.271 C 
ENDBRANCH  12  14
ENDBRANCH   9  12
BRANCH   9  24
ATOM     24  O   UNL A   1      32.127  23.312  22.413  1.00  0.00    -0.379 OA
ATOM     25  H   UNL A   1      32.153  24.206  22.038  1.00  0.00     0.212 HD
ENDBRANCH   9  24
ENDBRANCH   6   9
ENDBRANCH   4   5
ENDBRANCH   3   4
ENDBRANCH   2   3
ENDBRANCH   1   2
BRANCH   1  26
ATOM     26  C   UNL A   1      35.597  21.095  25.616  1.00  0.00     0.021 C 
BRANCH  26  27
ATOM     27  C   UNL A   1      36.949  21.282  24.938  1.00  0.00     0.116 C 
BRANCH  27  28
ATOM     28  N   UNL A   1      37.882  20.230  25.308  1.00  0.00    -0.352 N 
ATOM     29  C   UNL A   1      39.168  20.325  25.759  1.00  0.00     0.251 C 
ATOM     30  H   UNL A   1      37.536  19.313  25.221  1.00  0.00     0.163 HD
ATOM     31  O   UNL A   1      39.875  19.312  25.793  1.00  0.00    -0.269 OA
BRANCH  29  32
ATOM     32  C   UNL A   1      39.718  21.624  26.194  1.00  0.00     0.039 A 
ATOM     33  C   UNL A   1      40.880  21.635  26.969  1.00  0.00     0.014 A 
ATOM     34  C   UNL A   1      39.080  22.826  25.869  1.00  0.00     0.014 A 
ATOM     35  C   UNL A   1      41.425  22.852  27.379  1.00  0.00     0.010 A 
ATOM     36  C   UNL A   1      39.667  24.040  26.217  1.00  0.00     0.010 A 
ATOM     37  C   UNL A   1      40.841  24.067  26.982  1.00  0.00    -0.014 A 
BRANCH  37  38
ATOM     38  C   UNL A   1      41.474  25.361  27.341  1.00  0.00     0.031 A 
ATOM     39  C   UNL A   1      40.711  26.407  28.110  1.00  0.00     0.074 A 
ATOM     40  C   UNL A   1      42.732  25.613  26.927  1.00  0.00     0.049 A 
ATOM     41  N   UNL A   1      41.111  27.586  28.511  1.00  0.00    -0.248 NA
ATOM     42  C   UNL A   1      39.313  26.100  28.457  1.00  0.00     0.031 C 
ATOM     43  C   UNL A   1      43.544  24.716  26.100  1.00  0.00     0.029 A 
ATOM     44  N   UNL A   1      43.542  26.701  27.126  1.00  0.00    -0.354 N 
ATOM     45  C   UNL A   1      40.017  28.168  29.140  1.00  0.00     0.074 A 
ATOM     46  C   UNL A   1      38.921  27.228  29.033  1.00  0.00     0.031 C 
ATOM     47  C   UNL A   1      44.737  25.287  25.871  1.00  0.00     0.029 A 
ATOM     48  C   UNL A   1      44.767  26.599  26.508  1.00  0.00     0.049 A 
ATOM     49  H   UNL A   1      43.272  27.483  27.661  1.00  0.00     0.167 HD
ATOM     50  C   UNL A   1      39.939  29.359  29.780  1.00  0.00     0.034 A 
ATOM     51  C   UNL A   1      45.796  27.466  26.455  1.00  0.00     0.034 A 
ATOM     52  C   UNL A   1      41.039  30.279  29.911  1.00  0.00     0.049 A 
ATOM     53  C   UNL A   1      45.692  28.767  27.203  1.00  0.00     0.074 A 
ATOM     54  C   UNL A   1      41.079  31.480  30.598  1.00  0.00     0.029 A 
ATOM     55  N   UNL A   1      42.291  30.105  29.341  1.00  0.00    -0.354 N 
ATOM     56  N   UNL A   1      44.701  29.226  27.928  1.00  0.00    -0.248 NA
ATOM     57  C   UNL A   1      46.864  29.653  27.160  1.00  0.00     0.031 C 
ATOM     58  C   UNL A   1      42.347  32.042  30.424  1.00  0.00     0.029 A 
ATOM     59  C   UNL A   1      43.107  31.178  29.654  1.00  0.00     0.049 A 
ATOM     60  H   UNL A   1      42.559  29.331  28.794  1.00  0.00     0.167 HD
ATOM     61  C   UNL A   1      45.141  30.436  28.452  1.00  0.00     0.074 A 
ATOM     62  C   UNL A   1      46.501  30.620  27.990  1.00  0.00     0.031 C 
ATOM     63  C   UNL A   1      44.475  31.326  29.227  1.00  0.00     0.034 A 
BRANCH  50  64
ATOM     64  C   UNL A   1      38.638  29.716  30.450  1.00  0.00     0.023 A 
ATOM     65  C   UNL A   1      38.371  29.227  31.745  1.00  0.00     0.012 A 
ATOM     66  C   UNL A   1      37.723  30.602  29.845  1.00  0.00     0.148 A 
ATOM     67  C   UNL A   1      37.205  29.591  32.418  1.00  0.00     0.002 A 
ATOM     68  C   UNL A   1      36.585  30.995  30.539  1.00  0.00     0.091 A 
ATOM     69  F   UNL A   1      37.986  31.044  28.607  1.00  0.00    -0.205 F 
ATOM     70  C   UNL A   1      36.320  30.483  31.821  1.00  0.00     0.022 A 
BRANCH  68  71
ATOM     71  S   UNL A   1      35.419  32.200  29.894  1.00  0.00     0.127 S 
ATOM     72  O   UNL A   1      34.839  31.473  28.763  1.00  0.00    -0.237 OA
ATOM     73  O   UNL A   1      34.511  32.383  31.029  1.00  0.00    -0.237 OA
ATOM     74  O   UNL A   1      36.201  33.373  29.541  1.00  0.00    -0.744 OA
ENDBRANCH  68  71
ENDBRANCH  50  64
BRANCH  51  75
ATOM     75  C   UNL A   1      47.035  27.116  25.702  1.00  0.00     0.023 A 
ATOM     76  C   UNL A   1      48.040  26.354  26.330  1.00  0.00     0.012 A 
ATOM     77  C   UNL A   1      47.221  27.535  24.371  1.00  0.00     0.148 A 
ATOM     78  C   UNL A   1      49.228  26.056  25.661  1.00  0.00     0.002 A 
ATOM     79  C   UNL A   1      48.381  27.181  23.690  1.00  0.00     0.091 A 
ATOM     80  F   UNL A   1      46.261  28.270  23.794  1.00  0.00    -0.205 F 
ATOM     81  C   UNL A   1      49.395  26.462  24.340  1.00  0.00     0.022 A 
BRANCH  79  82
ATOM     82  S   UNL A   1      48.609  27.544  21.946  1.00  0.00     0.127 S 
ATOM     83  O   UNL A   1      49.808  28.379  21.969  1.00  0.00    -0.237 OA
ATOM     84  O   UNL A   1      48.801  26.207  21.380  1.00  0.00    -0.237 OA
ATOM     85  O   UNL A   1      47.383  28.200  21.521  1.00  0.00    -0.744 OA
ENDBRANCH  79  82
ENDBRANCH  51  75
BRANCH  63  86
ATOM     86  C   UNL A   1      45.217  32.568  29.650  1.00  0.00     0.023 A 
ATOM     87  C   UNL A   1      45.981  32.558  30.836  1.00  0.00     0.012 A 
ATOM     88  C   UNL A   1      45.192  33.729  28.853  1.00  0.00     0.148 A 
ATOM     89  C   UNL A   1      46.669  33.700  31.244  1.00  0.00     0.002 A 
ATOM     90  C   UNL A   1      45.924  34.846  29.241  1.00  0.00     0.091 A 
ATOM     91  F   UNL A   1      44.447  33.726  27.739  1.00  0.00    -0.205 F 
ATOM     92  C   UNL A   1      46.649  34.838  30.443  1.00  0.00     0.022 A 
BRANCH  90  93
ATOM     93  S   UNL A   1      46.034  36.323  28.225  1.00  0.00     0.127 S 
ATOM     94  O   UNL A   1      44.692  36.884  28.369  1.00  0.00    -0.237 OA
ATOM     95  O   UNL A   1      47.088  37.084  28.897  1.00  0.00    -0.237 OA
ATOM     96  O   UNL A   1      46.382  35.864  26.887  1.00  0.00    -0.744 OA
ENDBRANCH  90  93
ENDBRANCH  63  86
ENDBRANCH  37  38
ENDBRANCH  29  32
ENDBRANCH  27  28
ENDBRANCH  26  27
ENDBRANCH   1  26
TORSDOF 20
ENDMDL
