MODEL 1
REMARK VINA RESULT:      -9.2      0.000      0.000
REMARK SMILES COc1ccccc1C(=O)N/C(=C/c1ccc2c(c1)OCO2)C(=O)Nc1ccc(C(=O)NCCCCCCNC(=O)c2ccc(-c3c4nc(c(-c5cccc(S(=O)(=O)[O-])c5F)c5ccc([nH]5)c(-c5cccc(S(=O)(=O)[O-])c5F)c5nc(c(-c6cccc(S(=O)(=O)[O-])c6F)c6ccc3[nH]6)C=C5)C=C4)cc2)cc1
REMARK SMILES IDX 34 1 33 2 32 3 30 4 31 5 29 7 26 8 27 9 106 10 28 11 105 12
REMARK SMILES IDX 25 13 23 14 24 15 12 17 13 18 11 19 9 20 10 21 8 23 3 24
REMARK SMILES IDX 4 25 5 26 7 27 6 28 2 29 1 30 14 31 15 32 19 33 16 34 18 35
REMARK SMILES IDX 17 36 20 37 22 38 21 39 35 40 36 41 37 42 38 43 39 44 40 45
REMARK SMILES IDX 41 47 42 48 43 49 104 50 44 51 103 52 45 53 46 54 47 55
REMARK SMILES IDX 97 56 48 57 102 58 96 59 98 60 49 61 101 62 95 63 94 64
REMARK SMILES IDX 50 66 82 67 62 68 81 69 63 70 66 71 80 72 99 73 64 74 65 75
REMARK SMILES IDX 79 77 100 78 67 79 51 80 52 81 60 82 53 83 55 84 61 85 54 86
REMARK SMILES IDX 56 87 57 88 58 89 59 90 83 91 84 92 92 93 85 94 87 95 93 96
REMARK SMILES IDX 86 97 88 98 89 99 90 100 91 101 68 102 69 103 77 104 70 105
REMARK SMILES IDX 72 106 78 107 71 108 73 109 74 110 75 111 76 112
REMARK H PARENT 32 6 25 16 11 22 39 46 98 65 66 76
REMARK Flexibility Score: inf
ROOT
ATOM      1  C   UNL A   1      50.555  26.665  32.389  1.00  0.00     0.021 C 
ENDROOT
BRANCH   1   2
ATOM      2  C   UNL A   1      50.676  27.059  30.919  1.00  0.00     0.116 C 
BRANCH   2   3
ATOM      3  N   UNL A   1      50.208  25.974  30.085  1.00  0.00    -0.352 N 
ATOM      4  C   UNL A   1      49.104  25.906  29.287  1.00  0.00     0.251 C 
ATOM      5  O   UNL A   1      48.860  24.889  28.647  1.00  0.00    -0.269 OA
ATOM      6  H   UNL A   1      50.770  25.165  30.094  1.00  0.00     0.163 HD
BRANCH   4   7
ATOM      7  C   UNL A   1      48.256  27.085  29.100  1.00  0.00     0.039 A 
ATOM      8  C   UNL A   1      45.828  29.881  28.716  1.00  0.00     0.041 A 
ATOM      9  C   UNL A   1      46.110  29.224  30.333  1.00  0.00     0.027 A 
ATOM     10  C   UNL A   1      46.768  29.245  27.371  1.00  0.00     0.027 A 
ATOM     11  C   UNL A   1      47.380  27.662  30.558  1.00  0.00     0.016 A 
ATOM     12  C   UNL A   1      47.941  27.905  27.560  1.00  0.00     0.016 A 
BRANCH   8  13
ATOM     13  N   UNL A   1      44.476  30.221  28.534  1.00  0.00    -0.321 N 
ATOM     14  C   UNL A   1      44.065  30.947  27.420  1.00  0.00     0.272 C 
ATOM     15  O   UNL A   1      43.312  30.456  26.578  1.00  0.00    -0.267 OA
ATOM     16  H   UNL A   1      43.810  29.943  29.204  1.00  0.00     0.170 HD
BRANCH  14  17
ATOM     17  C   UNL A   1      44.414  32.451  27.348  1.00  0.00     0.108 C 
ATOM     18  C   UNL A   1      44.567  33.299  28.407  1.00  0.00     0.040 C 
BRANCH  17  19
ATOM     19  N   UNL A   1      44.654  33.005  26.095  1.00  0.00    -0.317 N 
ATOM     20  C   UNL A   1      44.619  34.267  25.542  1.00  0.00     0.259 C 
ATOM     21  O   UNL A   1      44.859  34.359  24.334  1.00  0.00    -0.269 OA
ATOM     22  H   UNL A   1      44.914  32.322  25.435  1.00  0.00     0.170 HD
BRANCH  20  23
ATOM     23  C   UNL A   1      44.255  35.510  26.248  1.00  0.00     0.082 A 
ATOM     24  C   UNL A   1      45.138  36.442  26.806  1.00  0.00     0.131 A 
ATOM     25  C   UNL A   1      44.614  37.484  27.589  1.00  0.00     0.047 A 
ATOM     26  C   UNL A   1      43.237  37.685  27.701  1.00  0.00     0.004 A 
ATOM     27  C   UNL A   1      42.869  35.764  26.302  1.00  0.00     0.018 A 
ATOM     28  C   UNL A   1      42.364  36.850  27.016  1.00  0.00     0.001 A 
BRANCH  24  29
ATOM     29  O   UNL A   1      46.504  36.465  26.752  1.00  0.00    -0.496 OA
ATOM     30  C   UNL A   1      47.153  37.710  26.978  1.00  0.00     0.278 C 
ENDBRANCH  24  29
ENDBRANCH  20  23
ENDBRANCH  17  19
BRANCH  18  31
ATOM     31  C   UNL A   1      44.216  33.008  29.819  1.00  0.00    -0.019 A 
ATOM     32  C   UNL A   1      45.723  32.940  30.796  1.00  0.00     0.012 A 
ATOM     33  C   UNL A   1      42.759  33.688  30.572  1.00  0.00     0.058 A 
ATOM     34  C   UNL A   1      45.714  33.782  32.642  1.00  0.00     0.051 A 
ATOM     35  C   UNL A   1      42.777  34.368  32.212  1.00  0.00     0.166 A 
ATOM     36  C   UNL A   1      44.165  34.441  33.233  1.00  0.00     0.165 A 
ATOM     37  O   UNL A   1      41.926  35.344  32.673  1.00  0.00    -0.454 OA
ATOM     38  O   UNL A   1      43.969  35.420  34.154  1.00  0.00    -0.454 OA
ATOM     39  C   UNL A   1      42.818  36.106  33.561  1.00  0.00     0.468 C 
ENDBRANCH  18  31
ENDBRANCH  14  17
ENDBRANCH   8  13
ENDBRANCH   4   7
ENDBRANCH   2   3
ENDBRANCH   1   2
BRANCH   1  40
ATOM     40  C   UNL A   1      51.189  25.305  32.703  1.00  0.00     0.002 C 
BRANCH  40  41
ATOM     41  C   UNL A   1      50.236  24.293  33.345  1.00  0.00     0.002 C 
BRANCH  41  42
ATOM     42  C   UNL A   1      48.930  24.895  33.866  1.00  0.00     0.021 C 
BRANCH  42  43
ATOM     43  C   UNL A   1      48.016  23.893  34.563  1.00  0.00     0.116 C 
BRANCH  43  44
ATOM     44  N   UNL A   1      47.823  24.239  35.962  1.00  0.00    -0.352 N 
ATOM     45  C   UNL A   1      47.057  25.238  36.500  1.00  0.00     0.251 C 
ATOM     46  H   UNL A   1      48.309  23.680  36.609  1.00  0.00     0.163 HD
ATOM     47  O   UNL A   1      47.215  25.572  37.670  1.00  0.00    -0.269 OA
BRANCH  45  48
ATOM     48  C   UNL A   1      46.042  25.906  35.662  1.00  0.00     0.039 A 
ATOM     49  C   UNL A   1      44.791  25.309  35.511  1.00  0.00     0.014 A 
ATOM     50  C   UNL A   1      46.338  27.109  35.012  1.00  0.00     0.014 A 
ATOM     51  C   UNL A   1      43.823  25.935  34.725  1.00  0.00     0.010 A 
ATOM     52  C   UNL A   1      45.347  27.769  34.292  1.00  0.00     0.010 A 
ATOM     53  C   UNL A   1      44.089  27.177  34.123  1.00  0.00    -0.014 A 
BRANCH  53  54
ATOM     54  C   UNL A   1      43.050  27.857  33.312  1.00  0.00     0.031 A 
ATOM     55  C   UNL A   1      42.905  27.556  31.846  1.00  0.00     0.074 A 
ATOM     56  C   UNL A   1      42.268  28.786  33.895  1.00  0.00     0.049 A 
ATOM     57  N   UNL A   1      42.025  28.019  30.997  1.00  0.00    -0.248 NA
ATOM     58  C   UNL A   1      43.889  26.640  31.248  1.00  0.00     0.031 C 
ATOM     59  C   UNL A   1      42.385  29.238  35.284  1.00  0.00     0.029 A 
ATOM     60  N   UNL A   1      41.230  29.526  33.391  1.00  0.00    -0.354 N 
ATOM     61  C   UNL A   1      42.364  27.476  29.764  1.00  0.00     0.074 A 
ATOM     62  C   UNL A   1      43.555  26.681  29.965  1.00  0.00     0.031 C 
ATOM     63  C   UNL A   1      41.444  30.163  35.526  1.00  0.00     0.029 A 
ATOM     64  C   UNL A   1      40.670  30.383  34.309  1.00  0.00     0.049 A 
ATOM     65  H   UNL A   1      40.916  29.450  32.462  1.00  0.00     0.167 HD
ATOM     66  C   UNL A   1      41.723  27.599  28.577  1.00  0.00     0.034 A 
ATOM     67  C   UNL A   1      39.640  31.243  34.184  1.00  0.00     0.034 A 
ATOM     68  C   UNL A   1      40.514  28.356  28.395  1.00  0.00     0.049 A 
ATOM     69  C   UNL A   1      38.899  31.303  32.878  1.00  0.00     0.074 A 
ATOM     70  C   UNL A   1      39.728  28.465  27.261  1.00  0.00     0.029 A 
ATOM     71  N   UNL A   1      39.919  29.144  29.369  1.00  0.00    -0.354 N 
ATOM     72  N   UNL A   1      39.124  30.638  31.770  1.00  0.00    -0.248 NA
ATOM     73  C   UNL A   1      37.735  32.198  32.817  1.00  0.00     0.031 C 
ATOM     74  C   UNL A   1      38.673  29.339  27.543  1.00  0.00     0.029 A 
ATOM     75  C   UNL A   1      38.785  29.752  28.861  1.00  0.00     0.049 A 
ATOM     76  H   UNL A   1      40.256  29.254  30.287  1.00  0.00     0.167 HD
ATOM     77  C   UNL A   1      38.116  31.012  30.890  1.00  0.00     0.074 A 
ATOM     78  C   UNL A   1      37.260  31.937  31.607  1.00  0.00     0.031 C 
ATOM     79  C   UNL A   1      37.923  30.641  29.599  1.00  0.00     0.034 A 
BRANCH  66  80
ATOM     80  C   UNL A   1      42.286  26.852  27.395  1.00  0.00     0.023 A 
ATOM     81  C   UNL A   1      43.066  27.541  26.442  1.00  0.00     0.012 A 
ATOM     82  C   UNL A   1      42.092  25.464  27.252  1.00  0.00     0.148 A 
ATOM     83  C   UNL A   1      43.610  26.871  25.348  1.00  0.00     0.002 A 
ATOM     84  C   UNL A   1      42.677  24.794  26.183  1.00  0.00     0.091 A 
ATOM     85  F   UNL A   1      41.329  24.829  28.153  1.00  0.00    -0.205 F 
ATOM     86  C   UNL A   1      43.425  25.496  25.224  1.00  0.00     0.022 A 
BRANCH  84  87
ATOM     87  S   UNL A   1      42.563  23.013  25.978  1.00  0.00     0.127 S 
ATOM     88  O   UNL A   1      43.435  22.536  27.050  1.00  0.00    -0.237 OA
ATOM     89  O   UNL A   1      41.136  22.769  26.198  1.00  0.00    -0.237 OA
ATOM     90  O   UNL A   1      43.024  22.734  24.625  1.00  0.00    -0.744 OA
ENDBRANCH  84  87
ENDBRANCH  66  80
BRANCH  67  91
ATOM     91  C   UNL A   1      39.206  32.052  35.357  1.00  0.00     0.023 A 
ATOM     92  C   UNL A   1      38.276  31.513  36.267  1.00  0.00     0.012 A 
ATOM     93  C   UNL A   1      39.741  33.331  35.599  1.00  0.00     0.148 A 
ATOM     94  C   UNL A   1      37.860  32.247  37.378  1.00  0.00     0.002 A 
ATOM     95  C   UNL A   1      39.369  34.033  36.739  1.00  0.00     0.091 A 
ATOM     96  F   UNL A   1      40.618  33.830  34.716  1.00  0.00    -0.205 F 
ATOM     97  C   UNL A   1      38.416  33.501  37.621  1.00  0.00     0.022 A 
BRANCH  95  98
ATOM     98  S   UNL A   1      40.140  35.587  37.203  1.00  0.00     0.127 S 
ATOM     99  O   UNL A   1      40.046  36.350  35.963  1.00  0.00    -0.237 OA
ATOM    100  O   UNL A   1      39.264  36.049  38.281  1.00  0.00    -0.237 OA
ATOM    101  O   UNL A   1      41.488  35.241  37.636  1.00  0.00    -0.744 OA
ENDBRANCH  95  98
ENDBRANCH  67  91
BRANCH  79 102
ATOM    102  C   UNL A   1      36.733  31.224  28.884  1.00  0.00     0.023 A 
ATOM    103  C   UNL A   1      36.695  32.604  28.598  1.00  0.00     0.012 A 
ATOM    104  C   UNL A   1      35.672  30.401  28.457  1.00  0.00     0.148 A 
ATOM    105  C   UNL A   1      35.600  33.162  27.941  1.00  0.00     0.002 A 
ATOM    106  C   UNL A   1      34.609  30.956  27.756  1.00  0.00     0.091 A 
ATOM    107  F   UNL A   1      35.714  29.093  28.754  1.00  0.00    -0.205 F 
ATOM    108  C   UNL A   1      34.563  32.338  27.511  1.00  0.00     0.022 A 
BRANCH 106 109
ATOM    109  S   UNL A   1      33.280  29.953  27.082  1.00  0.00     0.127 S 
ATOM    110  O   UNL A   1      32.143  30.867  27.167  1.00  0.00    -0.237 OA
ATOM    111  O   UNL A   1      33.750  29.687  25.720  1.00  0.00    -0.237 OA
ATOM    112  O   UNL A   1      33.204  28.772  27.932  1.00  0.00    -0.744 OA
ENDBRANCH 106 109
ENDBRANCH  79 102
ENDBRANCH  53  54
ENDBRANCH  45  48
ENDBRANCH  43  44
ENDBRANCH  42  43
ENDBRANCH  41  42
ENDBRANCH  40  41
ENDBRANCH   1  40
TORSDOF 22
ENDMDL
MODEL 2
REMARK VINA RESULT:      -9.1      4.881     11.020
REMARK SMILES COc1ccccc1C(=O)N/C(=C/c1ccc2c(c1)OCO2)C(=O)Nc1ccc(C(=O)NCCCCCCNC(=O)c2ccc(-c3c4nc(c(-c5cccc(S(=O)(=O)[O-])c5F)c5ccc([nH]5)c(-c5cccc(S(=O)(=O)[O-])c5F)c5nc(c(-c6cccc(S(=O)(=O)[O-])c6F)c6ccc3[nH]6)C=C5)C=C4)cc2)cc1
REMARK SMILES IDX 34 1 33 2 32 3 30 4 31 5 29 7 26 8 27 9 106 10 28 11 105 12
REMARK SMILES IDX 25 13 23 14 24 15 12 17 13 18 11 19 9 20 10 21 8 23 3 24
REMARK SMILES IDX 4 25 5 26 7 27 6 28 2 29 1 30 14 31 15 32 19 33 16 34 18 35
REMARK SMILES IDX 17 36 20 37 22 38 21 39 35 40 36 41 37 42 38 43 39 44 40 45
REMARK SMILES IDX 41 47 42 48 43 49 104 50 44 51 103 52 45 53 46 54 47 55
REMARK SMILES IDX 97 56 48 57 102 58 96 59 98 60 49 61 101 62 95 63 94 64
REMARK SMILES IDX 50 66 82 67 62 68 81 69 63 70 66 71 80 72 99 73 64 74 65 75
REMARK SMILES IDX 79 77 100 78 67 79 51 80 52 81 60 82 53 83 55 84 61 85 54 86
REMARK SMILES IDX 56 87 57 88 58 89 59 90 83 91 84 92 92 93 85 94 87 95 93 96
REMARK SMILES IDX 86 97 88 98 89 99 90 100 91 101 68 102 69 103 77 104 70 105
REMARK SMILES IDX 72 106 78 107 71 108 73 109 74 110 75 111 76 112
REMARK H PARENT 32 6 25 16 11 22 39 46 98 65 66 76
REMARK Flexibility Score: inf
ROOT
ATOM      1  C   UNL A   1      49.858  24.924  32.547  1.00  0.00     0.021 C 
ENDROOT
BRANCH   1   2
ATOM      2  C   UNL A   1      51.135  24.842  33.380  1.00  0.00     0.116 C 
BRANCH   2   3
ATOM      3  N   UNL A   1      52.029  23.862  32.803  1.00  0.00    -0.352 N 
ATOM      4  C   UNL A   1      52.275  22.577  33.188  1.00  0.00     0.251 C 
ATOM      5  O   UNL A   1      53.080  21.886  32.574  1.00  0.00    -0.269 OA
ATOM      6  H   UNL A   1      52.535  24.168  32.015  1.00  0.00     0.163 HD
BRANCH   4   7
ATOM      7  C   UNL A   1      51.499  21.972  34.272  1.00  0.00     0.039 A 
ATOM      8  C   UNL A   1      49.244  20.590  36.894  1.00  0.00     0.041 A 
ATOM      9  C   UNL A   1      49.026  20.052  35.224  1.00  0.00     0.027 A 
ATOM     10  C   UNL A   1      50.570  21.688  37.260  1.00  0.00     0.027 A 
ATOM     11  C   UNL A   1      50.200  20.836  33.771  1.00  0.00     0.016 A 
ATOM     12  C   UNL A   1      51.657  22.346  35.999  1.00  0.00     0.016 A 
BRANCH   8  13
ATOM     13  N   UNL A   1      48.007  20.733  37.547  1.00  0.00    -0.321 N 
ATOM     14  C   UNL A   1      47.877  20.442  38.902  1.00  0.00     0.272 C 
ATOM     15  O   UNL A   1      47.600  21.318  39.722  1.00  0.00    -0.267 OA
ATOM     16  H   UNL A   1      47.222  21.043  37.040  1.00  0.00     0.170 HD
BRANCH  14  17
ATOM     17  C   UNL A   1      47.898  18.961  39.345  1.00  0.00     0.108 C 
ATOM     18  C   UNL A   1      48.875  18.346  40.074  1.00  0.00     0.040 C 
BRANCH  17  19
ATOM     19  N   UNL A   1      46.799  18.170  39.026  1.00  0.00    -0.317 N 
ATOM     20  C   UNL A   1      45.848  17.459  39.725  1.00  0.00     0.259 C 
ATOM     21  O   UNL A   1      45.026  16.818  39.066  1.00  0.00    -0.269 OA
ATOM     22  H   UNL A   1      46.667  18.101  38.053  1.00  0.00     0.170 HD
BRANCH  20  23
ATOM     23  C   UNL A   1      45.764  17.341  41.194  1.00  0.00     0.082 A 
ATOM     24  C   UNL A   1      45.095  18.208  42.064  1.00  0.00     0.131 A 
ATOM     25  C   UNL A   1      45.261  18.037  43.449  1.00  0.00     0.047 A 
ATOM     26  C   UNL A   1      45.958  16.944  43.966  1.00  0.00     0.004 A 
ATOM     27  C   UNL A   1      46.401  16.199  41.723  1.00  0.00     0.018 A 
ATOM     28  C   UNL A   1      46.489  15.997  43.100  1.00  0.00     0.001 A 
BRANCH  24  29
ATOM     29  O   UNL A   1      44.310  19.287  41.761  1.00  0.00    -0.496 OA
ATOM     30  C   UNL A   1      44.331  20.391  42.657  1.00  0.00     0.278 C 
ENDBRANCH  24  29
ENDBRANCH  20  23
ENDBRANCH  17  19
BRANCH  18  31
ATOM     31  C   UNL A   1      50.209  18.910  40.400  1.00  0.00    -0.019 A 
ATOM     32  C   UNL A   1      50.047  20.032  41.794  1.00  0.00     0.012 A 
ATOM     33  C   UNL A   1      51.685  17.930  40.279  1.00  0.00     0.058 A 
ATOM     34  C   UNL A   1      51.483  20.002  43.228  1.00  0.00     0.051 A 
ATOM     35  C   UNL A   1      52.946  17.970  41.528  1.00  0.00     0.166 A 
ATOM     36  C   UNL A   1      52.888  18.937  42.955  1.00  0.00     0.165 A 
ATOM     37  O   UNL A   1      53.810  16.940  41.814  1.00  0.00    -0.454 OA
ATOM     38  O   UNL A   1      53.709  18.381  43.883  1.00  0.00    -0.454 OA
ATOM     39  C   UNL A   1      53.938  17.069  43.274  1.00  0.00     0.468 C 
ENDBRANCH  18  31
ENDBRANCH  14  17
ENDBRANCH   8  13
ENDBRANCH   4   7
ENDBRANCH   2   3
ENDBRANCH   1   2
BRANCH   1  40
ATOM     40  C   UNL A   1      48.629  25.330  33.367  1.00  0.00     0.002 C 
BRANCH  40  41
ATOM     41  C   UNL A   1      47.896  24.163  34.033  1.00  0.00     0.002 C 
BRANCH  41  42
ATOM     42  C   UNL A   1      48.247  23.953  35.508  1.00  0.00     0.021 C 
BRANCH  42  43
ATOM     43  C   UNL A   1      49.087  25.072  36.113  1.00  0.00     0.116 C 
BRANCH  43  44
ATOM     44  N   UNL A   1      48.697  25.341  37.488  1.00  0.00    -0.352 N 
ATOM     45  C   UNL A   1      47.709  26.166  37.953  1.00  0.00     0.251 C 
ATOM     46  H   UNL A   1      49.213  24.864  38.177  1.00  0.00     0.163 HD
ATOM     47  O   UNL A   1      47.686  26.493  39.136  1.00  0.00    -0.269 OA
BRANCH  45  48
ATOM     48  C   UNL A   1      46.674  26.656  37.022  1.00  0.00     0.039 A 
ATOM     49  C   UNL A   1      45.465  25.967  36.930  1.00  0.00     0.014 A 
ATOM     50  C   UNL A   1      46.910  27.783  36.227  1.00  0.00     0.014 A 
ATOM     51  C   UNL A   1      44.480  26.424  36.056  1.00  0.00     0.010 A 
ATOM     52  C   UNL A   1      45.898  28.282  35.414  1.00  0.00     0.010 A 
ATOM     53  C   UNL A   1      44.682  27.594  35.304  1.00  0.00    -0.014 A 
BRANCH  53  54
ATOM     54  C   UNL A   1      43.623  28.098  34.397  1.00  0.00     0.031 A 
ATOM     55  C   UNL A   1      43.552  27.633  32.969  1.00  0.00     0.074 A 
ATOM     56  C   UNL A   1      42.751  29.018  34.855  1.00  0.00     0.049 A 
ATOM     57  N   UNL A   1      42.669  27.930  32.052  1.00  0.00    -0.248 NA
ATOM     58  C   UNL A   1      44.624  26.741  32.499  1.00  0.00     0.031 C 
ATOM     59  C   UNL A   1      42.785  29.622  36.190  1.00  0.00     0.029 A 
ATOM     60  N   UNL A   1      41.677  29.613  34.247  1.00  0.00    -0.354 N 
ATOM     61  C   UNL A   1      43.091  27.289  30.894  1.00  0.00     0.074 A 
ATOM     62  C   UNL A   1      44.333  26.619  31.212  1.00  0.00     0.031 C 
ATOM     63  C   UNL A   1      41.767  30.488  36.305  1.00  0.00     0.029 A 
ATOM     64  C   UNL A   1      41.021  30.515  35.051  1.00  0.00     0.049 A 
ATOM     65  H   UNL A   1      41.401  29.414  33.324  1.00  0.00     0.167 HD
ATOM     66  C   UNL A   1      42.484  27.233  29.685  1.00  0.00     0.034 A 
ATOM     67  C   UNL A   1      39.932  31.271  34.807  1.00  0.00     0.034 A 
ATOM     68  C   UNL A   1      41.227  27.867  29.390  1.00  0.00     0.049 A 
ATOM     69  C   UNL A   1      39.234  31.132  33.483  1.00  0.00     0.074 A 
ATOM     70  C   UNL A   1      40.475  27.791  28.231  1.00  0.00     0.029 A 
ATOM     71  N   UNL A   1      40.540  28.702  30.257  1.00  0.00    -0.354 N 
ATOM     72  N   UNL A   1      39.548  30.374  32.461  1.00  0.00    -0.248 NA
ATOM     73  C   UNL A   1      38.007  31.918  33.296  1.00  0.00     0.031 C 
ATOM     74  C   UNL A   1      39.346  28.601  28.389  1.00  0.00     0.029 A 
ATOM     75  C   UNL A   1      39.380  29.159  29.657  1.00  0.00     0.049 A 
ATOM     76  H   UNL A   1      40.834  28.936  31.167  1.00  0.00     0.167 HD
ATOM     77  C   UNL A   1      38.545  30.570  31.519  1.00  0.00     0.074 A 
ATOM     78  C   UNL A   1      37.596  31.492  32.109  1.00  0.00     0.031 C 
ATOM     79  C   UNL A   1      38.427  30.049  30.271  1.00  0.00     0.034 A 
BRANCH  66  80
ATOM     80  C   UNL A   1      43.145  26.413  28.606  1.00  0.00     0.023 A 
ATOM     81  C   UNL A   1      42.753  25.071  28.413  1.00  0.00     0.012 A 
ATOM     82  C   UNL A   1      44.111  26.978  27.752  1.00  0.00     0.148 A 
ATOM     83  C   UNL A   1      43.338  24.295  27.413  1.00  0.00     0.002 A 
ATOM     84  C   UNL A   1      44.656  26.212  26.727  1.00  0.00     0.091 A 
ATOM     85  F   UNL A   1      44.489  28.247  27.964  1.00  0.00    -0.205 F 
ATOM     86  C   UNL A   1      44.281  24.868  26.564  1.00  0.00     0.022 A 
BRANCH  84  87
ATOM     87  S   UNL A   1      45.820  26.879  25.533  1.00  0.00     0.127 S 
ATOM     88  O   UNL A   1      45.024  27.933  24.904  1.00  0.00    -0.237 OA
ATOM     89  O   UNL A   1      46.901  27.363  26.393  1.00  0.00    -0.237 OA
ATOM     90  O   UNL A   1      46.186  25.770  24.664  1.00  0.00    -0.744 OA
ENDBRANCH  84  87
ENDBRANCH  66  80
BRANCH  67  91
ATOM     91  C   UNL A   1      39.396  32.161  35.874  1.00  0.00     0.023 A 
ATOM     92  C   UNL A   1      38.445  31.661  36.784  1.00  0.00     0.012 A 
ATOM     93  C   UNL A   1      39.854  33.485  36.018  1.00  0.00     0.148 A 
ATOM     94  C   UNL A   1      37.935  32.473  37.798  1.00  0.00     0.002 A 
ATOM     95  C   UNL A   1      39.387  34.269  37.065  1.00  0.00     0.091 A 
ATOM     96  F   UNL A   1      40.752  33.945  35.134  1.00  0.00    -0.205 F 
ATOM     97  C   UNL A   1      38.414  33.772  37.946  1.00  0.00     0.022 A 
BRANCH  95  98
ATOM     98  S   UNL A   1      40.055  35.900  37.414  1.00  0.00     0.127 S 
ATOM     99  O   UNL A   1      41.462  35.600  37.659  1.00  0.00    -0.237 OA
ATOM    100  O   UNL A   1      39.783  36.612  36.165  1.00  0.00    -0.237 OA
ATOM    101  O   UNL A   1      39.302  36.393  38.559  1.00  0.00    -0.744 OA
ENDBRANCH  95  98
ENDBRANCH  67  91
BRANCH  79 102
ATOM    102  C   UNL A   1      37.220  30.454  29.467  1.00  0.00     0.023 A 
ATOM    103  C   UNL A   1      36.415  29.465  28.865  1.00  0.00     0.012 A 
ATOM    104  C   UNL A   1      36.857  31.810  29.342  1.00  0.00     0.148 A 
ATOM    105  C   UNL A   1      35.296  29.822  28.114  1.00  0.00     0.002 A 
ATOM    106  C   UNL A   1      35.711  32.154  28.635  1.00  0.00     0.091 A 
ATOM    107  F   UNL A   1      37.644  32.739  29.904  1.00  0.00    -0.205 F 
ATOM    108  C   UNL A   1      34.939  31.164  28.008  1.00  0.00     0.022 A 
BRANCH 106 109
ATOM    109  S   UNL A   1      35.125  33.849  28.532  1.00  0.00     0.127 S 
ATOM    110  O   UNL A   1      34.724  33.941  27.130  1.00  0.00    -0.237 OA
ATOM    111  O   UNL A   1      34.013  33.854  29.486  1.00  0.00    -0.237 OA
ATOM    112  O   UNL A   1      36.253  34.683  28.921  1.00  0.00    -0.744 OA
ENDBRANCH 106 109
ENDBRANCH  79 102
ENDBRANCH  53  54
ENDBRANCH  45  48
ENDBRANCH  43  44
ENDBRANCH  42  43
ENDBRANCH  41  42
ENDBRANCH  40  41
ENDBRANCH   1  40
TORSDOF 22
ENDMDL
MODEL 3
REMARK VINA RESULT:      -8.9      4.048     12.514
REMARK SMILES COc1ccccc1C(=O)N/C(=C/c1ccc2c(c1)OCO2)C(=O)Nc1ccc(C(=O)NCCCCCCNC(=O)c2ccc(-c3c4nc(c(-c5cccc(S(=O)(=O)[O-])c5F)c5ccc([nH]5)c(-c5cccc(S(=O)(=O)[O-])c5F)c5nc(c(-c6cccc(S(=O)(=O)[O-])c6F)c6ccc3[nH]6)C=C5)C=C4)cc2)cc1
REMARK SMILES IDX 34 1 33 2 32 3 30 4 31 5 29 7 26 8 27 9 106 10 28 11 105 12
REMARK SMILES IDX 25 13 23 14 24 15 12 17 13 18 11 19 9 20 10 21 8 23 3 24
REMARK SMILES IDX 4 25 5 26 7 27 6 28 2 29 1 30 14 31 15 32 19 33 16 34 18 35
REMARK SMILES IDX 17 36 20 37 22 38 21 39 35 40 36 41 37 42 38 43 39 44 40 45
REMARK SMILES IDX 41 47 42 48 43 49 104 50 44 51 103 52 45 53 46 54 47 55
REMARK SMILES IDX 97 56 48 57 102 58 96 59 98 60 49 61 101 62 95 63 94 64
REMARK SMILES IDX 50 66 82 67 62 68 81 69 63 70 66 71 80 72 99 73 64 74 65 75
REMARK SMILES IDX 79 77 100 78 67 79 51 80 52 81 60 82 53 83 55 84 61 85 54 86
REMARK SMILES IDX 56 87 57 88 58 89 59 90 83 91 84 92 92 93 85 94 87 95 93 96
REMARK SMILES IDX 86 97 88 98 89 99 90 100 91 101 68 102 69 103 77 104 70 105
REMARK SMILES IDX 72 106 78 107 71 108 73 109 74 110 75 111 76 112
REMARK H PARENT 32 6 25 16 11 22 39 46 98 65 66 76
REMARK Flexibility Score: inf
ROOT
ATOM      1  C   UNL A   1      36.131  32.093  33.218  1.00  0.00     0.021 C 
ENDROOT
BRANCH   1   2
ATOM      2  C   UNL A   1      36.305  33.317  32.322  1.00  0.00     0.116 C 
BRANCH   2   3
ATOM      3  N   UNL A   1      35.367  33.251  31.224  1.00  0.00    -0.352 N 
ATOM      4  C   UNL A   1      35.490  32.642  30.010  1.00  0.00     0.251 C 
ATOM      5  O   UNL A   1      34.580  32.696  29.190  1.00  0.00    -0.269 OA
ATOM      6  H   UNL A   1      34.510  33.715  31.375  1.00  0.00     0.163 HD
BRANCH   4   7
ATOM      7  C   UNL A   1      36.667  31.823  29.713  1.00  0.00     0.039 A 
ATOM      8  C   UNL A   1      39.541  29.513  29.194  1.00  0.00     0.041 A 
ATOM      9  C   UNL A   1      37.927  28.974  28.713  1.00  0.00     0.027 A 
ATOM     10  C   UNL A   1      39.733  31.147  29.817  1.00  0.00     0.027 A 
ATOM     11  C   UNL A   1      36.340  30.189  29.042  1.00  0.00     0.016 A 
ATOM     12  C   UNL A   1      38.351  32.259  30.059  1.00  0.00     0.016 A 
BRANCH   8  13
ATOM     13  N   UNL A   1      40.287  28.455  29.742  1.00  0.00    -0.321 N 
ATOM     14  C   UNL A   1      41.655  28.350  29.510  1.00  0.00     0.272 C 
ATOM     15  O   UNL A   1      42.471  28.452  30.427  1.00  0.00    -0.267 OA
ATOM     16  H   UNL A   1      39.836  27.779  30.298  1.00  0.00     0.170 HD
BRANCH  14  17
ATOM     17  C   UNL A   1      42.135  27.912  28.107  1.00  0.00     0.108 C 
ATOM     18  C   UNL A   1      43.238  28.372  27.446  1.00  0.00     0.040 C 
BRANCH  17  19
ATOM     19  N   UNL A   1      41.418  26.914  27.456  1.00  0.00    -0.317 N 
ATOM     20  C   UNL A   1      41.567  25.561  27.240  1.00  0.00     0.259 C 
ATOM     21  O   UNL A   1      40.711  25.003  26.547  1.00  0.00    -0.269 OA
ATOM     22  H   UNL A   1      40.594  27.262  27.044  1.00  0.00     0.170 HD
BRANCH  20  23
ATOM     23  C   UNL A   1      42.693  24.730  27.707  1.00  0.00     0.082 A 
ATOM     24  C   UNL A   1      43.726  24.207  26.922  1.00  0.00     0.131 A 
ATOM     25  C   UNL A   1      44.623  23.297  27.506  1.00  0.00     0.047 A 
ATOM     26  C   UNL A   1      44.588  23.019  28.873  1.00  0.00     0.004 A 
ATOM     27  C   UNL A   1      42.711  24.504  29.099  1.00  0.00     0.018 A 
ATOM     28  C   UNL A   1      43.659  23.662  29.680  1.00  0.00     0.001 A 
BRANCH  24  29
ATOM     29  O   UNL A   1      43.977  24.409  25.593  1.00  0.00    -0.496 OA
ATOM     30  C   UNL A   1      43.589  23.386  24.684  1.00  0.00     0.278 C 
ENDBRANCH  24  29
ENDBRANCH  20  23
ENDBRANCH  17  19
BRANCH  18  31
ATOM     31  C   UNL A   1      44.071  29.535  27.840  1.00  0.00    -0.019 A 
ATOM     32  C   UNL A   1      45.701  29.367  27.100  1.00  0.00     0.012 A 
ATOM     33  C   UNL A   1      43.381  31.165  27.986  1.00  0.00     0.058 A 
ATOM     34  C   UNL A   1      46.589  31.023  26.336  1.00  0.00     0.051 A 
ATOM     35  C   UNL A   1      44.214  32.599  27.352  1.00  0.00     0.166 A 
ATOM     36  C   UNL A   1      45.741  32.578  26.550  1.00  0.00     0.165 A 
ATOM     37  O   UNL A   1      43.595  33.755  26.939  1.00  0.00    -0.454 OA
ATOM     38  O   UNL A   1      45.840  33.697  25.788  1.00  0.00    -0.454 OA
ATOM     39  C   UNL A   1      44.446  34.147  25.805  1.00  0.00     0.468 C 
ENDBRANCH  18  31
ENDBRANCH  14  17
ENDBRANCH   8  13
ENDBRANCH   4   7
ENDBRANCH   2   3
ENDBRANCH   1   2
BRANCH   1  40
ATOM     40  C   UNL A   1      37.448  31.602  33.830  1.00  0.00     0.002 C 
BRANCH  40  41
ATOM     41  C   UNL A   1      37.849  32.309  35.127  1.00  0.00     0.002 C 
BRANCH  41  42
ATOM     42  C   UNL A   1      39.251  32.922  35.107  1.00  0.00     0.021 C 
BRANCH  42  43
ATOM     43  C   UNL A   1      40.151  32.457  36.246  1.00  0.00     0.116 C 
BRANCH  43  44
ATOM     44  N   UNL A   1      40.275  31.008  36.263  1.00  0.00    -0.352 N 
ATOM     45  C   UNL A   1      40.884  30.190  35.350  1.00  0.00     0.251 C 
ATOM     46  H   UNL A   1      39.866  30.555  37.034  1.00  0.00     0.163 HD
ATOM     47  O   UNL A   1      40.666  28.982  35.364  1.00  0.00    -0.269 OA
BRANCH  45  48
ATOM     48  C   UNL A   1      41.804  30.772  34.354  1.00  0.00     0.039 A 
ATOM     49  C   UNL A   1      42.984  31.373  34.792  1.00  0.00     0.014 A 
ATOM     50  C   UNL A   1      41.488  30.739  32.991  1.00  0.00     0.014 A 
ATOM     51  C   UNL A   1      43.862  31.922  33.857  1.00  0.00     0.010 A 
ATOM     52  C   UNL A   1      42.401  31.217  32.056  1.00  0.00     0.010 A 
ATOM     53  C   UNL A   1      43.585  31.834  32.483  1.00  0.00    -0.014 A 
BRANCH  53  54
ATOM     54  C   UNL A   1      44.532  32.390  31.487  1.00  0.00     0.031 A 
ATOM     55  C   UNL A   1      44.284  33.735  30.861  1.00  0.00     0.074 A 
ATOM     56  C   UNL A   1      45.597  31.654  31.113  1.00  0.00     0.049 A 
ATOM     57  N   UNL A   1      45.027  34.395  30.012  1.00  0.00    -0.248 NA
ATOM     58  C   UNL A   1      43.026  34.415  31.209  1.00  0.00     0.031 C 
ATOM     59  C   UNL A   1      45.886  30.293  31.572  1.00  0.00     0.029 A 
ATOM     60  N   UNL A   1      46.624  31.940  30.252  1.00  0.00    -0.354 N 
ATOM     61  C   UNL A   1      44.320  35.550  29.704  1.00  0.00     0.074 A 
ATOM     62  C   UNL A   1      43.067  35.482  30.424  1.00  0.00     0.031 C 
ATOM     63  C   UNL A   1      47.025  29.870  31.004  1.00  0.00     0.029 A 
ATOM     64  C   UNL A   1      47.536  30.918  30.127  1.00  0.00     0.049 A 
ATOM     65  H   UNL A   1      46.702  32.794  29.770  1.00  0.00     0.167 HD
ATOM     66  C   UNL A   1      44.691  36.590  28.920  1.00  0.00     0.034 A 
ATOM     67  C   UNL A   1      48.666  30.842  29.395  1.00  0.00     0.034 A 
ATOM     68  C   UNL A   1      45.957  36.668  28.241  1.00  0.00     0.049 A 
ATOM     69  C   UNL A   1      49.093  32.039  28.594  1.00  0.00     0.074 A 
ATOM     70  C   UNL A   1      46.476  37.718  27.505  1.00  0.00     0.029 A 
ATOM     71  N   UNL A   1      46.901  35.653  28.208  1.00  0.00    -0.354 N 
ATOM     72  N   UNL A   1      48.498  33.199  28.462  1.00  0.00    -0.248 NA
ATOM     73  C   UNL A   1      50.371  31.933  27.877  1.00  0.00     0.031 C 
ATOM     74  C   UNL A   1      47.723  37.327  27.005  1.00  0.00     0.029 A 
ATOM     75  C   UNL A   1      47.993  36.044  27.454  1.00  0.00     0.049 A 
ATOM     76  H   UNL A   1      46.807  34.781  28.655  1.00  0.00     0.167 HD
ATOM     77  C   UNL A   1      49.339  33.972  27.670  1.00  0.00     0.074 A 
ATOM     78  C   UNL A   1      50.502  33.156  27.382  1.00  0.00     0.031 C 
ATOM     79  C   UNL A   1      49.159  35.234  27.206  1.00  0.00     0.034 A 
BRANCH  66  80
ATOM     80  C   UNL A   1      43.739  37.752  28.799  1.00  0.00     0.023 A 
ATOM     81  C   UNL A   1      42.806  37.782  27.740  1.00  0.00     0.012 A 
ATOM     82  C   UNL A   1      43.730  38.787  29.754  1.00  0.00     0.148 A 
ATOM     83  C   UNL A   1      41.905  38.837  27.614  1.00  0.00     0.002 A 
ATOM     84  C   UNL A   1      42.797  39.813  29.647  1.00  0.00     0.091 A 
ATOM     85  F   UNL A   1      44.639  38.756  30.739  1.00  0.00    -0.205 F 
ATOM     86  C   UNL A   1      41.893  39.847  28.573  1.00  0.00     0.022 A 
BRANCH  84  87
ATOM     87  S   UNL A   1      42.649  41.118  30.873  1.00  0.00     0.127 S 
ATOM     88  O   UNL A   1      43.287  40.503  32.036  1.00  0.00    -0.237 OA
ATOM     89  O   UNL A   1      43.417  42.203  30.260  1.00  0.00    -0.237 OA
ATOM     90  O   UNL A   1      41.224  41.383  31.008  1.00  0.00    -0.744 OA
ENDBRANCH  84  87
ENDBRANCH  66  80
BRANCH  67  91
ATOM     91  C   UNL A   1      49.505  29.613  29.458  1.00  0.00     0.023 A 
ATOM     92  C   UNL A   1      50.361  29.411  30.557  1.00  0.00     0.012 A 
ATOM     93  C   UNL A   1      49.427  28.625  28.458  1.00  0.00     0.148 A 
ATOM     94  C   UNL A   1      51.150  28.264  30.643  1.00  0.00     0.002 A 
ATOM     95  C   UNL A   1      50.170  27.457  28.579  1.00  0.00     0.091 A 
ATOM     96  F   UNL A   1      48.613  28.841  27.415  1.00  0.00    -0.205 F 
ATOM     97  C   UNL A   1      51.046  27.282  29.661  1.00  0.00     0.022 A 
BRANCH  95  98
ATOM     98  S   UNL A   1      49.989  26.082  27.437  1.00  0.00     0.127 S 
ATOM     99  O   UNL A   1      51.042  25.178  27.890  1.00  0.00    -0.237 OA
ATOM    100  O   UNL A   1      48.625  25.633  27.719  1.00  0.00    -0.237 OA
ATOM    101  O   UNL A   1      50.168  26.651  26.108  1.00  0.00    -0.744 OA
ENDBRANCH  95  98
ENDBRANCH  67  91
BRANCH  79 102
ATOM    102  C   UNL A   1      50.254  35.816  26.351  1.00  0.00     0.023 A 
ATOM    103  C   UNL A   1      50.259  35.577  24.962  1.00  0.00     0.012 A 
ATOM    104  C   UNL A   1      51.252  36.636  26.914  1.00  0.00     0.148 A 
ATOM    105  C   UNL A   1      51.265  36.104  24.155  1.00  0.00     0.002 A 
ATOM    106  C   UNL A   1      52.222  37.200  26.095  1.00  0.00     0.091 A 
ATOM    107  F   UNL A   1      51.245  36.838  28.240  1.00  0.00    -0.205 F 
ATOM    108  C   UNL A   1      52.240  36.924  24.719  1.00  0.00     0.022 A 
BRANCH 106 109
ATOM    109  S   UNL A   1      53.456  38.345  26.723  1.00  0.00     0.127 S 
ATOM    110  O   UNL A   1      52.620  39.402  27.290  1.00  0.00    -0.237 OA
ATOM    111  O   UNL A   1      54.163  37.530  27.713  1.00  0.00    -0.237 OA
ATOM    112  O   UNL A   1      54.264  38.729  25.574  1.00  0.00    -0.744 OA
ENDBRANCH 106 109
ENDBRANCH  79 102
ENDBRANCH  53  54
ENDBRANCH  45  48
ENDBRANCH  43  44
ENDBRANCH  42  43
ENDBRANCH  41  42
ENDBRANCH  40  41
ENDBRANCH   1  40
TORSDOF 22
ENDMDL
