MODEL 1
REMARK VINA RESULT:     -11.4      0.000      0.000
REMARK SMILES C[C@@H]1CCC[C@@H](C)C1[N@H+]1CCO[C@H](CC(=O)NCCCCCCNC(=O)c2ccc(-c3c4nc(c(-c5cccc(S(=O)(=O)[O-])c5F)c5ccc([nH]5)c(-c5cccc(S(=O)(=O)[O-])c5F)c5nc(c(-c6cccc(S(=O)(=O)[O-])c6F)c6ccc3[nH]6)C=C5)C=C4)cc2)C1
REMARK SMILES IDX 21 1 20 2 19 3 18 4 17 5 15 6 16 7 14 9 13 10 9 11 10 12
REMARK SMILES IDX 90 13 11 15 12 16 8 17 1 18 2 19 3 20 4 21 6 22 5 23 7 24
REMARK SMILES IDX 22 25 23 26 24 27 25 28 26 30 27 31 28 32 89 33 29 34 88 35
REMARK SMILES IDX 30 36 31 37 32 38 82 39 33 40 87 41 81 42 83 43 34 44 86 45
REMARK SMILES IDX 80 46 79 47 35 49 67 50 47 51 66 52 48 53 51 54 65 55 84 56
REMARK SMILES IDX 49 57 50 58 64 60 85 61 52 62 36 63 37 64 45 65 38 66 40 67
REMARK SMILES IDX 46 68 39 69 41 70 42 71 43 72 44 73 68 74 69 75 77 76 70 77
REMARK SMILES IDX 72 78 78 79 71 80 73 81 74 82 75 83 76 84 53 85 54 86 62 87
REMARK SMILES IDX 55 88 57 89 63 90 56 91 58 92 59 93 60 94 61 95
REMARK H PARENT 17 8 9 14 24 29 83 48 51 59
REMARK Flexibility Score: inf
ROOT
ATOM      1  C   UNL A   1      32.285  28.083  24.965  1.00  0.00     0.002 C 
ENDROOT
BRANCH   1   2
ATOM      2  C   UNL A   1      32.338  29.028  23.762  1.00  0.00     0.002 C 
BRANCH   2   3
ATOM      3  C   UNL A   1      31.303  28.745  22.671  1.00  0.00     0.021 C 
BRANCH   3   4
ATOM      4  C   UNL A   1      30.902  27.277  22.525  1.00  0.00     0.116 C 
BRANCH   4   5
ATOM      5  N   UNL A   1      31.510  26.662  21.363  1.00  0.00    -0.356 N 
ATOM      6  C   UNL A   1      32.719  26.039  21.253  1.00  0.00     0.222 C 
ATOM      7  O   UNL A   1      33.033  25.556  20.162  1.00  0.00    -0.275 OA
ATOM      8  H   UNL A   1      30.976  26.697  20.538  1.00  0.00     0.163 HD
BRANCH   6   9
ATOM      9  C   UNL A   1      33.629  25.900  22.460  1.00  0.00     0.138 C 
BRANCH   9  10
ATOM     10  C   UNL A   1      33.362  24.681  23.357  1.00  0.00     0.182 C 
ATOM     11  N   UNL A   1      33.718  22.139  23.488  1.00  0.00    -0.328 N 
ATOM     12  C   UNL A   1      32.286  22.066  23.764  1.00  0.00     0.291 C 
ATOM     13  C   UNL A   1      34.076  23.407  22.827  1.00  0.00     0.295 C 
ATOM     14  H   UNL A   1      33.826  21.366  22.830  1.00  0.00     0.348 HD
ATOM     15  C   UNL A   1      31.674  23.353  24.336  1.00  0.00     0.222 C 
ATOM     16  O   UNL A   1      31.953  24.478  23.508  1.00  0.00    -0.366 OA
BRANCH  11  17
ATOM     17  C   UNL A   1      34.708  21.622  24.446  1.00  0.00     0.189 C 
ATOM     18  C   UNL A   1      36.797  22.190  25.776  1.00  0.00     0.014 C 
ATOM     19  C   UNL A   1      35.401  22.678  25.348  1.00  0.00     0.045 C 
ATOM     20  C   UNL A   1      34.576  23.056  26.588  1.00  0.00     0.009 C 
ATOM     21  C   UNL A   1      34.072  21.859  27.387  1.00  0.00     0.001 C 
ATOM     22  C   UNL A   1      34.197  20.413  25.296  1.00  0.00     0.045 C 
ATOM     23  C   UNL A   1      33.378  20.805  26.531  1.00  0.00     0.009 C 
ATOM     24  C   UNL A   1      33.459  19.353  24.466  1.00  0.00     0.014 C 
ENDBRANCH  11  17
ENDBRANCH   9  10
ENDBRANCH   6   9
ENDBRANCH   4   5
ENDBRANCH   3   4
ENDBRANCH   2   3
ENDBRANCH   1   2
BRANCH   1  25
ATOM     25  C   UNL A   1      33.569  28.008  25.797  1.00  0.00     0.021 C 
BRANCH  25  26
ATOM     26  C   UNL A   1      33.441  28.544  27.221  1.00  0.00     0.116 C 
BRANCH  26  27
ATOM     27  N   UNL A   1      33.513  29.997  27.257  1.00  0.00    -0.352 N 
ATOM     28  C   UNL A   1      34.449  30.813  27.841  1.00  0.00     0.251 C 
ATOM     29  H   UNL A   1      32.780  30.463  26.794  1.00  0.00     0.163 HD
ATOM     30  O   UNL A   1      34.207  32.009  27.989  1.00  0.00    -0.269 OA
BRANCH  28  31
ATOM     31  C   UNL A   1      35.746  30.261  28.291  1.00  0.00     0.039 A 
ATOM     32  C   UNL A   1      36.835  30.289  27.415  1.00  0.00     0.014 A 
ATOM     33  C   UNL A   1      35.877  29.679  29.555  1.00  0.00     0.014 A 
ATOM     34  C   UNL A   1      38.068  29.777  27.826  1.00  0.00     0.010 A 
ATOM     35  C   UNL A   1      37.123  29.230  29.986  1.00  0.00     0.010 A 
ATOM     36  C   UNL A   1      38.230  29.265  29.125  1.00  0.00    -0.014 A 
BRANCH  36  37
ATOM     37  C   UNL A   1      39.547  28.768  29.599  1.00  0.00     0.031 A 
ATOM     38  C   UNL A   1      40.274  29.477  30.711  1.00  0.00     0.074 A 
ATOM     39  C   UNL A   1      40.127  27.723  28.973  1.00  0.00     0.049 A 
ATOM     40  N   UNL A   1      41.449  29.218  31.224  1.00  0.00    -0.248 NA
ATOM     41  C   UNL A   1      39.606  30.645  31.307  1.00  0.00     0.031 C 
ATOM     42  C   UNL A   1      39.559  27.002  27.832  1.00  0.00     0.029 A 
ATOM     43  N   UNL A   1      41.332  27.104  29.191  1.00  0.00    -0.354 N 
ATOM     44  C   UNL A   1      41.676  30.204  32.177  1.00  0.00     0.074 A 
ATOM     45  C   UNL A   1      40.531  31.088  32.148  1.00  0.00     0.031 C 
ATOM     46  C   UNL A   1      40.414  26.038  27.453  1.00  0.00     0.029 A 
ATOM     47  C   UNL A   1      41.598  26.087  28.304  1.00  0.00     0.049 A 
ATOM     48  H   UNL A   1      41.947  27.363  29.914  1.00  0.00     0.167 HD
ATOM     49  C   UNL A   1      42.724  30.344  33.022  1.00  0.00     0.034 A 
ATOM     50  C   UNL A   1      42.676  25.287  28.188  1.00  0.00     0.034 A 
ATOM     51  C   UNL A   1      43.838  29.435  33.081  1.00  0.00     0.049 A 
ATOM     52  C   UNL A   1      43.806  25.435  29.171  1.00  0.00     0.074 A 
ATOM     53  C   UNL A   1      44.908  29.442  33.959  1.00  0.00     0.029 A 
ATOM     54  N   UNL A   1      44.028  28.359  32.229  1.00  0.00    -0.354 N 
ATOM     55  N   UNL A   1      43.925  26.274  30.170  1.00  0.00    -0.248 NA
ATOM     56  C   UNL A   1      44.933  24.501  29.033  1.00  0.00     0.031 C 
ATOM     57  C   UNL A   1      45.753  28.377  33.627  1.00  0.00     0.029 A 
ATOM     58  C   UNL A   1      45.198  27.696  32.556  1.00  0.00     0.049 A 
ATOM     59  H   UNL A   1      43.420  28.103  31.498  1.00  0.00     0.167 HD
ATOM     60  C   UNL A   1      45.119  25.946  30.804  1.00  0.00     0.074 A 
ATOM     61  C   UNL A   1      45.675  24.817  30.087  1.00  0.00     0.031 C 
ATOM     62  C   UNL A   1      45.709  26.537  31.872  1.00  0.00     0.034 A 
BRANCH  49  63
ATOM     63  C   UNL A   1      42.690  31.488  34.002  1.00  0.00     0.023 A 
ATOM     64  C   UNL A   1      43.320  32.704  33.666  1.00  0.00     0.012 A 
ATOM     65  C   UNL A   1      41.982  31.390  35.215  1.00  0.00     0.148 A 
ATOM     66  C   UNL A   1      43.274  33.793  34.534  1.00  0.00     0.002 A 
ATOM     67  C   UNL A   1      41.905  32.493  36.058  1.00  0.00     0.091 A 
ATOM     68  F   UNL A   1      41.405  30.220  35.526  1.00  0.00    -0.205 F 
ATOM     69  C   UNL A   1      42.558  33.692  35.723  1.00  0.00     0.022 A 
BRANCH  67  70
ATOM     70  S   UNL A   1      40.945  32.491  37.576  1.00  0.00     0.127 S 
ATOM     71  O   UNL A   1      41.834  31.773  38.487  1.00  0.00    -0.237 OA
ATOM     72  O   UNL A   1      40.808  33.920  37.857  1.00  0.00    -0.237 OA
ATOM     73  O   UNL A   1      39.695  31.813  37.259  1.00  0.00    -0.744 OA
ENDBRANCH  67  70
ENDBRANCH  49  63
BRANCH  50  74
ATOM     74  C   UNL A   1      42.704  24.220  27.147  1.00  0.00     0.023 A 
ATOM     75  C   UNL A   1      43.387  24.453  25.937  1.00  0.00     0.012 A 
ATOM     76  C   UNL A   1      42.082  22.974  27.353  1.00  0.00     0.148 A 
ATOM     77  C   UNL A   1      43.421  23.480  24.939  1.00  0.00     0.002 A 
ATOM     78  C   UNL A   1      42.166  21.988  26.376  1.00  0.00     0.091 A 
ATOM     79  F   UNL A   1      41.423  22.774  28.504  1.00  0.00    -0.205 F 
ATOM     80  C   UNL A   1      42.819  22.245  25.161  1.00  0.00     0.022 A 
BRANCH  78  81
ATOM     81  S   UNL A   1      41.534  20.326  26.636  1.00  0.00     0.127 S 
ATOM     82  O   UNL A   1      41.973  19.646  25.420  1.00  0.00    -0.237 OA
ATOM     83  O   UNL A   1      42.233  19.921  27.856  1.00  0.00    -0.237 OA
ATOM     84  O   UNL A   1      40.095  20.479  26.797  1.00  0.00    -0.744 OA
ENDBRANCH  78  81
ENDBRANCH  50  74
BRANCH  62  85
ATOM     85  C   UNL A   1      47.011  25.957  32.360  1.00  0.00     0.023 A 
ATOM     86  C   UNL A   1      47.012  25.052  33.439  1.00  0.00     0.012 A 
ATOM     87  C   UNL A   1      48.221  26.252  31.702  1.00  0.00     0.148 A 
ATOM     88  C   UNL A   1      48.203  24.472  33.876  1.00  0.00     0.002 A 
ATOM     89  C   UNL A   1      49.397  25.633  32.112  1.00  0.00     0.091 A 
ATOM     90  F   UNL A   1      48.202  27.132  30.690  1.00  0.00    -0.205 F 
ATOM     91  C   UNL A   1      49.391  24.753  33.206  1.00  0.00     0.022 A 
BRANCH  89  92
ATOM     92  S   UNL A   1      50.955  25.863  31.249  1.00  0.00     0.127 S 
ATOM     93  O   UNL A   1      50.543  25.741  29.852  1.00  0.00    -0.237 OA
ATOM     94  O   UNL A   1      51.340  27.215  31.655  1.00  0.00    -0.237 OA
ATOM     95  O   UNL A   1      51.840  24.813  31.736  1.00  0.00    -0.744 OA
ENDBRANCH  89  92
ENDBRANCH  62  85
ENDBRANCH  36  37
ENDBRANCH  28  31
ENDBRANCH  26  27
ENDBRANCH  25  26
ENDBRANCH   1  25
TORSDOF 18
ENDMDL
MODEL 2
REMARK VINA RESULT:     -11.4      4.799      8.357
REMARK SMILES C[C@@H]1CCC[C@@H](C)C1[N@H+]1CCO[C@H](CC(=O)NCCCCCCNC(=O)c2ccc(-c3c4nc(c(-c5cccc(S(=O)(=O)[O-])c5F)c5ccc([nH]5)c(-c5cccc(S(=O)(=O)[O-])c5F)c5nc(c(-c6cccc(S(=O)(=O)[O-])c6F)c6ccc3[nH]6)C=C5)C=C4)cc2)C1
REMARK SMILES IDX 21 1 20 2 19 3 18 4 17 5 15 6 16 7 14 9 13 10 9 11 10 12
REMARK SMILES IDX 90 13 11 15 12 16 8 17 1 18 2 19 3 20 4 21 6 22 5 23 7 24
REMARK SMILES IDX 22 25 23 26 24 27 25 28 26 30 27 31 28 32 89 33 29 34 88 35
REMARK SMILES IDX 30 36 31 37 32 38 82 39 33 40 87 41 81 42 83 43 34 44 86 45
REMARK SMILES IDX 80 46 79 47 35 49 67 50 47 51 66 52 48 53 51 54 65 55 84 56
REMARK SMILES IDX 49 57 50 58 64 60 85 61 52 62 36 63 37 64 45 65 38 66 40 67
REMARK SMILES IDX 46 68 39 69 41 70 42 71 43 72 44 73 68 74 69 75 77 76 70 77
REMARK SMILES IDX 72 78 78 79 71 80 73 81 74 82 75 83 76 84 53 85 54 86 62 87
REMARK SMILES IDX 55 88 57 89 63 90 56 91 58 92 59 93 60 94 61 95
REMARK H PARENT 17 8 9 14 24 29 83 48 51 59
REMARK Flexibility Score: inf
ROOT
ATOM      1  C   UNL A   1      37.549  21.172  24.611  1.00  0.00     0.002 C 
ENDROOT
BRANCH   1   2
ATOM      2  C   UNL A   1      36.055  21.060  24.922  1.00  0.00     0.002 C 
BRANCH   2   3
ATOM      3  C   UNL A   1      35.580  21.884  26.121  1.00  0.00     0.021 C 
BRANCH   3   4
ATOM      4  C   UNL A   1      34.293  21.386  26.778  1.00  0.00     0.116 C 
BRANCH   4   5
ATOM      5  N   UNL A   1      33.674  20.319  26.018  1.00  0.00    -0.356 N 
ATOM      6  C   UNL A   1      32.488  20.318  25.344  1.00  0.00     0.222 C 
ATOM      7  O   UNL A   1      32.161  19.297  24.734  1.00  0.00    -0.275 OA
ATOM      8  H   UNL A   1      34.181  19.476  25.983  1.00  0.00     0.163 HD
BRANCH   6   9
ATOM      9  C   UNL A   1      31.621  21.564  25.305  1.00  0.00     0.138 C 
BRANCH   9  10
ATOM     10  C   UNL A   1      32.279  22.812  24.695  1.00  0.00     0.182 C 
ATOM     11  N   UNL A   1      31.727  25.035  23.529  1.00  0.00    -0.328 N 
ATOM     12  C   UNL A   1      32.685  24.610  22.512  1.00  0.00     0.291 C 
ATOM     13  C   UNL A   1      31.228  23.890  24.313  1.00  0.00     0.295 C 
ATOM     14  H   UNL A   1      30.977  25.403  22.944  1.00  0.00     0.348 HD
ATOM     15  C   UNL A   1      33.720  23.583  22.993  1.00  0.00     0.222 C 
ATOM     16  O   UNL A   1      33.096  22.444  23.579  1.00  0.00    -0.366 OA
BRANCH  11  17
ATOM     17  C   UNL A   1      31.917  26.284  24.283  1.00  0.00     0.189 C 
ATOM     18  C   UNL A   1      33.591  27.684  25.585  1.00  0.00     0.014 C 
ATOM     19  C   UNL A   1      33.362  26.851  24.310  1.00  0.00     0.045 C 
ATOM     20  C   UNL A   1      33.712  27.688  23.069  1.00  0.00     0.009 C 
ATOM     21  C   UNL A   1      32.680  28.758  22.730  1.00  0.00     0.001 C 
ATOM     22  C   UNL A   1      30.886  27.403  23.926  1.00  0.00     0.045 C 
ATOM     23  C   UNL A   1      31.249  28.231  22.687  1.00  0.00     0.009 C 
ATOM     24  C   UNL A   1      29.441  26.894  23.836  1.00  0.00     0.014 C 
ENDBRANCH  11  17
ENDBRANCH   9  10
ENDBRANCH   6   9
ENDBRANCH   4   5
ENDBRANCH   3   4
ENDBRANCH   2   3
ENDBRANCH   1   2
BRANCH   1  25
ATOM     25  C   UNL A   1      38.364  19.896  24.841  1.00  0.00     0.021 C 
BRANCH  25  26
ATOM     26  C   UNL A   1      39.042  19.806  26.207  1.00  0.00     0.116 C 
BRANCH  26  27
ATOM     27  N   UNL A   1      40.260  19.012  26.150  1.00  0.00    -0.352 N 
ATOM     28  C   UNL A   1      41.569  19.420  26.090  1.00  0.00     0.251 C 
ATOM     29  H   UNL A   1      40.124  18.037  26.155  1.00  0.00     0.163 HD
ATOM     30  O   UNL A   1      42.445  18.613  25.789  1.00  0.00    -0.269 OA
BRANCH  28  31
ATOM     31  C   UNL A   1      41.929  20.824  26.388  1.00  0.00     0.039 A 
ATOM     32  C   UNL A   1      42.260  21.175  27.700  1.00  0.00     0.014 A 
ATOM     33  C   UNL A   1      41.899  21.799  25.387  1.00  0.00     0.014 A 
ATOM     34  C   UNL A   1      42.608  22.495  27.997  1.00  0.00     0.010 A 
ATOM     35  C   UNL A   1      42.310  23.100  25.672  1.00  0.00     0.010 A 
ATOM     36  C   UNL A   1      42.660  23.464  26.981  1.00  0.00    -0.014 A 
BRANCH  36  37
ATOM     37  C   UNL A   1      43.082  24.860  27.267  1.00  0.00     0.031 A 
ATOM     38  C   UNL A   1      42.128  25.825  27.920  1.00  0.00     0.074 A 
ATOM     39  C   UNL A   1      44.298  25.282  26.867  1.00  0.00     0.049 A 
ATOM     40  N   UNL A   1      42.301  27.090  28.205  1.00  0.00    -0.248 NA
ATOM     41  C   UNL A   1      40.795  25.309  28.277  1.00  0.00     0.031 C 
ATOM     42  C   UNL A   1      45.283  24.465  26.155  1.00  0.00     0.029 A 
ATOM     43  N   UNL A   1      44.903  26.508  26.978  1.00  0.00    -0.354 N 
ATOM     44  C   UNL A   1      41.097  27.530  28.742  1.00  0.00     0.074 A 
ATOM     45  C   UNL A   1      40.188  26.404  28.713  1.00  0.00     0.031 C 
ATOM     46  C   UNL A   1      46.368  25.212  25.895  1.00  0.00     0.029 A 
ATOM     47  C   UNL A   1      46.150  26.564  26.398  1.00  0.00     0.049 A 
ATOM     48  H   UNL A   1      44.484  27.276  27.430  1.00  0.00     0.167 HD
ATOM     49  C   UNL A   1      40.784  28.748  29.243  1.00  0.00     0.034 A 
ATOM     50  C   UNL A   1      47.016  27.589  26.283  1.00  0.00     0.034 A 
ATOM     51  C   UNL A   1      41.706  29.850  29.315  1.00  0.00     0.049 A 
ATOM     52  C   UNL A   1      46.661  28.919  26.892  1.00  0.00     0.074 A 
ATOM     53  C   UNL A   1      41.513  31.098  29.882  1.00  0.00     0.029 A 
ATOM     54  N   UNL A   1      42.993  29.840  28.803  1.00  0.00    -0.354 N 
ATOM     55  N   UNL A   1      45.577  29.266  27.541  1.00  0.00    -0.248 NA
ATOM     56  C   UNL A   1      47.665  29.988  26.786  1.00  0.00     0.031 C 
ATOM     57  C   UNL A   1      42.679  31.847  29.699  1.00  0.00     0.029 A 
ATOM     58  C   UNL A   1      43.606  31.059  29.036  1.00  0.00     0.049 A 
ATOM     59  H   UNL A   1      43.412  29.077  28.341  1.00  0.00     0.167 HD
ATOM     60  C   UNL A   1      45.782  30.578  27.953  1.00  0.00     0.074 A 
ATOM     61  C   UNL A   1      47.105  30.956  27.498  1.00  0.00     0.031 C 
ATOM     62  C   UNL A   1      44.945  31.401  28.631  1.00  0.00     0.034 A 
BRANCH  49  63
ATOM     63  C   UNL A   1      39.405  28.938  29.818  1.00  0.00     0.023 A 
ATOM     64  C   UNL A   1      39.115  28.432  31.103  1.00  0.00     0.012 A 
ATOM     65  C   UNL A   1      38.420  29.672  29.128  1.00  0.00     0.148 A 
ATOM     66  C   UNL A   1      37.861  28.624  31.677  1.00  0.00     0.002 A 
ATOM     67  C   UNL A   1      37.184  29.896  29.725  1.00  0.00     0.091 A 
ATOM     68  F   UNL A   1      38.706  30.129  27.901  1.00  0.00    -0.205 F 
ATOM     69  C   UNL A   1      36.900  29.365  30.995  1.00  0.00     0.022 A 
BRANCH  67  70
ATOM     70  S   UNL A   1      35.905  30.901  28.963  1.00  0.00     0.127 S 
ATOM     71  O   UNL A   1      36.700  31.881  28.226  1.00  0.00    -0.237 OA
ATOM     72  O   UNL A   1      35.206  29.928  28.125  1.00  0.00    -0.237 OA
ATOM     73  O   UNL A   1      35.111  31.438  30.061  1.00  0.00    -0.744 OA
ENDBRANCH  67  70
ENDBRANCH  49  63
BRANCH  50  74
ATOM     74  C   UNL A   1      48.340  27.377  25.631  1.00  0.00     0.023 A 
ATOM     75  C   UNL A   1      49.443  26.992  26.417  1.00  0.00     0.012 A 
ATOM     76  C   UNL A   1      48.509  27.531  24.241  1.00  0.00     0.148 A 
ATOM     77  C   UNL A   1      50.698  26.798  25.838  1.00  0.00     0.002 A 
ATOM     78  C   UNL A   1      49.748  27.283  23.663  1.00  0.00     0.091 A 
ATOM     79  F   UNL A   1      47.452  27.911  23.510  1.00  0.00    -0.205 F 
ATOM     80  C   UNL A   1      50.849  26.934  24.461  1.00  0.00     0.022 A 
BRANCH  78  81
ATOM     81  S   UNL A   1      49.997  27.304  21.884  1.00  0.00     0.127 S 
ATOM     82  O   UNL A   1      49.800  28.717  21.571  1.00  0.00    -0.237 OA
ATOM     83  O   UNL A   1      51.376  26.831  21.761  1.00  0.00    -0.237 OA
ATOM     84  O   UNL A   1      49.002  26.388  21.342  1.00  0.00    -0.744 OA
ENDBRANCH  78  81
ENDBRANCH  50  74
BRANCH  62  85
ATOM     85  C   UNL A   1      45.439  32.785  28.959  1.00  0.00     0.023 A 
ATOM     86  C   UNL A   1      46.182  33.002  30.137  1.00  0.00     0.012 A 
ATOM     87  C   UNL A   1      45.232  33.854  28.065  1.00  0.00     0.148 A 
ATOM     88  C   UNL A   1      46.685  34.268  30.434  1.00  0.00     0.002 A 
ATOM     89  C   UNL A   1      45.778  35.102  28.344  1.00  0.00     0.091 A 
ATOM     90  F   UNL A   1      44.506  33.632  26.960  1.00  0.00    -0.205 F 
ATOM     91  C   UNL A   1      46.494  35.313  29.533  1.00  0.00     0.022 A 
BRANCH  89  92
ATOM     92  S   UNL A   1      45.662  36.479  27.198  1.00  0.00     0.127 S 
ATOM     93  O   UNL A   1      44.215  36.658  27.091  1.00  0.00    -0.237 OA
ATOM     94  O   UNL A   1      46.356  37.546  27.921  1.00  0.00    -0.237 OA
ATOM     95  O   UNL A   1      46.332  36.044  25.979  1.00  0.00    -0.744 OA
ENDBRANCH  89  92
ENDBRANCH  62  85
ENDBRANCH  36  37
ENDBRANCH  28  31
ENDBRANCH  26  27
ENDBRANCH  25  26
ENDBRANCH   1  25
TORSDOF 18
ENDMDL
MODEL 3
REMARK VINA RESULT:     -11.2      2.038      2.472
REMARK SMILES C[C@@H]1CCC[C@@H](C)C1[N@H+]1CCO[C@H](CC(=O)NCCCCCCNC(=O)c2ccc(-c3c4nc(c(-c5cccc(S(=O)(=O)[O-])c5F)c5ccc([nH]5)c(-c5cccc(S(=O)(=O)[O-])c5F)c5nc(c(-c6cccc(S(=O)(=O)[O-])c6F)c6ccc3[nH]6)C=C5)C=C4)cc2)C1
REMARK SMILES IDX 21 1 20 2 19 3 18 4 17 5 15 6 16 7 14 9 13 10 9 11 10 12
REMARK SMILES IDX 90 13 11 15 12 16 8 17 1 18 2 19 3 20 4 21 6 22 5 23 7 24
REMARK SMILES IDX 22 25 23 26 24 27 25 28 26 30 27 31 28 32 89 33 29 34 88 35
REMARK SMILES IDX 30 36 31 37 32 38 82 39 33 40 87 41 81 42 83 43 34 44 86 45
REMARK SMILES IDX 80 46 79 47 35 49 67 50 47 51 66 52 48 53 51 54 65 55 84 56
REMARK SMILES IDX 49 57 50 58 64 60 85 61 52 62 36 63 37 64 45 65 38 66 40 67
REMARK SMILES IDX 46 68 39 69 41 70 42 71 43 72 44 73 68 74 69 75 77 76 70 77
REMARK SMILES IDX 72 78 78 79 71 80 73 81 74 82 75 83 76 84 53 85 54 86 62 87
REMARK SMILES IDX 55 88 57 89 63 90 56 91 58 92 59 93 60 94 61 95
REMARK H PARENT 17 8 9 14 24 29 83 48 51 59
REMARK Flexibility Score: inf
ROOT
ATOM      1  C   UNL A   1      31.626  29.803  25.457  1.00  0.00     0.002 C 
ENDROOT
BRANCH   1   2
ATOM      2  C   UNL A   1      31.087  29.298  24.116  1.00  0.00     0.002 C 
BRANCH   2   3
ATOM      3  C   UNL A   1      30.612  27.843  24.116  1.00  0.00     0.021 C 
BRANCH   3   4
ATOM      4  C   UNL A   1      30.824  27.095  22.800  1.00  0.00     0.116 C 
BRANCH   4   5
ATOM      5  N   UNL A   1      31.995  27.568  22.090  1.00  0.00    -0.356 N 
ATOM      6  C   UNL A   1      33.306  27.516  22.464  1.00  0.00     0.222 C 
ATOM      7  O   UNL A   1      34.155  27.959  21.686  1.00  0.00    -0.275 OA
ATOM      8  H   UNL A   1      31.820  27.984  21.216  1.00  0.00     0.163 HD
BRANCH   6   9
ATOM      9  C   UNL A   1      33.709  26.879  23.781  1.00  0.00     0.138 C 
BRANCH   9  10
ATOM     10  C   UNL A   1      33.724  25.342  23.799  1.00  0.00     0.182 C 
ATOM     11  N   UNL A   1      35.176  23.333  24.476  1.00  0.00    -0.328 N 
ATOM     12  C   UNL A   1      34.937  22.846  23.120  1.00  0.00     0.291 C 
ATOM     13  C   UNL A   1      34.948  24.786  24.576  1.00  0.00     0.295 C 
ATOM     14  H   UNL A   1      36.172  23.133  24.578  1.00  0.00     0.348 HD
ATOM     15  C   UNL A   1      33.676  23.408  22.448  1.00  0.00     0.222 C 
ATOM     16  O   UNL A   1      33.664  24.832  22.463  1.00  0.00    -0.366 OA
BRANCH  11  17
ATOM     17  C   UNL A   1      34.774  22.546  25.652  1.00  0.00     0.189 C 
ATOM     18  C   UNL A   1      33.213  22.466  27.656  1.00  0.00     0.014 C 
ATOM     19  C   UNL A   1      33.318  22.756  26.147  1.00  0.00     0.045 C 
ATOM     20  C   UNL A   1      32.285  21.914  25.380  1.00  0.00     0.009 C 
ATOM     21  C   UNL A   1      32.648  20.437  25.269  1.00  0.00     0.001 C 
ATOM     22  C   UNL A   1      35.110  21.023  25.542  1.00  0.00     0.045 C 
ATOM     23  C   UNL A   1      34.071  20.195  24.776  1.00  0.00     0.009 C 
ATOM     24  C   UNL A   1      36.524  20.748  25.011  1.00  0.00     0.014 C 
ENDBRANCH  11  17
ENDBRANCH   9  10
ENDBRANCH   6   9
ENDBRANCH   4   5
ENDBRANCH   3   4
ENDBRANCH   2   3
ENDBRANCH   1   2
BRANCH   1  25
ATOM     25  C   UNL A   1      32.233  28.729  26.364  1.00  0.00     0.021 C 
BRANCH  25  26
ATOM     26  C   UNL A   1      33.573  29.104  26.994  1.00  0.00     0.116 C 
BRANCH  26  27
ATOM     27  N   UNL A   1      33.679  30.538  27.217  1.00  0.00    -0.352 N 
ATOM     28  C   UNL A   1      34.579  31.242  27.978  1.00  0.00     0.251 C 
ATOM     29  H   UNL A   1      33.004  31.084  26.754  1.00  0.00     0.163 HD
ATOM     30  O   UNL A   1      34.356  32.418  28.253  1.00  0.00    -0.269 OA
BRANCH  28  31
ATOM     31  C   UNL A   1      35.814  30.591  28.466  1.00  0.00     0.039 A 
ATOM     32  C   UNL A   1      36.971  30.657  27.683  1.00  0.00     0.014 A 
ATOM     33  C   UNL A   1      35.823  29.881  29.670  1.00  0.00     0.014 A 
ATOM     34  C   UNL A   1      38.148  30.054  28.132  1.00  0.00     0.010 A 
ATOM     35  C   UNL A   1      37.014  29.337  30.147  1.00  0.00     0.010 A 
ATOM     36  C   UNL A   1      38.186  29.409  29.380  1.00  0.00    -0.014 A 
BRANCH  36  37
ATOM     37  C   UNL A   1      39.443  28.810  29.899  1.00  0.00     0.031 A 
ATOM     38  C   UNL A   1      40.122  29.393  31.110  1.00  0.00     0.074 A 
ATOM     39  C   UNL A   1      40.016  27.787  29.233  1.00  0.00     0.049 A 
ATOM     40  N   UNL A   1      41.244  29.035  31.679  1.00  0.00    -0.248 NA
ATOM     41  C   UNL A   1      39.468  30.546  31.752  1.00  0.00     0.031 C 
ATOM     42  C   UNL A   1      39.498  27.186  28.002  1.00  0.00     0.029 A 
ATOM     43  N   UNL A   1      41.173  27.093  29.480  1.00  0.00    -0.354 N 
ATOM     44  C   UNL A   1      41.449  29.933  32.720  1.00  0.00     0.074 A 
ATOM     45  C   UNL A   1      40.351  30.874  32.686  1.00  0.00     0.031 C 
ATOM     46  C   UNL A   1      40.332  26.211  27.604  1.00  0.00     0.029 A 
ATOM     47  C   UNL A   1      41.454  26.134  28.533  1.00  0.00     0.049 A 
ATOM     48  H   UNL A   1      41.748  27.264  30.261  1.00  0.00     0.167 HD
ATOM     49  C   UNL A   1      42.441  29.953  33.641  1.00  0.00     0.034 A 
ATOM     50  C   UNL A   1      42.500  25.290  28.426  1.00  0.00     0.034 A 
ATOM     51  C   UNL A   1      43.504  28.987  33.701  1.00  0.00     0.049 A 
ATOM     52  C   UNL A   1      43.563  25.305  29.491  1.00  0.00     0.074 A 
ATOM     53  C   UNL A   1      44.509  28.871  34.647  1.00  0.00     0.029 A 
ATOM     54  N   UNL A   1      43.704  27.971  32.781  1.00  0.00    -0.354 N 
ATOM     55  N   UNL A   1      43.650  26.057  30.560  1.00  0.00    -0.248 NA
ATOM     56  C   UNL A   1      44.653  24.327  29.355  1.00  0.00     0.031 C 
ATOM     57  C   UNL A   1      45.325  27.793  34.288  1.00  0.00     0.029 A 
ATOM     58  C   UNL A   1      44.816  27.226  33.131  1.00  0.00     0.049 A 
ATOM     59  H   UNL A   1      43.138  27.803  31.993  1.00  0.00     0.167 HD
ATOM     60  C   UNL A   1      44.780  25.621  31.243  1.00  0.00     0.074 A 
ATOM     61  C   UNL A   1      45.332  24.523  30.477  1.00  0.00     0.031 C 
ATOM     62  C   UNL A   1      45.320  26.097  32.392  1.00  0.00     0.034 A 
BRANCH  49  63
ATOM     63  C   UNL A   1      42.390  31.019  34.705  1.00  0.00     0.023 A 
ATOM     64  C   UNL A   1      41.757  30.739  35.934  1.00  0.00     0.012 A 
ATOM     65  C   UNL A   1      43.021  32.265  34.522  1.00  0.00     0.148 A 
ATOM     66  C   UNL A   1      41.726  31.690  36.952  1.00  0.00     0.002 A 
ATOM     67  C   UNL A   1      43.023  33.194  35.557  1.00  0.00     0.091 A 
ATOM     68  F   UNL A   1      43.601  32.521  33.341  1.00  0.00    -0.205 F 
ATOM     69  C   UNL A   1      42.367  32.911  36.768  1.00  0.00     0.022 A 
BRANCH  67  70
ATOM     70  S   UNL A   1      43.885  34.766  35.451  1.00  0.00     0.127 S 
ATOM     71  O   UNL A   1      45.240  34.337  35.112  1.00  0.00    -0.237 OA
ATOM     72  O   UNL A   1      43.169  35.438  34.368  1.00  0.00    -0.237 OA
ATOM     73  O   UNL A   1      43.737  35.393  36.758  1.00  0.00    -0.744 OA
ENDBRANCH  67  70
ENDBRANCH  49  63
BRANCH  50  74
ATOM     74  C   UNL A   1      42.552  24.306  27.307  1.00  0.00     0.023 A 
ATOM     75  C   UNL A   1      43.235  24.643  26.123  1.00  0.00     0.012 A 
ATOM     76  C   UNL A   1      41.951  23.037  27.415  1.00  0.00     0.148 A 
ATOM     77  C   UNL A   1      43.291  23.749  25.054  1.00  0.00     0.002 A 
ATOM     78  C   UNL A   1      42.057  22.130  26.367  1.00  0.00     0.091 A 
ATOM     79  F   UNL A   1      41.292  22.738  28.544  1.00  0.00    -0.205 F 
ATOM     80  C   UNL A   1      42.711  22.490  25.178  1.00  0.00     0.022 A 
BRANCH  78  81
ATOM     81  S   UNL A   1      41.455  20.442  26.496  1.00  0.00     0.127 S 
ATOM     82  O   UNL A   1      40.012  20.630  26.381  1.00  0.00    -0.237 OA
ATOM     83  O   UNL A   1      42.089  19.802  25.343  1.00  0.00    -0.237 OA
ATOM     84  O   UNL A   1      41.934  19.957  27.784  1.00  0.00    -0.744 OA
ENDBRANCH  78  81
ENDBRANCH  50  74
BRANCH  62  85
ATOM     85  C   UNL A   1      46.556  25.416  32.918  1.00  0.00     0.023 A 
ATOM     86  C   UNL A   1      47.828  25.860  32.506  1.00  0.00     0.012 A 
ATOM     87  C   UNL A   1      46.459  24.387  33.876  1.00  0.00     0.148 A 
ATOM     88  C   UNL A   1      48.984  25.270  33.017  1.00  0.00     0.002 A 
ATOM     89  C   UNL A   1      47.615  23.837  34.416  1.00  0.00     0.091 A 
ATOM     90  F   UNL A   1      45.239  23.965  34.239  1.00  0.00    -0.205 F 
ATOM     91  C   UNL A   1      48.878  24.270  33.979  1.00  0.00     0.022 A 
BRANCH  89  92
ATOM     92  S   UNL A   1      47.574  22.611  35.728  1.00  0.00     0.127 S 
ATOM     93  O   UNL A   1      46.887  21.498  35.075  1.00  0.00    -0.237 OA
ATOM     94  O   UNL A   1      48.997  22.382  35.985  1.00  0.00    -0.237 OA
ATOM     95  O   UNL A   1      46.854  23.230  36.833  1.00  0.00    -0.744 OA
ENDBRANCH  89  92
ENDBRANCH  62  85
ENDBRANCH  36  37
ENDBRANCH  28  31
ENDBRANCH  26  27
ENDBRANCH  25  26
ENDBRANCH   1  25
TORSDOF 18
ENDMDL
