MODEL 1
REMARK VINA RESULT:     -12.8      0.000      0.000
REMARK SMILES Cc1cc(=O)n2cc(-c3ccccc3)nc2n1[C@H](C)C(=O)NCCCCCCNC(=O)c1ccc(-c2c3nc(c(-c4cccc(S(=O)(=O)[O-])c4F)c4ccc([nH]4)c(-c4cccc(S(=O)(=O)[O-])c4F)c4nc(c(-c5cccc(S(=O)(=O)[O-])c5F)c5ccc2[nH]5)C=C4)C=C3)cc1
REMARK SMILES IDX 26 1 25 2 24 3 23 4 22 5 20 6 21 7 18 9 19 10 17 11 1 12
REMARK SMILES IDX 2 13 3 14 4 15 16 16 5 17 6 18 15 19 7 20 8 21 9 22 10 23
REMARK SMILES IDX 14 24 11 25 13 26 12 27 27 28 28 29 29 30 30 31 31 33 32 34
REMARK SMILES IDX 33 35 94 36 34 37 93 38 35 39 36 40 37 41 87 42 38 43 92 44
REMARK SMILES IDX 86 45 88 46 39 47 91 48 85 49 84 50 40 52 72 53 52 54 71 55
REMARK SMILES IDX 53 56 56 57 70 58 89 59 54 60 55 61 69 63 90 64 57 65 41 66
REMARK SMILES IDX 42 67 50 68 43 69 45 70 51 71 44 72 46 73 47 74 48 75 49 76
REMARK SMILES IDX 73 77 74 78 82 79 75 80 77 81 83 82 76 83 78 84 79 85 80 86
REMARK SMILES IDX 81 87 58 88 59 89 67 90 60 91 62 92 68 93 61 94 63 95 64 96
REMARK SMILES IDX 65 97 66 98
REMARK H PARENT 22 8 29 32 88 51 56 62
REMARK Flexibility Score: inf
ROOT
ATOM      1  C   UNL A   1      32.886  29.744  25.374  1.00  0.00     0.002 C 
ENDROOT
BRANCH   1   2
ATOM      2  C   UNL A   1      33.222  28.347  24.829  1.00  0.00     0.002 C 
BRANCH   2   3
ATOM      3  C   UNL A   1      34.098  27.470  25.715  1.00  0.00     0.021 C 
BRANCH   3   4
ATOM      4  C   UNL A   1      33.543  26.085  25.995  1.00  0.00     0.116 C 
BRANCH   4   5
ATOM      5  N   UNL A   1      32.167  26.086  26.424  1.00  0.00    -0.354 N 
ATOM      6  C   UNL A   1      31.219  25.129  26.208  1.00  0.00     0.242 C 
ATOM      7  O   UNL A   1      30.118  25.305  26.749  1.00  0.00    -0.273 OA
ATOM      8  H   UNL A   1      31.875  26.875  26.935  1.00  0.00     0.163 HD
BRANCH   6   9
ATOM      9  C   UNL A   1      31.486  23.861  25.355  1.00  0.00     0.176 C 
ATOM     10  C   UNL A   1      30.521  22.715  25.656  1.00  0.00     0.042 C 
BRANCH   9  11
ATOM     11  N   UNL A   1      31.803  24.215  23.921  1.00  0.00    -0.303 N 
ATOM     12  C   UNL A   1      33.390  22.228  23.727  1.00  0.00     0.065 C 
ATOM     13  C   UNL A   1      32.782  23.501  23.183  1.00  0.00     0.024 A 
ATOM     14  C   UNL A   1      33.218  23.918  21.980  1.00  0.00     0.093 A 
ATOM     15  C   UNL A   1      32.717  25.175  21.391  1.00  0.00     0.259 A 
ATOM     16  C   UNL A   1      31.244  25.340  23.354  1.00  0.00     0.218 A 
ATOM     17  O   UNL A   1      33.123  25.649  20.348  1.00  0.00    -0.269 OA
ATOM     18  N   UNL A   1      31.734  25.805  22.142  1.00  0.00    -0.251 N 
ATOM     19  N   UNL A   1      30.305  26.148  23.791  1.00  0.00    -0.212 NA
ATOM     20  C   UNL A   1      31.111  27.005  21.870  1.00  0.00     0.127 A 
ATOM     21  C   UNL A   1      30.232  27.191  22.906  1.00  0.00     0.091 A 
BRANCH  21  22
ATOM     22  C   UNL A   1      29.394  28.352  23.105  1.00  0.00     0.002 A 
ATOM     23  C   UNL A   1      29.954  29.615  23.310  1.00  0.00     0.010 A 
ATOM     24  C   UNL A   1      28.001  28.219  23.051  1.00  0.00     0.010 A 
ATOM     25  C   UNL A   1      29.128  30.734  23.439  1.00  0.00     0.001 A 
ATOM     26  C   UNL A   1      27.176  29.335  23.191  1.00  0.00     0.001 A 
ATOM     27  C   UNL A   1      27.742  30.595  23.378  1.00  0.00     0.000 A 
ENDBRANCH  21  22
ENDBRANCH   9  11
ENDBRANCH   6   9
ENDBRANCH   4   5
ENDBRANCH   3   4
ENDBRANCH   2   3
ENDBRANCH   1   2
BRANCH   1  28
ATOM     28  C   UNL A   1      33.059  29.968  26.883  1.00  0.00     0.021 C 
BRANCH  28  29
ATOM     29  C   UNL A   1      34.408  30.549  27.271  1.00  0.00     0.116 C 
BRANCH  29  30
ATOM     30  N   UNL A   1      34.283  31.622  28.254  1.00  0.00    -0.352 N 
ATOM     31  C   UNL A   1      34.998  31.791  29.421  1.00  0.00     0.251 C 
ATOM     32  H   UNL A   1      33.606  32.310  28.059  1.00  0.00     0.163 HD
ATOM     33  O   UNL A   1      34.574  32.513  30.316  1.00  0.00    -0.269 OA
BRANCH  31  34
ATOM     34  C   UNL A   1      36.291  31.102  29.564  1.00  0.00     0.039 A 
ATOM     35  C   UNL A   1      36.365  29.710  29.668  1.00  0.00     0.014 A 
ATOM     36  C   UNL A   1      37.444  31.884  29.608  1.00  0.00     0.014 A 
ATOM     37  C   UNL A   1      37.617  29.111  29.770  1.00  0.00     0.010 A 
ATOM     38  C   UNL A   1      38.675  31.291  29.553  1.00  0.00     0.010 A 
ATOM     39  C   UNL A   1      38.766  29.913  29.708  1.00  0.00    -0.014 A 
BRANCH  39  40
ATOM     40  C   UNL A   1      40.097  29.326  29.694  1.00  0.00     0.031 A 
ATOM     41  C   UNL A   1      40.679  29.106  31.044  1.00  0.00     0.074 A 
ATOM     42  C   UNL A   1      40.630  28.803  28.568  1.00  0.00     0.049 A 
ATOM     43  N   UNL A   1      41.723  29.669  31.551  1.00  0.00    -0.248 NA
ATOM     44  C   UNL A   1      39.930  28.283  32.004  1.00  0.00     0.031 C 
ATOM     45  C   UNL A   1      40.011  28.684  27.240  1.00  0.00     0.029 A 
ATOM     46  N   UNL A   1      41.789  28.112  28.413  1.00  0.00    -0.354 N 
ATOM     47  C   UNL A   1      41.896  29.092  32.808  1.00  0.00     0.074 A 
ATOM     48  C   UNL A   1      40.663  28.416  33.111  1.00  0.00     0.031 C 
ATOM     49  C   UNL A   1      40.667  27.747  26.520  1.00  0.00     0.029 A 
ATOM     50  C   UNL A   1      41.838  27.324  27.265  1.00  0.00     0.049 A 
ATOM     51  H   UNL A   1      42.531  28.162  29.058  1.00  0.00     0.167 HD
ATOM     52  C   UNL A   1      43.128  29.017  33.384  1.00  0.00     0.034 A 
ATOM     53  C   UNL A   1      42.745  26.355  26.986  1.00  0.00     0.034 A 
ATOM     54  C   UNL A   1      44.072  29.859  32.692  1.00  0.00     0.049 A 
ATOM     55  C   UNL A   1      43.927  26.619  27.842  1.00  0.00     0.074 A 
ATOM     56  C   UNL A   1      44.141  31.209  32.414  1.00  0.00     0.029 A 
ATOM     57  N   UNL A   1      44.916  29.242  31.799  1.00  0.00    -0.354 N 
ATOM     58  N   UNL A   1      44.678  27.678  27.711  1.00  0.00    -0.248 NA
ATOM     59  C   UNL A   1      43.984  25.963  29.138  1.00  0.00     0.031 C 
ATOM     60  C   UNL A   1      44.619  31.277  31.073  1.00  0.00     0.029 A 
ATOM     61  C   UNL A   1      44.899  29.978  30.643  1.00  0.00     0.049 A 
ATOM     62  H   UNL A   1      45.436  28.422  31.959  1.00  0.00     0.167 HD
ATOM     63  C   UNL A   1      44.912  28.091  29.015  1.00  0.00     0.074 A 
ATOM     64  C   UNL A   1      44.554  26.941  29.849  1.00  0.00     0.031 C 
ATOM     65  C   UNL A   1      45.074  29.412  29.322  1.00  0.00     0.034 A 
BRANCH  52  66
ATOM     66  C   UNL A   1      43.598  27.942  34.336  1.00  0.00     0.023 A 
ATOM     67  C   UNL A   1      44.153  28.373  35.564  1.00  0.00     0.012 A 
ATOM     68  C   UNL A   1      43.775  26.582  33.998  1.00  0.00     0.148 A 
ATOM     69  C   UNL A   1      44.899  27.515  36.378  1.00  0.00     0.002 A 
ATOM     70  C   UNL A   1      44.451  25.712  34.848  1.00  0.00     0.091 A 
ATOM     71  F   UNL A   1      43.405  26.136  32.795  1.00  0.00    -0.205 F 
ATOM     72  C   UNL A   1      45.045  26.181  36.022  1.00  0.00     0.022 A 
BRANCH  70  73
ATOM     73  S   UNL A   1      44.626  23.964  34.467  1.00  0.00     0.127 S 
ATOM     74  O   UNL A   1      45.379  23.486  35.623  1.00  0.00    -0.237 OA
ATOM     75  O   UNL A   1      43.231  23.530  34.412  1.00  0.00    -0.237 OA
ATOM     76  O   UNL A   1      45.318  23.909  33.184  1.00  0.00    -0.744 OA
ENDBRANCH  70  73
ENDBRANCH  52  66
BRANCH  53  77
ATOM     77  C   UNL A   1      42.580  25.075  26.254  1.00  0.00     0.023 A 
ATOM     78  C   UNL A   1      43.547  24.682  25.304  1.00  0.00     0.012 A 
ATOM     79  C   UNL A   1      41.650  24.104  26.691  1.00  0.00     0.148 A 
ATOM     80  C   UNL A   1      43.613  23.360  24.841  1.00  0.00     0.002 A 
ATOM     81  C   UNL A   1      41.722  22.791  26.230  1.00  0.00     0.091 A 
ATOM     82  F   UNL A   1      40.756  24.444  27.629  1.00  0.00    -0.205 F 
ATOM     83  C   UNL A   1      42.709  22.413  25.312  1.00  0.00     0.022 A 
BRANCH  81  84
ATOM     84  S   UNL A   1      40.624  21.502  26.837  1.00  0.00     0.127 S 
ATOM     85  O   UNL A   1      39.316  21.985  26.395  1.00  0.00    -0.237 OA
ATOM     86  O   UNL A   1      41.117  20.328  26.125  1.00  0.00    -0.237 OA
ATOM     87  O   UNL A   1      40.798  21.481  28.284  1.00  0.00    -0.744 OA
ENDBRANCH  81  84
ENDBRANCH  53  77
BRANCH  65  88
ATOM     88  C   UNL A   1      45.180  30.409  28.190  1.00  0.00     0.023 A 
ATOM     89  C   UNL A   1      44.045  30.967  27.563  1.00  0.00     0.012 A 
ATOM     90  C   UNL A   1      46.441  30.963  27.915  1.00  0.00     0.148 A 
ATOM     91  C   UNL A   1      44.166  32.042  26.677  1.00  0.00     0.002 A 
ATOM     92  C   UNL A   1      46.552  32.067  27.078  1.00  0.00     0.091 A 
ATOM     93  F   UNL A   1      47.513  30.426  28.518  1.00  0.00    -0.205 F 
ATOM     94  C   UNL A   1      45.418  32.604  26.449  1.00  0.00     0.022 A 
BRANCH  92  95
ATOM     95  S   UNL A   1      48.112  32.928  26.866  1.00  0.00     0.127 S 
ATOM     96  O   UNL A   1      49.001  31.847  26.447  1.00  0.00    -0.237 OA
ATOM     97  O   UNL A   1      47.794  33.899  25.818  1.00  0.00    -0.237 OA
ATOM     98  O   UNL A   1      48.419  33.527  28.159  1.00  0.00    -0.744 OA
ENDBRANCH  92  95
ENDBRANCH  65  88
ENDBRANCH  39  40
ENDBRANCH  31  34
ENDBRANCH  29  30
ENDBRANCH  28  29
ENDBRANCH   1  28
TORSDOF 18
ENDMDL
MODEL 2
REMARK VINA RESULT:     -12.4      2.299      4.428
REMARK SMILES Cc1cc(=O)n2cc(-c3ccccc3)nc2n1[C@H](C)C(=O)NCCCCCCNC(=O)c1ccc(-c2c3nc(c(-c4cccc(S(=O)(=O)[O-])c4F)c4ccc([nH]4)c(-c4cccc(S(=O)(=O)[O-])c4F)c4nc(c(-c5cccc(S(=O)(=O)[O-])c5F)c5ccc2[nH]5)C=C4)C=C3)cc1
REMARK SMILES IDX 26 1 25 2 24 3 23 4 22 5 20 6 21 7 18 9 19 10 17 11 1 12
REMARK SMILES IDX 2 13 3 14 4 15 16 16 5 17 6 18 15 19 7 20 8 21 9 22 10 23
REMARK SMILES IDX 14 24 11 25 13 26 12 27 27 28 28 29 29 30 30 31 31 33 32 34
REMARK SMILES IDX 33 35 94 36 34 37 93 38 35 39 36 40 37 41 87 42 38 43 92 44
REMARK SMILES IDX 86 45 88 46 39 47 91 48 85 49 84 50 40 52 72 53 52 54 71 55
REMARK SMILES IDX 53 56 56 57 70 58 89 59 54 60 55 61 69 63 90 64 57 65 41 66
REMARK SMILES IDX 42 67 50 68 43 69 45 70 51 71 44 72 46 73 47 74 48 75 49 76
REMARK SMILES IDX 73 77 74 78 82 79 75 80 77 81 83 82 76 83 78 84 79 85 80 86
REMARK SMILES IDX 81 87 58 88 59 89 67 90 60 91 62 92 68 93 61 94 63 95 64 96
REMARK SMILES IDX 65 97 66 98
REMARK H PARENT 22 8 29 32 88 51 56 62
REMARK Flexibility Score: inf
ROOT
ATOM      1  C   UNL A   1      31.703  28.956  25.208  1.00  0.00     0.002 C 
ENDROOT
BRANCH   1   2
ATOM      2  C   UNL A   1      30.934  28.818  23.886  1.00  0.00     0.002 C 
BRANCH   2   3
ATOM      3  C   UNL A   1      30.268  27.471  23.631  1.00  0.00     0.021 C 
BRANCH   3   4
ATOM      4  C   UNL A   1      30.846  26.310  24.421  1.00  0.00     0.116 C 
BRANCH   4   5
ATOM      5  N   UNL A   1      30.984  25.098  23.653  1.00  0.00    -0.354 N 
ATOM      6  C   UNL A   1      31.433  23.882  24.077  1.00  0.00     0.242 C 
ATOM      7  O   UNL A   1      31.384  22.953  23.258  1.00  0.00    -0.273 OA
ATOM      8  H   UNL A   1      30.722  25.155  22.706  1.00  0.00     0.163 HD
BRANCH   6   9
ATOM      9  C   UNL A   1      31.960  23.636  25.516  1.00  0.00     0.176 C 
ATOM     10  C   UNL A   1      31.013  22.800  26.374  1.00  0.00     0.042 C 
BRANCH   9  11
ATOM     11  N   UNL A   1      33.439  23.329  25.518  1.00  0.00    -0.303 N 
ATOM     12  C   UNL A   1      34.008  25.808  25.709  1.00  0.00     0.065 C 
ATOM     13  C   UNL A   1      34.409  24.364  25.506  1.00  0.00     0.024 A 
ATOM     14  C   UNL A   1      35.718  24.118  25.312  1.00  0.00     0.093 A 
ATOM     15  C   UNL A   1      36.198  22.746  25.058  1.00  0.00     0.259 A 
ATOM     16  C   UNL A   1      33.869  22.026  25.381  1.00  0.00     0.218 A 
ATOM     17  O   UNL A   1      37.351  22.463  24.798  1.00  0.00    -0.269 OA
ATOM     18  N   UNL A   1      35.208  21.774  25.121  1.00  0.00    -0.251 N 
ATOM     19  N   UNL A   1      33.202  20.894  25.400  1.00  0.00    -0.212 NA
ATOM     20  C   UNL A   1      35.345  20.422  24.890  1.00  0.00     0.127 A 
ATOM     21  C   UNL A   1      34.088  19.903  25.071  1.00  0.00     0.091 A 
BRANCH  21  22
ATOM     22  C   UNL A   1      33.707  18.524  24.869  1.00  0.00     0.002 A 
ATOM     23  C   UNL A   1      34.270  17.766  23.839  1.00  0.00     0.010 A 
ATOM     24  C   UNL A   1      32.791  17.923  25.742  1.00  0.00     0.010 A 
ATOM     25  C   UNL A   1      33.935  16.417  23.699  1.00  0.00     0.001 A 
ATOM     26  C   UNL A   1      32.448  16.578  25.594  1.00  0.00     0.001 A 
ATOM     27  C   UNL A   1      33.027  15.824  24.576  1.00  0.00     0.000 A 
ENDBRANCH  21  22
ENDBRANCH   9  11
ENDBRANCH   6   9
ENDBRANCH   4   5
ENDBRANCH   3   4
ENDBRANCH   2   3
ENDBRANCH   1   2
BRANCH   1  28
ATOM     28  C   UNL A   1      33.207  29.257  25.118  1.00  0.00     0.021 C 
BRANCH  28  29
ATOM     29  C   UNL A   1      33.867  29.518  26.460  1.00  0.00     0.116 C 
BRANCH  29  30
ATOM     30  N   UNL A   1      33.856  30.935  26.813  1.00  0.00    -0.352 N 
ATOM     31  C   UNL A   1      34.637  31.584  27.745  1.00  0.00     0.251 C 
ATOM     32  H   UNL A   1      33.211  31.497  26.323  1.00  0.00     0.163 HD
ATOM     33  O   UNL A   1      34.302  32.675  28.193  1.00  0.00    -0.269 OA
BRANCH  31  34
ATOM     34  C   UNL A   1      35.893  30.950  28.178  1.00  0.00     0.039 A 
ATOM     35  C   UNL A   1      36.101  29.575  28.033  1.00  0.00     0.014 A 
ATOM     36  C   UNL A   1      36.868  31.762  28.755  1.00  0.00     0.014 A 
ATOM     37  C   UNL A   1      37.319  29.035  28.433  1.00  0.00     0.010 A 
ATOM     38  C   UNL A   1      38.116  31.262  29.004  1.00  0.00     0.010 A 
ATOM     39  C   UNL A   1      38.321  29.890  28.914  1.00  0.00    -0.014 A 
BRANCH  39  40
ATOM     40  C   UNL A   1      39.649  29.392  29.235  1.00  0.00     0.031 A 
ATOM     41  C   UNL A   1      39.998  29.475  30.678  1.00  0.00     0.074 A 
ATOM     42  C   UNL A   1      40.381  28.691  28.340  1.00  0.00     0.049 A 
ATOM     43  N   UNL A   1      40.925  30.187  31.223  1.00  0.00    -0.248 NA
ATOM     44  C   UNL A   1      39.118  28.812  31.650  1.00  0.00     0.031 C 
ATOM     45  C   UNL A   1      40.001  28.278  26.981  1.00  0.00     0.029 A 
ATOM     46  N   UNL A   1      41.566  28.053  28.519  1.00  0.00    -0.354 N 
ATOM     47  C   UNL A   1      40.896  29.877  32.581  1.00  0.00     0.074 A 
ATOM     48  C   UNL A   1      39.647  29.202  32.811  1.00  0.00     0.031 C 
ATOM     49  C   UNL A   1      40.794  27.260  26.582  1.00  0.00     0.029 A 
ATOM     50  C   UNL A   1      41.831  27.061  27.577  1.00  0.00     0.049 A 
ATOM     51  H   UNL A   1      42.186  28.272  29.251  1.00  0.00     0.167 HD
ATOM     52  C   UNL A   1      42.013  29.990  33.353  1.00  0.00     0.034 A 
ATOM     53  C   UNL A   1      42.797  26.112  27.651  1.00  0.00     0.034 A 
ATOM     54  C   UNL A   1      43.039  30.735  32.667  1.00  0.00     0.049 A 
ATOM     55  C   UNL A   1      43.808  26.608  28.616  1.00  0.00     0.074 A 
ATOM     56  C   UNL A   1      43.120  32.006  32.136  1.00  0.00     0.029 A 
ATOM     57  N   UNL A   1      44.039  30.006  32.066  1.00  0.00    -0.354 N 
ATOM     58  N   UNL A   1      44.543  27.663  28.397  1.00  0.00    -0.248 NA
ATOM     59  C   UNL A   1      43.660  26.222  30.009  1.00  0.00     0.031 C 
ATOM     60  C   UNL A   1      43.818  31.840  30.905  1.00  0.00     0.029 A 
ATOM     61  C   UNL A   1      44.201  30.501  30.798  1.00  0.00     0.049 A 
ATOM     62  H   UNL A   1      44.545  29.266  32.472  1.00  0.00     0.167 HD
ATOM     63  C   UNL A   1      44.540  28.336  29.611  1.00  0.00     0.074 A 
ATOM     64  C   UNL A   1      44.075  27.352  30.591  1.00  0.00     0.031 C 
ATOM     65  C   UNL A   1      44.613  29.699  29.666  1.00  0.00     0.034 A 
BRANCH  52  66
ATOM     66  C   UNL A   1      42.341  29.151  34.567  1.00  0.00     0.023 A 
ATOM     67  C   UNL A   1      42.849  29.833  35.697  1.00  0.00     0.012 A 
ATOM     68  C   UNL A   1      42.437  27.742  34.574  1.00  0.00     0.148 A 
ATOM     69  C   UNL A   1      43.477  29.155  36.747  1.00  0.00     0.002 A 
ATOM     70  C   UNL A   1      42.992  27.065  35.656  1.00  0.00     0.091 A 
ATOM     71  F   UNL A   1      42.111  27.040  33.486  1.00  0.00    -0.205 F 
ATOM     72  C   UNL A   1      43.544  27.769  36.729  1.00  0.00     0.022 A 
BRANCH  70  73
ATOM     73  S   UNL A   1      43.060  25.270  35.715  1.00  0.00     0.127 S 
ATOM     74  O   UNL A   1      43.978  24.975  34.619  1.00  0.00    -0.237 OA
ATOM     75  O   UNL A   1      43.597  25.036  37.055  1.00  0.00    -0.237 OA
ATOM     76  O   UNL A   1      41.684  24.819  35.537  1.00  0.00    -0.744 OA
ENDBRANCH  70  73
ENDBRANCH  52  66
BRANCH  53  77
ATOM     77  C   UNL A   1      42.792  24.705  27.176  1.00  0.00     0.023 A 
ATOM     78  C   UNL A   1      41.585  23.974  27.170  1.00  0.00     0.012 A 
ATOM     79  C   UNL A   1      43.887  24.180  26.454  1.00  0.00     0.148 A 
ATOM     80  C   UNL A   1      41.462  22.785  26.437  1.00  0.00     0.002 A 
ATOM     81  C   UNL A   1      43.758  23.000  25.725  1.00  0.00     0.091 A 
ATOM     82  F   UNL A   1      45.025  24.884  26.406  1.00  0.00    -0.205 F 
ATOM     83  C   UNL A   1      42.543  22.305  25.705  1.00  0.00     0.022 A 
BRANCH  81  84
ATOM     84  S   UNL A   1      45.095  22.351  24.710  1.00  0.00     0.127 S 
ATOM     85  O   UNL A   1      46.154  22.148  25.699  1.00  0.00    -0.237 OA
ATOM     86  O   UNL A   1      44.504  21.124  24.184  1.00  0.00    -0.237 OA
ATOM     87  O   UNL A   1      45.385  23.385  23.725  1.00  0.00    -0.744 OA
ENDBRANCH  81  84
ENDBRANCH  53  77
BRANCH  65  88
ATOM     88  C   UNL A   1      44.885  30.460  28.387  1.00  0.00     0.023 A 
ATOM     89  C   UNL A   1      43.851  30.918  27.543  1.00  0.00     0.012 A 
ATOM     90  C   UNL A   1      46.193  30.919  28.158  1.00  0.00     0.148 A 
ATOM     91  C   UNL A   1      44.115  31.803  26.493  1.00  0.00     0.002 A 
ATOM     92  C   UNL A   1      46.444  31.840  27.150  1.00  0.00     0.091 A 
ATOM     93  F   UNL A   1      47.169  30.478  28.968  1.00  0.00    -0.205 F 
ATOM     94  C   UNL A   1      45.409  32.279  26.308  1.00  0.00     0.022 A 
BRANCH  92  95
ATOM     95  S   UNL A   1      48.055  32.605  26.959  1.00  0.00     0.127 S 
ATOM     96  O   UNL A   1      48.296  33.144  28.296  1.00  0.00    -0.237 OA
ATOM     97  O   UNL A   1      48.902  31.466  26.597  1.00  0.00    -0.237 OA
ATOM     98  O   UNL A   1      47.908  33.595  25.900  1.00  0.00    -0.744 OA
ENDBRANCH  92  95
ENDBRANCH  65  88
ENDBRANCH  39  40
ENDBRANCH  31  34
ENDBRANCH  29  30
ENDBRANCH  28  29
ENDBRANCH   1  28
TORSDOF 18
ENDMDL
MODEL 3
REMARK VINA RESULT:     -12.3      1.773      4.049
REMARK SMILES Cc1cc(=O)n2cc(-c3ccccc3)nc2n1[C@H](C)C(=O)NCCCCCCNC(=O)c1ccc(-c2c3nc(c(-c4cccc(S(=O)(=O)[O-])c4F)c4ccc([nH]4)c(-c4cccc(S(=O)(=O)[O-])c4F)c4nc(c(-c5cccc(S(=O)(=O)[O-])c5F)c5ccc2[nH]5)C=C4)C=C3)cc1
REMARK SMILES IDX 26 1 25 2 24 3 23 4 22 5 20 6 21 7 18 9 19 10 17 11 1 12
REMARK SMILES IDX 2 13 3 14 4 15 16 16 5 17 6 18 15 19 7 20 8 21 9 22 10 23
REMARK SMILES IDX 14 24 11 25 13 26 12 27 27 28 28 29 29 30 30 31 31 33 32 34
REMARK SMILES IDX 33 35 94 36 34 37 93 38 35 39 36 40 37 41 87 42 38 43 92 44
REMARK SMILES IDX 86 45 88 46 39 47 91 48 85 49 84 50 40 52 72 53 52 54 71 55
REMARK SMILES IDX 53 56 56 57 70 58 89 59 54 60 55 61 69 63 90 64 57 65 41 66
REMARK SMILES IDX 42 67 50 68 43 69 45 70 51 71 44 72 46 73 47 74 48 75 49 76
REMARK SMILES IDX 73 77 74 78 82 79 75 80 77 81 83 82 76 83 78 84 79 85 80 86
REMARK SMILES IDX 81 87 58 88 59 89 67 90 60 91 62 92 68 93 61 94 63 95 64 96
REMARK SMILES IDX 65 97 66 98
REMARK H PARENT 22 8 29 32 88 51 56 62
REMARK Flexibility Score: inf
ROOT
ATOM      1  C   UNL A   1      31.954  28.911  25.884  1.00  0.00     0.002 C 
ENDROOT
BRANCH   1   2
ATOM      2  C   UNL A   1      31.028  29.002  24.661  1.00  0.00     0.002 C 
BRANCH   2   3
ATOM      3  C   UNL A   1      30.876  27.731  23.834  1.00  0.00     0.021 C 
BRANCH   3   4
ATOM      4  C   UNL A   1      30.579  26.476  24.635  1.00  0.00     0.116 C 
BRANCH   4   5
ATOM      5  N   UNL A   1      30.677  25.261  23.867  1.00  0.00    -0.354 N 
ATOM      6  C   UNL A   1      31.159  24.050  24.269  1.00  0.00     0.242 C 
ATOM      7  O   UNL A   1      31.064  23.116  23.458  1.00  0.00    -0.273 OA
ATOM      8  H   UNL A   1      30.357  25.311  22.937  1.00  0.00     0.163 HD
BRANCH   6   9
ATOM      9  C   UNL A   1      31.774  23.815  25.674  1.00  0.00     0.176 C 
ATOM     10  C   UNL A   1      30.916  22.922  26.569  1.00  0.00     0.042 C 
BRANCH   9  11
ATOM     11  N   UNL A   1      33.264  23.583  25.592  1.00  0.00    -0.303 N 
ATOM     12  C   UNL A   1      33.717  26.087  25.764  1.00  0.00     0.065 C 
ATOM     13  C   UNL A   1      34.179  24.666  25.533  1.00  0.00     0.024 A 
ATOM     14  C   UNL A   1      35.486  24.486  25.265  1.00  0.00     0.093 A 
ATOM     15  C   UNL A   1      36.019  23.141  24.979  1.00  0.00     0.259 A 
ATOM     16  C   UNL A   1      33.750  22.304  25.426  1.00  0.00     0.218 A 
ATOM     17  O   UNL A   1      37.169  22.917  24.654  1.00  0.00    -0.269 OA
ATOM     18  N   UNL A   1      35.084  22.120  25.091  1.00  0.00    -0.251 N 
ATOM     19  N   UNL A   1      33.143  21.139  25.476  1.00  0.00    -0.212 NA
ATOM     20  C   UNL A   1      35.276  20.777  24.847  1.00  0.00     0.127 A 
ATOM     21  C   UNL A   1      34.059  20.195  25.093  1.00  0.00     0.091 A 
BRANCH  21  22
ATOM     22  C   UNL A   1      33.737  18.799  24.906  1.00  0.00     0.002 A 
ATOM     23  C   UNL A   1      34.620  17.940  24.246  1.00  0.00     0.010 A 
ATOM     24  C   UNL A   1      32.543  18.287  25.429  1.00  0.00     0.010 A 
ATOM     25  C   UNL A   1      34.318  16.581  24.130  1.00  0.00     0.001 A 
ATOM     26  C   UNL A   1      32.237  16.931  25.303  1.00  0.00     0.001 A 
ATOM     27  C   UNL A   1      33.130  16.077  24.659  1.00  0.00     0.000 A 
ENDBRANCH  21  22
ENDBRANCH   9  11
ENDBRANCH   6   9
ENDBRANCH   4   5
ENDBRANCH   3   4
ENDBRANCH   2   3
ENDBRANCH   1   2
BRANCH   1  28
ATOM     28  C   UNL A   1      33.203  29.804  25.887  1.00  0.00     0.021 C 
BRANCH  28  29
ATOM     29  C   UNL A   1      33.983  29.771  27.190  1.00  0.00     0.116 C 
BRANCH  29  30
ATOM     30  N   UNL A   1      33.890  31.033  27.919  1.00  0.00    -0.352 N 
ATOM     31  C   UNL A   1      34.758  31.531  28.868  1.00  0.00     0.251 C 
ATOM     32  H   UNL A   1      33.112  31.599  27.706  1.00  0.00     0.163 HD
ATOM     33  O   UNL A   1      34.400  32.409  29.645  1.00  0.00    -0.269 OA
BRANCH  31  34
ATOM     34  C   UNL A   1      36.131  31.001  28.917  1.00  0.00     0.039 A 
ATOM     35  C   UNL A   1      37.219  31.829  29.210  1.00  0.00     0.014 A 
ATOM     36  C   UNL A   1      36.316  29.647  28.646  1.00  0.00     0.014 A 
ATOM     37  C   UNL A   1      38.491  31.267  29.273  1.00  0.00     0.010 A 
ATOM     38  C   UNL A   1      37.537  29.068  28.858  1.00  0.00     0.010 A 
ATOM     39  C   UNL A   1      38.636  29.884  29.098  1.00  0.00    -0.014 A 
BRANCH  39  40
ATOM     40  C   UNL A   1      39.926  29.232  29.268  1.00  0.00     0.031 A 
ATOM     41  C   UNL A   1      40.320  29.025  30.687  1.00  0.00     0.074 A 
ATOM     42  C   UNL A   1      40.570  28.650  28.233  1.00  0.00     0.049 A 
ATOM     43  N   UNL A   1      41.318  29.552  31.311  1.00  0.00    -0.248 NA
ATOM     44  C   UNL A   1      39.412  28.269  31.562  1.00  0.00     0.031 C 
ATOM     45  C   UNL A   1      40.119  28.521  26.840  1.00  0.00     0.029 A 
ATOM     46  N   UNL A   1      41.701  27.899  28.245  1.00  0.00    -0.354 N 
ATOM     47  C   UNL A   1      41.299  29.005  32.593  1.00  0.00     0.074 A 
ATOM     48  C   UNL A   1      40.005  28.399  32.751  1.00  0.00     0.031 C 
ATOM     49  C   UNL A   1      40.812  27.532  26.232  1.00  0.00     0.029 A 
ATOM     50  C   UNL A   1      41.855  27.075  27.132  1.00  0.00     0.049 A 
ATOM     51  H   UNL A   1      42.357  27.932  28.979  1.00  0.00     0.167 HD
ATOM     52  C   UNL A   1      42.443  28.888  33.324  1.00  0.00     0.034 A 
ATOM     53  C   UNL A   1      42.739  26.055  26.995  1.00  0.00     0.034 A 
ATOM     54  C   UNL A   1      43.509  29.661  32.739  1.00  0.00     0.049 A 
ATOM     55  C   UNL A   1      43.814  26.287  27.989  1.00  0.00     0.074 A 
ATOM     56  C   UNL A   1      43.684  30.997  32.441  1.00  0.00     0.029 A 
ATOM     57  N   UNL A   1      44.427  28.977  31.977  1.00  0.00    -0.354 N 
ATOM     58  N   UNL A   1      44.630  27.303  27.931  1.00  0.00    -0.248 NA
ATOM     59  C   UNL A   1      43.672  25.669  29.297  1.00  0.00     0.031 C 
ATOM     60  C   UNL A   1      44.331  31.002  31.171  1.00  0.00     0.029 A 
ATOM     61  C   UNL A   1      44.596  29.678  30.811  1.00  0.00     0.049 A 
ATOM     62  H   UNL A   1      44.879  28.138  32.222  1.00  0.00     0.167 HD
ATOM     63  C   UNL A   1      44.717  27.744  29.244  1.00  0.00     0.074 A 
ATOM     64  C   UNL A   1      44.197  26.639  30.052  1.00  0.00     0.031 C 
ATOM     65  C   UNL A   1      44.907  29.064  29.538  1.00  0.00     0.034 A 
BRANCH  52  66
ATOM     66  C   UNL A   1      42.731  27.820  34.354  1.00  0.00     0.023 A 
ATOM     67  C   UNL A   1      42.804  28.237  35.704  1.00  0.00     0.012 A 
ATOM     68  C   UNL A   1      43.192  26.517  34.062  1.00  0.00     0.148 A 
ATOM     69  C   UNL A   1      43.366  27.427  36.696  1.00  0.00     0.002 A 
ATOM     70  C   UNL A   1      43.678  25.685  35.066  1.00  0.00     0.091 A 
ATOM     71  F   UNL A   1      43.287  26.107  32.795  1.00  0.00    -0.205 F 
ATOM     72  C   UNL A   1      43.799  26.148  36.378  1.00  0.00     0.022 A 
BRANCH  70  73
ATOM     73  S   UNL A   1      44.204  24.001  34.725  1.00  0.00     0.127 S 
ATOM     74  O   UNL A   1      45.287  24.219  33.770  1.00  0.00    -0.237 OA
ATOM     75  O   UNL A   1      44.627  23.547  36.050  1.00  0.00    -0.237 OA
ATOM     76  O   UNL A   1      43.024  23.316  34.210  1.00  0.00    -0.744 OA
ENDBRANCH  70  73
ENDBRANCH  52  66
BRANCH  53  77
ATOM     77  C   UNL A   1      42.601  24.763  26.278  1.00  0.00     0.023 A 
ATOM     78  C   UNL A   1      43.580  24.377  25.338  1.00  0.00     0.012 A 
ATOM     79  C   UNL A   1      41.688  23.781  26.723  1.00  0.00     0.148 A 
ATOM     80  C   UNL A   1      43.673  23.052  24.891  1.00  0.00     0.002 A 
ATOM     81  C   UNL A   1      41.787  22.464  26.278  1.00  0.00     0.091 A 
ATOM     82  F   UNL A   1      40.784  24.114  27.653  1.00  0.00    -0.205 F 
ATOM     83  C   UNL A   1      42.785  22.093  25.370  1.00  0.00     0.022 A 
BRANCH  81  84
ATOM     84  S   UNL A   1      40.711  21.161  26.898  1.00  0.00     0.127 S 
ATOM     85  O   UNL A   1      40.826  21.336  28.345  1.00  0.00    -0.237 OA
ATOM     86  O   UNL A   1      39.421  21.544  26.334  1.00  0.00    -0.237 OA
ATOM     87  O   UNL A   1      41.272  19.911  26.399  1.00  0.00    -0.744 OA
ENDBRANCH  81  84
ENDBRANCH  53  77
BRANCH  65  88
ATOM     88  C   UNL A   1      45.209  30.021  28.405  1.00  0.00     0.023 A 
ATOM     89  C   UNL A   1      44.198  30.740  27.732  1.00  0.00     0.012 A 
ATOM     90  C   UNL A   1      46.549  30.370  28.176  1.00  0.00     0.148 A 
ATOM     91  C   UNL A   1      44.516  31.774  26.846  1.00  0.00     0.002 A 
ATOM     92  C   UNL A   1      46.861  31.434  27.338  1.00  0.00     0.091 A 
ATOM     93  F   UNL A   1      47.502  29.681  28.823  1.00  0.00    -0.205 F 
ATOM     94  C   UNL A   1      45.848  32.133  26.663  1.00  0.00     0.022 A 
BRANCH  92  95
ATOM     95  S   UNL A   1      48.541  32.041  27.182  1.00  0.00     0.127 S 
ATOM     96  O   UNL A   1      49.228  30.890  26.599  1.00  0.00    -0.237 OA
ATOM     97  O   UNL A   1      48.381  33.180  26.276  1.00  0.00    -0.237 OA
ATOM     98  O   UNL A   1      48.963  32.408  28.528  1.00  0.00    -0.744 OA
ENDBRANCH  92  95
ENDBRANCH  65  88
ENDBRANCH  39  40
ENDBRANCH  31  34
ENDBRANCH  29  30
ENDBRANCH  28  29
ENDBRANCH   1  28
TORSDOF 18
ENDMDL
