MODEL 1
REMARK VINA RESULT:     -10.0      0.000      0.000
REMARK SMILES CC(C)(C[NH2+]CCc1cccnc1)C(=O)NCCCCCCNC(=O)c1ccc(-c2c3nc(c(-c4cccc(S(=O)(=O)[O-])c4F)c4ccc([nH]4)c(-c4cccc(S(=O)(=O)[O-])c4F)c4nc(c(-c5cccc(S(=O)(=O)[O-])c5F)c5ccc2[nH]5)C=C4)C=C3)cc1
REMARK SMILES IDX 18 1 17 2 16 3 14 4 15 5 2 7 1 8 3 9 4 10 5 11 6 14 7 15
REMARK SMILES IDX 8 16 9 17 13 18 10 19 12 20 11 21 19 22 20 23 21 24 22 25
REMARK SMILES IDX 23 26 24 27 25 29 26 30 27 31 88 32 28 33 87 34 29 35 30 36
REMARK SMILES IDX 31 37 81 38 32 39 86 40 80 41 82 42 33 43 85 44 79 45 78 46
REMARK SMILES IDX 34 48 66 49 46 50 65 51 47 52 50 53 64 54 83 55 48 56 49 57
REMARK SMILES IDX 63 59 84 60 51 61 35 62 36 63 44 64 37 65 39 66 45 67 38 68
REMARK SMILES IDX 40 69 41 70 42 71 43 72 67 73 68 74 76 75 69 76 71 77 77 78
REMARK SMILES IDX 70 79 72 80 73 81 74 82 75 83 52 84 53 85 61 86 54 87 56 88
REMARK SMILES IDX 62 89 55 90 57 91 58 92 59 93 60 94
REMARK H PARENT 16 6 5 12 5 13 23 28 82 47 50 58
REMARK Flexibility Score: inf
ROOT
ATOM      1  C   UNL A   1      33.349  25.671  25.844  1.00  0.00     0.021 C 
ENDROOT
BRANCH   1   2
ATOM      2  C   UNL A   1      34.315  25.057  24.833  1.00  0.00     0.116 C 
BRANCH   2   3
ATOM      3  N   UNL A   1      35.579  24.715  25.452  1.00  0.00    -0.355 N 
ATOM      4  C   UNL A   1      36.351  23.600  25.385  1.00  0.00     0.231 C 
ATOM      5  O   UNL A   1      37.363  23.603  26.099  1.00  0.00    -0.274 OA
ATOM      6  H   UNL A   1      35.946  25.423  26.028  1.00  0.00     0.163 HD
BRANCH   4   7
ATOM      7  C   UNL A   1      36.044  22.424  24.434  1.00  0.00     0.092 C 
ATOM      8  C   UNL A   1      37.228  21.423  24.505  1.00  0.00     0.027 C 
ATOM      9  C   UNL A   1      36.003  22.940  22.983  1.00  0.00     0.027 C 
BRANCH   7  10
ATOM     10  C   UNL A   1      34.737  21.665  24.785  1.00  0.00     0.276 C 
BRANCH  10  11
ATOM     11  N   UNL A   1      33.650  21.913  23.832  1.00  0.00    -0.345 N 
ATOM     12  H   UNL A   1      34.056  22.005  22.901  1.00  0.00     0.346 HD
ATOM     13  H   UNL A   1      33.176  22.761  24.140  1.00  0.00     0.346 HD
BRANCH  11  14
ATOM     14  C   UNL A   1      32.640  20.851  23.792  1.00  0.00     0.265 C 
BRANCH  14  15
ATOM     15  C   UNL A   1      32.541  19.932  25.024  1.00  0.00     0.098 C 
BRANCH  15  16
ATOM     16  C   UNL A   1      32.923  18.482  24.849  1.00  0.00    -0.024 A 
ATOM     17  C   UNL A   1      33.789  18.017  23.857  1.00  0.00     0.007 A 
ATOM     18  C   UNL A   1      32.428  17.536  25.746  1.00  0.00     0.114 A 
ATOM     19  C   UNL A   1      34.073  16.656  23.764  1.00  0.00     0.020 A 
ATOM     20  N   UNL A   1      32.698  16.211  25.690  1.00  0.00    -0.264 NA
ATOM     21  C   UNL A   1      33.509  15.801  24.695  1.00  0.00     0.111 A 
ENDBRANCH  15  16
ENDBRANCH  14  15
ENDBRANCH  11  14
ENDBRANCH  10  11
ENDBRANCH   7  10
ENDBRANCH   4   7
ENDBRANCH   2   3
ENDBRANCH   1   2
BRANCH   1  22
ATOM     22  C   UNL A   1      33.031  27.147  25.581  1.00  0.00     0.002 C 
BRANCH  22  23
ATOM     23  C   UNL A   1      31.911  27.732  26.449  1.00  0.00     0.002 C 
BRANCH  23  24
ATOM     24  C   UNL A   1      32.372  28.742  27.503  1.00  0.00     0.021 C 
BRANCH  24  25
ATOM     25  C   UNL A   1      33.657  29.479  27.147  1.00  0.00     0.116 C 
BRANCH  25  26
ATOM     26  N   UNL A   1      33.633  30.861  27.603  1.00  0.00    -0.352 N 
ATOM     27  C   UNL A   1      34.519  31.514  28.420  1.00  0.00     0.251 C 
ATOM     28  H   UNL A   1      32.876  31.402  27.280  1.00  0.00     0.163 HD
ATOM     29  O   UNL A   1      34.237  32.618  28.882  1.00  0.00    -0.269 OA
BRANCH  27  30
ATOM     30  C   UNL A   1      35.809  30.876  28.753  1.00  0.00     0.039 A 
ATOM     31  C   UNL A   1      36.985  31.380  28.193  1.00  0.00     0.014 A 
ATOM     32  C   UNL A   1      35.854  29.787  29.629  1.00  0.00     0.014 A 
ATOM     33  C   UNL A   1      38.214  30.827  28.555  1.00  0.00     0.010 A 
ATOM     34  C   UNL A   1      37.082  29.290  30.048  1.00  0.00     0.010 A 
ATOM     35  C   UNL A   1      38.275  29.798  29.511  1.00  0.00    -0.014 A 
BRANCH  35  36
ATOM     36  C   UNL A   1      39.574  29.241  29.968  1.00  0.00     0.031 A 
ATOM     37  C   UNL A   1      40.321  29.901  31.095  1.00  0.00     0.074 A 
ATOM     38  C   UNL A   1      40.123  28.202  29.310  1.00  0.00     0.049 A 
ATOM     39  N   UNL A   1      41.502  29.617  31.578  1.00  0.00    -0.248 NA
ATOM     40  C   UNL A   1      39.667  31.049  31.746  1.00  0.00     0.031 C 
ATOM     41  C   UNL A   1      39.528  27.519  28.159  1.00  0.00     0.029 A 
ATOM     42  N   UNL A   1      41.320  27.556  29.494  1.00  0.00    -0.354 N 
ATOM     43  C   UNL A   1      41.749  30.569  32.560  1.00  0.00     0.074 A 
ATOM     44  C   UNL A   1      40.611  31.460  32.579  1.00  0.00     0.031 C 
ATOM     45  C   UNL A   1      40.358  26.550  27.743  1.00  0.00     0.029 A 
ATOM     46  C   UNL A   1      41.562  26.568  28.568  1.00  0.00     0.049 A 
ATOM     47  H   UNL A   1      41.948  27.781  30.219  1.00  0.00     0.167 HD
ATOM     48  C   UNL A   1      42.814  30.676  33.390  1.00  0.00     0.034 A 
ATOM     49  C   UNL A   1      42.638  25.775  28.394  1.00  0.00     0.034 A 
ATOM     50  C   UNL A   1      43.928  29.767  33.388  1.00  0.00     0.049 A 
ATOM     51  C   UNL A   1      43.804  25.906  29.337  1.00  0.00     0.074 A 
ATOM     52  C   UNL A   1      45.017  29.741  34.240  1.00  0.00     0.029 A 
ATOM     53  N   UNL A   1      44.104  28.732  32.483  1.00  0.00    -0.354 N 
ATOM     54  N   UNL A   1      43.955  26.720  30.354  1.00  0.00    -0.248 NA
ATOM     55  C   UNL A   1      44.933  24.987  29.131  1.00  0.00     0.031 C 
ATOM     56  C   UNL A   1      45.870  28.712  33.828  1.00  0.00     0.029 A 
ATOM     57  C   UNL A   1      45.291  28.070  32.745  1.00  0.00     0.049 A 
ATOM     58  H   UNL A   1      43.477  28.502  31.759  1.00  0.00     0.167 HD
ATOM     59  C   UNL A   1      45.173  26.384  30.933  1.00  0.00     0.074 A 
ATOM     60  C   UNL A   1      45.713  25.284  30.162  1.00  0.00     0.031 C 
ATOM     61  C   UNL A   1      45.792  26.943  32.002  1.00  0.00     0.034 A 
BRANCH  48  62
ATOM     62  C   UNL A   1      42.807  31.798  34.396  1.00  0.00     0.023 A 
ATOM     63  C   UNL A   1      43.370  33.046  34.058  1.00  0.00     0.012 A 
ATOM     64  C   UNL A   1      42.199  31.634  35.658  1.00  0.00     0.148 A 
ATOM     65  C   UNL A   1      43.366  34.099  34.972  1.00  0.00     0.002 A 
ATOM     66  C   UNL A   1      42.156  32.703  36.544  1.00  0.00     0.091 A 
ATOM     67  F   UNL A   1      41.687  30.435  35.970  1.00  0.00    -0.205 F 
ATOM     68  C   UNL A   1      42.751  33.931  36.209  1.00  0.00     0.022 A 
BRANCH  66  69
ATOM     69  S   UNL A   1      41.315  32.614  38.129  1.00  0.00     0.127 S 
ATOM     70  O   UNL A   1      40.024  32.044  37.746  1.00  0.00    -0.237 OA
ATOM     71  O   UNL A   1      42.181  31.708  38.885  1.00  0.00    -0.237 OA
ATOM     72  O   UNL A   1      41.269  33.977  38.637  1.00  0.00    -0.744 OA
ENDBRANCH  66  69
ENDBRANCH  48  62
BRANCH  49  73
ATOM     73  C   UNL A   1      42.641  24.750  27.312  1.00  0.00     0.023 A 
ATOM     74  C   UNL A   1      43.228  25.057  26.069  1.00  0.00     0.012 A 
ATOM     75  C   UNL A   1      42.089  23.470  27.513  1.00  0.00     0.148 A 
ATOM     76  C   UNL A   1      43.236  24.121  25.035  1.00  0.00     0.002 A 
ATOM     77  C   UNL A   1      42.151  22.523  26.498  1.00  0.00     0.091 A 
ATOM     78  F   UNL A   1      41.529  23.200  28.700  1.00  0.00    -0.205 F 
ATOM     79  C   UNL A   1      42.706  22.852  25.252  1.00  0.00     0.022 A 
BRANCH  77  80
ATOM     80  S   UNL A   1      41.611  20.825  26.728  1.00  0.00     0.127 S 
ATOM     81  O   UNL A   1      42.235  20.156  25.590  1.00  0.00    -0.237 OA
ATOM     82  O   UNL A   1      42.193  20.499  28.031  1.00  0.00    -0.237 OA
ATOM     83  O   UNL A   1      40.155  20.868  26.716  1.00  0.00    -0.744 OA
ENDBRANCH  77  80
ENDBRANCH  49  73
BRANCH  61  84
ATOM     84  C   UNL A   1      47.104  26.349  32.445  1.00  0.00     0.023 A 
ATOM     85  C   UNL A   1      48.319  26.911  32.007  1.00  0.00     0.012 A 
ATOM     86  C   UNL A   1      47.126  25.286  33.370  1.00  0.00     0.148 A 
ATOM     87  C   UNL A   1      49.537  26.404  32.463  1.00  0.00     0.002 A 
ATOM     88  C   UNL A   1      48.340  24.823  33.860  1.00  0.00     0.091 A 
ATOM     89  F   UNL A   1      45.958  24.755  33.761  1.00  0.00    -0.205 F 
ATOM     90  C   UNL A   1      49.547  25.372  33.398  1.00  0.00     0.022 A 
BRANCH  88  91
ATOM     91  S   UNL A   1      48.450  23.568  35.140  1.00  0.00     0.127 S 
ATOM     92  O   UNL A   1      49.897  23.459  35.327  1.00  0.00    -0.237 OA
ATOM     93  O   UNL A   1      47.737  24.197  36.251  1.00  0.00    -0.237 OA
ATOM     94  O   UNL A   1      47.804  22.380  34.599  1.00  0.00    -0.744 OA
ENDBRANCH  88  91
ENDBRANCH  61  84
ENDBRANCH  35  36
ENDBRANCH  27  30
ENDBRANCH  25  26
ENDBRANCH  24  25
ENDBRANCH  23  24
ENDBRANCH  22  23
ENDBRANCH   1  22
TORSDOF 21
ENDMDL
MODEL 2
REMARK VINA RESULT:      -9.9      5.305      8.800
REMARK SMILES CC(C)(C[NH2+]CCc1cccnc1)C(=O)NCCCCCCNC(=O)c1ccc(-c2c3nc(c(-c4cccc(S(=O)(=O)[O-])c4F)c4ccc([nH]4)c(-c4cccc(S(=O)(=O)[O-])c4F)c4nc(c(-c5cccc(S(=O)(=O)[O-])c5F)c5ccc2[nH]5)C=C4)C=C3)cc1
REMARK SMILES IDX 18 1 17 2 16 3 14 4 15 5 2 7 1 8 3 9 4 10 5 11 6 14 7 15
REMARK SMILES IDX 8 16 9 17 13 18 10 19 12 20 11 21 19 22 20 23 21 24 22 25
REMARK SMILES IDX 23 26 24 27 25 29 26 30 27 31 88 32 28 33 87 34 29 35 30 36
REMARK SMILES IDX 31 37 81 38 32 39 86 40 80 41 82 42 33 43 85 44 79 45 78 46
REMARK SMILES IDX 34 48 66 49 46 50 65 51 47 52 50 53 64 54 83 55 48 56 49 57
REMARK SMILES IDX 63 59 84 60 51 61 35 62 36 63 44 64 37 65 39 66 45 67 38 68
REMARK SMILES IDX 40 69 41 70 42 71 43 72 67 73 68 74 76 75 69 76 71 77 77 78
REMARK SMILES IDX 70 79 72 80 73 81 74 82 75 83 52 84 53 85 61 86 54 87 56 88
REMARK SMILES IDX 62 89 55 90 57 91 58 92 59 93 60 94
REMARK H PARENT 16 6 5 12 5 13 23 28 82 47 50 58
REMARK Flexibility Score: inf
ROOT
ATOM      1  C   UNL A   1      34.109  22.539  23.424  1.00  0.00     0.021 C 
ENDROOT
BRANCH   1   2
ATOM      2  C   UNL A   1      32.672  23.029  23.263  1.00  0.00     0.116 C 
BRANCH   2   3
ATOM      3  N   UNL A   1      31.917  22.861  24.488  1.00  0.00    -0.355 N 
ATOM      4  C   UNL A   1      31.221  23.740  25.254  1.00  0.00     0.231 C 
ATOM      5  O   UNL A   1      30.732  23.277  26.293  1.00  0.00    -0.274 OA
ATOM      6  H   UNL A   1      31.908  21.937  24.828  1.00  0.00     0.163 HD
BRANCH   4   7
ATOM      7  C   UNL A   1      30.982  25.207  24.839  1.00  0.00     0.092 C 
ATOM      8  C   UNL A   1      29.870  25.792  25.750  1.00  0.00     0.027 C 
ATOM      9  C   UNL A   1      30.427  25.245  23.402  1.00  0.00     0.027 C 
BRANCH   7  10
ATOM     10  C   UNL A   1      32.242  26.102  24.966  1.00  0.00     0.276 C 
BRANCH  10  11
ATOM     11  N   UNL A   1      31.945  27.457  25.443  1.00  0.00    -0.345 N 
ATOM     12  H   UNL A   1      32.697  27.750  26.066  1.00  0.00     0.346 HD
ATOM     13  H   UNL A   1      31.041  27.412  25.912  1.00  0.00     0.346 HD
BRANCH  11  14
ATOM     14  C   UNL A   1      31.819  28.450  24.372  1.00  0.00     0.265 C 
BRANCH  14  15
ATOM     15  C   UNL A   1      30.965  29.697  24.670  1.00  0.00     0.098 C 
BRANCH  15  16
ATOM     16  C   UNL A   1      29.891  30.065  23.675  1.00  0.00    -0.024 A 
ATOM     17  C   UNL A   1      29.039  31.162  23.816  1.00  0.00     0.007 A 
ATOM     18  C   UNL A   1      29.749  29.303  22.516  1.00  0.00     0.114 A 
ATOM     19  C   UNL A   1      28.066  31.415  22.851  1.00  0.00     0.020 A 
ATOM     20  N   UNL A   1      28.825  29.533  21.555  1.00  0.00    -0.264 NA
ATOM     21  C   UNL A   1      28.000  30.581  21.749  1.00  0.00     0.111 A 
ENDBRANCH  15  16
ENDBRANCH  14  15
ENDBRANCH  11  14
ENDBRANCH  10  11
ENDBRANCH   7  10
ENDBRANCH   4   7
ENDBRANCH   2   3
ENDBRANCH   1   2
BRANCH   1  22
ATOM     22  C   UNL A   1      35.115  23.654  23.730  1.00  0.00     0.002 C 
BRANCH  22  23
ATOM     23  C   UNL A   1      36.584  23.282  23.495  1.00  0.00     0.002 C 
BRANCH  23  24
ATOM     24  C   UNL A   1      36.970  21.868  23.935  1.00  0.00     0.021 C 
BRANCH  24  25
ATOM     25  C   UNL A   1      37.204  21.718  25.433  1.00  0.00     0.116 C 
BRANCH  25  26
ATOM     26  N   UNL A   1      38.135  20.639  25.731  1.00  0.00    -0.352 N 
ATOM     27  C   UNL A   1      39.427  20.717  26.182  1.00  0.00     0.251 C 
ATOM     28  H   UNL A   1      37.789  19.729  25.588  1.00  0.00     0.163 HD
ATOM     29  O   UNL A   1      40.146  19.719  26.176  1.00  0.00    -0.269 OA
BRANCH  27  30
ATOM     30  C   UNL A   1      39.954  22.010  26.663  1.00  0.00     0.039 A 
ATOM     31  C   UNL A   1      40.925  22.020  27.668  1.00  0.00     0.014 A 
ATOM     32  C   UNL A   1      39.498  23.210  26.110  1.00  0.00     0.014 A 
ATOM     33  C   UNL A   1      41.478  23.234  28.080  1.00  0.00     0.010 A 
ATOM     34  C   UNL A   1      40.104  24.408  26.466  1.00  0.00     0.010 A 
ATOM     35  C   UNL A   1      41.095  24.436  27.459  1.00  0.00    -0.014 A 
BRANCH  35  36
ATOM     36  C   UNL A   1      41.719  25.732  27.828  1.00  0.00     0.031 A 
ATOM     37  C   UNL A   1      40.919  26.771  28.565  1.00  0.00     0.074 A 
ATOM     38  C   UNL A   1      42.972  26.009  27.417  1.00  0.00     0.049 A 
ATOM     39  N   UNL A   1      41.257  27.989  28.897  1.00  0.00    -0.248 NA
ATOM     40  C   UNL A   1      39.547  26.403  28.954  1.00  0.00     0.031 C 
ATOM     41  C   UNL A   1      43.827  25.111  26.638  1.00  0.00     0.029 A 
ATOM     42  N   UNL A   1      43.736  27.140  27.571  1.00  0.00    -0.354 N 
ATOM     43  C   UNL A   1      40.134  28.544  29.499  1.00  0.00     0.074 A 
ATOM     44  C   UNL A   1      39.093  27.542  29.454  1.00  0.00     0.031 C 
ATOM     45  C   UNL A   1      44.995  25.721  26.385  1.00  0.00     0.029 A 
ATOM     46  C   UNL A   1      44.960  27.068  26.947  1.00  0.00     0.049 A 
ATOM     47  H   UNL A   1      43.435  27.928  28.078  1.00  0.00     0.167 HD
ATOM     48  C   UNL A   1      39.989  29.767  30.063  1.00  0.00     0.034 A 
ATOM     49  C   UNL A   1      45.938  27.987  26.829  1.00  0.00     0.034 A 
ATOM     50  C   UNL A   1      41.039  30.747  30.134  1.00  0.00     0.049 A 
ATOM     51  C   UNL A   1      45.758  29.335  27.476  1.00  0.00     0.074 A 
ATOM     52  C   UNL A   1      41.019  31.983  30.754  1.00  0.00     0.029 A 
ATOM     53  N   UNL A   1      42.292  30.610  29.555  1.00  0.00    -0.354 N 
ATOM     54  N   UNL A   1      44.741  29.788  28.167  1.00  0.00    -0.248 NA
ATOM     55  C   UNL A   1      46.873  30.285  27.354  1.00  0.00     0.031 C 
ATOM     56  C   UNL A   1      42.248  32.610  30.520  1.00  0.00     0.029 A 
ATOM     57  C   UNL A   1      43.048  31.745  29.789  1.00  0.00     0.049 A 
ATOM     58  H   UNL A   1      42.597  29.822  29.051  1.00  0.00     0.167 HD
ATOM     59  C   UNL A   1      45.109  31.057  28.599  1.00  0.00     0.074 A 
ATOM     60  C   UNL A   1      46.449  31.295  28.102  1.00  0.00     0.031 C 
ATOM     61  C   UNL A   1      44.399  31.948  29.333  1.00  0.00     0.034 A 
BRANCH  48  62
ATOM     62  C   UNL A   1      38.657  30.098  30.683  1.00  0.00     0.023 A 
ATOM     63  C   UNL A   1      38.354  29.637  31.981  1.00  0.00     0.012 A 
ATOM     64  C   UNL A   1      37.724  30.908  30.004  1.00  0.00     0.148 A 
ATOM     65  C   UNL A   1      37.130  29.939  32.576  1.00  0.00     0.002 A 
ATOM     66  C   UNL A   1      36.527  31.246  30.623  1.00  0.00     0.091 A 
ATOM     67  F   UNL A   1      38.020  31.322  28.763  1.00  0.00    -0.205 F 
ATOM     68  C   UNL A   1      36.222  30.751  31.902  1.00  0.00     0.022 A 
BRANCH  66  69
ATOM     69  S   UNL A   1      35.328  32.353  29.874  1.00  0.00     0.127 S 
ATOM     70  O   UNL A   1      36.167  33.492  29.504  1.00  0.00    -0.237 OA
ATOM     71  O   UNL A   1      34.845  31.561  28.741  1.00  0.00    -0.237 OA
ATOM     72  O   UNL A   1      34.330  32.620  30.900  1.00  0.00    -0.744 OA
ENDBRANCH  66  69
ENDBRANCH  48  62
BRANCH  49  73
ATOM     73  C   UNL A   1      47.198  27.645  26.110  1.00  0.00     0.023 A 
ATOM     74  C   UNL A   1      48.270  27.076  26.824  1.00  0.00     0.012 A 
ATOM     75  C   UNL A   1      47.332  27.857  24.724  1.00  0.00     0.148 A 
ATOM     76  C   UNL A   1      49.465  26.756  26.179  1.00  0.00     0.002 A 
ATOM     77  C   UNL A   1      48.503  27.483  24.077  1.00  0.00     0.091 A 
ATOM     78  F   UNL A   1      46.303  28.406  24.064  1.00  0.00    -0.205 F 
ATOM     79  C   UNL A   1      49.578  26.950  24.805  1.00  0.00     0.022 A 
BRANCH  77  80
ATOM     80  S   UNL A   1      48.692  27.576  22.293  1.00  0.00     0.127 S 
ATOM     81  O   UNL A   1      49.977  28.257  22.163  1.00  0.00    -0.237 OA
ATOM     82  O   UNL A   1      48.703  26.161  21.918  1.00  0.00    -0.237 OA
ATOM     83  O   UNL A   1      47.534  28.316  21.811  1.00  0.00    -0.744 OA
ENDBRANCH  77  80
ENDBRANCH  49  73
BRANCH  61  84
ATOM     84  C   UNL A   1      45.065  33.250  29.696  1.00  0.00     0.023 A 
ATOM     85  C   UNL A   1      45.839  33.347  30.869  1.00  0.00     0.012 A 
ATOM     86  C   UNL A   1      44.993  34.352  28.821  1.00  0.00     0.148 A 
ATOM     87  C   UNL A   1      46.508  34.530  31.179  1.00  0.00     0.002 A 
ATOM     88  C   UNL A   1      45.706  35.509  29.109  1.00  0.00     0.091 A 
ATOM     89  F   UNL A   1      44.238  34.245  27.718  1.00  0.00    -0.205 F 
ATOM     90  C   UNL A   1      46.453  35.604  30.293  1.00  0.00     0.022 A 
BRANCH  88  91
ATOM     91  S   UNL A   1      45.778  36.905  27.981  1.00  0.00     0.127 S 
ATOM     92  O   UNL A   1      46.990  37.590  28.432  1.00  0.00    -0.237 OA
ATOM     93  O   UNL A   1      45.898  36.246  26.681  1.00  0.00    -0.237 OA
ATOM     94  O   UNL A   1      44.539  37.646  28.175  1.00  0.00    -0.744 OA
ENDBRANCH  88  91
ENDBRANCH  61  84
ENDBRANCH  35  36
ENDBRANCH  27  30
ENDBRANCH  25  26
ENDBRANCH  24  25
ENDBRANCH  23  24
ENDBRANCH  22  23
ENDBRANCH   1  22
TORSDOF 21
ENDMDL
MODEL 3
REMARK VINA RESULT:      -9.9      2.893      4.193
REMARK SMILES CC(C)(C[NH2+]CCc1cccnc1)C(=O)NCCCCCCNC(=O)c1ccc(-c2c3nc(c(-c4cccc(S(=O)(=O)[O-])c4F)c4ccc([nH]4)c(-c4cccc(S(=O)(=O)[O-])c4F)c4nc(c(-c5cccc(S(=O)(=O)[O-])c5F)c5ccc2[nH]5)C=C4)C=C3)cc1
REMARK SMILES IDX 18 1 17 2 16 3 14 4 15 5 2 7 1 8 3 9 4 10 5 11 6 14 7 15
REMARK SMILES IDX 8 16 9 17 13 18 10 19 12 20 11 21 19 22 20 23 21 24 22 25
REMARK SMILES IDX 23 26 24 27 25 29 26 30 27 31 88 32 28 33 87 34 29 35 30 36
REMARK SMILES IDX 31 37 81 38 32 39 86 40 80 41 82 42 33 43 85 44 79 45 78 46
REMARK SMILES IDX 34 48 66 49 46 50 65 51 47 52 50 53 64 54 83 55 48 56 49 57
REMARK SMILES IDX 63 59 84 60 51 61 35 62 36 63 44 64 37 65 39 66 45 67 38 68
REMARK SMILES IDX 40 69 41 70 42 71 43 72 67 73 68 74 76 75 69 76 71 77 77 78
REMARK SMILES IDX 70 79 72 80 73 81 74 82 75 83 52 84 53 85 61 86 54 87 56 88
REMARK SMILES IDX 62 89 55 90 57 91 58 92 59 93 60 94
REMARK H PARENT 16 6 5 12 5 13 23 28 82 47 50 58
REMARK Flexibility Score: inf
ROOT
ATOM      1  C   UNL A   1      30.852  25.418  25.397  1.00  0.00     0.021 C 
ENDROOT
BRANCH   1   2
ATOM      2  C   UNL A   1      30.861  23.906  25.185  1.00  0.00     0.116 C 
BRANCH   2   3
ATOM      3  N   UNL A   1      31.683  23.240  26.174  1.00  0.00    -0.355 N 
ATOM      4  C   UNL A   1      32.689  22.334  26.060  1.00  0.00     0.231 C 
ATOM      5  O   UNL A   1      33.152  21.908  27.126  1.00  0.00    -0.274 OA
ATOM      6  H   UNL A   1      31.474  23.492  27.103  1.00  0.00     0.163 HD
BRANCH   4   7
ATOM      7  C   UNL A   1      33.279  21.905  24.700  1.00  0.00     0.092 C 
ATOM      8  C   UNL A   1      34.177  23.057  24.178  1.00  0.00     0.027 C 
ATOM      9  C   UNL A   1      32.137  21.750  23.677  1.00  0.00     0.027 C 
BRANCH   7  10
ATOM     10  C   UNL A   1      34.132  20.611  24.772  1.00  0.00     0.276 C 
BRANCH  10  11
ATOM     11  N   UNL A   1      35.275  20.722  25.684  1.00  0.00    -0.345 N 
ATOM     12  H   UNL A   1      35.120  20.091  26.470  1.00  0.00     0.346 HD
ATOM     13  H   UNL A   1      35.331  21.699  25.969  1.00  0.00     0.346 HD
BRANCH  11  14
ATOM     14  C   UNL A   1      36.562  20.384  25.069  1.00  0.00     0.265 C 
BRANCH  14  15
ATOM     15  C   UNL A   1      37.412  21.553  24.536  1.00  0.00     0.098 C 
BRANCH  15  16
ATOM     16  C   UNL A   1      38.151  22.398  25.544  1.00  0.00    -0.024 A 
ATOM     17  C   UNL A   1      37.790  23.704  25.884  1.00  0.00     0.007 A 
ATOM     18  C   UNL A   1      39.239  21.850  26.224  1.00  0.00     0.114 A 
ATOM     19  C   UNL A   1      38.542  24.413  26.817  1.00  0.00     0.020 A 
ATOM     20  N   UNL A   1      39.978  22.508  27.146  1.00  0.00    -0.264 NA
ATOM     21  C   UNL A   1      39.616  23.778  27.415  1.00  0.00     0.111 A 
ENDBRANCH  15  16
ENDBRANCH  14  15
ENDBRANCH  11  14
ENDBRANCH  10  11
ENDBRANCH   7  10
ENDBRANCH   4   7
ENDBRANCH   2   3
ENDBRANCH   1   2
BRANCH   1  22
ATOM     22  C   UNL A   1      31.812  25.898  26.492  1.00  0.00     0.002 C 
BRANCH  22  23
ATOM     23  C   UNL A   1      33.043  26.658  25.985  1.00  0.00     0.002 C 
BRANCH  23  24
ATOM     24  C   UNL A   1      32.776  28.101  25.550  1.00  0.00     0.021 C 
BRANCH  24  25
ATOM     25  C   UNL A   1      33.950  29.049  25.759  1.00  0.00     0.116 C 
BRANCH  25  26
ATOM     26  N   UNL A   1      33.512  30.371  26.182  1.00  0.00    -0.352 N 
ATOM     27  C   UNL A   1      33.947  31.125  27.241  1.00  0.00     0.251 C 
ATOM     28  H   UNL A   1      32.805  30.780  25.632  1.00  0.00     0.163 HD
ATOM     29  O   UNL A   1      33.322  32.126  27.587  1.00  0.00    -0.269 OA
BRANCH  27  30
ATOM     30  C   UNL A   1      35.164  30.719  27.973  1.00  0.00     0.039 A 
ATOM     31  C   UNL A   1      36.267  31.576  27.992  1.00  0.00     0.014 A 
ATOM     32  C   UNL A   1      35.208  29.497  28.650  1.00  0.00     0.014 A 
ATOM     33  C   UNL A   1      37.396  31.231  28.737  1.00  0.00     0.010 A 
ATOM     34  C   UNL A   1      36.301  29.192  29.453  1.00  0.00     0.010 A 
ATOM     35  C   UNL A   1      37.409  30.051  29.500  1.00  0.00    -0.014 A 
BRANCH  35  36
ATOM     36  C   UNL A   1      38.568  29.696  30.359  1.00  0.00     0.031 A 
ATOM     37  C   UNL A   1      38.735  30.346  31.705  1.00  0.00     0.074 A 
ATOM     38  C   UNL A   1      39.516  28.862  29.888  1.00  0.00     0.049 A 
ATOM     39  N   UNL A   1      39.718  30.233  32.559  1.00  0.00    -0.248 NA
ATOM     40  C   UNL A   1      37.670  31.268  32.136  1.00  0.00     0.031 C 
ATOM     41  C   UNL A   1      39.502  28.220  28.572  1.00  0.00     0.029 A 
ATOM     42  N   UNL A   1      40.692  28.434  30.452  1.00  0.00    -0.354 N 
ATOM     43  C   UNL A   1      39.412  31.092  33.607  1.00  0.00     0.074 A 
ATOM     44  C   UNL A   1      38.168  31.747  33.266  1.00  0.00     0.031 C 
ATOM     45  C   UNL A   1      40.612  27.480  28.431  1.00  0.00     0.029 A 
ATOM     46  C   UNL A   1      41.437  27.624  29.626  1.00  0.00     0.049 A 
ATOM     47  H   UNL A   1      40.977  28.685  31.360  1.00  0.00     0.167 HD
ATOM     48  C   UNL A   1      40.088  31.298  34.762  1.00  0.00     0.034 A 
ATOM     49  C   UNL A   1      42.653  27.072  29.805  1.00  0.00     0.034 A 
ATOM     50  C   UNL A   1      41.307  30.619  35.110  1.00  0.00     0.049 A 
ATOM     51  C   UNL A   1      43.379  27.306  31.103  1.00  0.00     0.074 A 
ATOM     52  C   UNL A   1      42.027  30.697  36.289  1.00  0.00     0.029 A 
ATOM     53  N   UNL A   1      41.994  29.748  34.278  1.00  0.00    -0.354 N 
ATOM     54  N   UNL A   1      43.002  28.009  32.143  1.00  0.00    -0.248 NA
ATOM     55  C   UNL A   1      44.682  26.645  31.264  1.00  0.00     0.031 C 
ATOM     56  C   UNL A   1      43.169  29.901  36.156  1.00  0.00     0.029 A 
ATOM     57  C   UNL A   1      43.138  29.293  34.910  1.00  0.00     0.049 A 
ATOM     58  H   UNL A   1      41.710  29.492  33.371  1.00  0.00     0.167 HD
ATOM     59  C   UNL A   1      43.999  27.840  33.097  1.00  0.00     0.074 A 
ATOM     60  C   UNL A   1      44.990  26.958  32.516  1.00  0.00     0.031 C 
ATOM     61  C   UNL A   1      44.089  28.375  34.340  1.00  0.00     0.034 A 
BRANCH  48  62
ATOM     62  C   UNL A   1      39.503  32.272  35.752  1.00  0.00     0.023 A 
ATOM     63  C   UNL A   1      38.500  31.844  36.647  1.00  0.00     0.012 A 
ATOM     64  C   UNL A   1      39.979  33.596  35.832  1.00  0.00     0.148 A 
ATOM     65  C   UNL A   1      37.952  32.727  37.575  1.00  0.00     0.002 A 
ATOM     66  C   UNL A   1      39.462  34.456  36.793  1.00  0.00     0.091 A 
ATOM     67  F   UNL A   1      40.918  33.992  34.961  1.00  0.00    -0.205 F 
ATOM     68  C   UNL A   1      38.439  34.028  37.656  1.00  0.00     0.022 A 
BRANCH  66  69
ATOM     69  S   UNL A   1      40.080  36.126  37.032  1.00  0.00     0.127 S 
ATOM     70  O   UNL A   1      41.510  35.887  37.224  1.00  0.00    -0.237 OA
ATOM     71  O   UNL A   1      39.734  36.765  35.762  1.00  0.00    -0.237 OA
ATOM     72  O   UNL A   1      39.375  36.654  38.191  1.00  0.00    -0.744 OA
ENDBRANCH  66  69
ENDBRANCH  48  62
BRANCH  49  73
ATOM     73  C   UNL A   1      43.238  26.200  28.747  1.00  0.00     0.023 A 
ATOM     74  C   UNL A   1      42.855  24.847  28.674  1.00  0.00     0.012 A 
ATOM     75  C   UNL A   1      44.149  26.708  27.801  1.00  0.00     0.148 A 
ATOM     76  C   UNL A   1      43.394  24.006  27.701  1.00  0.00     0.002 A 
ATOM     77  C   UNL A   1      44.639  25.880  26.798  1.00  0.00     0.091 A 
ATOM     78  F   UNL A   1      44.506  27.997  27.891  1.00  0.00    -0.205 F 
ATOM     79  C   UNL A   1      44.278  24.523  26.758  1.00  0.00     0.022 A 
BRANCH  77  80
ATOM     80  S   UNL A   1      45.680  26.487  25.467  1.00  0.00     0.127 S 
ATOM     81  O   UNL A   1      44.861  27.561  24.912  1.00  0.00    -0.237 OA
ATOM     82  O   UNL A   1      46.870  26.931  26.194  1.00  0.00    -0.237 OA
ATOM     83  O   UNL A   1      45.905  25.347  24.589  1.00  0.00    -0.744 OA
ENDBRANCH  77  80
ENDBRANCH  49  73
BRANCH  61  84
ATOM     84  C   UNL A   1      45.273  27.988  35.188  1.00  0.00     0.023 A 
ATOM     85  C   UNL A   1      46.421  28.803  35.215  1.00  0.00     0.012 A 
ATOM     86  C   UNL A   1      45.206  26.859  36.029  1.00  0.00     0.148 A 
ATOM     87  C   UNL A   1      47.496  28.484  36.045  1.00  0.00     0.002 A 
ATOM     88  C   UNL A   1      46.257  26.578  36.892  1.00  0.00     0.091 A 
ATOM     89  F   UNL A   1      44.110  26.087  35.976  1.00  0.00    -0.205 F 
ATOM     90  C   UNL A   1      47.408  27.381  36.892  1.00  0.00     0.022 A 
BRANCH  88  91
ATOM     91  S   UNL A   1      46.193  25.241  38.090  1.00  0.00     0.127 S 
ATOM     92  O   UNL A   1      44.823  25.354  38.590  1.00  0.00    -0.237 OA
ATOM     93  O   UNL A   1      46.442  24.067  37.254  1.00  0.00    -0.237 OA
ATOM     94  O   UNL A   1      47.235  25.523  39.068  1.00  0.00    -0.744 OA
ENDBRANCH  88  91
ENDBRANCH  61  84
ENDBRANCH  35  36
ENDBRANCH  27  30
ENDBRANCH  25  26
ENDBRANCH  24  25
ENDBRANCH  23  24
ENDBRANCH  22  23
ENDBRANCH   1  22
TORSDOF 21
ENDMDL
