MODEL 1
REMARK VINA RESULT:     -10.5      0.000      0.000
REMARK SMILES O=C(CCN1C(=O)S/C(=C\c2ccccc2F)C1=O)Nc1ccc(C(=O)NCCCCCCNC(=O)c2ccc(-c3c4nc(c(-c5cccc(S(=O)(=O)[O-])c5F)c5ccc([nH]5)c(-c5cccc(S(=O)(=O)[O-])c5F)c5nc(c(-c6cccc(S(=O)(=O)[O-])c6F)c6ccc3[nH]6)C=C5)C=C4)cc2)c(O)c1
REMARK SMILES IDX 29 1 28 2 27 3 25 4 26 5 24 7 21 8 22 9 102 10 23 11 100 12
REMARK SMILES IDX 20 13 1 14 2 15 3 17 4 18 5 19 6 20 18 21 7 22 8 23 9 24
REMARK SMILES IDX 19 25 10 26 11 27 12 28 16 29 13 30 15 31 17 32 14 33 101 34
REMARK SMILES IDX 30 36 31 37 32 38 33 39 34 40 35 41 36 43 37 44 38 45 99 46
REMARK SMILES IDX 39 47 98 48 40 49 41 50 42 51 92 52 43 53 97 54 91 55 93 56
REMARK SMILES IDX 44 57 96 58 90 59 89 60 45 62 77 63 57 64 76 65 58 66 61 67
REMARK SMILES IDX 75 68 94 69 59 70 60 71 74 73 95 74 62 75 46 76 47 77 55 78
REMARK SMILES IDX 48 79 50 80 56 81 49 82 51 83 52 84 53 85 54 86 78 87 79 88
REMARK SMILES IDX 87 89 80 90 82 91 88 92 81 93 83 94 84 95 85 96 86 97 63 98
REMARK SMILES IDX 64 99 72 100 65 101 67 102 73 103 66 104 68 105 69 106
REMARK SMILES IDX 70 107 71 108
REMARK H PARENT 27 6 20 16 101 35 34 42 93 61 61 72
REMARK Flexibility Score: inf
ROOT
ATOM      1  C   UNL A   1      40.379  27.068  26.943  1.00  0.00     0.021 C 
ENDROOT
BRANCH   1   2
ATOM      2  C   UNL A   1      39.779  25.823  27.590  1.00  0.00     0.116 C 
BRANCH   2   3
ATOM      3  N   UNL A   1      40.662  24.667  27.589  1.00  0.00    -0.352 N 
ATOM      4  C   UNL A   1      40.453  23.387  27.131  1.00  0.00     0.255 C 
ATOM      5  O   UNL A   1      41.341  22.550  27.282  1.00  0.00    -0.269 OA
ATOM      6  H   UNL A   1      41.551  24.827  27.980  1.00  0.00     0.163 HD
BRANCH   4   7
ATOM      7  C   UNL A   1      39.176  22.979  26.491  1.00  0.00     0.081 A 
ATOM      8  C   UNL A   1      36.726  22.422  25.215  1.00  0.00     0.044 A 
ATOM      9  C   UNL A   1      36.927  23.658  25.822  1.00  0.00     0.027 A 
ATOM     10  C   UNL A   1      37.727  21.449  25.304  1.00  0.00     0.073 A 
ATOM     11  C   UNL A   1      38.144  23.932  26.462  1.00  0.00     0.020 A 
ATOM     12  C   UNL A   1      38.926  21.714  25.962  1.00  0.00     0.130 A 
BRANCH   8  13
ATOM     13  N   UNL A   1      35.557  22.055  24.529  1.00  0.00    -0.326 N 
ATOM     14  O   UNL A   1      34.056  21.563  26.236  1.00  0.00    -0.275 OA
ATOM     15  C   UNL A   1      34.336  21.679  25.048  1.00  0.00     0.226 C 
ATOM     16  H   UNL A   1      35.616  22.070  23.547  1.00  0.00     0.169 HD
BRANCH  15  17
ATOM     17  C   UNL A   1      33.314  21.359  23.967  1.00  0.00     0.122 C 
BRANCH  17  18
ATOM     18  C   UNL A   1      32.846  22.573  23.152  1.00  0.00     0.140 C 
BRANCH  18  19
ATOM     19  N   UNL A   1      32.643  23.789  23.936  1.00  0.00    -0.268 N 
ATOM     20  C   UNL A   1      31.665  23.865  24.897  1.00  0.00     0.293 C 
ATOM     21  C   UNL A   1      33.454  24.897  23.785  1.00  0.00     0.268 C 
ATOM     22  O   UNL A   1      30.879  22.985  25.200  1.00  0.00    -0.261 OA
ATOM     23  S   UNL A   1      31.612  25.476  25.572  1.00  0.00    -0.022 SA
ATOM     24  C   UNL A   1      32.962  26.009  24.645  1.00  0.00     0.083 C 
ATOM     25  O   UNL A   1      34.393  24.991  23.010  1.00  0.00    -0.268 OA
ATOM     26  C   UNL A   1      33.484  27.242  24.572  1.00  0.00     0.032 C 
BRANCH  26  27
ATOM     27  C   UNL A   1      33.010  28.429  25.298  1.00  0.00     0.012 A 
ATOM     28  C   UNL A   1      31.909  29.139  24.798  1.00  0.00     0.011 A 
ATOM     29  C   UNL A   1      33.639  28.899  26.458  1.00  0.00     0.130 A 
ATOM     30  C   UNL A   1      31.437  30.274  25.465  1.00  0.00     0.001 A 
ATOM     31  C   UNL A   1      33.170  30.024  27.128  1.00  0.00     0.040 A 
ATOM     32  F   UNL A   1      34.721  28.264  26.939  1.00  0.00    -0.206 F 
ATOM     33  C   UNL A   1      32.065  30.713  26.632  1.00  0.00     0.003 A 
ENDBRANCH  26  27
ENDBRANCH  18  19
ENDBRANCH  17  18
ENDBRANCH  15  17
ENDBRANCH   8  13
BRANCH  12  34
ATOM     34  O   UNL A   1      39.773  20.647  26.072  1.00  0.00    -0.507 OA
ATOM     35  H   UNL A   1      40.700  20.779  26.043  1.00  0.00     0.293 HD
ENDBRANCH  12  34
ENDBRANCH   4   7
ENDBRANCH   2   3
ENDBRANCH   1   2
BRANCH   1  36
ATOM     36  C   UNL A   1      40.276  28.369  27.745  1.00  0.00     0.002 C 
BRANCH  36  37
ATOM     37  C   UNL A   1      39.189  29.361  27.319  1.00  0.00     0.002 C 
BRANCH  37  38
ATOM     38  C   UNL A   1      38.048  29.591  28.311  1.00  0.00     0.021 C 
BRANCH  38  39
ATOM     39  C   UNL A   1      38.023  30.954  28.995  1.00  0.00     0.116 C 
BRANCH  39  40
ATOM     40  N   UNL A   1      37.511  30.896  30.354  1.00  0.00    -0.352 N 
ATOM     41  C   UNL A   1      38.066  30.323  31.474  1.00  0.00     0.251 C 
ATOM     42  H   UNL A   1      36.640  31.333  30.494  1.00  0.00     0.163 HD
ATOM     43  O   UNL A   1      37.411  30.258  32.511  1.00  0.00    -0.269 OA
BRANCH  41  44
ATOM     44  C   UNL A   1      39.435  29.763  31.425  1.00  0.00     0.039 A 
ATOM     45  C   UNL A   1      40.509  30.632  31.218  1.00  0.00     0.014 A 
ATOM     46  C   UNL A   1      39.664  28.392  31.576  1.00  0.00     0.014 A 
ATOM     47  C   UNL A   1      41.816  30.135  31.225  1.00  0.00     0.010 A 
ATOM     48  C   UNL A   1      40.970  27.911  31.660  1.00  0.00     0.010 A 
ATOM     49  C   UNL A   1      42.060  28.776  31.482  1.00  0.00    -0.014 A 
BRANCH  49  50
ATOM     50  C   UNL A   1      43.447  28.248  31.582  1.00  0.00     0.031 A 
ATOM     51  C   UNL A   1      44.240  28.425  32.850  1.00  0.00     0.074 A 
ATOM     52  C   UNL A   1      44.015  27.661  30.509  1.00  0.00     0.049 A 
ATOM     53  N   UNL A   1      45.476  28.077  33.101  1.00  0.00    -0.248 NA
ATOM     54  C   UNL A   1      43.570  29.095  33.977  1.00  0.00     0.031 C 
ATOM     55  C   UNL A   1      43.370  27.479  29.206  1.00  0.00     0.029 A 
ATOM     56  N   UNL A   1      45.267  27.123  30.334  1.00  0.00    -0.354 N 
ATOM     57  C   UNL A   1      45.736  28.499  34.399  1.00  0.00     0.074 A 
ATOM     58  C   UNL A   1      44.544  29.167  34.873  1.00  0.00     0.031 C 
ATOM     59  C   UNL A   1      44.220  26.856  28.375  1.00  0.00     0.029 A 
ATOM     60  C   UNL A   1      45.486  26.631  29.067  1.00  0.00     0.049 A 
ATOM     61  H   UNL A   1      45.944  27.091  31.048  1.00  0.00     0.167 HD
ATOM     62  C   UNL A   1      46.852  28.316  35.142  1.00  0.00     0.034 A 
ATOM     63  C   UNL A   1      46.583  26.069  28.519  1.00  0.00     0.034 A 
ATOM     64  C   UNL A   1      48.021  27.618  34.682  1.00  0.00     0.049 A 
ATOM     65  C   UNL A   1      47.810  25.881  29.371  1.00  0.00     0.074 A 
ATOM     66  C   UNL A   1      49.179  27.333  35.384  1.00  0.00     0.029 A 
ATOM     67  N   UNL A   1      48.184  27.091  33.411  1.00  0.00    -0.354 N 
ATOM     68  N   UNL A   1      47.990  26.180  30.635  1.00  0.00    -0.248 NA
ATOM     69  C   UNL A   1      48.976  25.248  28.735  1.00  0.00     0.031 C 
ATOM     70  C   UNL A   1      50.055  26.662  34.529  1.00  0.00     0.029 A 
ATOM     71  C   UNL A   1      49.426  26.490  33.307  1.00  0.00     0.049 A 
ATOM     72  H   UNL A   1      47.516  27.137  32.690  1.00  0.00     0.167 HD
ATOM     73  C   UNL A   1      49.268  25.737  30.954  1.00  0.00     0.074 A 
ATOM     74  C   UNL A   1      49.813  25.133  29.757  1.00  0.00     0.031 C 
ATOM     75  C   UNL A   1      49.935  25.834  32.131  1.00  0.00     0.034 A 
BRANCH  62  76
ATOM     76  C   UNL A   1      46.855  28.812  36.564  1.00  0.00     0.023 A 
ATOM     77  C   UNL A   1      47.254  30.137  36.832  1.00  0.00     0.012 A 
ATOM     78  C   UNL A   1      46.338  28.021  37.610  1.00  0.00     0.148 A 
ATOM     79  C   UNL A   1      47.151  30.665  38.117  1.00  0.00     0.002 A 
ATOM     80  C   UNL A   1      46.193  28.569  38.879  1.00  0.00     0.091 A 
ATOM     81  F   UNL A   1      45.977  26.759  37.336  1.00  0.00    -0.205 F 
ATOM     82  C   UNL A   1      46.605  29.886  39.135  1.00  0.00     0.022 A 
BRANCH  80  83
ATOM     83  S   UNL A   1      45.423  27.685  40.239  1.00  0.00     0.127 S 
ATOM     84  O   UNL A   1      44.893  28.784  41.045  1.00  0.00    -0.237 OA
ATOM     85  O   UNL A   1      44.407  26.890  39.549  1.00  0.00    -0.237 OA
ATOM     86  O   UNL A   1      46.482  26.912  40.872  1.00  0.00    -0.744 OA
ENDBRANCH  80  83
ENDBRANCH  62  76
BRANCH  63  87
ATOM     87  C   UNL A   1      46.550  25.582  27.109  1.00  0.00     0.023 A 
ATOM     88  C   UNL A   1      47.144  26.359  26.096  1.00  0.00     0.012 A 
ATOM     89  C   UNL A   1      45.959  24.349  26.769  1.00  0.00     0.148 A 
ATOM     90  C   UNL A   1      47.118  25.936  24.766  1.00  0.00     0.002 A 
ATOM     91  C   UNL A   1      45.992  23.902  25.453  1.00  0.00     0.091 A 
ATOM     92  F   UNL A   1      45.387  23.627  27.743  1.00  0.00    -0.205 F 
ATOM     93  C   UNL A   1      46.554  24.704  24.446  1.00  0.00     0.022 A 
BRANCH  91  94
ATOM     94  S   UNL A   1      45.417  22.269  24.975  1.00  0.00     0.127 S 
ATOM     95  O   UNL A   1      44.229  22.113  25.809  1.00  0.00    -0.237 OA
ATOM     96  O   UNL A   1      45.150  22.449  23.547  1.00  0.00    -0.237 OA
ATOM     97  O   UNL A   1      46.518  21.358  25.265  1.00  0.00    -0.744 OA
ENDBRANCH  91  94
ENDBRANCH  63  87
BRANCH  75  98
ATOM     98  C   UNL A   1      51.315  25.240  32.221  1.00  0.00     0.023 A 
ATOM     99  C   UNL A   1      52.446  26.064  32.061  1.00  0.00     0.012 A 
ATOM    100  C   UNL A   1      51.488  23.891  32.593  1.00  0.00     0.148 A 
ATOM    101  C   UNL A   1      53.729  25.550  32.251  1.00  0.00     0.002 A 
ATOM    102  C   UNL A   1      52.764  23.400  32.834  1.00  0.00     0.091 A 
ATOM    103  F   UNL A   1      50.398  23.122  32.726  1.00  0.00    -0.205 F 
ATOM    104  C   UNL A   1      53.886  24.225  32.652  1.00  0.00     0.022 A 
BRANCH 102 105
ATOM    105  S   UNL A   1      53.063  21.743  33.459  1.00  0.00     0.127 S 
ATOM    106  O   UNL A   1      54.495  21.788  33.749  1.00  0.00    -0.237 OA
ATOM    107  O   UNL A   1      52.201  21.700  34.641  1.00  0.00    -0.237 OA
ATOM    108  O   UNL A   1      52.675  20.831  32.391  1.00  0.00    -0.744 OA
ENDBRANCH 102 105
ENDBRANCH  75  98
ENDBRANCH  49  50
ENDBRANCH  41  44
ENDBRANCH  39  40
ENDBRANCH  38  39
ENDBRANCH  37  38
ENDBRANCH  36  37
ENDBRANCH   1  36
TORSDOF 22
ENDMDL
MODEL 2
REMARK VINA RESULT:     -10.3      6.563     12.548
REMARK SMILES O=C(CCN1C(=O)S/C(=C\c2ccccc2F)C1=O)Nc1ccc(C(=O)NCCCCCCNC(=O)c2ccc(-c3c4nc(c(-c5cccc(S(=O)(=O)[O-])c5F)c5ccc([nH]5)c(-c5cccc(S(=O)(=O)[O-])c5F)c5nc(c(-c6cccc(S(=O)(=O)[O-])c6F)c6ccc3[nH]6)C=C5)C=C4)cc2)c(O)c1
REMARK SMILES IDX 29 1 28 2 27 3 25 4 26 5 24 7 21 8 22 9 102 10 23 11 100 12
REMARK SMILES IDX 20 13 1 14 2 15 3 17 4 18 5 19 6 20 18 21 7 22 8 23 9 24
REMARK SMILES IDX 19 25 10 26 11 27 12 28 16 29 13 30 15 31 17 32 14 33 101 34
REMARK SMILES IDX 30 36 31 37 32 38 33 39 34 40 35 41 36 43 37 44 38 45 99 46
REMARK SMILES IDX 39 47 98 48 40 49 41 50 42 51 92 52 43 53 97 54 91 55 93 56
REMARK SMILES IDX 44 57 96 58 90 59 89 60 45 62 77 63 57 64 76 65 58 66 61 67
REMARK SMILES IDX 75 68 94 69 59 70 60 71 74 73 95 74 62 75 46 76 47 77 55 78
REMARK SMILES IDX 48 79 50 80 56 81 49 82 51 83 52 84 53 85 54 86 78 87 79 88
REMARK SMILES IDX 87 89 80 90 82 91 88 92 81 93 83 94 84 95 85 96 86 97 63 98
REMARK SMILES IDX 64 99 72 100 65 101 67 102 73 103 66 104 68 105 69 106
REMARK SMILES IDX 70 107 71 108
REMARK H PARENT 27 6 20 16 101 35 34 42 93 61 61 72
REMARK Flexibility Score: inf
ROOT
ATOM      1  C   UNL A   1      41.535  21.031  26.715  1.00  0.00     0.021 C 
ENDROOT
BRANCH   1   2
ATOM      2  C   UNL A   1      42.439  21.816  25.768  1.00  0.00     0.116 C 
BRANCH   2   3
ATOM      3  N   UNL A   1      43.487  21.019  25.150  1.00  0.00    -0.352 N 
ATOM      4  C   UNL A   1      44.830  21.277  24.999  1.00  0.00     0.255 C 
ATOM      5  O   UNL A   1      45.526  20.467  24.390  1.00  0.00    -0.269 OA
ATOM      6  H   UNL A   1      43.187  20.158  24.778  1.00  0.00     0.163 HD
BRANCH   4   7
ATOM      7  C   UNL A   1      45.456  22.519  25.520  1.00  0.00     0.081 A 
ATOM      8  C   UNL A   1      46.641  24.779  26.717  1.00  0.00     0.044 A 
ATOM      9  C   UNL A   1      45.731  24.010  27.436  1.00  0.00     0.027 A 
ATOM     10  C   UNL A   1      46.905  24.451  25.382  1.00  0.00     0.073 A 
ATOM     11  C   UNL A   1      45.138  22.889  26.837  1.00  0.00     0.020 A 
ATOM     12  C   UNL A   1      46.296  23.351  24.782  1.00  0.00     0.130 A 
BRANCH   8  13
ATOM     13  N   UNL A   1      47.308  25.904  27.228  1.00  0.00    -0.326 N 
ATOM     14  O   UNL A   1      46.366  27.677  26.053  1.00  0.00    -0.275 OA
ATOM     15  C   UNL A   1      47.134  27.232  26.899  1.00  0.00     0.226 C 
ATOM     16  H   UNL A   1      47.990  25.720  27.913  1.00  0.00     0.169 HD
BRANCH  15  17
ATOM     17  C   UNL A   1      48.054  28.155  27.685  1.00  0.00     0.122 C 
BRANCH  17  18
ATOM     18  C   UNL A   1      48.212  27.787  29.167  1.00  0.00     0.140 C 
BRANCH  18  19
ATOM     19  N   UNL A   1      47.049  28.094  29.995  1.00  0.00    -0.268 N 
ATOM     20  C   UNL A   1      46.702  29.391  30.288  1.00  0.00     0.293 C 
ATOM     21  C   UNL A   1      46.217  27.104  30.478  1.00  0.00     0.268 C 
ATOM     22  O   UNL A   1      47.286  30.395  29.925  1.00  0.00    -0.261 OA
ATOM     23  S   UNL A   1      45.338  29.413  31.381  1.00  0.00    -0.022 SA
ATOM     24  C   UNL A   1      45.173  27.700  31.358  1.00  0.00     0.083 C 
ATOM     25  O   UNL A   1      46.350  25.905  30.284  1.00  0.00    -0.268 OA
ATOM     26  C   UNL A   1      44.332  26.937  32.071  1.00  0.00     0.032 C 
BRANCH  26  27
ATOM     27  C   UNL A   1      43.335  27.417  33.040  1.00  0.00     0.012 A 
ATOM     28  C   UNL A   1      42.069  27.805  32.579  1.00  0.00     0.011 A 
ATOM     29  C   UNL A   1      43.615  27.532  34.407  1.00  0.00     0.130 A 
ATOM     30  C   UNL A   1      41.102  28.268  33.476  1.00  0.00     0.001 A 
ATOM     31  C   UNL A   1      42.653  27.987  35.304  1.00  0.00     0.040 A 
ATOM     32  F   UNL A   1      44.831  27.206  34.874  1.00  0.00    -0.206 F 
ATOM     33  C   UNL A   1      41.393  28.355  34.838  1.00  0.00     0.003 A 
ENDBRANCH  26  27
ENDBRANCH  18  19
ENDBRANCH  17  18
ENDBRANCH  15  17
ENDBRANCH   8  13
BRANCH  12  34
ATOM     34  O   UNL A   1      46.554  23.205  23.448  1.00  0.00    -0.507 OA
ATOM     35  H   UNL A   1      46.808  23.947  22.935  1.00  0.00     0.293 HD
ENDBRANCH  12  34
ENDBRANCH   4   7
ENDBRANCH   2   3
ENDBRANCH   1   2
BRANCH   1  36
ATOM     36  C   UNL A   1      40.665  21.858  27.667  1.00  0.00     0.002 C 
BRANCH  36  37
ATOM     37  C   UNL A   1      39.660  22.820  27.025  1.00  0.00     0.002 C 
BRANCH  37  38
ATOM     38  C   UNL A   1      39.626  24.244  27.584  1.00  0.00     0.021 C 
BRANCH  38  39
ATOM     39  C   UNL A   1      40.116  25.342  26.647  1.00  0.00     0.116 C 
BRANCH  39  40
ATOM     40  N   UNL A   1      41.211  24.911  25.794  1.00  0.00    -0.352 N 
ATOM     41  C   UNL A   1      42.380  25.561  25.476  1.00  0.00     0.251 C 
ATOM     42  H   UNL A   1      41.100  24.024  25.383  1.00  0.00     0.163 HD
ATOM     43  O   UNL A   1      43.125  25.089  24.621  1.00  0.00    -0.269 OA
BRANCH  41  44
ATOM     44  C   UNL A   1      42.730  26.836  26.141  1.00  0.00     0.039 A 
ATOM     45  C   UNL A   1      42.320  28.035  25.552  1.00  0.00     0.014 A 
ATOM     46  C   UNL A   1      43.460  26.858  27.333  1.00  0.00     0.014 A 
ATOM     47  C   UNL A   1      42.589  29.249  26.189  1.00  0.00     0.010 A 
ATOM     48  C   UNL A   1      43.659  28.063  28.005  1.00  0.00     0.010 A 
ATOM     49  C   UNL A   1      43.229  29.272  27.440  1.00  0.00    -0.014 A 
BRANCH  49  50
ATOM     50  C   UNL A   1      43.441  30.549  28.173  1.00  0.00     0.031 A 
ATOM     51  C   UNL A   1      44.608  31.437  27.833  1.00  0.00     0.074 A 
ATOM     52  C   UNL A   1      42.615  30.880  29.187  1.00  0.00     0.049 A 
ATOM     53  N   UNL A   1      44.978  32.558  28.397  1.00  0.00    -0.248 NA
ATOM     54  C   UNL A   1      45.485  31.008  26.731  1.00  0.00     0.031 C 
ATOM     55  C   UNL A   1      41.481  30.076  29.649  1.00  0.00     0.029 A 
ATOM     56  N   UNL A   1      42.608  31.969  30.023  1.00  0.00    -0.354 N 
ATOM     57  C   UNL A   1      46.134  32.955  27.736  1.00  0.00     0.074 A 
ATOM     58  C   UNL A   1      46.431  31.936  26.754  1.00  0.00     0.031 C 
ATOM     59  C   UNL A   1      40.878  30.707  30.669  1.00  0.00     0.029 A 
ATOM     60  C   UNL A   1      41.604  31.938  30.965  1.00  0.00     0.049 A 
ATOM     61  H   UNL A   1      43.260  32.704  29.956  1.00  0.00     0.167 HD
ATOM     62  C   UNL A   1      46.863  34.083  27.906  1.00  0.00     0.034 A 
ATOM     63  C   UNL A   1      41.304  32.798  31.960  1.00  0.00     0.034 A 
ATOM     64  C   UNL A   1      46.543  35.113  28.856  1.00  0.00     0.049 A 
ATOM     65  C   UNL A   1      42.135  34.042  32.125  1.00  0.00     0.074 A 
ATOM     66  C   UNL A   1      47.192  36.319  29.060  1.00  0.00     0.029 A 
ATOM     67  N   UNL A   1      45.491  35.067  29.755  1.00  0.00    -0.354 N 
ATOM     68  N   UNL A   1      43.152  34.456  31.408  1.00  0.00    -0.248 NA
ATOM     69  C   UNL A   1      41.760  34.958  33.214  1.00  0.00     0.031 C 
ATOM     70  C   UNL A   1      46.550  36.988  30.104  1.00  0.00     0.029 A 
ATOM     71  C   UNL A   1      45.477  36.219  30.521  1.00  0.00     0.049 A 
ATOM     72  H   UNL A   1      44.849  34.326  29.838  1.00  0.00     0.167 HD
ATOM     73  C   UNL A   1      43.511  35.693  31.931  1.00  0.00     0.074 A 
ATOM     74  C   UNL A   1      42.592  35.972  33.014  1.00  0.00     0.031 C 
ATOM     75  C   UNL A   1      44.518  36.517  31.554  1.00  0.00     0.034 A 
BRANCH  62  76
ATOM     76  C   UNL A   1      48.045  34.315  27.002  1.00  0.00     0.023 A 
ATOM     77  C   UNL A   1      47.886  35.112  25.851  1.00  0.00     0.012 A 
ATOM     78  C   UNL A   1      49.332  33.863  27.359  1.00  0.00     0.148 A 
ATOM     79  C   UNL A   1      48.985  35.448  25.062  1.00  0.00     0.002 A 
ATOM     80  C   UNL A   1      50.429  34.242  26.595  1.00  0.00     0.091 A 
ATOM     81  F   UNL A   1      49.458  33.095  28.450  1.00  0.00    -0.205 F 
ATOM     82  C   UNL A   1      50.256  35.026  25.443  1.00  0.00     0.022 A 
BRANCH  80  83
ATOM     83  S   UNL A   1      52.118  33.828  27.044  1.00  0.00     0.127 S 
ATOM     84  O   UNL A   1      52.233  34.446  28.363  1.00  0.00    -0.237 OA
ATOM     85  O   UNL A   1      52.079  32.365  27.057  1.00  0.00    -0.237 OA
ATOM     86  O   UNL A   1      52.967  34.410  26.014  1.00  0.00    -0.744 OA
ENDBRANCH  80  83
ENDBRANCH  62  76
BRANCH  63  87
ATOM     87  C   UNL A   1      40.124  32.545  32.837  1.00  0.00     0.023 A 
ATOM     88  C   UNL A   1      40.282  31.766  34.000  1.00  0.00     0.012 A 
ATOM     89  C   UNL A   1      38.858  33.089  32.544  1.00  0.00     0.148 A 
ATOM     90  C   UNL A   1      39.194  31.502  34.834  1.00  0.00     0.002 A 
ATOM     91  C   UNL A   1      37.793  32.876  33.412  1.00  0.00     0.091 A 
ATOM     92  F   UNL A   1      38.722  33.819  31.427  1.00  0.00    -0.205 F 
ATOM     93  C   UNL A   1      37.954  32.065  34.547  1.00  0.00     0.022 A 
BRANCH  91  94
ATOM     94  S   UNL A   1      36.200  33.679  33.196  1.00  0.00     0.127 S 
ATOM     95  O   UNL A   1      35.801  33.203  31.875  1.00  0.00    -0.237 OA
ATOM     96  O   UNL A   1      35.430  33.124  34.311  1.00  0.00    -0.237 OA
ATOM     97  O   UNL A   1      36.457  35.110  33.303  1.00  0.00    -0.744 OA
ENDBRANCH  91  94
ENDBRANCH  63  87
BRANCH  75  98
ATOM     98  C   UNL A   1      44.675  37.831  32.275  1.00  0.00     0.023 A 
ATOM     99  C   UNL A   1      45.560  37.932  33.365  1.00  0.00     0.012 A 
ATOM    100  C   UNL A   1      44.041  38.991  31.787  1.00  0.00     0.148 A 
ATOM    101  C   UNL A   1      45.798  39.165  33.971  1.00  0.00     0.002 A 
ATOM    102  C   UNL A   1      44.323  40.224  32.360  1.00  0.00     0.091 A 
ATOM    103  F   UNL A   1      43.190  38.868  30.757  1.00  0.00    -0.205 F 
ATOM    104  C   UNL A   1      45.192  40.311  33.459  1.00  0.00     0.022 A 
BRANCH 102 105
ATOM    105  S   UNL A   1      43.680  41.768  31.704  1.00  0.00     0.127 S 
ATOM    106  O   UNL A   1      42.245  41.616  31.940  1.00  0.00    -0.237 OA
ATOM    107  O   UNL A   1      44.337  42.761  32.553  1.00  0.00    -0.237 OA
ATOM    108  O   UNL A   1      44.077  41.808  30.303  1.00  0.00    -0.744 OA
ENDBRANCH 102 105
ENDBRANCH  75  98
ENDBRANCH  49  50
ENDBRANCH  41  44
ENDBRANCH  39  40
ENDBRANCH  38  39
ENDBRANCH  37  38
ENDBRANCH  36  37
ENDBRANCH   1  36
TORSDOF 22
ENDMDL
MODEL 3
REMARK VINA RESULT:     -10.0      6.651     13.294
REMARK SMILES O=C(CCN1C(=O)S/C(=C\c2ccccc2F)C1=O)Nc1ccc(C(=O)NCCCCCCNC(=O)c2ccc(-c3c4nc(c(-c5cccc(S(=O)(=O)[O-])c5F)c5ccc([nH]5)c(-c5cccc(S(=O)(=O)[O-])c5F)c5nc(c(-c6cccc(S(=O)(=O)[O-])c6F)c6ccc3[nH]6)C=C5)C=C4)cc2)c(O)c1
REMARK SMILES IDX 29 1 28 2 27 3 25 4 26 5 24 7 21 8 22 9 102 10 23 11 100 12
REMARK SMILES IDX 20 13 1 14 2 15 3 17 4 18 5 19 6 20 18 21 7 22 8 23 9 24
REMARK SMILES IDX 19 25 10 26 11 27 12 28 16 29 13 30 15 31 17 32 14 33 101 34
REMARK SMILES IDX 30 36 31 37 32 38 33 39 34 40 35 41 36 43 37 44 38 45 99 46
REMARK SMILES IDX 39 47 98 48 40 49 41 50 42 51 92 52 43 53 97 54 91 55 93 56
REMARK SMILES IDX 44 57 96 58 90 59 89 60 45 62 77 63 57 64 76 65 58 66 61 67
REMARK SMILES IDX 75 68 94 69 59 70 60 71 74 73 95 74 62 75 46 76 47 77 55 78
REMARK SMILES IDX 48 79 50 80 56 81 49 82 51 83 52 84 53 85 54 86 78 87 79 88
REMARK SMILES IDX 87 89 80 90 82 91 88 92 81 93 83 94 84 95 85 96 86 97 63 98
REMARK SMILES IDX 64 99 72 100 65 101 67 102 73 103 66 104 68 105 69 106
REMARK SMILES IDX 70 107 71 108
REMARK H PARENT 27 6 20 16 101 35 34 42 93 61 61 72
REMARK Flexibility Score: inf
ROOT
ATOM      1  C   UNL A   1      40.970  21.021  26.353  1.00  0.00     0.021 C 
ENDROOT
BRANCH   1   2
ATOM      2  C   UNL A   1      42.243  21.682  25.832  1.00  0.00     0.116 C 
BRANCH   2   3
ATOM      3  N   UNL A   1      43.225  20.748  25.303  1.00  0.00    -0.352 N 
ATOM      4  C   UNL A   1      44.574  20.904  25.083  1.00  0.00     0.255 C 
ATOM      5  O   UNL A   1      45.204  19.979  24.575  1.00  0.00    -0.269 OA
ATOM      6  H   UNL A   1      42.866  19.864  25.063  1.00  0.00     0.163 HD
BRANCH   4   7
ATOM      7  C   UNL A   1      45.284  22.167  25.411  1.00  0.00     0.081 A 
ATOM      8  C   UNL A   1      46.690  24.469  26.231  1.00  0.00     0.044 A 
ATOM      9  C   UNL A   1      46.045  23.676  27.176  1.00  0.00     0.027 A 
ATOM     10  C   UNL A   1      46.574  24.142  24.875  1.00  0.00     0.073 A 
ATOM     11  C   UNL A   1      45.341  22.534  26.766  1.00  0.00     0.020 A 
ATOM     12  C   UNL A   1      45.854  23.022  24.468  1.00  0.00     0.130 A 
BRANCH   8  13
ATOM     13  N   UNL A   1      47.439  25.616  26.537  1.00  0.00    -0.326 N 
ATOM     14  O   UNL A   1      49.454  24.758  27.319  1.00  0.00    -0.275 OA
ATOM     15  C   UNL A   1      48.726  25.699  27.025  1.00  0.00     0.226 C 
ATOM     16  H   UNL A   1      46.986  26.475  26.381  1.00  0.00     0.169 HD
BRANCH  15  17
ATOM     17  C   UNL A   1      49.184  27.137  27.223  1.00  0.00     0.122 C 
BRANCH  17  18
ATOM     18  C   UNL A   1      48.892  28.069  26.038  1.00  0.00     0.140 C 
BRANCH  18  19
ATOM     19  N   UNL A   1      49.592  27.719  24.805  1.00  0.00    -0.268 N 
ATOM     20  C   UNL A   1      50.961  27.798  24.713  1.00  0.00     0.293 C 
ATOM     21  C   UNL A   1      48.920  27.246  23.695  1.00  0.00     0.268 C 
ATOM     22  O   UNL A   1      51.725  28.156  25.590  1.00  0.00    -0.261 OA
ATOM     23  S   UNL A   1      51.473  27.420  23.085  1.00  0.00    -0.022 SA
ATOM     24  C   UNL A   1      49.873  27.057  22.565  1.00  0.00     0.083 C 
ATOM     25  O   UNL A   1      47.714  27.074  23.613  1.00  0.00    -0.268 OA
ATOM     26  C   UNL A   1      49.450  26.748  21.331  1.00  0.00     0.032 C 
BRANCH  26  27
ATOM     27  C   UNL A   1      50.290  26.637  20.129  1.00  0.00     0.012 A 
ATOM     28  C   UNL A   1      50.609  25.364  19.637  1.00  0.00     0.011 A 
ATOM     29  C   UNL A   1      50.813  27.760  19.474  1.00  0.00     0.130 A 
ATOM     30  C   UNL A   1      51.409  25.226  18.498  1.00  0.00     0.001 A 
ATOM     31  C   UNL A   1      51.604  27.627  18.337  1.00  0.00     0.040 A 
ATOM     32  F   UNL A   1      50.559  28.991  19.945  1.00  0.00    -0.206 F 
ATOM     33  C   UNL A   1      51.902  26.358  17.846  1.00  0.00     0.003 A 
ENDBRANCH  26  27
ENDBRANCH  18  19
ENDBRANCH  17  18
ENDBRANCH  15  17
ENDBRANCH   8  13
BRANCH  12  34
ATOM     34  O   UNL A   1      45.726  22.877  23.115  1.00  0.00    -0.507 OA
ATOM     35  H   UNL A   1      45.021  22.371  22.762  1.00  0.00     0.293 HD
ENDBRANCH  12  34
ENDBRANCH   4   7
ENDBRANCH   2   3
ENDBRANCH   1   2
BRANCH   1  36
ATOM     36  C   UNL A   1      40.087  21.873  27.270  1.00  0.00     0.002 C 
BRANCH  36  37
ATOM     37  C   UNL A   1      39.223  22.945  26.597  1.00  0.00     0.002 C 
BRANCH  37  38
ATOM     38  C   UNL A   1      39.232  24.332  27.243  1.00  0.00     0.021 C 
BRANCH  38  39
ATOM     39  C   UNL A   1      39.897  25.441  26.436  1.00  0.00     0.116 C 
BRANCH  39  40
ATOM     40  N   UNL A   1      41.081  24.992  25.722  1.00  0.00    -0.352 N 
ATOM     41  C   UNL A   1      42.315  25.587  25.614  1.00  0.00     0.251 C 
ATOM     42  H   UNL A   1      40.986  24.134  25.248  1.00  0.00     0.163 HD
ATOM     43  O   UNL A   1      43.151  25.117  24.847  1.00  0.00    -0.269 OA
BRANCH  41  44
ATOM     44  C   UNL A   1      42.628  26.804  26.396  1.00  0.00     0.039 A 
ATOM     45  C   UNL A   1      42.291  28.050  25.863  1.00  0.00     0.014 A 
ATOM     46  C   UNL A   1      43.255  26.724  27.643  1.00  0.00     0.014 A 
ATOM     47  C   UNL A   1      42.525  29.210  26.606  1.00  0.00     0.010 A 
ATOM     48  C   UNL A   1      43.417  27.874  28.414  1.00  0.00     0.010 A 
ATOM     49  C   UNL A   1      43.057  29.130  27.905  1.00  0.00    -0.014 A 
BRANCH  49  50
ATOM     50  C   UNL A   1      43.228  30.346  28.743  1.00  0.00     0.031 A 
ATOM     51  C   UNL A   1      44.529  31.103  28.731  1.00  0.00     0.074 A 
ATOM     52  C   UNL A   1      42.229  30.736  29.562  1.00  0.00     0.049 A 
ATOM     53  N   UNL A   1      44.876  32.152  29.432  1.00  0.00    -0.248 NA
ATOM     54  C   UNL A   1      45.588  30.612  27.832  1.00  0.00     0.031 C 
ATOM     55  C   UNL A   1      40.939  30.056  29.705  1.00  0.00     0.029 A 
ATOM     56  N   UNL A   1      42.144  31.789  30.439  1.00  0.00    -0.354 N 
ATOM     57  C   UNL A   1      46.189  32.433  29.075  1.00  0.00     0.074 A 
ATOM     58  C   UNL A   1      46.596  31.421  28.126  1.00  0.00     0.031 C 
ATOM     59  C   UNL A   1      40.187  30.717  30.598  1.00  0.00     0.029 A 
ATOM     60  C   UNL A   1      40.952  31.843  31.126  1.00  0.00     0.049 A 
ATOM     61  H   UNL A   1      42.868  32.444  30.566  1.00  0.00     0.167 HD
ATOM     62  C   UNL A   1      46.974  33.461  29.474  1.00  0.00     0.034 A 
ATOM     63  C   UNL A   1      40.522  32.697  32.077  1.00  0.00     0.034 A 
ATOM     64  C   UNL A   1      46.554  34.488  30.388  1.00  0.00     0.049 A 
ATOM     65  C   UNL A   1      41.420  33.829  32.501  1.00  0.00     0.074 A 
ATOM     66  C   UNL A   1      47.262  35.601  30.807  1.00  0.00     0.029 A 
ATOM     67  N   UNL A   1      45.324  34.534  31.021  1.00  0.00    -0.354 N 
ATOM     68  N   UNL A   1      42.613  34.145  32.060  1.00  0.00    -0.248 NA
ATOM     69  C   UNL A   1      40.902  34.744  33.531  1.00  0.00     0.031 C 
ATOM     70  C   UNL A   1      46.471  36.305  31.717  1.00  0.00     0.029 A 
ATOM     71  C   UNL A   1      45.254  35.653  31.832  1.00  0.00     0.049 A 
ATOM     72  H   UNL A   1      44.604  33.871  30.910  1.00  0.00     0.167 HD
ATOM     73  C   UNL A   1      42.970  35.312  32.725  1.00  0.00     0.074 A 
ATOM     74  C   UNL A   1      41.860  35.660  33.586  1.00  0.00     0.031 C 
ATOM     75  C   UNL A   1      44.120  36.025  32.637  1.00  0.00     0.034 A 
BRANCH  62  76
ATOM     76  C   UNL A   1      48.352  33.584  28.877  1.00  0.00     0.023 A 
ATOM     77  C   UNL A   1      49.436  32.941  29.507  1.00  0.00     0.012 A 
ATOM     78  C   UNL A   1      48.549  34.213  27.631  1.00  0.00     0.148 A 
ATOM     79  C   UNL A   1      50.697  32.931  28.916  1.00  0.00     0.002 A 
ATOM     80  C   UNL A   1      49.798  34.158  27.025  1.00  0.00     0.091 A 
ATOM     81  F   UNL A   1      47.507  34.830  27.056  1.00  0.00    -0.205 F 
ATOM     82  C   UNL A   1      50.874  33.525  27.668  1.00  0.00     0.022 A 
BRANCH  80  83
ATOM     83  S   UNL A   1      50.113  34.813  25.382  1.00  0.00     0.127 S 
ATOM     84  O   UNL A   1      50.887  33.731  24.775  1.00  0.00    -0.237 OA
ATOM     85  O   UNL A   1      48.758  34.966  24.851  1.00  0.00    -0.237 OA
ATOM     86  O   UNL A   1      50.841  36.059  25.574  1.00  0.00    -0.744 OA
ENDBRANCH  80  83
ENDBRANCH  62  76
BRANCH  63  87
ATOM     87  C   UNL A   1      39.151  32.555  32.647  1.00  0.00     0.023 A 
ATOM     88  C   UNL A   1      38.976  31.865  33.863  1.00  0.00     0.012 A 
ATOM     89  C   UNL A   1      38.026  33.116  32.011  1.00  0.00     0.148 A 
ATOM     90  C   UNL A   1      37.704  31.705  34.415  1.00  0.00     0.002 A 
ATOM     91  C   UNL A   1      36.770  33.008  32.597  1.00  0.00     0.091 A 
ATOM     92  F   UNL A   1      38.207  33.759  30.848  1.00  0.00    -0.205 F 
ATOM     93  C   UNL A   1      36.604  32.285  33.789  1.00  0.00     0.022 A 
BRANCH  91  94
ATOM     94  S   UNL A   1      35.324  33.844  31.936  1.00  0.00     0.127 S 
ATOM     95  O   UNL A   1      35.584  33.805  30.501  1.00  0.00    -0.237 OA
ATOM     96  O   UNL A   1      34.239  32.973  32.392  1.00  0.00    -0.237 OA
ATOM     97  O   UNL A   1      35.317  35.170  32.542  1.00  0.00    -0.744 OA
ENDBRANCH  91  94
ENDBRANCH  63  87
BRANCH  75  98
ATOM     98  C   UNL A   1      44.243  37.285  33.454  1.00  0.00     0.023 A 
ATOM     99  C   UNL A   1      44.882  37.249  34.708  1.00  0.00     0.012 A 
ATOM    100  C   UNL A   1      43.840  38.525  32.917  1.00  0.00     0.148 A 
ATOM    101  C   UNL A   1      45.101  38.426  35.424  1.00  0.00     0.002 A 
ATOM    102  C   UNL A   1      44.110  39.697  33.610  1.00  0.00     0.091 A 
ATOM    103  F   UNL A   1      43.221  38.533  31.727  1.00  0.00    -0.205 F 
ATOM    104  C   UNL A   1      44.731  39.648  34.868  1.00  0.00     0.022 A 
BRANCH 102 105
ATOM    105  S   UNL A   1      43.771  41.325  32.929  1.00  0.00     0.127 S 
ATOM    106  O   UNL A   1      42.312  41.309  32.834  1.00  0.00    -0.237 OA
ATOM    107  O   UNL A   1      44.307  42.209  33.965  1.00  0.00    -0.237 OA
ATOM    108  O   UNL A   1      44.474  41.385  31.655  1.00  0.00    -0.744 OA
ENDBRANCH 102 105
ENDBRANCH  75  98
ENDBRANCH  49  50
ENDBRANCH  41  44
ENDBRANCH  39  40
ENDBRANCH  38  39
ENDBRANCH  37  38
ENDBRANCH  36  37
ENDBRANCH   1  36
TORSDOF 22
ENDMDL
