MODEL 1
REMARK VINA RESULT:     -11.6      0.000      0.000
REMARK SMILES NC(=O)c1ccc(Cl)c(NC(=O)/C=C/C(=O)NCCCCCCNC(=O)c2ccc(-c3c4nc(c(-c5cccc(S(=O)(=O)[O-])c5F)c5ccc([nH]5)c(-c5cccc(S(=O)(=O)[O-])c5F)c5nc(c(-c6cccc(S(=O)(=O)[O-])c6F)c6ccc3[nH]6)C=C5)C=C4)cc2)c1
REMARK SMILES IDX 20 1 19 2 18 3 17 4 15 5 16 6 14 8 13 9 11 10 10 11 12 13
REMARK SMILES IDX 9 14 4 15 5 16 90 17 6 18 7 19 8 20 2 21 1 22 3 25 21 26
REMARK SMILES IDX 22 27 23 28 24 29 25 30 26 32 27 33 28 34 89 35 29 36 88 37
REMARK SMILES IDX 30 38 31 39 32 40 82 41 33 42 87 43 81 44 83 45 34 46 86 47
REMARK SMILES IDX 80 48 79 49 35 51 67 52 47 53 66 54 48 55 51 56 65 57 84 58
REMARK SMILES IDX 49 59 50 60 64 62 85 63 52 64 36 65 37 66 45 67 38 68 40 69
REMARK SMILES IDX 46 70 39 71 41 72 42 73 43 74 44 75 68 76 69 77 77 78 70 79
REMARK SMILES IDX 72 80 78 81 71 82 73 83 74 84 75 85 76 86 53 87 54 88 62 89
REMARK SMILES IDX 55 90 57 91 63 92 56 93 58 94 59 95 60 96 61 97
REMARK H PARENT 17 7 10 12 1 23 1 24 24 31 83 50 51 61
REMARK Flexibility Score: inf
ROOT
ATOM      1  C   UNL A   1      30.821  28.300  22.788  1.00  0.00     0.002 C 
ENDROOT
BRANCH   1   2
ATOM      2  C   UNL A   1      29.456  28.151  23.471  1.00  0.00     0.021 C 
BRANCH   2   3
ATOM      3  C   UNL A   1      28.980  26.711  23.626  1.00  0.00     0.116 C 
BRANCH   3   4
ATOM      4  N   UNL A   1      29.617  26.089  24.767  1.00  0.00    -0.353 N 
ATOM      5  C   UNL A   1      30.451  25.024  24.773  1.00  0.00     0.244 C 
ATOM      6  O   UNL A   1      30.757  24.460  25.819  1.00  0.00    -0.270 OA
ATOM      7  H   UNL A   1      29.418  26.489  25.646  1.00  0.00     0.163 HD
BRANCH   5   8
ATOM      8  C   UNL A   1      31.051  24.599  23.500  1.00  0.00     0.077 C 
ATOM      9  C   UNL A   1      32.369  24.820  23.383  1.00  0.00     0.077 C 
BRANCH   9  10
ATOM     10  C   UNL A   1      33.149  24.237  22.291  1.00  0.00     0.248 C 
ATOM     11  N   UNL A   1      33.934  23.142  22.490  1.00  0.00    -0.321 N 
ATOM     12  H   UNL A   1      34.464  22.909  21.694  1.00  0.00     0.170 HD
ATOM     13  O   UNL A   1      33.122  24.781  21.190  1.00  0.00    -0.270 OA
BRANCH  11  14
ATOM     14  C   UNL A   1      34.169  22.260  23.574  1.00  0.00     0.061 A 
ATOM     15  C   UNL A   1      33.662  20.319  24.938  1.00  0.00     0.041 A 
ATOM     16  C   UNL A   1      34.959  20.296  25.443  1.00  0.00     0.015 A 
ATOM     17  C   UNL A   1      33.248  21.330  24.063  1.00  0.00     0.041 A 
ATOM     18  C   UNL A   1      35.845  21.306  25.084  1.00  0.00     0.023 A 
ATOM     19  C   UNL A   1      35.458  22.271  24.148  1.00  0.00     0.064 A 
ATOM     20  Cl  UNL A   1      36.638  23.448  23.676  1.00  0.00    -0.082 Cl
BRANCH  15  21
ATOM     21  C   UNL A   1      32.778  19.169  25.216  1.00  0.00     0.248 C 
ATOM     22  N   UNL A   1      32.847  18.635  26.466  1.00  0.00    -0.366 N 
ATOM     23  H   UNL A   1      32.280  17.866  26.705  1.00  0.00     0.159 HD
ATOM     24  H   UNL A   1      33.465  19.016  27.131  1.00  0.00     0.159 HD
ATOM     25  O   UNL A   1      32.054  18.718  24.341  1.00  0.00    -0.270 OA
ENDBRANCH  15  21
ENDBRANCH  11  14
ENDBRANCH   9  10
ENDBRANCH   5   8
ENDBRANCH   3   4
ENDBRANCH   2   3
ENDBRANCH   1   2
BRANCH   1  26
ATOM     26  C   UNL A   1      31.975  28.735  23.695  1.00  0.00     0.002 C 
BRANCH  26  27
ATOM     27  C   UNL A   1      31.580  29.154  25.112  1.00  0.00     0.021 C 
BRANCH  27  28
ATOM     28  C   UNL A   1      32.701  29.775  25.931  1.00  0.00     0.116 C 
BRANCH  28  29
ATOM     29  N   UNL A   1      32.436  31.164  26.258  1.00  0.00    -0.352 N 
ATOM     30  C   UNL A   1      33.098  31.968  27.151  1.00  0.00     0.251 C 
ATOM     31  H   UNL A   1      31.686  31.583  25.776  1.00  0.00     0.163 HD
ATOM     32  O   UNL A   1      32.647  33.069  27.447  1.00  0.00    -0.269 OA
BRANCH  30  33
ATOM     33  C   UNL A   1      34.350  31.480  27.771  1.00  0.00     0.039 A 
ATOM     34  C   UNL A   1      35.405  32.374  27.957  1.00  0.00     0.014 A 
ATOM     35  C   UNL A   1      34.468  30.149  28.187  1.00  0.00     0.014 A 
ATOM     36  C   UNL A   1      36.567  31.944  28.601  1.00  0.00     0.010 A 
ATOM     37  C   UNL A   1      35.595  29.745  28.895  1.00  0.00     0.010 A 
ATOM     38  C   UNL A   1      36.663  30.633  29.095  1.00  0.00    -0.014 A 
BRANCH  38  39
ATOM     39  C   UNL A   1      37.877  30.168  29.811  1.00  0.00     0.031 A 
ATOM     40  C   UNL A   1      38.175  30.675  31.196  1.00  0.00     0.074 A 
ATOM     41  C   UNL A   1      38.749  29.352  29.188  1.00  0.00     0.049 A 
ATOM     42  N   UNL A   1      39.199  30.413  31.967  1.00  0.00    -0.248 NA
ATOM     43  C   UNL A   1      37.213  31.623  31.783  1.00  0.00     0.031 C 
ATOM     44  C   UNL A   1      38.615  28.861  27.815  1.00  0.00     0.029 A 
ATOM     45  N   UNL A   1      39.934  28.811  29.618  1.00  0.00    -0.354 N 
ATOM     46  C   UNL A   1      39.024  31.187  33.108  1.00  0.00     0.074 A 
ATOM     47  C   UNL A   1      37.815  31.958  32.915  1.00  0.00     0.031 C 
ATOM     48  C   UNL A   1      39.672  28.088  27.518  1.00  0.00     0.029 A 
ATOM     49  C   UNL A   1      40.570  28.045  28.668  1.00  0.00     0.049 A 
ATOM     50  H   UNL A   1      40.297  28.958  30.522  1.00  0.00     0.167 HD
ATOM     51  C   UNL A   1      39.780  31.229  34.231  1.00  0.00     0.034 A 
ATOM     52  C   UNL A   1      41.743  27.384  28.719  1.00  0.00     0.034 A 
ATOM     53  C   UNL A   1      40.950  30.421  34.440  1.00  0.00     0.049 A 
ATOM     54  C   UNL A   1      42.535  27.400  29.999  1.00  0.00     0.074 A 
ATOM     55  C   UNL A   1      41.731  30.316  35.576  1.00  0.00     0.029 A 
ATOM     56  N   UNL A   1      41.511  29.581  33.489  1.00  0.00    -0.354 N 
ATOM     57  N   UNL A   1      42.262  28.005  31.130  1.00  0.00    -0.248 NA
ATOM     58  C   UNL A   1      43.777  26.613  30.024  1.00  0.00     0.031 C 
ATOM     59  C   UNL A   1      42.774  29.424  35.308  1.00  0.00     0.029 A 
ATOM     60  C   UNL A   1      42.631  28.958  34.011  1.00  0.00     0.049 A 
ATOM     61  H   UNL A   1      41.164  29.448  32.578  1.00  0.00     0.167 HD
ATOM     62  C   UNL A   1      43.274  27.643  32.011  1.00  0.00     0.074 A 
ATOM     63  C   UNL A   1      44.157  26.750  31.287  1.00  0.00     0.031 C 
ATOM     64  C   UNL A   1      43.466  28.026  33.297  1.00  0.00     0.034 A 
BRANCH  51  65
ATOM     65  C   UNL A   1      39.327  32.133  35.346  1.00  0.00     0.023 A 
ATOM     66  C   UNL A   1      38.470  31.627  36.345  1.00  0.00     0.012 A 
ATOM     67  C   UNL A   1      39.790  33.460  35.441  1.00  0.00     0.148 A 
ATOM     68  C   UNL A   1      38.051  32.435  37.400  1.00  0.00     0.002 A 
ATOM     69  C   UNL A   1      39.403  34.247  36.521  1.00  0.00     0.091 A 
ATOM     70  F   UNL A   1      40.586  33.933  34.472  1.00  0.00    -0.205 F 
ATOM     71  C   UNL A   1      38.525  33.740  37.494  1.00  0.00     0.022 A 
BRANCH  69  72
ATOM     72  S   UNL A   1      40.021  35.915  36.774  1.00  0.00     0.127 S 
ATOM     73  O   UNL A   1      41.446  35.670  36.996  1.00  0.00    -0.237 OA
ATOM     74  O   UNL A   1      39.705  36.558  35.498  1.00  0.00    -0.237 OA
ATOM     75  O   UNL A   1      39.291  36.444  37.917  1.00  0.00    -0.744 OA
ENDBRANCH  69  72
ENDBRANCH  51  65
BRANCH  52  76
ATOM     76  C   UNL A   1      42.196  26.583  27.547  1.00  0.00     0.023 A 
ATOM     77  C   UNL A   1      42.994  27.193  26.560  1.00  0.00     0.012 A 
ATOM     78  C   UNL A   1      41.873  25.218  27.420  1.00  0.00     0.148 A 
ATOM     79  C   UNL A   1      43.438  26.468  25.454  1.00  0.00     0.002 A 
ATOM     80  C   UNL A   1      42.363  24.488  26.343  1.00  0.00     0.091 A 
ATOM     81  F   UNL A   1      41.102  24.657  28.363  1.00  0.00    -0.205 F 
ATOM     82  C   UNL A   1      43.131  25.114  25.350  1.00  0.00     0.022 A 
BRANCH  80  83
ATOM     83  S   UNL A   1      42.131  22.711  26.201  1.00  0.00     0.127 S 
ATOM     84  O   UNL A   1      42.742  22.230  27.438  1.00  0.00    -0.237 OA
ATOM     85  O   UNL A   1      40.673  22.599  26.151  1.00  0.00    -0.237 OA
ATOM     86  O   UNL A   1      42.802  22.326  24.967  1.00  0.00    -0.744 OA
ENDBRANCH  80  83
ENDBRANCH  52  76
BRANCH  64  87
ATOM     87  C   UNL A   1      44.656  27.461  34.027  1.00  0.00     0.023 A 
ATOM     88  C   UNL A   1      45.863  28.186  34.062  1.00  0.00     0.012 A 
ATOM     89  C   UNL A   1      44.549  26.257  34.750  1.00  0.00     0.148 A 
ATOM     90  C   UNL A   1      46.956  27.706  34.781  1.00  0.00     0.002 A 
ATOM     91  C   UNL A   1      45.628  25.808  35.503  1.00  0.00     0.091 A 
ATOM     92  F   UNL A   1      43.398  25.573  34.689  1.00  0.00    -0.205 F 
ATOM     93  C   UNL A   1      46.834  26.526  35.511  1.00  0.00     0.022 A 
BRANCH  91  94
ATOM     94  S   UNL A   1      45.529  24.352  36.550  1.00  0.00     0.127 S 
ATOM     95  O   UNL A   1      46.876  24.299  37.114  1.00  0.00    -0.237 OA
ATOM     96  O   UNL A   1      44.484  24.723  37.503  1.00  0.00    -0.237 OA
ATOM     97  O   UNL A   1      45.175  23.247  35.668  1.00  0.00    -0.744 OA
ENDBRANCH  91  94
ENDBRANCH  64  87
ENDBRANCH  38  39
ENDBRANCH  30  33
ENDBRANCH  28  29
ENDBRANCH  27  28
ENDBRANCH  26  27
ENDBRANCH   1  26
TORSDOF 19
ENDMDL
MODEL 2
REMARK VINA RESULT:     -11.3      2.618      8.091
REMARK SMILES NC(=O)c1ccc(Cl)c(NC(=O)/C=C/C(=O)NCCCCCCNC(=O)c2ccc(-c3c4nc(c(-c5cccc(S(=O)(=O)[O-])c5F)c5ccc([nH]5)c(-c5cccc(S(=O)(=O)[O-])c5F)c5nc(c(-c6cccc(S(=O)(=O)[O-])c6F)c6ccc3[nH]6)C=C5)C=C4)cc2)c1
REMARK SMILES IDX 20 1 19 2 18 3 17 4 15 5 16 6 14 8 13 9 11 10 10 11 12 13
REMARK SMILES IDX 9 14 4 15 5 16 90 17 6 18 7 19 8 20 2 21 1 22 3 25 21 26
REMARK SMILES IDX 22 27 23 28 24 29 25 30 26 32 27 33 28 34 89 35 29 36 88 37
REMARK SMILES IDX 30 38 31 39 32 40 82 41 33 42 87 43 81 44 83 45 34 46 86 47
REMARK SMILES IDX 80 48 79 49 35 51 67 52 47 53 66 54 48 55 51 56 65 57 84 58
REMARK SMILES IDX 49 59 50 60 64 62 85 63 52 64 36 65 37 66 45 67 38 68 40 69
REMARK SMILES IDX 46 70 39 71 41 72 42 73 43 74 44 75 68 76 69 77 77 78 70 79
REMARK SMILES IDX 72 80 78 81 71 82 73 83 74 84 75 85 76 86 53 87 54 88 62 89
REMARK SMILES IDX 55 90 57 91 63 92 56 93 58 94 59 95 60 96 61 97
REMARK H PARENT 17 7 10 12 1 23 1 24 24 31 83 50 51 61
REMARK Flexibility Score: inf
ROOT
ATOM      1  C   UNL A   1      32.577  30.156  26.646  1.00  0.00     0.002 C 
ENDROOT
BRANCH   1   2
ATOM      2  C   UNL A   1      33.123  29.290  25.504  1.00  0.00     0.021 C 
BRANCH   2   3
ATOM      3  C   UNL A   1      32.098  28.351  24.877  1.00  0.00     0.116 C 
BRANCH   3   4
ATOM      4  N   UNL A   1      32.742  27.458  23.937  1.00  0.00    -0.353 N 
ATOM      5  C   UNL A   1      33.341  26.272  24.196  1.00  0.00     0.244 C 
ATOM      6  O   UNL A   1      34.035  25.712  23.353  1.00  0.00    -0.270 OA
ATOM      7  H   UNL A   1      32.745  27.748  22.995  1.00  0.00     0.163 HD
BRANCH   5   8
ATOM      8  C   UNL A   1      33.081  25.626  25.490  1.00  0.00     0.077 C 
ATOM      9  C   UNL A   1      32.453  24.443  25.426  1.00  0.00     0.077 C 
BRANCH   9  10
ATOM     10  C   UNL A   1      32.344  23.569  26.595  1.00  0.00     0.248 C 
ATOM     11  N   UNL A   1      33.172  22.500  26.756  1.00  0.00    -0.321 N 
ATOM     12  H   UNL A   1      32.934  21.955  27.540  1.00  0.00     0.170 HD
ATOM     13  O   UNL A   1      31.457  23.789  27.416  1.00  0.00    -0.270 OA
BRANCH  11  14
ATOM     14  C   UNL A   1      34.294  21.986  26.061  1.00  0.00     0.061 A 
ATOM     15  C   UNL A   1      36.661  21.889  25.537  1.00  0.00     0.041 A 
ATOM     16  C   UNL A   1      36.523  20.610  25.002  1.00  0.00     0.015 A 
ATOM     17  C   UNL A   1      35.548  22.599  26.001  1.00  0.00     0.041 A 
ATOM     18  C   UNL A   1      35.254  20.046  24.914  1.00  0.00     0.023 A 
ATOM     19  C   UNL A   1      34.153  20.721  25.451  1.00  0.00     0.064 A 
ATOM     20  Cl  UNL A   1      32.616  19.924  25.388  1.00  0.00    -0.082 Cl
BRANCH  15  21
ATOM     21  C   UNL A   1      38.023  22.417  25.751  1.00  0.00     0.248 C 
ATOM     22  N   UNL A   1      38.198  23.752  25.550  1.00  0.00    -0.366 N 
ATOM     23  H   UNL A   1      39.087  24.157  25.679  1.00  0.00     0.159 HD
ATOM     24  H   UNL A   1      37.437  24.312  25.276  1.00  0.00     0.159 HD
ATOM     25  O   UNL A   1      38.937  21.667  26.061  1.00  0.00    -0.270 OA
ENDBRANCH  15  21
ENDBRANCH  11  14
ENDBRANCH   9  10
ENDBRANCH   5   8
ENDBRANCH   3   4
ENDBRANCH   2   3
ENDBRANCH   1   2
BRANCH   1  26
ATOM     26  C   UNL A   1      31.301  30.943  26.332  1.00  0.00     0.002 C 
BRANCH  26  27
ATOM     27  C   UNL A   1      31.401  32.459  26.503  1.00  0.00     0.021 C 
BRANCH  27  28
ATOM     28  C   UNL A   1      32.640  32.938  27.245  1.00  0.00     0.116 C 
BRANCH  28  29
ATOM     29  N   UNL A   1      32.498  34.302  27.723  1.00  0.00    -0.352 N 
ATOM     30  C   UNL A   1      33.164  34.913  28.755  1.00  0.00     0.251 C 
ATOM     31  H   UNL A   1      31.842  34.859  27.245  1.00  0.00     0.163 HD
ATOM     32  O   UNL A   1      32.810  36.017  29.154  1.00  0.00    -0.269 OA
BRANCH  30  33
ATOM     33  C   UNL A   1      34.298  34.213  29.399  1.00  0.00     0.039 A 
ATOM     34  C   UNL A   1      35.600  34.610  29.091  1.00  0.00     0.014 A 
ATOM     35  C   UNL A   1      34.070  33.183  30.318  1.00  0.00     0.014 A 
ATOM     36  C   UNL A   1      36.677  34.003  29.740  1.00  0.00     0.010 A 
ATOM     37  C   UNL A   1      35.140  32.634  31.018  1.00  0.00     0.010 A 
ATOM     38  C   UNL A   1      36.455  33.026  30.724  1.00  0.00    -0.014 A 
BRANCH  38  39
ATOM     39  C   UNL A   1      37.586  32.394  31.448  1.00  0.00     0.031 A 
ATOM     40  C   UNL A   1      38.342  31.255  30.818  1.00  0.00     0.074 A 
ATOM     41  C   UNL A   1      37.885  32.792  32.700  1.00  0.00     0.049 A 
ATOM     42  N   UNL A   1      39.334  30.555  31.305  1.00  0.00    -0.248 NA
ATOM     43  C   UNL A   1      37.910  30.826  29.477  1.00  0.00     0.031 C 
ATOM     44  C   UNL A   1      37.170  33.827  33.451  1.00  0.00     0.029 A 
ATOM     45  N   UNL A   1      38.850  32.357  33.572  1.00  0.00    -0.354 N 
ATOM     46  C   UNL A   1      39.618  29.585  30.351  1.00  0.00     0.074 A 
ATOM     47  C   UNL A   1      38.671  29.762  29.272  1.00  0.00     0.031 C 
ATOM     48  C   UNL A   1      37.725  33.950  34.668  1.00  0.00     0.029 A 
ATOM     49  C   UNL A   1      38.819  32.991  34.793  1.00  0.00     0.049 A 
ATOM     50  H   UNL A   1      39.505  31.657  33.346  1.00  0.00     0.167 HD
ATOM     51  C   UNL A   1      40.601  28.653  30.354  1.00  0.00     0.034 A 
ATOM     52  C   UNL A   1      39.583  32.818  35.889  1.00  0.00     0.034 A 
ATOM     53  C   UNL A   1      41.574  28.517  31.403  1.00  0.00     0.049 A 
ATOM     54  C   UNL A   1      40.705  31.815  35.845  1.00  0.00     0.074 A 
ATOM     55  C   UNL A   1      42.666  27.671  31.458  1.00  0.00     0.029 A 
ATOM     56  N   UNL A   1      41.569  29.243  32.584  1.00  0.00    -0.354 N 
ATOM     57  N   UNL A   1      41.066  31.023  34.863  1.00  0.00    -0.248 NA
ATOM     58  C   UNL A   1      41.550  31.707  37.044  1.00  0.00     0.031 C 
ATOM     59  C   UNL A   1      43.314  27.875  32.682  1.00  0.00     0.029 A 
ATOM     60  C   UNL A   1      42.637  28.861  33.378  1.00  0.00     0.049 A 
ATOM     61  H   UNL A   1      40.905  29.929  32.823  1.00  0.00     0.167 HD
ATOM     62  C   UNL A   1      42.198  30.352  35.309  1.00  0.00     0.074 A 
ATOM     63  C   UNL A   1      42.475  30.845  36.644  1.00  0.00     0.031 C 
ATOM     64  C   UNL A   1      42.933  29.404  34.680  1.00  0.00     0.034 A 
BRANCH  51  65
ATOM     65  C   UNL A   1      40.712  27.749  29.155  1.00  0.00     0.023 A 
ATOM     66  C   UNL A   1      39.910  26.591  29.083  1.00  0.00     0.012 A 
ATOM     67  C   UNL A   1      41.560  28.069  28.077  1.00  0.00     0.148 A 
ATOM     68  C   UNL A   1      39.976  25.747  27.976  1.00  0.00     0.002 A 
ATOM     69  C   UNL A   1      41.588  27.245  26.957  1.00  0.00     0.091 A 
ATOM     70  F   UNL A   1      42.332  29.161  28.172  1.00  0.00    -0.205 F 
ATOM     71  C   UNL A   1      40.807  26.079  26.910  1.00  0.00     0.022 A 
BRANCH  69  72
ATOM     72  S   UNL A   1      42.566  27.628  25.498  1.00  0.00     0.127 S 
ATOM     73  O   UNL A   1      42.312  26.458  24.659  1.00  0.00    -0.237 OA
ATOM     74  O   UNL A   1      41.942  28.865  25.025  1.00  0.00    -0.237 OA
ATOM     75  O   UNL A   1      43.937  27.780  25.964  1.00  0.00    -0.744 OA
ENDBRANCH  69  72
ENDBRANCH  51  65
BRANCH  52  76
ATOM     76  C   UNL A   1      39.366  33.672  37.090  1.00  0.00     0.023 A 
ATOM     77  C   UNL A   1      39.798  35.013  37.070  1.00  0.00     0.012 A 
ATOM     78  C   UNL A   1      38.706  33.182  38.233  1.00  0.00     0.148 A 
ATOM     79  C   UNL A   1      39.605  35.840  38.177  1.00  0.00     0.002 A 
ATOM     80  C   UNL A   1      38.468  34.027  39.311  1.00  0.00     0.091 A 
ATOM     81  F   UNL A   1      38.312  31.900  38.238  1.00  0.00    -0.205 F 
ATOM     82  C   UNL A   1      38.932  35.351  39.293  1.00  0.00     0.022 A 
BRANCH  80  83
ATOM     83  S   UNL A   1      37.491  33.520  40.732  1.00  0.00     0.127 S 
ATOM     84  O   UNL A   1      37.395  34.766  41.489  1.00  0.00    -0.237 OA
ATOM     85  O   UNL A   1      36.245  33.084  40.103  1.00  0.00    -0.237 OA
ATOM     86  O   UNL A   1      38.248  32.448  41.365  1.00  0.00    -0.744 OA
ENDBRANCH  80  83
ENDBRANCH  52  76
BRANCH  64  87
ATOM     87  C   UNL A   1      44.133  28.851  35.404  1.00  0.00     0.023 A 
ATOM     88  C   UNL A   1      45.395  29.446  35.220  1.00  0.00     0.012 A 
ATOM     89  C   UNL A   1      43.990  27.798  36.329  1.00  0.00     0.148 A 
ATOM     90  C   UNL A   1      46.505  28.985  35.926  1.00  0.00     0.002 A 
ATOM     91  C   UNL A   1      45.092  27.375  37.064  1.00  0.00     0.091 A 
ATOM     92  F   UNL A   1      42.784  27.232  36.476  1.00  0.00    -0.205 F 
ATOM     93  C   UNL A   1      46.351  27.960  36.855  1.00  0.00     0.022 A 
BRANCH  91  94
ATOM     94  S   UNL A   1      44.966  26.128  38.351  1.00  0.00     0.127 S 
ATOM     95  O   UNL A   1      46.353  26.023  38.800  1.00  0.00    -0.237 OA
ATOM     96  O   UNL A   1      44.061  26.761  39.311  1.00  0.00    -0.237 OA
ATOM     97  O   UNL A   1      44.424  24.939  37.706  1.00  0.00    -0.744 OA
ENDBRANCH  91  94
ENDBRANCH  64  87
ENDBRANCH  38  39
ENDBRANCH  30  33
ENDBRANCH  28  29
ENDBRANCH  27  28
ENDBRANCH  26  27
ENDBRANCH   1  26
TORSDOF 19
ENDMDL
MODEL 3
REMARK VINA RESULT:     -11.3      2.154      2.863
REMARK SMILES NC(=O)c1ccc(Cl)c(NC(=O)/C=C/C(=O)NCCCCCCNC(=O)c2ccc(-c3c4nc(c(-c5cccc(S(=O)(=O)[O-])c5F)c5ccc([nH]5)c(-c5cccc(S(=O)(=O)[O-])c5F)c5nc(c(-c6cccc(S(=O)(=O)[O-])c6F)c6ccc3[nH]6)C=C5)C=C4)cc2)c1
REMARK SMILES IDX 20 1 19 2 18 3 17 4 15 5 16 6 14 8 13 9 11 10 10 11 12 13
REMARK SMILES IDX 9 14 4 15 5 16 90 17 6 18 7 19 8 20 2 21 1 22 3 25 21 26
REMARK SMILES IDX 22 27 23 28 24 29 25 30 26 32 27 33 28 34 89 35 29 36 88 37
REMARK SMILES IDX 30 38 31 39 32 40 82 41 33 42 87 43 81 44 83 45 34 46 86 47
REMARK SMILES IDX 80 48 79 49 35 51 67 52 47 53 66 54 48 55 51 56 65 57 84 58
REMARK SMILES IDX 49 59 50 60 64 62 85 63 52 64 36 65 37 66 45 67 38 68 40 69
REMARK SMILES IDX 46 70 39 71 41 72 42 73 43 74 44 75 68 76 69 77 77 78 70 79
REMARK SMILES IDX 72 80 78 81 71 82 73 83 74 84 75 85 76 86 53 87 54 88 62 89
REMARK SMILES IDX 55 90 57 91 63 92 56 93 58 94 59 95 60 96 61 97
REMARK H PARENT 17 7 10 12 1 23 1 24 24 31 83 50 51 61
REMARK Flexibility Score: inf
ROOT
ATOM      1  C   UNL A   1      31.785  27.315  23.445  1.00  0.00     0.002 C 
ENDROOT
BRANCH   1   2
ATOM      2  C   UNL A   1      30.685  26.640  24.273  1.00  0.00     0.021 C 
BRANCH   2   3
ATOM      3  C   UNL A   1      30.752  26.929  25.769  1.00  0.00     0.116 C 
BRANCH   3   4
ATOM      4  N   UNL A   1      30.382  25.752  26.527  1.00  0.00    -0.353 N 
ATOM      5  C   UNL A   1      31.099  24.618  26.700  1.00  0.00     0.244 C 
ATOM      6  O   UNL A   1      30.592  23.611  27.185  1.00  0.00    -0.270 OA
ATOM      7  H   UNL A   1      29.502  25.780  26.969  1.00  0.00     0.163 HD
BRANCH   5   8
ATOM      8  C   UNL A   1      32.530  24.638  26.366  1.00  0.00     0.077 C 
ATOM      9  C   UNL A   1      33.131  23.439  26.332  1.00  0.00     0.077 C 
BRANCH   9  10
ATOM     10  C   UNL A   1      34.475  23.271  25.781  1.00  0.00     0.248 C 
ATOM     11  N   UNL A   1      34.769  22.241  24.940  1.00  0.00    -0.321 N 
ATOM     12  H   UNL A   1      35.726  22.202  24.713  1.00  0.00     0.170 HD
ATOM     13  O   UNL A   1      35.357  24.054  26.126  1.00  0.00    -0.270 OA
BRANCH  11  14
ATOM     14  C   UNL A   1      34.023  21.211  24.316  1.00  0.00     0.061 A 
ATOM     15  C   UNL A   1      33.120  18.963  24.185  1.00  0.00     0.041 A 
ATOM     16  C   UNL A   1      32.153  19.371  23.269  1.00  0.00     0.015 A 
ATOM     17  C   UNL A   1      34.090  19.857  24.654  1.00  0.00     0.041 A 
ATOM     18  C   UNL A   1      32.169  20.682  22.805  1.00  0.00     0.023 A 
ATOM     19  C   UNL A   1      33.086  21.596  23.334  1.00  0.00     0.064 A 
ATOM     20  Cl  UNL A   1      32.994  23.235  22.778  1.00  0.00    -0.082 Cl
BRANCH  15  21
ATOM     21  C   UNL A   1      33.008  17.613  24.772  1.00  0.00     0.248 C 
ATOM     22  N   UNL A   1      32.903  17.544  26.127  1.00  0.00    -0.366 N 
ATOM     23  H   UNL A   1      32.825  16.667  26.571  1.00  0.00     0.159 HD
ATOM     24  H   UNL A   1      32.904  18.368  26.664  1.00  0.00     0.159 HD
ATOM     25  O   UNL A   1      33.043  16.621  24.057  1.00  0.00    -0.270 OA
ENDBRANCH  15  21
ENDBRANCH  11  14
ENDBRANCH   9  10
ENDBRANCH   5   8
ENDBRANCH   3   4
ENDBRANCH   2   3
ENDBRANCH   1   2
BRANCH   1  26
ATOM     26  C   UNL A   1      33.168  27.378  24.101  1.00  0.00     0.002 C 
BRANCH  26  27
ATOM     27  C   UNL A   1      33.626  28.767  24.544  1.00  0.00     0.021 C 
BRANCH  27  28
ATOM     28  C   UNL A   1      33.942  28.895  26.027  1.00  0.00     0.116 C 
BRANCH  28  29
ATOM     29  N   UNL A   1      33.830  30.264  26.495  1.00  0.00    -0.352 N 
ATOM     30  C   UNL A   1      34.590  30.902  27.442  1.00  0.00     0.251 C 
ATOM     31  H   UNL A   1      33.118  30.803  26.080  1.00  0.00     0.163 HD
ATOM     32  O   UNL A   1      34.262  32.009  27.858  1.00  0.00    -0.269 OA
BRANCH  30  33
ATOM     33  C   UNL A   1      35.796  30.230  27.974  1.00  0.00     0.039 A 
ATOM     34  C   UNL A   1      36.988  30.309  27.251  1.00  0.00     0.014 A 
ATOM     35  C   UNL A   1      35.752  29.544  29.192  1.00  0.00     0.014 A 
ATOM     36  C   UNL A   1      38.149  29.735  27.773  1.00  0.00     0.010 A 
ATOM     37  C   UNL A   1      36.925  29.040  29.744  1.00  0.00     0.010 A 
ATOM     38  C   UNL A   1      38.132  29.116  29.033  1.00  0.00    -0.014 A 
BRANCH  38  39
ATOM     39  C   UNL A   1      39.364  28.530  29.618  1.00  0.00     0.031 A 
ATOM     40  C   UNL A   1      39.970  29.131  30.858  1.00  0.00     0.074 A 
ATOM     41  C   UNL A   1      39.980  27.508  28.993  1.00  0.00     0.049 A 
ATOM     42  N   UNL A   1      41.057  28.784  31.496  1.00  0.00    -0.248 NA
ATOM     43  C   UNL A   1      39.281  30.295  31.442  1.00  0.00     0.031 C 
ATOM     44  C   UNL A   1      39.538  26.895  27.739  1.00  0.00     0.029 A 
ATOM     45  N   UNL A   1      41.123  26.820  29.313  1.00  0.00    -0.354 N 
ATOM     46  C   UNL A   1      41.202  29.701  32.529  1.00  0.00     0.074 A 
ATOM     47  C   UNL A   1      40.112  30.646  32.413  1.00  0.00     0.031 C 
ATOM     48  C   UNL A   1      40.396  25.919  27.400  1.00  0.00     0.029 A 
ATOM     49  C   UNL A   1      41.460  25.851  28.397  1.00  0.00     0.049 A 
ATOM     50  H   UNL A   1      41.653  27.003  30.123  1.00  0.00     0.167 HD
ATOM     51  C   UNL A   1      42.136  29.737  33.509  1.00  0.00     0.034 A 
ATOM     52  C   UNL A   1      42.508  25.004  28.364  1.00  0.00     0.034 A 
ATOM     53  C   UNL A   1      43.185  28.766  33.653  1.00  0.00     0.049 A 
ATOM     54  C   UNL A   1      43.500  25.027  29.496  1.00  0.00     0.074 A 
ATOM     55  C   UNL A   1      44.123  28.656  34.663  1.00  0.00     0.029 A 
ATOM     56  N   UNL A   1      43.438  27.738  32.757  1.00  0.00    -0.354 N 
ATOM     57  N   UNL A   1      43.522  25.795  30.559  1.00  0.00    -0.248 NA
ATOM     58  C   UNL A   1      44.591  24.042  29.446  1.00  0.00     0.031 C 
ATOM     59  C   UNL A   1      44.954  27.569  34.370  1.00  0.00     0.029 A 
ATOM     60  C   UNL A   1      44.521  26.992  33.188  1.00  0.00     0.049 A 
ATOM     61  H   UNL A   1      42.924  27.564  31.936  1.00  0.00     0.167 HD
ATOM     62  C   UNL A   1      44.601  25.364  31.320  1.00  0.00     0.074 A 
ATOM     63  C   UNL A   1      45.197  24.253  30.606  1.00  0.00     0.031 C 
ATOM     64  C   UNL A   1      45.066  25.852  32.496  1.00  0.00     0.034 A 
BRANCH  51  65
ATOM     65  C   UNL A   1      42.026  30.829  34.541  1.00  0.00     0.023 A 
ATOM     66  C   UNL A   1      41.300  30.592  35.726  1.00  0.00     0.012 A 
ATOM     67  C   UNL A   1      42.683  32.063  34.369  1.00  0.00     0.148 A 
ATOM     68  C   UNL A   1      41.199  31.576  36.708  1.00  0.00     0.002 A 
ATOM     69  C   UNL A   1      42.614  33.024  35.372  1.00  0.00     0.091 A 
ATOM     70  F   UNL A   1      43.350  32.280  33.227  1.00  0.00    -0.205 F 
ATOM     71  C   UNL A   1      41.864  32.787  36.535  1.00  0.00     0.022 A 
BRANCH  69  72
ATOM     72  S   UNL A   1      43.500  34.585  35.280  1.00  0.00     0.127 S 
ATOM     73  O   UNL A   1      43.158  35.193  36.565  1.00  0.00    -0.237 OA
ATOM     74  O   UNL A   1      44.891  34.143  35.167  1.00  0.00    -0.237 OA
ATOM     75  O   UNL A   1      42.983  35.269  34.104  1.00  0.00    -0.744 OA
ENDBRANCH  69  72
ENDBRANCH  51  65
BRANCH  52  76
ATOM     76  C   UNL A   1      42.624  24.007  27.263  1.00  0.00     0.023 A 
ATOM     77  C   UNL A   1      43.409  24.313  26.134  1.00  0.00     0.012 A 
ATOM     78  C   UNL A   1      41.995  22.750  27.340  1.00  0.00     0.148 A 
ATOM     79  C   UNL A   1      43.541  23.399  25.089  1.00  0.00     0.002 A 
ATOM     80  C   UNL A   1      42.175  21.822  26.319  1.00  0.00     0.091 A 
ATOM     81  F   UNL A   1      41.241  22.481  28.415  1.00  0.00    -0.205 F 
ATOM     82  C   UNL A   1      42.933  22.151  25.185  1.00  0.00     0.022 A 
BRANCH  80  83
ATOM     83  S   UNL A   1      41.540  20.144  26.423  1.00  0.00     0.127 S 
ATOM     84  O   UNL A   1      40.123  20.341  26.128  1.00  0.00    -0.237 OA
ATOM     85  O   UNL A   1      42.300  19.466  25.373  1.00  0.00    -0.237 OA
ATOM     86  O   UNL A   1      41.852  19.691  27.772  1.00  0.00    -0.744 OA
ENDBRANCH  80  83
ENDBRANCH  52  76
BRANCH  64  87
ATOM     87  C   UNL A   1      46.262  25.174  33.112  1.00  0.00     0.023 A 
ATOM     88  C   UNL A   1      47.554  25.679  32.869  1.00  0.00     0.012 A 
ATOM     89  C   UNL A   1      46.095  24.093  34.000  1.00  0.00     0.148 A 
ATOM     90  C   UNL A   1      48.666  25.099  33.478  1.00  0.00     0.002 A 
ATOM     91  C   UNL A   1      47.204  23.551  34.640  1.00  0.00     0.091 A 
ATOM     92  F   UNL A   1      44.859  23.615  34.203  1.00  0.00    -0.205 F 
ATOM     93  C   UNL A   1      48.490  24.046  34.371  1.00  0.00     0.022 A 
BRANCH  91  94
ATOM     94  S   UNL A   1      47.062  22.257  35.877  1.00  0.00     0.127 S 
ATOM     95  O   UNL A   1      48.329  22.389  36.594  1.00  0.00    -0.237 OA
ATOM     96  O   UNL A   1      45.885  22.681  36.637  1.00  0.00    -0.237 OA
ATOM     97  O   UNL A   1      46.886  21.013  35.140  1.00  0.00    -0.744 OA
ENDBRANCH  91  94
ENDBRANCH  64  87
ENDBRANCH  38  39
ENDBRANCH  30  33
ENDBRANCH  28  29
ENDBRANCH  27  28
ENDBRANCH  26  27
ENDBRANCH   1  26
TORSDOF 19
ENDMDL
