MODEL 1
REMARK VINA RESULT:     -10.6      0.000      0.000
REMARK SMILES CC[C@H]1CCCC[C@@H]1C1(C(=O)NCCCCCCNC(=O)c2ccc(-c3c4nc(c(-c5cccc(S(=O)(=O)[O-])c5F)c5ccc([nH]5)c(-c5cccc(S(=O)(=O)[O-])c5F)c5nc(c(-c6cccc(S(=O)(=O)[O-])c6F)c6ccc3[nH]6)C=C5)C=C4)cc2)CC1
REMARK SMILES IDX 16 1 15 2 14 3 13 4 12 5 10 6 11 7 9 9 85 10 86 11 8 12 3 13
REMARK SMILES IDX 4 14 5 15 7 16 6 17 2 18 1 19 17 20 18 21 19 22 20 23 21 25
REMARK SMILES IDX 22 26 23 27 84 28 24 29 83 30 25 31 26 32 27 33 77 34 28 35
REMARK SMILES IDX 82 36 76 37 78 38 29 39 81 40 75 41 74 42 30 44 62 45 42 46
REMARK SMILES IDX 61 47 43 48 46 49 60 50 79 51 44 52 45 53 59 55 80 56 47 57
REMARK SMILES IDX 31 58 32 59 40 60 33 61 35 62 41 63 34 64 36 65 37 66 38 67
REMARK SMILES IDX 39 68 63 69 64 70 72 71 65 72 67 73 73 74 66 75 68 76 69 77
REMARK SMILES IDX 70 78 71 79 48 80 49 81 57 82 50 83 52 84 58 85 51 86 53 87
REMARK SMILES IDX 54 88 55 89 56 90
REMARK H PARENT 12 8 19 24 78 43 46 54
REMARK Flexibility Score: inf
ROOT
ATOM      1  C   UNL A   1      31.784  27.469  26.809  1.00  0.00     0.002 C 
ENDROOT
BRANCH   1   2
ATOM      2  C   UNL A   1      32.323  26.074  26.470  1.00  0.00     0.002 C 
BRANCH   2   3
ATOM      3  C   UNL A   1      31.269  24.977  26.249  1.00  0.00     0.021 C 
BRANCH   3   4
ATOM      4  C   UNL A   1      31.692  23.580  26.701  1.00  0.00     0.116 C 
BRANCH   4   5
ATOM      5  N   UNL A   1      31.650  22.627  25.617  1.00  0.00    -0.356 N 
ATOM      6  C   UNL A   1      32.467  22.295  24.581  1.00  0.00     0.226 C 
ATOM      7  O   UNL A   1      32.105  21.328  23.913  1.00  0.00    -0.274 OA
ATOM      8  H   UNL A   1      30.828  22.085  25.630  1.00  0.00     0.163 HD
BRANCH   6   9
ATOM      9  C   UNL A   1      33.770  23.004  24.210  1.00  0.00     0.052 C 
ATOM     10  C   UNL A   1      33.547  24.326  23.461  1.00  0.00     0.018 C 
ATOM     11  C   UNL A   1      34.272  23.205  22.789  1.00  0.00     0.018 C 
BRANCH   9  12
ATOM     12  C   UNL A   1      34.866  22.855  25.322  1.00  0.00     0.008 C 
ATOM     13  C   UNL A   1      36.277  23.452  25.075  1.00  0.00    -0.007 C 
ATOM     14  C   UNL A   1      37.220  22.493  24.323  1.00  0.00     0.004 C 
ATOM     15  C   UNL A   1      37.220  21.069  24.874  1.00  0.00     0.000 C 
ATOM     16  C   UNL A   1      34.917  21.406  25.843  1.00  0.00     0.005 C 
ATOM     17  C   UNL A   1      35.819  20.493  25.023  1.00  0.00     0.000 C 
BRANCH  13  18
ATOM     18  C   UNL A   1      36.967  23.879  26.403  1.00  0.00     0.000 C 
ATOM     19  C   UNL A   1      38.422  24.313  26.253  1.00  0.00     0.004 C 
ENDBRANCH  13  18
ENDBRANCH   9  12
ENDBRANCH   6   9
ENDBRANCH   4   5
ENDBRANCH   3   4
ENDBRANCH   2   3
ENDBRANCH   1   2
BRANCH   1  20
ATOM     20  C   UNL A   1      31.763  28.467  25.652  1.00  0.00     0.021 C 
BRANCH  20  21
ATOM     21  C   UNL A   1      32.923  29.451  25.643  1.00  0.00     0.116 C 
BRANCH  21  22
ATOM     22  N   UNL A   1      32.524  30.768  26.115  1.00  0.00    -0.352 N 
ATOM     23  C   UNL A   1      33.125  31.553  27.069  1.00  0.00     0.251 C 
ATOM     24  H   UNL A   1      31.719  31.147  25.695  1.00  0.00     0.163 HD
ATOM     25  O   UNL A   1      32.561  32.557  27.494  1.00  0.00    -0.269 OA
BRANCH  23  26
ATOM     26  C   UNL A   1      34.448  31.160  27.597  1.00  0.00     0.039 A 
ATOM     27  C   UNL A   1      35.449  32.126  27.713  1.00  0.00     0.014 A 
ATOM     28  C   UNL A   1      34.680  29.846  28.016  1.00  0.00     0.014 A 
ATOM     29  C   UNL A   1      36.663  31.791  28.318  1.00  0.00     0.010 A 
ATOM     30  C   UNL A   1      35.860  29.534  28.684  1.00  0.00     0.010 A 
ATOM     31  C   UNL A   1      36.862  30.504  28.845  1.00  0.00    -0.014 A 
BRANCH  31  32
ATOM     32  C   UNL A   1      38.094  30.156  29.597  1.00  0.00     0.031 A 
ATOM     33  C   UNL A   1      39.071  29.162  29.032  1.00  0.00     0.074 A 
ATOM     34  C   UNL A   1      38.281  30.661  30.833  1.00  0.00     0.049 A 
ATOM     35  N   UNL A   1      40.154  28.671  29.577  1.00  0.00    -0.248 NA
ATOM     36  C   UNL A   1      38.783  28.632  27.689  1.00  0.00     0.031 C 
ATOM     37  C   UNL A   1      37.367  31.577  31.522  1.00  0.00     0.029 A 
ATOM     38  N   UNL A   1      39.286  30.451  31.746  1.00  0.00    -0.354 N 
ATOM     39  C   UNL A   1      40.658  27.756  28.661  1.00  0.00     0.074 A 
ATOM     40  C   UNL A   1      39.746  27.734  27.539  1.00  0.00     0.031 C 
ATOM     41  C   UNL A   1      37.852  31.848  32.744  1.00  0.00     0.029 A 
ATOM     42  C   UNL A   1      39.090  31.102  32.943  1.00  0.00     0.049 A 
ATOM     43  H   UNL A   1      40.072  29.889  31.561  1.00  0.00     0.167 HD
ATOM     44  C   UNL A   1      41.795  27.023  28.734  1.00  0.00     0.034 A 
ATOM     45  C   UNL A   1      39.814  31.084  34.079  1.00  0.00     0.034 A 
ATOM     46  C   UNL A   1      42.720  27.077  29.834  1.00  0.00     0.049 A 
ATOM     47  C   UNL A   1      41.078  30.268  34.126  1.00  0.00     0.074 A 
ATOM     48  C   UNL A   1      43.940  26.438  29.962  1.00  0.00     0.029 A 
ATOM     49  N   UNL A   1      42.524  27.804  30.998  1.00  0.00    -0.354 N 
ATOM     50  N   UNL A   1      41.622  29.534  33.186  1.00  0.00    -0.248 NA
ATOM     51  C   UNL A   1      41.843  30.298  35.382  1.00  0.00     0.031 C 
ATOM     52  C   UNL A   1      44.472  26.758  31.215  1.00  0.00     0.029 A 
ATOM     53  C   UNL A   1      43.593  27.615  31.857  1.00  0.00     0.049 A 
ATOM     54  H   UNL A   1      41.741  28.369  31.186  1.00  0.00     0.167 HD
ATOM     55  C   UNL A   1      42.805  29.042  33.724  1.00  0.00     0.074 A 
ATOM     56  C   UNL A   1      42.912  29.582  35.063  1.00  0.00     0.031 C 
ATOM     57  C   UNL A   1      43.712  28.201  33.167  1.00  0.00     0.034 A 
BRANCH  44  58
ATOM     58  C   UNL A   1      42.138  26.139  27.564  1.00  0.00     0.023 A 
ATOM     59  C   UNL A   1      42.769  26.701  26.435  1.00  0.00     0.012 A 
ATOM     60  C   UNL A   1      41.912  24.750  27.609  1.00  0.00     0.148 A 
ATOM     61  C   UNL A   1      43.145  25.899  25.359  1.00  0.00     0.002 A 
ATOM     62  C   UNL A   1      42.328  23.951  26.551  1.00  0.00     0.091 A 
ATOM     63  F   UNL A   1      41.293  24.238  28.683  1.00  0.00    -0.205 F 
ATOM     64  C   UNL A   1      42.935  24.525  25.422  1.00  0.00     0.022 A 
BRANCH  62  65
ATOM     65  S   UNL A   1      42.174  22.161  26.565  1.00  0.00     0.127 S 
ATOM     66  O   UNL A   1      40.799  21.980  26.102  1.00  0.00    -0.237 OA
ATOM     67  O   UNL A   1      43.199  21.758  25.602  1.00  0.00    -0.237 OA
ATOM     68  O   UNL A   1      42.428  21.745  27.937  1.00  0.00    -0.744 OA
ENDBRANCH  62  65
ENDBRANCH  44  58
BRANCH  45  69
ATOM     69  C   UNL A   1      39.390  31.900  35.253  1.00  0.00     0.023 A 
ATOM     70  C   UNL A   1      38.550  31.326  36.226  1.00  0.00     0.012 A 
ATOM     71  C   UNL A   1      39.818  33.231  35.415  1.00  0.00     0.148 A 
ATOM     72  C   UNL A   1      38.113  32.073  37.321  1.00  0.00     0.002 A 
ATOM     73  C   UNL A   1      39.426  33.953  36.537  1.00  0.00     0.091 A 
ATOM     74  F   UNL A   1      40.605  33.766  34.471  1.00  0.00    -0.205 F 
ATOM     75  C   UNL A   1      38.558  33.383  37.481  1.00  0.00     0.022 A 
BRANCH  73  76
ATOM     76  S   UNL A   1      40.058  35.597  36.888  1.00  0.00     0.127 S 
ATOM     77  O   UNL A   1      39.554  36.362  35.751  1.00  0.00    -0.237 OA
ATOM     78  O   UNL A   1      39.419  35.902  38.169  1.00  0.00    -0.237 OA
ATOM     79  O   UNL A   1      41.505  35.450  36.964  1.00  0.00    -0.744 OA
ENDBRANCH  73  76
ENDBRANCH  45  69
BRANCH  57  80
ATOM     80  C   UNL A   1      44.916  27.827  33.990  1.00  0.00     0.023 A 
ATOM     81  C   UNL A   1      46.065  28.642  33.957  1.00  0.00     0.012 A 
ATOM     82  C   UNL A   1      44.878  26.719  34.860  1.00  0.00     0.148 A 
ATOM     83  C   UNL A   1      47.168  28.345  34.755  1.00  0.00     0.002 A 
ATOM     84  C   UNL A   1      45.963  26.457  35.688  1.00  0.00     0.091 A 
ATOM     85  F   UNL A   1      43.781  25.948  34.866  1.00  0.00    -0.205 F 
ATOM     86  C   UNL A   1      47.112  27.262  35.629  1.00  0.00     0.022 A 
BRANCH  84  87
ATOM     87  S   UNL A   1      45.949  25.143  36.913  1.00  0.00     0.127 S 
ATOM     88  O   UNL A   1      46.108  23.955  36.075  1.00  0.00    -0.237 OA
ATOM     89  O   UNL A   1      47.116  25.473  37.732  1.00  0.00    -0.237 OA
ATOM     90  O   UNL A   1      44.673  25.249  37.606  1.00  0.00    -0.744 OA
ENDBRANCH  84  87
ENDBRANCH  57  80
ENDBRANCH  31  32
ENDBRANCH  23  26
ENDBRANCH  21  22
ENDBRANCH  20  21
ENDBRANCH   1  20
TORSDOF 18
ENDMDL
MODEL 2
REMARK VINA RESULT:     -10.6      2.597      3.647
REMARK SMILES CC[C@H]1CCCC[C@@H]1C1(C(=O)NCCCCCCNC(=O)c2ccc(-c3c4nc(c(-c5cccc(S(=O)(=O)[O-])c5F)c5ccc([nH]5)c(-c5cccc(S(=O)(=O)[O-])c5F)c5nc(c(-c6cccc(S(=O)(=O)[O-])c6F)c6ccc3[nH]6)C=C5)C=C4)cc2)CC1
REMARK SMILES IDX 16 1 15 2 14 3 13 4 12 5 10 6 11 7 9 9 85 10 86 11 8 12 3 13
REMARK SMILES IDX 4 14 5 15 7 16 6 17 2 18 1 19 17 20 18 21 19 22 20 23 21 25
REMARK SMILES IDX 22 26 23 27 84 28 24 29 83 30 25 31 26 32 27 33 77 34 28 35
REMARK SMILES IDX 82 36 76 37 78 38 29 39 81 40 75 41 74 42 30 44 62 45 42 46
REMARK SMILES IDX 61 47 43 48 46 49 60 50 79 51 44 52 45 53 59 55 80 56 47 57
REMARK SMILES IDX 31 58 32 59 40 60 33 61 35 62 41 63 34 64 36 65 37 66 38 67
REMARK SMILES IDX 39 68 63 69 64 70 72 71 65 72 67 73 73 74 66 75 68 76 69 77
REMARK SMILES IDX 70 78 71 79 48 80 49 81 57 82 50 83 52 84 58 85 51 86 53 87
REMARK SMILES IDX 54 88 55 89 56 90
REMARK H PARENT 12 8 19 24 78 43 46 54
REMARK Flexibility Score: inf
ROOT
ATOM      1  C   UNL A   1      32.240  30.008  26.043  1.00  0.00     0.002 C 
ENDROOT
BRANCH   1   2
ATOM      2  C   UNL A   1      31.324  29.553  24.901  1.00  0.00     0.002 C 
BRANCH   2   3
ATOM      3  C   UNL A   1      31.416  28.069  24.510  1.00  0.00     0.021 C 
BRANCH   3   4
ATOM      4  C   UNL A   1      32.823  27.475  24.576  1.00  0.00     0.116 C 
BRANCH   4   5
ATOM      5  N   UNL A   1      33.241  26.939  23.302  1.00  0.00    -0.356 N 
ATOM      6  C   UNL A   1      33.615  25.717  22.835  1.00  0.00     0.226 C 
ATOM      7  O   UNL A   1      33.808  25.653  21.621  1.00  0.00    -0.274 OA
ATOM      8  H   UNL A   1      33.262  27.627  22.598  1.00  0.00     0.163 HD
BRANCH   6   9
ATOM      9  C   UNL A   1      33.788  24.454  23.679  1.00  0.00     0.052 C 
ATOM     10  C   UNL A   1      35.017  24.506  24.599  1.00  0.00     0.018 C 
ATOM     11  C   UNL A   1      34.932  23.464  23.532  1.00  0.00     0.018 C 
BRANCH   9  12
ATOM     12  C   UNL A   1      32.416  23.867  24.161  1.00  0.00     0.008 C 
ATOM     13  C   UNL A   1      32.253  23.452  25.647  1.00  0.00    -0.007 C 
ATOM     14  C   UNL A   1      32.721  22.011  25.931  1.00  0.00     0.004 C 
ATOM     15  C   UNL A   1      32.206  20.985  24.925  1.00  0.00     0.000 C 
ATOM     16  C   UNL A   1      31.916  22.786  23.184  1.00  0.00     0.005 C 
ATOM     17  C   UNL A   1      32.460  21.395  23.481  1.00  0.00     0.000 C 
BRANCH  13  18
ATOM     18  C   UNL A   1      30.781  23.595  26.131  1.00  0.00     0.000 C 
ATOM     19  C   UNL A   1      30.254  25.027  26.154  1.00  0.00     0.004 C 
ENDBRANCH  13  18
ENDBRANCH   9  12
ENDBRANCH   6   9
ENDBRANCH   4   5
ENDBRANCH   3   4
ENDBRANCH   2   3
ENDBRANCH   1   2
BRANCH   1  20
ATOM     20  C   UNL A   1      31.826  31.300  26.746  1.00  0.00     0.021 C 
BRANCH  20  21
ATOM     21  C   UNL A   1      32.978  32.090  27.349  1.00  0.00     0.116 C 
BRANCH  21  22
ATOM     22  N   UNL A   1      32.641  33.495  27.525  1.00  0.00    -0.352 N 
ATOM     23  C   UNL A   1      33.132  34.383  28.452  1.00  0.00     0.251 C 
ATOM     24  H   UNL A   1      31.974  33.857  26.899  1.00  0.00     0.163 HD
ATOM     25  O   UNL A   1      32.609  35.483  28.598  1.00  0.00    -0.269 OA
BRANCH  23  26
ATOM     26  C   UNL A   1      34.283  33.985  29.290  1.00  0.00     0.039 A 
ATOM     27  C   UNL A   1      34.069  33.146  30.385  1.00  0.00     0.014 A 
ATOM     28  C   UNL A   1      35.574  34.410  28.964  1.00  0.00     0.014 A 
ATOM     29  C   UNL A   1      35.164  32.672  31.112  1.00  0.00     0.010 A 
ATOM     30  C   UNL A   1      36.666  33.878  29.643  1.00  0.00     0.010 A 
ATOM     31  C   UNL A   1      36.473  33.001  30.721  1.00  0.00    -0.014 A 
BRANCH  31  32
ATOM     32  C   UNL A   1      37.656  32.416  31.403  1.00  0.00     0.031 A 
ATOM     33  C   UNL A   1      38.400  31.269  30.777  1.00  0.00     0.074 A 
ATOM     34  C   UNL A   1      37.997  32.855  32.631  1.00  0.00     0.049 A 
ATOM     35  N   UNL A   1      39.399  30.575  31.258  1.00  0.00    -0.248 NA
ATOM     36  C   UNL A   1      37.949  30.826  29.447  1.00  0.00     0.031 C 
ATOM     37  C   UNL A   1      37.307  33.912  33.376  1.00  0.00     0.029 A 
ATOM     38  N   UNL A   1      38.990  32.444  33.487  1.00  0.00    -0.354 N 
ATOM     39  C   UNL A   1      39.675  29.599  30.308  1.00  0.00     0.074 A 
ATOM     40  C   UNL A   1      38.718  29.768  29.238  1.00  0.00     0.031 C 
ATOM     41  C   UNL A   1      37.896  34.065  34.572  1.00  0.00     0.029 A 
ATOM     42  C   UNL A   1      38.981  33.097  34.698  1.00  0.00     0.049 A 
ATOM     43  H   UNL A   1      39.648  31.749  33.254  1.00  0.00     0.167 HD
ATOM     44  C   UNL A   1      40.657  28.666  30.314  1.00  0.00     0.034 A 
ATOM     45  C   UNL A   1      39.747  32.924  35.793  1.00  0.00     0.034 A 
ATOM     46  C   UNL A   1      41.631  28.527  31.363  1.00  0.00     0.049 A 
ATOM     47  C   UNL A   1      40.837  31.886  35.765  1.00  0.00     0.074 A 
ATOM     48  C   UNL A   1      42.715  27.669  31.419  1.00  0.00     0.029 A 
ATOM     49  N   UNL A   1      41.634  29.255  32.542  1.00  0.00    -0.354 N 
ATOM     50  N   UNL A   1      41.185  31.082  34.790  1.00  0.00    -0.248 NA
ATOM     51  C   UNL A   1      41.658  31.750  36.977  1.00  0.00     0.031 C 
ATOM     52  C   UNL A   1      43.361  27.861  32.644  1.00  0.00     0.029 A 
ATOM     53  C   UNL A   1      42.692  28.855  33.340  1.00  0.00     0.049 A 
ATOM     54  H   UNL A   1      40.981  29.953  32.777  1.00  0.00     0.167 HD
ATOM     55  C   UNL A   1      42.281  30.368  35.259  1.00  0.00     0.074 A 
ATOM     56  C   UNL A   1      42.556  30.854  36.595  1.00  0.00     0.031 C 
ATOM     57  C   UNL A   1      42.986  29.384  34.646  1.00  0.00     0.034 A 
BRANCH  44  58
ATOM     58  C   UNL A   1      40.769  27.756  29.119  1.00  0.00     0.023 A 
ATOM     59  C   UNL A   1      39.943  26.616  29.038  1.00  0.00     0.012 A 
ATOM     60  C   UNL A   1      41.627  28.066  28.046  1.00  0.00     0.148 A 
ATOM     61  C   UNL A   1      39.988  25.784  27.921  1.00  0.00     0.002 A 
ATOM     62  C   UNL A   1      41.635  27.256  26.917  1.00  0.00     0.091 A 
ATOM     63  F   UNL A   1      42.418  29.143  28.150  1.00  0.00    -0.205 F 
ATOM     64  C   UNL A   1      40.824  26.110  26.857  1.00  0.00     0.022 A 
BRANCH  62  65
ATOM     65  S   UNL A   1      42.618  27.626  25.460  1.00  0.00     0.127 S 
ATOM     66  O   UNL A   1      43.962  27.725  26.028  1.00  0.00    -0.237 OA
ATOM     67  O   UNL A   1      42.394  26.443  24.629  1.00  0.00    -0.237 OA
ATOM     68  O   UNL A   1      42.081  28.866  24.916  1.00  0.00    -0.744 OA
ENDBRANCH  62  65
ENDBRANCH  44  58
BRANCH  45  69
ATOM     69  C   UNL A   1      39.543  33.782  36.995  1.00  0.00     0.023 A 
ATOM     70  C   UNL A   1      39.990  35.118  36.975  1.00  0.00     0.012 A 
ATOM     71  C   UNL A   1      38.906  33.290  38.150  1.00  0.00     0.148 A 
ATOM     72  C   UNL A   1      39.840  35.937  38.095  1.00  0.00     0.002 A 
ATOM     73  C   UNL A   1      38.708  34.128  39.242  1.00  0.00     0.091 A 
ATOM     74  F   UNL A   1      38.502  32.012  38.158  1.00  0.00    -0.205 F 
ATOM     75  C   UNL A   1      39.191  35.445  39.225  1.00  0.00     0.022 A 
BRANCH  73  76
ATOM     76  S   UNL A   1      37.767  33.616  40.684  1.00  0.00     0.127 S 
ATOM     77  O   UNL A   1      36.531  33.129  40.078  1.00  0.00    -0.237 OA
ATOM     78  O   UNL A   1      38.625  32.577  41.255  1.00  0.00    -0.237 OA
ATOM     79  O   UNL A   1      37.643  34.808  41.512  1.00  0.00    -0.744 OA
ENDBRANCH  73  76
ENDBRANCH  45  69
BRANCH  57  80
ATOM     80  C   UNL A   1      44.139  28.777  35.400  1.00  0.00     0.023 A 
ATOM     81  C   UNL A   1      45.430  29.323  35.259  1.00  0.00     0.012 A 
ATOM     82  C   UNL A   1      43.929  27.724  36.313  1.00  0.00     0.148 A 
ATOM     83  C   UNL A   1      46.500  28.812  35.991  1.00  0.00     0.002 A 
ATOM     84  C   UNL A   1      44.991  27.253  37.075  1.00  0.00     0.091 A 
ATOM     85  F   UNL A   1      42.696  27.209  36.423  1.00  0.00    -0.205 F 
ATOM     86  C   UNL A   1      46.278  27.787  36.908  1.00  0.00     0.022 A 
BRANCH  84  87
ATOM     87  S   UNL A   1      44.787  26.001  38.348  1.00  0.00     0.127 S 
ATOM     88  O   UNL A   1      46.133  25.931  38.914  1.00  0.00    -0.237 OA
ATOM     89  O   UNL A   1      43.787  26.612  39.224  1.00  0.00    -0.237 OA
ATOM     90  O   UNL A   1      44.338  24.797  37.663  1.00  0.00    -0.744 OA
ENDBRANCH  84  87
ENDBRANCH  57  80
ENDBRANCH  31  32
ENDBRANCH  23  26
ENDBRANCH  21  22
ENDBRANCH  20  21
ENDBRANCH   1  20
TORSDOF 18
ENDMDL
MODEL 3
REMARK VINA RESULT:     -10.6      5.256      9.935
REMARK SMILES CC[C@H]1CCCC[C@@H]1C1(C(=O)NCCCCCCNC(=O)c2ccc(-c3c4nc(c(-c5cccc(S(=O)(=O)[O-])c5F)c5ccc([nH]5)c(-c5cccc(S(=O)(=O)[O-])c5F)c5nc(c(-c6cccc(S(=O)(=O)[O-])c6F)c6ccc3[nH]6)C=C5)C=C4)cc2)CC1
REMARK SMILES IDX 16 1 15 2 14 3 13 4 12 5 10 6 11 7 9 9 85 10 86 11 8 12 3 13
REMARK SMILES IDX 4 14 5 15 7 16 6 17 2 18 1 19 17 20 18 21 19 22 20 23 21 25
REMARK SMILES IDX 22 26 23 27 84 28 24 29 83 30 25 31 26 32 27 33 77 34 28 35
REMARK SMILES IDX 82 36 76 37 78 38 29 39 81 40 75 41 74 42 30 44 62 45 42 46
REMARK SMILES IDX 61 47 43 48 46 49 60 50 79 51 44 52 45 53 59 55 80 56 47 57
REMARK SMILES IDX 31 58 32 59 40 60 33 61 35 62 41 63 34 64 36 65 37 66 38 67
REMARK SMILES IDX 39 68 63 69 64 70 72 71 65 72 67 73 73 74 66 75 68 76 69 77
REMARK SMILES IDX 70 78 71 79 48 80 49 81 57 82 50 83 52 84 58 85 51 86 53 87
REMARK SMILES IDX 54 88 55 89 56 90
REMARK H PARENT 12 8 19 24 78 43 46 54
REMARK Flexibility Score: inf
ROOT
ATOM      1  C   UNL A   1      34.645  22.737  26.888  1.00  0.00     0.002 C 
ENDROOT
BRANCH   1   2
ATOM      2  C   UNL A   1      33.187  22.603  27.344  1.00  0.00     0.002 C 
BRANCH   2   3
ATOM      3  C   UNL A   1      32.129  22.585  26.230  1.00  0.00     0.021 C 
BRANCH   3   4
ATOM      4  C   UNL A   1      30.781  23.194  26.616  1.00  0.00     0.116 C 
BRANCH   4   5
ATOM      5  N   UNL A   1      30.890  24.604  26.906  1.00  0.00    -0.356 N 
ATOM      6  C   UNL A   1      30.939  25.748  26.172  1.00  0.00     0.226 C 
ATOM      7  O   UNL A   1      30.933  26.793  26.822  1.00  0.00    -0.274 OA
ATOM      8  H   UNL A   1      30.943  24.782  27.873  1.00  0.00     0.163 HD
BRANCH   6   9
ATOM      9  C   UNL A   1      30.982  25.827  24.645  1.00  0.00     0.052 C 
ATOM     10  C   UNL A   1      29.631  26.210  24.022  1.00  0.00     0.018 C 
ATOM     11  C   UNL A   1      30.243  24.884  23.709  1.00  0.00     0.018 C 
BRANCH   9  12
ATOM     12  C   UNL A   1      32.336  26.415  24.117  1.00  0.00     0.008 C 
ATOM     13  C   UNL A   1      32.455  26.807  22.620  1.00  0.00    -0.007 C 
ATOM     14  C   UNL A   1      32.864  25.629  21.714  1.00  0.00     0.004 C 
ATOM     15  C   UNL A   1      34.038  24.814  22.253  1.00  0.00     0.000 C 
ATOM     16  C   UNL A   1      33.524  25.564  24.605  1.00  0.00     0.005 C 
ATOM     17  C   UNL A   1      33.842  24.381  23.699  1.00  0.00     0.000 C 
BRANCH  13  18
ATOM     18  C   UNL A   1      33.468  27.969  22.403  1.00  0.00     0.000 C 
ATOM     19  C   UNL A   1      33.555  28.961  23.559  1.00  0.00     0.004 C 
ENDBRANCH  13  18
ENDBRANCH   9  12
ENDBRANCH   6   9
ENDBRANCH   4   5
ENDBRANCH   3   4
ENDBRANCH   2   3
ENDBRANCH   1   2
BRANCH   1  20
ATOM     20  C   UNL A   1      35.200  21.556  26.092  1.00  0.00     0.021 C 
BRANCH  20  21
ATOM     21  C   UNL A   1      36.494  21.845  25.349  1.00  0.00     0.116 C 
BRANCH  21  22
ATOM     22  N   UNL A   1      37.434  20.737  25.439  1.00  0.00    -0.352 N 
ATOM     23  C   UNL A   1      38.757  20.765  25.810  1.00  0.00     0.251 C 
ATOM     24  H   UNL A   1      37.074  19.851  25.206  1.00  0.00     0.163 HD
ATOM     25  O   UNL A   1      39.467  19.778  25.652  1.00  0.00    -0.269 OA
BRANCH  23  26
ATOM     26  C   UNL A   1      39.320  22.009  26.376  1.00  0.00     0.039 A 
ATOM     27  C   UNL A   1      40.392  21.926  27.266  1.00  0.00     0.014 A 
ATOM     28  C   UNL A   1      38.813  23.254  25.991  1.00  0.00     0.014 A 
ATOM     29  C   UNL A   1      41.005  23.099  27.715  1.00  0.00     0.010 A 
ATOM     30  C   UNL A   1      39.471  24.416  26.381  1.00  0.00     0.010 A 
ATOM     31  C   UNL A   1      40.576  24.351  27.243  1.00  0.00    -0.014 A 
BRANCH  31  32
ATOM     32  C   UNL A   1      41.285  25.603  27.611  1.00  0.00     0.031 A 
ATOM     33  C   UNL A   1      40.564  26.688  28.361  1.00  0.00     0.074 A 
ATOM     34  C   UNL A   1      42.548  25.800  27.182  1.00  0.00     0.049 A 
ATOM     35  N   UNL A   1      40.988  27.880  28.695  1.00  0.00    -0.248 NA
ATOM     36  C   UNL A   1      39.177  26.411  28.770  1.00  0.00     0.031 C 
ATOM     37  C   UNL A   1      43.329  24.852  26.383  1.00  0.00     0.029 A 
ATOM     38  N   UNL A   1      43.387  26.877  27.329  1.00  0.00    -0.354 N 
ATOM     39  C   UNL A   1      39.916  28.502  29.323  1.00  0.00     0.074 A 
ATOM     40  C   UNL A   1      38.811  27.571  29.295  1.00  0.00     0.031 C 
ATOM     41  C   UNL A   1      44.529  25.389  26.110  1.00  0.00     0.029 A 
ATOM     42  C   UNL A   1      44.593  26.729  26.682  1.00  0.00     0.049 A 
ATOM     43  H   UNL A   1      43.149  27.678  27.849  1.00  0.00     0.167 HD
ATOM     44  C   UNL A   1      39.867  29.728  29.898  1.00  0.00     0.034 A 
ATOM     45  C   UNL A   1      45.626  27.584  26.549  1.00  0.00     0.034 A 
ATOM     46  C   UNL A   1      40.981  30.636  29.958  1.00  0.00     0.049 A 
ATOM     47  C   UNL A   1      45.546  28.935  27.208  1.00  0.00     0.074 A 
ATOM     48  C   UNL A   1      41.055  31.863  30.593  1.00  0.00     0.029 A 
ATOM     49  N   UNL A   1      42.211  30.421  29.355  1.00  0.00    -0.354 N 
ATOM     50  N   UNL A   1      44.582  29.441  27.938  1.00  0.00    -0.248 NA
ATOM     51  C   UNL A   1      46.708  29.822  27.051  1.00  0.00     0.031 C 
ATOM     52  C   UNL A   1      42.322  32.403  30.353  1.00  0.00     0.029 A 
ATOM     53  C   UNL A   1      43.044  31.501  29.588  1.00  0.00     0.049 A 
ATOM     54  H   UNL A   1      42.454  29.620  28.838  1.00  0.00     0.167 HD
ATOM     55  C   UNL A   1      45.031  30.690  28.350  1.00  0.00     0.074 A 
ATOM     56  C   UNL A   1      46.366  30.853  27.811  1.00  0.00     0.031 C 
ATOM     57  C   UNL A   1      44.389  31.627  29.091  1.00  0.00     0.034 A 
BRANCH  44  58
ATOM     58  C   UNL A   1      38.581  30.140  30.566  1.00  0.00     0.023 A 
ATOM     59  C   UNL A   1      38.372  29.816  31.922  1.00  0.00     0.012 A 
ATOM     60  C   UNL A   1      37.620  30.910  29.882  1.00  0.00     0.148 A 
ATOM     61  C   UNL A   1      37.215  30.229  32.580  1.00  0.00     0.002 A 
ATOM     62  C   UNL A   1      36.490  31.354  30.557  1.00  0.00     0.091 A 
ATOM     63  F   UNL A   1      37.829  31.190  28.588  1.00  0.00    -0.205 F 
ATOM     64  C   UNL A   1      36.281  31.006  31.902  1.00  0.00     0.022 A 
BRANCH  62  65
ATOM     65  S   UNL A   1      35.262  32.423  29.799  1.00  0.00     0.127 S 
ATOM     66  O   UNL A   1      36.081  33.556  29.370  1.00  0.00    -0.237 OA
ATOM     67  O   UNL A   1      34.758  31.588  28.708  1.00  0.00    -0.237 OA
ATOM     68  O   UNL A   1      34.288  32.720  30.840  1.00  0.00    -0.744 OA
ENDBRANCH  62  65
ENDBRANCH  44  58
BRANCH  45  69
ATOM     69  C   UNL A   1      46.848  27.174  25.798  1.00  0.00     0.023 A 
ATOM     70  C   UNL A   1      47.800  26.349  26.425  1.00  0.00     0.012 A 
ATOM     71  C   UNL A   1      47.067  27.588  24.470  1.00  0.00     0.148 A 
ATOM     72  C   UNL A   1      48.967  25.972  25.758  1.00  0.00     0.002 A 
ATOM     73  C   UNL A   1      48.203  27.163  23.791  1.00  0.00     0.091 A 
ATOM     74  F   UNL A   1      46.157  28.387  23.895  1.00  0.00    -0.205 F 
ATOM     75  C   UNL A   1      49.164  26.372  24.438  1.00  0.00     0.022 A 
BRANCH  73  76
ATOM     76  S   UNL A   1      48.470  27.522  22.051  1.00  0.00     0.127 S 
ATOM     77  O   UNL A   1      47.216  28.173  21.683  1.00  0.00    -0.237 OA
ATOM     78  O   UNL A   1      49.634  28.407  22.097  1.00  0.00    -0.237 OA
ATOM     79  O   UNL A   1      48.725  26.233  21.422  1.00  0.00    -0.744 OA
ENDBRANCH  73  76
ENDBRANCH  45  69
BRANCH  57  80
ATOM     80  C   UNL A   1      45.125  32.907  29.387  1.00  0.00     0.023 A 
ATOM     81  C   UNL A   1      45.947  32.992  30.527  1.00  0.00     0.012 A 
ATOM     82  C   UNL A   1      45.068  33.995  28.492  1.00  0.00     0.148 A 
ATOM     83  C   UNL A   1      46.681  34.148  30.789  1.00  0.00     0.002 A 
ATOM     84  C   UNL A   1      45.840  35.125  28.734  1.00  0.00     0.091 A 
ATOM     85  F   UNL A   1      44.268  33.899  27.420  1.00  0.00    -0.205 F 
ATOM     86  C   UNL A   1      46.637  35.207  29.886  1.00  0.00     0.022 A 
BRANCH  84  87
ATOM     87  S   UNL A   1      45.924  36.502  27.583  1.00  0.00     0.127 S 
ATOM     88  O   UNL A   1      44.551  37.003  27.620  1.00  0.00    -0.237 OA
ATOM     89  O   UNL A   1      46.910  37.376  28.220  1.00  0.00    -0.237 OA
ATOM     90  O   UNL A   1      46.346  35.940  26.309  1.00  0.00    -0.744 OA
ENDBRANCH  84  87
ENDBRANCH  57  80
ENDBRANCH  31  32
ENDBRANCH  23  26
ENDBRANCH  21  22
ENDBRANCH  20  21
ENDBRANCH   1  20
TORSDOF 18
ENDMDL
