MODEL 1
REMARK VINA RESULT:     -13.0      0.000      0.000
REMARK SMILES Cc1cnc2nc(-c3cc(F)c(F)cc3C(=O)NCCCCCCNC(=O)c3ccc(-c4c5nc(c(-c6cccc(S(=O)(=O)[O-])c6F)c6ccc([nH]6)c(-c6cccc(S(=O)(=O)[O-])c6F)c6nc(c(-c7cccc(S(=O)(=O)[O-])c7F)c7ccc4[nH]7)C=C6)C=C5)cc3)[nH]c2c1
REMARK SMILES IDX 22 1 21 2 20 3 19 4 18 5 16 6 17 7 15 9 8 10 9 11 10 12
REMARK SMILES IDX 14 13 11 14 12 15 13 16 7 17 1 18 2 19 3 20 93 21 4 22 92 23
REMARK SMILES IDX 5 24 91 25 6 26 23 28 24 29 25 30 26 31 27 33 28 34 29 35
REMARK SMILES IDX 90 36 30 37 89 38 31 39 32 40 33 41 83 42 34 43 88 44 82 45
REMARK SMILES IDX 84 46 35 47 87 48 81 49 80 50 36 52 68 53 48 54 67 55 49 56
REMARK SMILES IDX 52 57 66 58 85 59 50 60 51 61 65 63 86 64 53 65 37 66 38 67
REMARK SMILES IDX 46 68 39 69 41 70 47 71 40 72 42 73 43 74 44 75 45 76 69 77
REMARK SMILES IDX 70 78 78 79 71 80 73 81 79 82 72 83 74 84 75 85 76 86 77 87
REMARK SMILES IDX 54 88 55 89 63 90 56 91 58 92 64 93 57 94 59 95 60 96 61 97
REMARK SMILES IDX 62 98
REMARK H PARENT 18 8 91 27 25 32 84 51 52 62
REMARK Flexibility Score: inf
ROOT
ATOM      1  C   UNL A   1      37.230  20.691  24.995  1.00  0.00     0.002 C 
ENDROOT
BRANCH   1   2
ATOM      2  C   UNL A   1      37.736  22.115  24.685  1.00  0.00     0.002 C 
BRANCH   2   3
ATOM      3  C   UNL A   1      37.522  23.213  25.732  1.00  0.00     0.021 C 
BRANCH   3   4
ATOM      4  C   UNL A   1      36.124  23.791  25.851  1.00  0.00     0.116 C 
BRANCH   4   5
ATOM      5  N   UNL A   1      35.319  23.339  26.949  1.00  0.00    -0.352 N 
ATOM      6  C   UNL A   1      34.018  22.895  26.940  1.00  0.00     0.252 C 
ATOM      7  O   UNL A   1      33.604  22.362  27.973  1.00  0.00    -0.269 OA
ATOM      8  H   UNL A   1      35.759  23.347  27.830  1.00  0.00     0.163 HD
BRANCH   6   9
ATOM      9  C   UNL A   1      33.031  23.158  25.837  1.00  0.00     0.053 A 
ATOM     10  C   UNL A   1      32.482  22.268  24.881  1.00  0.00     0.033 A 
ATOM     11  C   UNL A   1      31.561  22.770  23.932  1.00  0.00     0.055 A 
ATOM     12  C   UNL A   1      31.159  24.100  23.952  1.00  0.00     0.159 A 
ATOM     13  C   UNL A   1      32.593  24.506  25.833  1.00  0.00     0.057 A 
ATOM     14  F   UNL A   1      30.257  24.530  23.060  1.00  0.00    -0.204 F 
ATOM     15  C   UNL A   1      31.666  24.962  24.905  1.00  0.00     0.159 A 
ATOM     16  F   UNL A   1      31.256  26.237  24.952  1.00  0.00    -0.204 F 
BRANCH  10  17
ATOM     17  C   UNL A   1      32.732  20.828  24.812  1.00  0.00     0.141 A 
ATOM     18  C   UNL A   1      35.383  15.503  25.042  1.00  0.00     0.046 C 
ATOM     19  C   UNL A   1      34.436  16.662  24.931  1.00  0.00    -0.031 A 
ATOM     20  C   UNL A   1      33.087  16.492  25.256  1.00  0.00     0.117 A 
ATOM     21  C   UNL A   1      34.882  17.939  24.568  1.00  0.00     0.035 A 
ATOM     22  N   UNL A   1      32.144  17.462  25.307  1.00  0.00    -0.235 NA
ATOM     23  C   UNL A   1      33.914  18.943  24.613  1.00  0.00     0.085 A 
ATOM     24  C   UNL A   1      32.602  18.693  24.992  1.00  0.00     0.178 A 
ATOM     25  N   UNL A   1      33.944  20.296  24.395  1.00  0.00    -0.337 N 
ATOM     26  N   UNL A   1      31.889  19.860  25.116  1.00  0.00    -0.209 NA
ATOM     27  H   UNL A   1      34.694  20.802  24.008  1.00  0.00     0.168 HD
ENDBRANCH  10  17
ENDBRANCH   6   9
ENDBRANCH   4   5
ENDBRANCH   3   4
ENDBRANCH   2   3
ENDBRANCH   1   2
BRANCH   1  28
ATOM     28  C   UNL A   1      38.251  19.552  24.987  1.00  0.00     0.021 C 
BRANCH  28  29
ATOM     29  C   UNL A   1      39.321  19.679  26.045  1.00  0.00     0.116 C 
BRANCH  29  30
ATOM     30  N   UNL A   1      40.577  19.001  25.754  1.00  0.00    -0.352 N 
ATOM     31  C   UNL A   1      41.865  19.523  25.809  1.00  0.00     0.251 C 
ATOM     32  H   UNL A   1      40.506  18.056  25.485  1.00  0.00     0.163 HD
ATOM     33  O   UNL A   1      42.803  18.900  25.342  1.00  0.00    -0.269 OA
BRANCH  31  34
ATOM     34  C   UNL A   1      42.081  20.856  26.430  1.00  0.00     0.039 A 
ATOM     35  C   UNL A   1      42.454  21.972  25.677  1.00  0.00     0.014 A 
ATOM     36  C   UNL A   1      41.892  20.993  27.800  1.00  0.00     0.014 A 
ATOM     37  C   UNL A   1      42.596  23.199  26.327  1.00  0.00     0.010 A 
ATOM     38  C   UNL A   1      41.750  22.220  28.370  1.00  0.00     0.010 A 
ATOM     39  C   UNL A   1      42.237  23.308  27.683  1.00  0.00    -0.014 A 
BRANCH  39  40
ATOM     40  C   UNL A   1      42.288  24.565  28.413  1.00  0.00     0.031 A 
ATOM     41  C   UNL A   1      41.071  25.375  28.211  1.00  0.00     0.074 A 
ATOM     42  C   UNL A   1      43.251  24.872  29.315  1.00  0.00     0.049 A 
ATOM     43  N   UNL A   1      40.940  26.363  27.393  1.00  0.00    -0.248 NA
ATOM     44  C   UNL A   1      39.801  24.907  28.789  1.00  0.00     0.031 C 
ATOM     45  C   UNL A   1      44.315  23.996  29.841  1.00  0.00     0.029 A 
ATOM     46  N   UNL A   1      43.426  26.005  30.051  1.00  0.00    -0.354 N 
ATOM     47  C   UNL A   1      39.660  26.849  27.630  1.00  0.00     0.074 A 
ATOM     48  C   UNL A   1      38.937  25.774  28.252  1.00  0.00     0.031 C 
ATOM     49  C   UNL A   1      44.838  24.531  30.967  1.00  0.00     0.029 A 
ATOM     50  C   UNL A   1      44.307  25.868  31.124  1.00  0.00     0.049 A 
ATOM     51  H   UNL A   1      42.968  26.851  29.843  1.00  0.00     0.167 HD
ATOM     52  C   UNL A   1      39.447  28.194  27.640  1.00  0.00     0.034 A 
ATOM     53  C   UNL A   1      44.579  26.799  32.070  1.00  0.00     0.034 A 
ATOM     54  C   UNL A   1      40.608  28.888  27.135  1.00  0.00     0.049 A 
ATOM     55  C   UNL A   1      44.276  28.112  31.467  1.00  0.00     0.074 A 
ATOM     56  C   UNL A   1      41.199  29.109  25.911  1.00  0.00     0.029 A 
ATOM     57  N   UNL A   1      41.557  29.110  28.099  1.00  0.00    -0.354 N 
ATOM     58  N   UNL A   1      44.939  28.598  30.455  1.00  0.00    -0.248 NA
ATOM     59  C   UNL A   1      43.002  28.756  31.762  1.00  0.00     0.031 C 
ATOM     60  C   UNL A   1      42.581  29.348  26.174  1.00  0.00     0.029 A 
ATOM     61  C   UNL A   1      42.792  29.320  27.550  1.00  0.00     0.049 A 
ATOM     62  H   UNL A   1      41.373  29.117  29.066  1.00  0.00     0.167 HD
ATOM     63  C   UNL A   1      43.970  29.260  29.728  1.00  0.00     0.074 A 
ATOM     64  C   UNL A   1      42.873  29.494  30.656  1.00  0.00     0.031 C 
ATOM     65  C   UNL A   1      43.985  29.240  28.366  1.00  0.00     0.034 A 
BRANCH  52  66
ATOM     66  C   UNL A   1      38.461  28.929  28.524  1.00  0.00     0.023 A 
ATOM     67  C   UNL A   1      37.630  29.882  27.894  1.00  0.00     0.012 A 
ATOM     68  C   UNL A   1      38.484  28.943  29.937  1.00  0.00     0.148 A 
ATOM     69  C   UNL A   1      36.889  30.816  28.626  1.00  0.00     0.002 A 
ATOM     70  C   UNL A   1      37.686  29.820  30.664  1.00  0.00     0.091 A 
ATOM     71  F   UNL A   1      39.376  28.206  30.602  1.00  0.00    -0.205 F 
ATOM     72  C   UNL A   1      36.907  30.779  30.013  1.00  0.00     0.022 A 
BRANCH  70  73
ATOM     73  S   UNL A   1      37.638  29.787  32.462  1.00  0.00     0.127 S 
ATOM     74  O   UNL A   1      38.963  30.294  32.801  1.00  0.00    -0.237 OA
ATOM     75  O   UNL A   1      36.530  30.700  32.742  1.00  0.00    -0.237 OA
ATOM     76  O   UNL A   1      37.374  28.399  32.823  1.00  0.00    -0.744 OA
ENDBRANCH  70  73
ENDBRANCH  52  66
BRANCH  53  77
ATOM     77  C   UNL A   1      44.846  26.677  33.522  1.00  0.00     0.023 A 
ATOM     78  C   UNL A   1      45.966  27.337  34.072  1.00  0.00     0.012 A 
ATOM     79  C   UNL A   1      43.820  26.260  34.395  1.00  0.00     0.148 A 
ATOM     80  C   UNL A   1      46.022  27.652  35.435  1.00  0.00     0.002 A 
ATOM     81  C   UNL A   1      43.873  26.590  35.747  1.00  0.00     0.091 A 
ATOM     82  F   UNL A   1      42.754  25.635  33.880  1.00  0.00    -0.205 F 
ATOM     83  C   UNL A   1      44.964  27.302  36.267  1.00  0.00     0.022 A 
BRANCH  81  84
ATOM     84  S   UNL A   1      42.513  26.242  36.871  1.00  0.00     0.127 S 
ATOM     85  O   UNL A   1      42.265  24.824  36.615  1.00  0.00    -0.237 OA
ATOM     86  O   UNL A   1      43.115  26.537  38.169  1.00  0.00    -0.237 OA
ATOM     87  O   UNL A   1      41.426  27.127  36.469  1.00  0.00    -0.744 OA
ENDBRANCH  81  84
ENDBRANCH  53  77
BRANCH  65  88
ATOM     88  C   UNL A   1      45.291  28.978  27.679  1.00  0.00     0.023 A 
ATOM     89  C   UNL A   1      46.368  29.885  27.674  1.00  0.00     0.012 A 
ATOM     90  C   UNL A   1      45.464  27.706  27.112  1.00  0.00     0.148 A 
ATOM     91  C   UNL A   1      47.598  29.521  27.112  1.00  0.00     0.002 A 
ATOM     92  C   UNL A   1      46.697  27.330  26.604  1.00  0.00     0.091 A 
ATOM     93  F   UNL A   1      44.413  26.871  27.105  1.00  0.00    -0.205 F 
ATOM     94  C   UNL A   1      47.767  28.238  26.593  1.00  0.00     0.022 A 
BRANCH  92  95
ATOM     95  S   UNL A   1      47.000  25.653  26.046  1.00  0.00     0.127 S 
ATOM     96  O   UNL A   1      46.641  24.870  27.225  1.00  0.00    -0.237 OA
ATOM     97  O   UNL A   1      46.074  25.529  24.919  1.00  0.00    -0.237 OA
ATOM     98  O   UNL A   1      48.407  25.606  25.667  1.00  0.00    -0.744 OA
ENDBRANCH  92  95
ENDBRANCH  65  88
ENDBRANCH  39  40
ENDBRANCH  31  34
ENDBRANCH  29  30
ENDBRANCH  28  29
ENDBRANCH   1  28
TORSDOF 17
ENDMDL
MODEL 2
REMARK VINA RESULT:     -13.0      4.780     10.086
REMARK SMILES Cc1cnc2nc(-c3cc(F)c(F)cc3C(=O)NCCCCCCNC(=O)c3ccc(-c4c5nc(c(-c6cccc(S(=O)(=O)[O-])c6F)c6ccc([nH]6)c(-c6cccc(S(=O)(=O)[O-])c6F)c6nc(c(-c7cccc(S(=O)(=O)[O-])c7F)c7ccc4[nH]7)C=C6)C=C5)cc3)[nH]c2c1
REMARK SMILES IDX 22 1 21 2 20 3 19 4 18 5 16 6 17 7 15 9 8 10 9 11 10 12
REMARK SMILES IDX 14 13 11 14 12 15 13 16 7 17 1 18 2 19 3 20 93 21 4 22 92 23
REMARK SMILES IDX 5 24 91 25 6 26 23 28 24 29 25 30 26 31 27 33 28 34 29 35
REMARK SMILES IDX 90 36 30 37 89 38 31 39 32 40 33 41 83 42 34 43 88 44 82 45
REMARK SMILES IDX 84 46 35 47 87 48 81 49 80 50 36 52 68 53 48 54 67 55 49 56
REMARK SMILES IDX 52 57 66 58 85 59 50 60 51 61 65 63 86 64 53 65 37 66 38 67
REMARK SMILES IDX 46 68 39 69 41 70 47 71 40 72 42 73 43 74 44 75 45 76 69 77
REMARK SMILES IDX 70 78 78 79 71 80 73 81 79 82 72 83 74 84 75 85 76 86 77 87
REMARK SMILES IDX 54 88 55 89 63 90 56 91 58 92 64 93 57 94 59 95 60 96 61 97
REMARK SMILES IDX 62 98
REMARK H PARENT 18 8 91 27 25 32 84 51 52 62
REMARK Flexibility Score: inf
ROOT
ATOM      1  C   UNL A   1      32.054  30.696  26.858  1.00  0.00     0.002 C 
ENDROOT
BRANCH   1   2
ATOM      2  C   UNL A   1      33.376  30.410  27.600  1.00  0.00     0.002 C 
BRANCH   2   3
ATOM      3  C   UNL A   1      34.359  29.409  26.987  1.00  0.00     0.021 C 
BRANCH   3   4
ATOM      4  C   UNL A   1      33.812  28.456  25.940  1.00  0.00     0.116 C 
BRANCH   4   5
ATOM      5  N   UNL A   1      34.314  28.592  24.604  1.00  0.00    -0.352 N 
ATOM      6  C   UNL A   1      33.826  28.049  23.439  1.00  0.00     0.252 C 
ATOM      7  O   UNL A   1      34.303  28.475  22.383  1.00  0.00    -0.269 OA
ATOM      8  H   UNL A   1      35.119  29.151  24.507  1.00  0.00     0.163 HD
BRANCH   6   9
ATOM      9  C   UNL A   1      32.889  26.877  23.368  1.00  0.00     0.053 A 
ATOM     10  C   UNL A   1      31.482  26.850  23.197  1.00  0.00     0.033 A 
ATOM     11  C   UNL A   1      30.823  25.598  23.166  1.00  0.00     0.055 A 
ATOM     12  C   UNL A   1      31.533  24.408  23.255  1.00  0.00     0.159 A 
ATOM     13  C   UNL A   1      33.582  25.643  23.447  1.00  0.00     0.057 A 
ATOM     14  F   UNL A   1      30.878  23.242  23.184  1.00  0.00    -0.204 F 
ATOM     15  C   UNL A   1      32.909  24.429  23.385  1.00  0.00     0.159 A 
ATOM     16  F   UNL A   1      33.604  23.285  23.436  1.00  0.00    -0.204 F 
BRANCH  10  17
ATOM     17  C   UNL A   1      30.625  28.017  22.984  1.00  0.00     0.141 A 
ATOM     18  C   UNL A   1      28.441  33.553  23.059  1.00  0.00     0.046 C 
ATOM     19  C   UNL A   1      28.734  32.099  22.829  1.00  0.00    -0.031 A 
ATOM     20  C   UNL A   1      28.335  31.489  21.637  1.00  0.00     0.117 A 
ATOM     21  C   UNL A   1      29.461  31.344  23.758  1.00  0.00     0.035 A 
ATOM     22  N   UNL A   1      28.621  30.225  21.246  1.00  0.00    -0.235 NA
ATOM     23  C   UNL A   1      29.755  30.038  23.364  1.00  0.00     0.085 A 
ATOM     24  C   UNL A   1      29.356  29.525  22.137  1.00  0.00     0.178 A 
ATOM     25  N   UNL A   1      30.468  29.016  23.934  1.00  0.00    -0.337 N 
ATOM     26  N   UNL A   1      29.903  28.285  21.914  1.00  0.00    -0.209 NA
ATOM     27  H   UNL A   1      30.810  28.994  24.857  1.00  0.00     0.168 HD
ENDBRANCH  10  17
ENDBRANCH   6   9
ENDBRANCH   4   5
ENDBRANCH   3   4
ENDBRANCH   2   3
ENDBRANCH   1   2
BRANCH   1  28
ATOM     28  C   UNL A   1      31.562  32.143  26.805  1.00  0.00     0.021 C 
BRANCH  28  29
ATOM     29  C   UNL A   1      32.654  33.171  26.993  1.00  0.00     0.116 C 
BRANCH  29  30
ATOM     30  N   UNL A   1      32.359  34.238  27.938  1.00  0.00    -0.352 N 
ATOM     31  C   UNL A   1      33.043  34.564  29.104  1.00  0.00     0.251 C 
ATOM     32  H   UNL A   1      31.577  34.799  27.726  1.00  0.00     0.163 HD
ATOM     33  O   UNL A   1      32.563  35.350  29.902  1.00  0.00    -0.269 OA
BRANCH  31  34
ATOM     34  C   UNL A   1      34.361  33.930  29.372  1.00  0.00     0.039 A 
ATOM     35  C   UNL A   1      34.526  32.953  30.358  1.00  0.00     0.014 A 
ATOM     36  C   UNL A   1      35.455  34.314  28.606  1.00  0.00     0.014 A 
ATOM     37  C   UNL A   1      35.786  32.375  30.519  1.00  0.00     0.010 A 
ATOM     38  C   UNL A   1      36.587  33.560  28.570  1.00  0.00     0.010 A 
ATOM     39  C   UNL A   1      36.813  32.690  29.611  1.00  0.00    -0.014 A 
BRANCH  39  40
ATOM     40  C   UNL A   1      38.131  32.076  29.668  1.00  0.00     0.031 A 
ATOM     41  C   UNL A   1      38.128  30.701  29.135  1.00  0.00     0.074 A 
ATOM     42  C   UNL A   1      39.259  32.750  29.999  1.00  0.00     0.049 A 
ATOM     43  N   UNL A   1      38.077  29.614  29.827  1.00  0.00    -0.248 NA
ATOM     44  C   UNL A   1      37.921  30.499  27.692  1.00  0.00     0.031 C 
ATOM     45  C   UNL A   1      39.421  34.200  30.214  1.00  0.00     0.029 A 
ATOM     46  N   UNL A   1      40.541  32.302  30.104  1.00  0.00    -0.354 N 
ATOM     47  C   UNL A   1      38.188  28.595  28.890  1.00  0.00     0.074 A 
ATOM     48  C   UNL A   1      37.801  29.169  27.631  1.00  0.00     0.031 C 
ATOM     49  C   UNL A   1      40.731  34.530  30.162  1.00  0.00     0.029 A 
ATOM     50  C   UNL A   1      41.507  33.309  30.126  1.00  0.00     0.049 A 
ATOM     51  H   UNL A   1      40.769  31.345  30.160  1.00  0.00     0.167 HD
ATOM     52  C   UNL A   1      38.948  27.502  29.179  1.00  0.00     0.034 A 
ATOM     53  C   UNL A   1      42.851  33.140  30.120  1.00  0.00     0.034 A 
ATOM     54  C   UNL A   1      39.315  27.503  30.575  1.00  0.00     0.049 A 
ATOM     55  C   UNL A   1      43.108  31.795  30.671  1.00  0.00     0.074 A 
ATOM     56  C   UNL A   1      38.700  27.249  31.781  1.00  0.00     0.029 A 
ATOM     57  N   UNL A   1      40.434  28.252  30.831  1.00  0.00    -0.354 N 
ATOM     58  N   UNL A   1      42.832  31.469  31.903  1.00  0.00    -0.248 NA
ATOM     59  C   UNL A   1      43.360  30.685  29.760  1.00  0.00     0.031 C 
ATOM     60  C   UNL A   1      39.428  27.987  32.761  1.00  0.00     0.029 A 
ATOM     61  C   UNL A   1      40.498  28.630  32.144  1.00  0.00     0.049 A 
ATOM     62  H   UNL A   1      41.109  28.488  30.154  1.00  0.00     0.167 HD
ATOM     63  C   UNL A   1      42.417  30.157  31.800  1.00  0.00     0.074 A 
ATOM     64  C   UNL A   1      42.944  29.676  30.530  1.00  0.00     0.031 C 
ATOM     65  C   UNL A   1      41.392  29.687  32.564  1.00  0.00     0.034 A 
BRANCH  52  66
ATOM     66  C   UNL A   1      39.774  26.710  28.188  1.00  0.00     0.023 A 
ATOM     67  C   UNL A   1      39.667  25.302  28.251  1.00  0.00     0.012 A 
ATOM     68  C   UNL A   1      40.828  27.230  27.403  1.00  0.00     0.148 A 
ATOM     69  C   UNL A   1      40.575  24.461  27.597  1.00  0.00     0.002 A 
ATOM     70  C   UNL A   1      41.681  26.393  26.690  1.00  0.00     0.091 A 
ATOM     71  F   UNL A   1      41.111  28.534  27.438  1.00  0.00    -0.205 F 
ATOM     72  C   UNL A   1      41.576  25.006  26.807  1.00  0.00     0.022 A 
BRANCH  70  73
ATOM     73  S   UNL A   1      42.967  27.046  25.616  1.00  0.00     0.127 S 
ATOM     74  O   UNL A   1      43.869  27.667  26.581  1.00  0.00    -0.237 OA
ATOM     75  O   UNL A   1      43.472  25.825  24.988  1.00  0.00    -0.237 OA
ATOM     76  O   UNL A   1      42.291  27.955  24.698  1.00  0.00    -0.744 OA
ENDBRANCH  70  73
ENDBRANCH  52  66
BRANCH  53  77
ATOM     77  C   UNL A   1      43.936  33.911  29.469  1.00  0.00     0.023 A 
ATOM     78  C   UNL A   1      44.887  34.572  30.277  1.00  0.00     0.012 A 
ATOM     79  C   UNL A   1      44.254  33.677  28.116  1.00  0.00     0.148 A 
ATOM     80  C   UNL A   1      46.150  34.908  29.776  1.00  0.00     0.002 A 
ATOM     81  C   UNL A   1      45.519  33.999  27.627  1.00  0.00     0.091 A 
ATOM     82  F   UNL A   1      43.358  33.049  27.345  1.00  0.00    -0.205 F 
ATOM     83  C   UNL A   1      46.475  34.598  28.460  1.00  0.00     0.022 A 
BRANCH  81  84
ATOM     84  S   UNL A   1      46.042  33.561  25.963  1.00  0.00     0.127 S 
ATOM     85  O   UNL A   1      47.384  34.141  25.908  1.00  0.00    -0.237 OA
ATOM     86  O   UNL A   1      46.005  32.102  26.013  1.00  0.00    -0.237 OA
ATOM     87  O   UNL A   1      45.077  34.184  25.064  1.00  0.00    -0.744 OA
ENDBRANCH  81  84
ENDBRANCH  53  77
BRANCH  65  88
ATOM     88  C   UNL A   1      41.087  30.397  33.849  1.00  0.00     0.023 A 
ATOM     89  C   UNL A   1      41.932  30.374  34.975  1.00  0.00     0.012 A 
ATOM     90  C   UNL A   1      39.946  31.214  33.863  1.00  0.00     0.148 A 
ATOM     91  C   UNL A   1      41.637  31.159  36.096  1.00  0.00     0.002 A 
ATOM     92  C   UNL A   1      39.686  32.029  34.954  1.00  0.00     0.091 A 
ATOM     93  F   UNL A   1      39.145  31.197  32.788  1.00  0.00    -0.205 F 
ATOM     94  C   UNL A   1      40.525  31.999  36.079  1.00  0.00     0.022 A 
BRANCH  92  95
ATOM     95  S   UNL A   1      38.346  33.219  34.926  1.00  0.00     0.127 S 
ATOM     96  O   UNL A   1      38.574  33.965  36.161  1.00  0.00    -0.237 OA
ATOM     97  O   UNL A   1      38.619  33.965  33.697  1.00  0.00    -0.237 OA
ATOM     98  O   UNL A   1      37.116  32.437  34.885  1.00  0.00    -0.744 OA
ENDBRANCH  92  95
ENDBRANCH  65  88
ENDBRANCH  39  40
ENDBRANCH  31  34
ENDBRANCH  29  30
ENDBRANCH  28  29
ENDBRANCH   1  28
TORSDOF 17
ENDMDL
MODEL 3
REMARK VINA RESULT:     -12.6      1.634      3.374
REMARK SMILES Cc1cnc2nc(-c3cc(F)c(F)cc3C(=O)NCCCCCCNC(=O)c3ccc(-c4c5nc(c(-c6cccc(S(=O)(=O)[O-])c6F)c6ccc([nH]6)c(-c6cccc(S(=O)(=O)[O-])c6F)c6nc(c(-c7cccc(S(=O)(=O)[O-])c7F)c7ccc4[nH]7)C=C6)C=C5)cc3)[nH]c2c1
REMARK SMILES IDX 22 1 21 2 20 3 19 4 18 5 16 6 17 7 15 9 8 10 9 11 10 12
REMARK SMILES IDX 14 13 11 14 12 15 13 16 7 17 1 18 2 19 3 20 93 21 4 22 92 23
REMARK SMILES IDX 5 24 91 25 6 26 23 28 24 29 25 30 26 31 27 33 28 34 29 35
REMARK SMILES IDX 90 36 30 37 89 38 31 39 32 40 33 41 83 42 34 43 88 44 82 45
REMARK SMILES IDX 84 46 35 47 87 48 81 49 80 50 36 52 68 53 48 54 67 55 49 56
REMARK SMILES IDX 52 57 66 58 85 59 50 60 51 61 65 63 86 64 53 65 37 66 38 67
REMARK SMILES IDX 46 68 39 69 41 70 47 71 40 72 42 73 43 74 44 75 45 76 69 77
REMARK SMILES IDX 70 78 78 79 71 80 73 81 79 82 72 83 74 84 75 85 76 86 77 87
REMARK SMILES IDX 54 88 55 89 63 90 56 91 58 92 64 93 57 94 59 95 60 96 61 97
REMARK SMILES IDX 62 98
REMARK H PARENT 18 8 91 27 25 32 84 51 52 62
REMARK Flexibility Score: inf
ROOT
ATOM      1  C   UNL A   1      36.725  20.400  24.855  1.00  0.00     0.002 C 
ENDROOT
BRANCH   1   2
ATOM      2  C   UNL A   1      37.089  21.898  24.799  1.00  0.00     0.002 C 
BRANCH   2   3
ATOM      3  C   UNL A   1      36.532  22.829  25.880  1.00  0.00     0.021 C 
BRANCH   3   4
ATOM      4  C   UNL A   1      35.255  23.583  25.553  1.00  0.00     0.116 C 
BRANCH   4   5
ATOM      5  N   UNL A   1      34.156  23.436  26.462  1.00  0.00    -0.352 N 
ATOM      6  C   UNL A   1      33.212  22.438  26.520  1.00  0.00     0.252 C 
ATOM      7  O   UNL A   1      32.486  22.414  27.518  1.00  0.00    -0.269 OA
ATOM      8  H   UNL A   1      34.065  24.146  27.138  1.00  0.00     0.163 HD
BRANCH   6   9
ATOM      9  C   UNL A   1      32.896  21.491  25.396  1.00  0.00     0.053 A 
ATOM     10  C   UNL A   1      32.274  21.742  24.148  1.00  0.00     0.033 A 
ATOM     11  C   UNL A   1      32.085  20.664  23.251  1.00  0.00     0.055 A 
ATOM     12  C   UNL A   1      32.537  19.386  23.556  1.00  0.00     0.159 A 
ATOM     13  C   UNL A   1      33.350  20.177  25.670  1.00  0.00     0.057 A 
ATOM     14  F   UNL A   1      32.373  18.399  22.667  1.00  0.00    -0.204 F 
ATOM     15  C   UNL A   1      33.176  19.145  24.757  1.00  0.00     0.159 A 
ATOM     16  F   UNL A   1      33.644  17.923  25.044  1.00  0.00    -0.204 F 
BRANCH  10  17
ATOM     17  C   UNL A   1      31.849  23.052  23.653  1.00  0.00     0.141 A 
ATOM     18  C   UNL A   1      29.445  28.486  23.298  1.00  0.00     0.046 C 
ATOM     19  C   UNL A   1      30.178  27.193  23.084  1.00  0.00    -0.031 A 
ATOM     20  C   UNL A   1      31.308  27.162  22.261  1.00  0.00     0.117 A 
ATOM     21  C   UNL A   1      29.795  26.018  23.741  1.00  0.00     0.035 A 
ATOM     22  N   UNL A   1      32.126  26.103  22.061  1.00  0.00    -0.235 NA
ATOM     23  C   UNL A   1      30.631  24.920  23.535  1.00  0.00     0.085 A 
ATOM     24  C   UNL A   1      31.763  24.989  22.735  1.00  0.00     0.178 A 
ATOM     25  N   UNL A   1      30.646  23.639  24.021  1.00  0.00    -0.337 N 
ATOM     26  N   UNL A   1      32.505  23.838  22.822  1.00  0.00    -0.209 NA
ATOM     27  H   UNL A   1      29.929  23.209  24.539  1.00  0.00     0.168 HD
ENDBRANCH  10  17
ENDBRANCH   6   9
ENDBRANCH   4   5
ENDBRANCH   3   4
ENDBRANCH   2   3
ENDBRANCH   1   2
BRANCH   1  28
ATOM     28  C   UNL A   1      37.867  19.392  24.991  1.00  0.00     0.021 C 
BRANCH  28  29
ATOM     29  C   UNL A   1      39.079  19.930  25.716  1.00  0.00     0.116 C 
BRANCH  29  30
ATOM     30  N   UNL A   1      40.276  19.105  25.640  1.00  0.00    -0.352 N 
ATOM     31  C   UNL A   1      41.592  19.478  25.889  1.00  0.00     0.251 C 
ATOM     32  H   UNL A   1      40.137  18.165  25.379  1.00  0.00     0.163 HD
ATOM     33  O   UNL A   1      42.512  18.737  25.587  1.00  0.00    -0.269 OA
BRANCH  31  34
ATOM     34  C   UNL A   1      41.864  20.799  26.515  1.00  0.00     0.039 A 
ATOM     35  C   UNL A   1      42.353  21.881  25.778  1.00  0.00     0.014 A 
ATOM     36  C   UNL A   1      41.608  20.961  27.871  1.00  0.00     0.014 A 
ATOM     37  C   UNL A   1      42.542  23.101  26.429  1.00  0.00     0.010 A 
ATOM     38  C   UNL A   1      41.520  22.200  28.427  1.00  0.00     0.010 A 
ATOM     39  C   UNL A   1      42.117  23.246  27.762  1.00  0.00    -0.014 A 
BRANCH  39  40
ATOM     40  C   UNL A   1      42.213  24.503  28.487  1.00  0.00     0.031 A 
ATOM     41  C   UNL A   1      41.026  25.356  28.283  1.00  0.00     0.074 A 
ATOM     42  C   UNL A   1      43.187  24.779  29.387  1.00  0.00     0.049 A 
ATOM     43  N   UNL A   1      40.929  26.344  27.461  1.00  0.00    -0.248 NA
ATOM     44  C   UNL A   1      39.740  24.935  28.863  1.00  0.00     0.031 C 
ATOM     45  C   UNL A   1      44.220  23.868  29.916  1.00  0.00     0.029 A 
ATOM     46  N   UNL A   1      43.403  25.908  30.119  1.00  0.00    -0.354 N 
ATOM     47  C   UNL A   1      39.668  26.876  27.697  1.00  0.00     0.074 A 
ATOM     48  C   UNL A   1      38.907  25.830  28.323  1.00  0.00     0.031 C 
ATOM     49  C   UNL A   1      44.762  24.388  31.040  1.00  0.00     0.029 A 
ATOM     50  C   UNL A   1      44.279  25.744  31.192  1.00  0.00     0.049 A 
ATOM     51  H   UNL A   1      42.975  26.769  29.908  1.00  0.00     0.167 HD
ATOM     52  C   UNL A   1      39.503  28.228  27.702  1.00  0.00     0.034 A 
ATOM     53  C   UNL A   1      44.585  26.668  32.134  1.00  0.00     0.034 A 
ATOM     54  C   UNL A   1      40.687  28.878  27.194  1.00  0.00     0.049 A 
ATOM     55  C   UNL A   1      44.328  27.989  31.527  1.00  0.00     0.074 A 
ATOM     56  C   UNL A   1      41.285  29.074  25.969  1.00  0.00     0.029 A 
ATOM     57  N   UNL A   1      41.644  29.070  28.157  1.00  0.00    -0.354 N 
ATOM     58  N   UNL A   1      45.007  28.447  30.513  1.00  0.00    -0.248 NA
ATOM     59  C   UNL A   1      43.078  28.679  31.820  1.00  0.00     0.031 C 
ATOM     60  C   UNL A   1      42.675  29.265  26.231  1.00  0.00     0.029 A 
ATOM     61  C   UNL A   1      42.886  29.234  27.607  1.00  0.00     0.049 A 
ATOM     62  H   UNL A   1      41.461  29.088  29.124  1.00  0.00     0.167 HD
ATOM     63  C   UNL A   1      44.062  29.140  29.784  1.00  0.00     0.074 A 
ATOM     64  C   UNL A   1      42.975  29.417  30.712  1.00  0.00     0.031 C 
ATOM     65  C   UNL A   1      44.075  29.114  28.422  1.00  0.00     0.034 A 
BRANCH  52  66
ATOM     66  C   UNL A   1      38.544  29.001  28.584  1.00  0.00     0.023 A 
ATOM     67  C   UNL A   1      37.755  29.989  27.952  1.00  0.00     0.012 A 
ATOM     68  C   UNL A   1      38.562  29.011  29.997  1.00  0.00     0.148 A 
ATOM     69  C   UNL A   1      37.050  30.950  28.684  1.00  0.00     0.002 A 
ATOM     70  C   UNL A   1      37.797  29.919  30.723  1.00  0.00     0.091 A 
ATOM     71  F   UNL A   1      39.420  28.237  30.663  1.00  0.00    -0.205 F 
ATOM     72  C   UNL A   1      37.061  30.909  30.071  1.00  0.00     0.022 A 
BRANCH  70  73
ATOM     73  S   UNL A   1      37.741  29.883  32.520  1.00  0.00     0.127 S 
ATOM     74  O   UNL A   1      37.368  28.496  32.776  1.00  0.00    -0.237 OA
ATOM     75  O   UNL A   1      39.119  30.231  32.864  1.00  0.00    -0.237 OA
ATOM     76  O   UNL A   1      36.757  30.889  32.904  1.00  0.00    -0.744 OA
ENDBRANCH  70  73
ENDBRANCH  52  66
BRANCH  53  77
ATOM     77  C   UNL A   1      44.848  26.542  33.587  1.00  0.00     0.023 A 
ATOM     78  C   UNL A   1      45.989  27.168  34.135  1.00  0.00     0.012 A 
ATOM     79  C   UNL A   1      43.810  26.161  34.461  1.00  0.00     0.148 A 
ATOM     80  C   UNL A   1      46.055  27.484  35.496  1.00  0.00     0.002 A 
ATOM     81  C   UNL A   1      43.873  26.492  35.813  1.00  0.00     0.091 A 
ATOM     82  F   UNL A   1      42.724  25.568  33.948  1.00  0.00    -0.205 F 
ATOM     83  C   UNL A   1      44.987  27.171  36.330  1.00  0.00     0.022 A 
BRANCH  81  84
ATOM     84  S   UNL A   1      42.503  26.192  36.938  1.00  0.00     0.127 S 
ATOM     85  O   UNL A   1      43.108  26.495  38.235  1.00  0.00    -0.237 OA
ATOM     86  O   UNL A   1      41.519  27.167  36.476  1.00  0.00    -0.237 OA
ATOM     87  O   UNL A   1      42.135  24.793  36.756  1.00  0.00    -0.744 OA
ENDBRANCH  81  84
ENDBRANCH  53  77
BRANCH  65  88
ATOM     88  C   UNL A   1      45.371  28.804  27.735  1.00  0.00     0.023 A 
ATOM     89  C   UNL A   1      46.463  29.691  27.686  1.00  0.00     0.012 A 
ATOM     90  C   UNL A   1      45.517  27.508  27.217  1.00  0.00     0.148 A 
ATOM     91  C   UNL A   1      47.681  29.285  27.129  1.00  0.00     0.002 A 
ATOM     92  C   UNL A   1      46.739  27.091  26.714  1.00  0.00     0.091 A 
ATOM     93  F   UNL A   1      44.453  26.692  27.251  1.00  0.00    -0.205 F 
ATOM     94  C   UNL A   1      47.825  27.980  26.659  1.00  0.00     0.022 A 
BRANCH  92  95
ATOM     95  S   UNL A   1      47.010  25.389  26.220  1.00  0.00     0.127 S 
ATOM     96  O   UNL A   1      48.382  25.431  25.719  1.00  0.00    -0.237 OA
ATOM     97  O   UNL A   1      46.837  24.669  27.482  1.00  0.00    -0.237 OA
ATOM     98  O   UNL A   1      45.988  25.094  25.222  1.00  0.00    -0.744 OA
ENDBRANCH  92  95
ENDBRANCH  65  88
ENDBRANCH  39  40
ENDBRANCH  31  34
ENDBRANCH  29  30
ENDBRANCH  28  29
ENDBRANCH   1  28
TORSDOF 17
ENDMDL
