MODEL 1
REMARK VINA RESULT:     -10.8      0.000      0.000
REMARK SMILES C[C@H](NC(=O)OCc1ccccc1)C(=O)NCC(=O)N1CCC[C@H]1C(=O)NCCCCCCNC(=O)c1ccc(-c2c3nc(c(-c4cccc(S(=O)(=O)[O-])c4F)c4ccc([nH]4)c(-c4cccc(S(=O)(=O)[O-])c4F)c4nc(c(-c5cccc(S(=O)(=O)[O-])c5F)c5ccc2[nH]5)C=C4)C=C3)cc1
REMARK SMILES IDX 28 1 27 2 25 3 26 4 24 6 20 7 21 8 22 9 23 10 18 11 19 12
REMARK SMILES IDX 17 13 16 14 14 15 15 16 2 18 1 19 3 20 4 21 5 23 6 24 7 25
REMARK SMILES IDX 8 26 9 27 13 28 10 29 12 30 11 31 29 32 30 33 31 34 32 35
REMARK SMILES IDX 33 36 34 37 35 38 36 40 37 41 38 42 99 43 39 44 98 45 40 46
REMARK SMILES IDX 41 47 42 48 92 49 43 50 97 51 91 52 93 53 44 54 96 55 90 56
REMARK SMILES IDX 89 57 45 59 77 60 57 61 76 62 58 63 61 64 75 65 94 66 59 67
REMARK SMILES IDX 60 68 74 70 95 71 62 72 46 73 47 74 55 75 48 76 50 77 56 78
REMARK SMILES IDX 49 79 51 80 52 81 53 82 54 83 78 84 79 85 87 86 80 87 82 88
REMARK SMILES IDX 88 89 81 90 83 91 84 92 85 93 86 94 63 95 64 96 72 97 65 98
REMARK SMILES IDX 67 99 73 100 66 101 68 102 69 103 70 104 71 105
REMARK H PARENT 27 5 16 17 3 22 34 39 93 58 61 69
REMARK Flexibility Score: inf
ROOT
ATOM      1  C   UNL A   1      34.058  26.123  26.116  1.00  0.00     0.116 C 
ENDROOT
BRANCH   1   2
ATOM      2  N   UNL A   1      32.747  26.443  26.625  1.00  0.00    -0.354 N 
ATOM      3  C   UNL A   1      32.045  27.600  26.639  1.00  0.00     0.242 C 
ATOM      4  O   UNL A   1      31.049  27.602  27.379  1.00  0.00    -0.273 OA
ATOM      5  H   UNL A   1      32.278  25.681  27.035  1.00  0.00     0.163 HD
BRANCH   3   6
ATOM      6  C   UNL A   1      32.415  28.881  25.841  1.00  0.00     0.174 C 
ATOM      7  N   UNL A   1      31.629  29.337  24.681  1.00  0.00    -0.329 N 
ATOM      8  C   UNL A   1      30.732  30.397  25.093  1.00  0.00     0.120 C 
ATOM      9  C   UNL A   1      31.525  31.142  26.147  1.00  0.00     0.024 C 
ATOM     10  C   UNL A   1      32.323  30.054  26.845  1.00  0.00     0.037 C 
BRANCH   7  11
ATOM     11  C   UNL A   1      31.933  28.869  23.424  1.00  0.00     0.242 C 
ATOM     12  O   UNL A   1      33.112  28.877  23.043  1.00  0.00    -0.273 OA
BRANCH  11  13
ATOM     13  C   UNL A   1      30.907  28.205  22.479  1.00  0.00     0.216 C 
BRANCH  13  14
ATOM     14  N   UNL A   1      29.596  27.780  22.907  1.00  0.00    -0.345 N 
ATOM     15  C   UNL A   1      29.202  26.731  23.673  1.00  0.00     0.242 C 
ATOM     16  O   UNL A   1      27.994  26.657  23.923  1.00  0.00    -0.273 OA
ATOM     17  H   UNL A   1      28.860  28.351  22.587  1.00  0.00     0.164 HD
BRANCH  15  18
ATOM     18  C   UNL A   1      30.169  25.671  24.240  1.00  0.00     0.171 C 
ATOM     19  C   UNL A   1      30.643  24.688  23.181  1.00  0.00     0.042 C 
BRANCH  18  20
ATOM     20  N   UNL A   1      29.760  25.123  25.532  1.00  0.00    -0.310 N 
ATOM     21  C   UNL A   1      30.317  24.192  26.351  1.00  0.00     0.408 C 
ATOM     22  H   UNL A   1      28.917  25.500  25.874  1.00  0.00     0.167 HD
ATOM     23  O   UNL A   1      29.686  23.770  27.310  1.00  0.00    -0.225 OA
BRANCH  21  24
ATOM     24  O   UNL A   1      31.547  23.790  25.969  1.00  0.00    -0.445 OA
BRANCH  24  25
ATOM     25  C   UNL A   1      32.033  22.588  26.587  1.00  0.00     0.270 C 
BRANCH  25  26
ATOM     26  C   UNL A   1      32.364  21.488  25.618  1.00  0.00    -0.011 A 
ATOM     27  C   UNL A   1      33.076  20.352  26.016  1.00  0.00     0.007 A 
ATOM     28  C   UNL A   1      31.970  21.618  24.277  1.00  0.00     0.007 A 
ATOM     29  C   UNL A   1      33.356  19.346  25.093  1.00  0.00     0.000 A 
ATOM     30  C   UNL A   1      32.252  20.614  23.356  1.00  0.00     0.000 A 
ATOM     31  C   UNL A   1      32.941  19.476  23.766  1.00  0.00     0.000 A 
ENDBRANCH  25  26
ENDBRANCH  24  25
ENDBRANCH  21  24
ENDBRANCH  18  20
ENDBRANCH  15  18
ENDBRANCH  13  14
ENDBRANCH  11  13
ENDBRANCH   7  11
ENDBRANCH   3   6
ENDBRANCH   1   2
BRANCH   1  32
ATOM     32  C   UNL A   1      33.953  25.459  24.743  1.00  0.00     0.021 C 
BRANCH  32  33
ATOM     33  C   UNL A   1      35.222  24.688  24.369  1.00  0.00     0.002 C 
BRANCH  33  34
ATOM     34  C   UNL A   1      34.968  23.488  23.446  1.00  0.00     0.002 C 
BRANCH  34  35
ATOM     35  C   UNL A   1      35.605  22.178  23.920  1.00  0.00     0.021 C 
BRANCH  35  36
ATOM     36  C   UNL A   1      36.112  22.227  25.357  1.00  0.00     0.116 C 
BRANCH  36  37
ATOM     37  N   UNL A   1      36.985  21.097  25.635  1.00  0.00    -0.352 N 
ATOM     38  C   UNL A   1      38.340  21.071  25.824  1.00  0.00     0.251 C 
ATOM     39  H   UNL A   1      36.535  20.224  25.697  1.00  0.00     0.163 HD
ATOM     40  O   UNL A   1      38.952  20.014  25.701  1.00  0.00    -0.269 OA
BRANCH  38  41
ATOM     41  C   UNL A   1      39.056  22.309  26.191  1.00  0.00     0.039 A 
ATOM     42  C   UNL A   1      40.231  22.216  26.939  1.00  0.00     0.014 A 
ATOM     43  C   UNL A   1      38.537  23.562  25.848  1.00  0.00     0.014 A 
ATOM     44  C   UNL A   1      40.892  23.381  27.328  1.00  0.00     0.010 A 
ATOM     45  C   UNL A   1      39.244  24.718  26.163  1.00  0.00     0.010 A 
ATOM     46  C   UNL A   1      40.413  24.641  26.930  1.00  0.00    -0.014 A 
BRANCH  46  47
ATOM     47  C   UNL A   1      41.115  25.883  27.335  1.00  0.00     0.031 A 
ATOM     48  C   UNL A   1      40.387  26.943  28.118  1.00  0.00     0.074 A 
ATOM     49  C   UNL A   1      42.396  26.069  26.965  1.00  0.00     0.049 A 
ATOM     50  N   UNL A   1      40.830  28.093  28.555  1.00  0.00    -0.248 NA
ATOM     51  C   UNL A   1      38.968  26.693  28.433  1.00  0.00     0.031 C 
ATOM     52  C   UNL A   1      43.185  25.142  26.149  1.00  0.00     0.029 A 
ATOM     53  N   UNL A   1      43.260  27.104  27.217  1.00  0.00    -0.354 N 
ATOM     54  C   UNL A   1      39.749  28.706  29.180  1.00  0.00     0.074 A 
ATOM     55  C   UNL A   1      38.613  27.827  29.019  1.00  0.00     0.031 C 
ATOM     56  C   UNL A   1      44.421  25.641  25.984  1.00  0.00     0.029 A 
ATOM     57  C   UNL A   1      44.503  26.936  26.652  1.00  0.00     0.049 A 
ATOM     58  H   UNL A   1      43.013  27.894  27.751  1.00  0.00     0.167 HD
ATOM     59  C   UNL A   1      39.713  29.877  29.860  1.00  0.00     0.034 A 
ATOM     60  C   UNL A   1      45.584  27.739  26.669  1.00  0.00     0.034 A 
ATOM     61  C   UNL A   1      40.853  30.732  30.042  1.00  0.00     0.049 A 
ATOM     62  C   UNL A   1      45.513  29.034  27.433  1.00  0.00     0.074 A 
ATOM     63  C   UNL A   1      40.937  31.913  30.757  1.00  0.00     0.029 A 
ATOM     64  N   UNL A   1      42.110  30.502  29.502  1.00  0.00    -0.354 N 
ATOM     65  N   UNL A   1      44.521  29.528  28.133  1.00  0.00    -0.248 NA
ATOM     66  C   UNL A   1      46.725  29.866  27.440  1.00  0.00     0.031 C 
ATOM     67  C   UNL A   1      42.238  32.411  30.628  1.00  0.00     0.029 A 
ATOM     68  C   UNL A   1      42.974  31.520  29.863  1.00  0.00     0.049 A 
ATOM     69  H   UNL A   1      42.351  29.728  28.943  1.00  0.00     0.167 HD
ATOM     70  C   UNL A   1      45.003  30.702  28.700  1.00  0.00     0.074 A 
ATOM     71  C   UNL A   1      46.383  30.832  28.281  1.00  0.00     0.031 C 
ATOM     72  C   UNL A   1      44.361  31.602  29.485  1.00  0.00     0.034 A 
BRANCH  59  73
ATOM     73  C   UNL A   1      38.413  30.272  30.512  1.00  0.00     0.023 A 
ATOM     74  C   UNL A   1      38.133  29.830  31.822  1.00  0.00     0.012 A 
ATOM     75  C   UNL A   1      37.506  31.135  29.866  1.00  0.00     0.148 A 
ATOM     76  C   UNL A   1      36.958  30.214  32.467  1.00  0.00     0.002 A 
ATOM     77  C   UNL A   1      36.360  31.551  30.533  1.00  0.00     0.091 A 
ATOM     78  F   UNL A   1      37.781  31.531  28.615  1.00  0.00    -0.205 F 
ATOM     79  C   UNL A   1      36.079  31.083  31.827  1.00  0.00     0.022 A 
BRANCH  77  80
ATOM     80  S   UNL A   1      35.199  32.730  29.833  1.00  0.00     0.127 S 
ATOM     81  O   UNL A   1      36.083  33.840  29.478  1.00  0.00    -0.237 OA
ATOM     82  O   UNL A   1      34.662  31.989  28.692  1.00  0.00    -0.237 OA
ATOM     83  O   UNL A   1      34.234  33.020  30.883  1.00  0.00    -0.744 OA
ENDBRANCH  77  80
ENDBRANCH  59  73
BRANCH  60  84
ATOM     84  C   UNL A   1      46.844  27.328  25.987  1.00  0.00     0.023 A 
ATOM     85  C   UNL A   1      47.001  27.577  24.608  1.00  0.00     0.012 A 
ATOM     86  C   UNL A   1      47.877  26.677  26.686  1.00  0.00     0.148 A 
ATOM     87  C   UNL A   1      48.138  27.139  23.930  1.00  0.00     0.002 A 
ATOM     88  C   UNL A   1      49.035  26.296  26.017  1.00  0.00     0.091 A 
ATOM     89  F   UNL A   1      47.709  26.441  27.995  1.00  0.00    -0.205 F 
ATOM     90  C   UNL A   1      49.158  26.505  24.635  1.00  0.00     0.022 A 
BRANCH  88  91
ATOM     91  S   UNL A   1      50.448  25.592  26.871  1.00  0.00     0.127 S 
ATOM     92  O   UNL A   1      51.401  25.415  25.779  1.00  0.00    -0.237 OA
ATOM     93  O   UNL A   1      50.787  26.651  27.822  1.00  0.00    -0.237 OA
ATOM     94  O   UNL A   1      49.960  24.367  27.491  1.00  0.00    -0.744 OA
ENDBRANCH  88  91
ENDBRANCH  60  84
BRANCH  72  95
ATOM     95  C   UNL A   1      45.153  32.778  29.990  1.00  0.00     0.023 A 
ATOM     96  C   UNL A   1      45.901  32.669  31.179  1.00  0.00     0.012 A 
ATOM     97  C   UNL A   1      45.206  33.975  29.247  1.00  0.00     0.148 A 
ATOM     98  C   UNL A   1      46.656  33.745  31.642  1.00  0.00     0.002 A 
ATOM     99  C   UNL A   1      46.005  35.023  29.685  1.00  0.00     0.091 A 
ATOM    100  F   UNL A   1      44.474  34.064  28.126  1.00  0.00    -0.205 F 
ATOM    101  C   UNL A   1      46.718  34.915  30.890  1.00  0.00     0.022 A 
BRANCH  99 102
ATOM    102  S   UNL A   1      46.226  36.530  28.734  1.00  0.00     0.127 S 
ATOM    103  O   UNL A   1      46.726  36.009  27.463  1.00  0.00    -0.237 OA
ATOM    104  O   UNL A   1      44.865  37.064  28.683  1.00  0.00    -0.237 OA
ATOM    105  O   UNL A   1      47.169  37.347  29.487  1.00  0.00    -0.744 OA
ENDBRANCH  99 102
ENDBRANCH  72  95
ENDBRANCH  46  47
ENDBRANCH  38  41
ENDBRANCH  36  37
ENDBRANCH  35  36
ENDBRANCH  34  35
ENDBRANCH  33  34
ENDBRANCH  32  33
ENDBRANCH   1  32
TORSDOF 24
ENDMDL
MODEL 2
REMARK VINA RESULT:      -9.6      4.483      8.805
REMARK SMILES C[C@H](NC(=O)OCc1ccccc1)C(=O)NCC(=O)N1CCC[C@H]1C(=O)NCCCCCCNC(=O)c1ccc(-c2c3nc(c(-c4cccc(S(=O)(=O)[O-])c4F)c4ccc([nH]4)c(-c4cccc(S(=O)(=O)[O-])c4F)c4nc(c(-c5cccc(S(=O)(=O)[O-])c5F)c5ccc2[nH]5)C=C4)C=C3)cc1
REMARK SMILES IDX 28 1 27 2 25 3 26 4 24 6 20 7 21 8 22 9 23 10 18 11 19 12
REMARK SMILES IDX 17 13 16 14 14 15 15 16 2 18 1 19 3 20 4 21 5 23 6 24 7 25
REMARK SMILES IDX 8 26 9 27 13 28 10 29 12 30 11 31 29 32 30 33 31 34 32 35
REMARK SMILES IDX 33 36 34 37 35 38 36 40 37 41 38 42 99 43 39 44 98 45 40 46
REMARK SMILES IDX 41 47 42 48 92 49 43 50 97 51 91 52 93 53 44 54 96 55 90 56
REMARK SMILES IDX 89 57 45 59 77 60 57 61 76 62 58 63 61 64 75 65 94 66 59 67
REMARK SMILES IDX 60 68 74 70 95 71 62 72 46 73 47 74 55 75 48 76 50 77 56 78
REMARK SMILES IDX 49 79 51 80 52 81 53 82 54 83 78 84 79 85 87 86 80 87 82 88
REMARK SMILES IDX 88 89 81 90 83 91 84 92 85 93 86 94 63 95 64 96 72 97 65 98
REMARK SMILES IDX 67 99 73 100 66 101 68 102 69 103 70 104 71 105
REMARK H PARENT 27 5 16 17 3 22 34 39 93 58 61 69
REMARK Flexibility Score: inf
ROOT
ATOM      1  C   UNL A   1      32.579  29.389  24.852  1.00  0.00     0.116 C 
ENDROOT
BRANCH   1   2
ATOM      2  N   UNL A   1      31.442  30.256  25.038  1.00  0.00    -0.354 N 
ATOM      3  C   UNL A   1      30.369  30.512  24.255  1.00  0.00     0.242 C 
ATOM      4  O   UNL A   1      29.696  31.500  24.589  1.00  0.00    -0.273 OA
ATOM      5  H   UNL A   1      31.447  30.750  25.889  1.00  0.00     0.163 HD
BRANCH   3   6
ATOM      6  C   UNL A   1      29.962  29.694  22.998  1.00  0.00     0.174 C 
ATOM      7  N   UNL A   1      29.034  28.553  23.070  1.00  0.00    -0.329 N 
ATOM      8  C   UNL A   1      27.711  28.980  22.664  1.00  0.00     0.120 C 
ATOM      9  C   UNL A   1      27.985  30.007  21.585  1.00  0.00     0.024 C 
ATOM     10  C   UNL A   1      29.262  30.692  22.044  1.00  0.00     0.037 C 
BRANCH   7  11
ATOM     11  C   UNL A   1      29.521  27.292  23.322  1.00  0.00     0.242 C 
ATOM     12  O   UNL A   1      28.725  26.370  23.553  1.00  0.00    -0.273 OA
BRANCH  11  13
ATOM     13  C   UNL A   1      31.012  26.905  23.214  1.00  0.00     0.216 C 
BRANCH  13  14
ATOM     14  N   UNL A   1      31.667  26.619  21.960  1.00  0.00    -0.345 N 
ATOM     15  C   UNL A   1      32.461  25.585  21.581  1.00  0.00     0.242 C 
ATOM     16  O   UNL A   1      32.832  25.581  20.402  1.00  0.00    -0.273 OA
ATOM     17  H   UNL A   1      31.510  27.291  21.258  1.00  0.00     0.164 HD
BRANCH  15  18
ATOM     18  C   UNL A   1      32.891  24.441  22.524  1.00  0.00     0.171 C 
ATOM     19  C   UNL A   1      34.308  24.619  23.047  1.00  0.00     0.042 C 
BRANCH  18  20
ATOM     20  N   UNL A   1      32.507  23.110  22.059  1.00  0.00    -0.310 N 
ATOM     21  C   UNL A   1      32.007  22.023  22.703  1.00  0.00     0.408 C 
ATOM     22  H   UNL A   1      32.637  22.975  21.092  1.00  0.00     0.167 HD
ATOM     23  O   UNL A   1      31.928  20.952  22.118  1.00  0.00    -0.225 OA
BRANCH  21  24
ATOM     24  O   UNL A   1      31.676  22.251  23.991  1.00  0.00    -0.445 OA
BRANCH  24  25
ATOM     25  C   UNL A   1      32.268  21.369  24.957  1.00  0.00     0.270 C 
BRANCH  25  26
ATOM     26  C   UNL A   1      33.702  21.682  25.281  1.00  0.00    -0.011 A 
ATOM     27  C   UNL A   1      34.049  22.765  26.093  1.00  0.00     0.007 A 
ATOM     28  C   UNL A   1      34.715  20.880  24.732  1.00  0.00     0.007 A 
ATOM     29  C   UNL A   1      35.389  23.020  26.380  1.00  0.00     0.000 A 
ATOM     30  C   UNL A   1      36.053  21.136  25.018  1.00  0.00     0.000 A 
ATOM     31  C   UNL A   1      36.388  22.203  25.848  1.00  0.00     0.000 A 
ENDBRANCH  25  26
ENDBRANCH  24  25
ENDBRANCH  21  24
ENDBRANCH  18  20
ENDBRANCH  15  18
ENDBRANCH  13  14
ENDBRANCH  11  13
ENDBRANCH   7  11
ENDBRANCH   3   6
ENDBRANCH   1   2
BRANCH   1  32
ATOM     32  C   UNL A   1      32.751  28.463  26.057  1.00  0.00     0.021 C 
BRANCH  32  33
ATOM     33  C   UNL A   1      33.998  28.798  26.878  1.00  0.00     0.002 C 
BRANCH  33  34
ATOM     34  C   UNL A   1      33.977  30.204  27.492  1.00  0.00     0.002 C 
BRANCH  34  35
ATOM     35  C   UNL A   1      35.361  30.779  27.809  1.00  0.00     0.021 C 
BRANCH  35  36
ATOM     36  C   UNL A   1      35.373  32.295  27.968  1.00  0.00     0.116 C 
BRANCH  36  37
ATOM     37  N   UNL A   1      34.829  32.682  29.261  1.00  0.00    -0.352 N 
ATOM     38  C   UNL A   1      35.213  32.298  30.516  1.00  0.00     0.251 C 
ATOM     39  H   UNL A   1      34.074  33.314  29.226  1.00  0.00     0.163 HD
ATOM     40  O   UNL A   1      34.441  32.440  31.460  1.00  0.00    -0.269 OA
BRANCH  38  41
ATOM     41  C   UNL A   1      36.560  31.732  30.733  1.00  0.00     0.039 A 
ATOM     42  C   UNL A   1      37.671  32.423  30.249  1.00  0.00     0.014 A 
ATOM     43  C   UNL A   1      36.720  30.492  31.360  1.00  0.00     0.014 A 
ATOM     44  C   UNL A   1      38.945  31.877  30.411  1.00  0.00     0.010 A 
ATOM     45  C   UNL A   1      37.996  29.991  31.596  1.00  0.00     0.010 A 
ATOM     46  C   UNL A   1      39.119  30.664  31.099  1.00  0.00    -0.014 A 
BRANCH  46  47
ATOM     47  C   UNL A   1      40.471  30.081  31.280  1.00  0.00     0.031 A 
ATOM     48  C   UNL A   1      40.943  28.971  30.378  1.00  0.00     0.074 A 
ATOM     49  C   UNL A   1      41.255  30.526  32.280  1.00  0.00     0.049 A 
ATOM     50  N   UNL A   1      42.085  28.335  30.385  1.00  0.00    -0.248 NA
ATOM     51  C   UNL A   1      40.003  28.496  29.345  1.00  0.00     0.031 C 
ATOM     52  C   UNL A   1      40.879  31.551  33.258  1.00  0.00     0.029 A 
ATOM     53  N   UNL A   1      42.527  30.170  32.647  1.00  0.00    -0.354 N 
ATOM     54  C   UNL A   1      41.997  27.381  29.377  1.00  0.00     0.074 A 
ATOM     55  C   UNL A   1      40.670  27.483  28.813  1.00  0.00     0.031 C 
ATOM     56  C   UNL A   1      41.905  31.752  34.101  1.00  0.00     0.029 A 
ATOM     57  C   UNL A   1      42.996  30.851  33.745  1.00  0.00     0.049 A 
ATOM     58  H   UNL A   1      43.055  29.488  32.169  1.00  0.00     0.167 HD
ATOM     59  C   UNL A   1      42.947  26.523  28.935  1.00  0.00     0.034 A 
ATOM     60  C   UNL A   1      44.173  30.755  34.394  1.00  0.00     0.034 A 
ATOM     61  C   UNL A   1      44.274  26.446  29.481  1.00  0.00     0.049 A 
ATOM     62  C   UNL A   1      45.208  29.792  33.878  1.00  0.00     0.074 A 
ATOM     63  C   UNL A   1      45.328  25.650  29.071  1.00  0.00     0.029 A 
ATOM     64  N   UNL A   1      44.731  27.191  30.557  1.00  0.00    -0.354 N 
ATOM     65  N   UNL A   1      45.154  28.998  32.837  1.00  0.00    -0.248 NA
ATOM     66  C   UNL A   1      46.484  29.739  34.606  1.00  0.00     0.031 C 
ATOM     67  C   UNL A   1      46.414  25.893  29.918  1.00  0.00     0.029 A 
ATOM     68  C   UNL A   1      46.049  26.870  30.830  1.00  0.00     0.049 A 
ATOM     69  H   UNL A   1      44.196  27.851  31.055  1.00  0.00     0.167 HD
ATOM     70  C   UNL A   1      46.399  28.387  32.758  1.00  0.00     0.074 A 
ATOM     71  C   UNL A   1      47.196  28.921  33.843  1.00  0.00     0.031 C 
ATOM     72  C   UNL A   1      46.843  27.456  31.877  1.00  0.00     0.034 A 
BRANCH  59  73
ATOM     73  C   UNL A   1      42.606  25.640  27.762  1.00  0.00     0.023 A 
ATOM     74  C   UNL A   1      42.788  26.128  26.451  1.00  0.00     0.012 A 
ATOM     75  C   UNL A   1      42.179  24.311  27.950  1.00  0.00     0.148 A 
ATOM     76  C   UNL A   1      42.521  25.320  25.347  1.00  0.00     0.002 A 
ATOM     77  C   UNL A   1      41.960  23.496  26.845  1.00  0.00     0.091 A 
ATOM     78  F   UNL A   1      41.996  23.869  29.203  1.00  0.00    -0.205 F 
ATOM     79  C   UNL A   1      42.120  24.003  25.544  1.00  0.00     0.022 A 
BRANCH  77  80
ATOM     80  S   UNL A   1      41.517  21.761  26.986  1.00  0.00     0.127 S 
ATOM     81  O   UNL A   1      41.708  21.295  25.613  1.00  0.00    -0.237 OA
ATOM     82  O   UNL A   1      42.508  21.269  27.941  1.00  0.00    -0.237 OA
ATOM     83  O   UNL A   1      40.141  21.733  27.463  1.00  0.00    -0.744 OA
ENDBRANCH  77  80
ENDBRANCH  59  73
BRANCH  60  84
ATOM     84  C   UNL A   1      44.463  31.624  35.569  1.00  0.00     0.023 A 
ATOM     85  C   UNL A   1      45.237  32.790  35.398  1.00  0.00     0.012 A 
ATOM     86  C   UNL A   1      43.997  31.297  36.856  1.00  0.00     0.148 A 
ATOM     87  C   UNL A   1      45.584  33.582  36.492  1.00  0.00     0.002 A 
ATOM     88  C   UNL A   1      44.296  32.123  37.933  1.00  0.00     0.091 A 
ATOM     89  F   UNL A   1      43.269  30.181  37.004  1.00  0.00    -0.205 F 
ATOM     90  C   UNL A   1      45.108  33.254  37.758  1.00  0.00     0.022 A 
BRANCH  88  91
ATOM     91  S   UNL A   1      43.617  31.845  39.572  1.00  0.00     0.127 S 
ATOM     92  O   UNL A   1      44.293  30.613  39.971  1.00  0.00    -0.237 OA
ATOM     93  O   UNL A   1      44.048  33.046  40.287  1.00  0.00    -0.237 OA
ATOM     94  O   UNL A   1      42.175  31.745  39.387  1.00  0.00    -0.744 OA
ENDBRANCH  88  91
ENDBRANCH  60  84
BRANCH  72  95
ATOM     95  C   UNL A   1      48.270  26.994  32.012  1.00  0.00     0.023 A 
ATOM     96  C   UNL A   1      49.324  27.812  31.559  1.00  0.00     0.012 A 
ATOM     97  C   UNL A   1      48.568  25.772  32.649  1.00  0.00     0.148 A 
ATOM     98  C   UNL A   1      50.649  27.403  31.700  1.00  0.00     0.002 A 
ATOM     99  C   UNL A   1      49.891  25.397  32.836  1.00  0.00     0.091 A 
ATOM    100  F   UNL A   1      47.549  25.001  33.059  1.00  0.00    -0.205 F 
ATOM    101  C   UNL A   1      50.932  26.204  32.349  1.00  0.00     0.022 A 
BRANCH  99 102
ATOM    102  S   UNL A   1      50.356  23.922  33.748  1.00  0.00     0.127 S 
ATOM    103  O   UNL A   1      49.141  23.648  34.512  1.00  0.00    -0.237 OA
ATOM    104  O   UNL A   1      50.628  22.968  32.671  1.00  0.00    -0.237 OA
ATOM    105  O   UNL A   1      51.522  24.288  34.541  1.00  0.00    -0.744 OA
ENDBRANCH  99 102
ENDBRANCH  72  95
ENDBRANCH  46  47
ENDBRANCH  38  41
ENDBRANCH  36  37
ENDBRANCH  35  36
ENDBRANCH  34  35
ENDBRANCH  33  34
ENDBRANCH  32  33
ENDBRANCH   1  32
TORSDOF 24
ENDMDL
MODEL 3
REMARK VINA RESULT:      -9.5      4.130      7.107
REMARK SMILES C[C@H](NC(=O)OCc1ccccc1)C(=O)NCC(=O)N1CCC[C@H]1C(=O)NCCCCCCNC(=O)c1ccc(-c2c3nc(c(-c4cccc(S(=O)(=O)[O-])c4F)c4ccc([nH]4)c(-c4cccc(S(=O)(=O)[O-])c4F)c4nc(c(-c5cccc(S(=O)(=O)[O-])c5F)c5ccc2[nH]5)C=C4)C=C3)cc1
REMARK SMILES IDX 28 1 27 2 25 3 26 4 24 6 20 7 21 8 22 9 23 10 18 11 19 12
REMARK SMILES IDX 17 13 16 14 14 15 15 16 2 18 1 19 3 20 4 21 5 23 6 24 7 25
REMARK SMILES IDX 8 26 9 27 13 28 10 29 12 30 11 31 29 32 30 33 31 34 32 35
REMARK SMILES IDX 33 36 34 37 35 38 36 40 37 41 38 42 99 43 39 44 98 45 40 46
REMARK SMILES IDX 41 47 42 48 92 49 43 50 97 51 91 52 93 53 44 54 96 55 90 56
REMARK SMILES IDX 89 57 45 59 77 60 57 61 76 62 58 63 61 64 75 65 94 66 59 67
REMARK SMILES IDX 60 68 74 70 95 71 62 72 46 73 47 74 55 75 48 76 50 77 56 78
REMARK SMILES IDX 49 79 51 80 52 81 53 82 54 83 78 84 79 85 87 86 80 87 82 88
REMARK SMILES IDX 88 89 81 90 83 91 84 92 85 93 86 94 63 95 64 96 72 97 65 98
REMARK SMILES IDX 67 99 73 100 66 101 68 102 69 103 70 104 71 105
REMARK H PARENT 27 5 16 17 3 22 34 39 93 58 61 69
REMARK Flexibility Score: inf
ROOT
ATOM      1  C   UNL A   1      33.162  28.946  24.174  1.00  0.00     0.116 C 
ENDROOT
BRANCH   1   2
ATOM      2  N   UNL A   1      32.091  29.734  24.730  1.00  0.00    -0.354 N 
ATOM      3  C   UNL A   1      30.895  30.112  24.223  1.00  0.00     0.242 C 
ATOM      4  O   UNL A   1      30.309  31.001  24.861  1.00  0.00    -0.273 OA
ATOM      5  H   UNL A   1      32.260  30.054  25.646  1.00  0.00     0.163 HD
BRANCH   3   6
ATOM      6  C   UNL A   1      30.253  29.544  22.927  1.00  0.00     0.174 C 
ATOM      7  N   UNL A   1      29.533  28.259  22.906  1.00  0.00    -0.329 N 
ATOM      8  C   UNL A   1      28.107  28.502  22.967  1.00  0.00     0.120 C 
ATOM      9  C   UNL A   1      27.932  29.784  22.178  1.00  0.00     0.024 C 
ATOM     10  C   UNL A   1      29.191  30.579  22.484  1.00  0.00     0.037 C 
BRANCH   7  11
ATOM     11  C   UNL A   1      30.226  27.093  22.675  1.00  0.00     0.242 C 
ATOM     12  O   UNL A   1      31.067  27.058  21.766  1.00  0.00    -0.273 OA
BRANCH  11  13
ATOM     13  C   UNL A   1      30.118  25.834  23.564  1.00  0.00     0.216 C 
BRANCH  13  14
ATOM     14  N   UNL A   1      29.511  25.840  24.874  1.00  0.00    -0.345 N 
ATOM     15  C   UNL A   1      29.691  25.027  25.946  1.00  0.00     0.242 C 
ATOM     16  O   UNL A   1      29.064  25.321  26.969  1.00  0.00    -0.273 OA
ATOM     17  H   UNL A   1      28.854  26.559  25.013  1.00  0.00     0.164 HD
BRANCH  15  18
ATOM     18  C   UNL A   1      30.628  23.800  25.946  1.00  0.00     0.171 C 
ATOM     19  C   UNL A   1      30.142  22.696  26.871  1.00  0.00     0.042 C 
BRANCH  18  20
ATOM     20  N   UNL A   1      32.050  24.137  25.990  1.00  0.00    -0.310 N 
ATOM     21  C   UNL A   1      33.174  23.383  25.879  1.00  0.00     0.408 C 
ATOM     22  H   UNL A   1      32.226  25.096  26.126  1.00  0.00     0.167 HD
ATOM     23  O   UNL A   1      34.266  23.877  26.126  1.00  0.00    -0.225 OA
BRANCH  21  24
ATOM     24  O   UNL A   1      32.943  22.100  25.532  1.00  0.00    -0.445 OA
BRANCH  24  25
ATOM     25  C   UNL A   1      34.064  21.385  24.987  1.00  0.00     0.270 C 
BRANCH  25  26
ATOM     26  C   UNL A   1      33.715  20.049  24.394  1.00  0.00    -0.011 A 
ATOM     27  C   UNL A   1      32.569  19.873  23.613  1.00  0.00     0.007 A 
ATOM     28  C   UNL A   1      34.547  18.950  24.654  1.00  0.00     0.007 A 
ATOM     29  C   UNL A   1      32.281  18.621  23.071  1.00  0.00     0.000 A 
ATOM     30  C   UNL A   1      34.258  17.700  24.114  1.00  0.00     0.000 A 
ATOM     31  C   UNL A   1      33.128  17.538  23.317  1.00  0.00     0.000 A 
ENDBRANCH  25  26
ENDBRANCH  24  25
ENDBRANCH  21  24
ENDBRANCH  18  20
ENDBRANCH  15  18
ENDBRANCH  13  14
ENDBRANCH  11  13
ENDBRANCH   7  11
ENDBRANCH   3   6
ENDBRANCH   1   2
BRANCH   1  32
ATOM     32  C   UNL A   1      33.128  27.522  24.732  1.00  0.00     0.021 C 
BRANCH  32  33
ATOM     33  C   UNL A   1      33.777  27.422  26.115  1.00  0.00     0.002 C 
BRANCH  33  34
ATOM     34  C   UNL A   1      33.228  28.431  27.132  1.00  0.00     0.002 C 
BRANCH  34  35
ATOM     35  C   UNL A   1      34.300  29.262  27.843  1.00  0.00     0.021 C 
BRANCH  35  36
ATOM     36  C   UNL A   1      34.574  30.606  27.178  1.00  0.00     0.116 C 
BRANCH  36  37
ATOM     37  N   UNL A   1      34.287  31.702  28.092  1.00  0.00    -0.352 N 
ATOM     38  C   UNL A   1      34.857  31.998  29.300  1.00  0.00     0.251 C 
ATOM     39  H   UNL A   1      33.580  32.320  27.797  1.00  0.00     0.163 HD
ATOM     40  O   UNL A   1      34.269  32.737  30.085  1.00  0.00    -0.269 OA
BRANCH  38  41
ATOM     41  C   UNL A   1      36.181  31.444  29.645  1.00  0.00     0.039 A 
ATOM     42  C   UNL A   1      37.320  31.995  29.058  1.00  0.00     0.014 A 
ATOM     43  C   UNL A   1      36.292  30.343  30.501  1.00  0.00     0.014 A 
ATOM     44  C   UNL A   1      38.573  31.453  29.344  1.00  0.00     0.010 A 
ATOM     45  C   UNL A   1      37.548  29.859  30.852  1.00  0.00     0.010 A 
ATOM     46  C   UNL A   1      38.699  30.390  30.255  1.00  0.00    -0.014 A 
BRANCH  46  47
ATOM     47  C   UNL A   1      40.028  29.811  30.568  1.00  0.00     0.031 A 
ATOM     48  C   UNL A   1      40.852  30.373  31.697  1.00  0.00     0.074 A 
ATOM     49  C   UNL A   1      40.506  28.806  29.811  1.00  0.00     0.049 A 
ATOM     50  N   UNL A   1      42.035  30.003  32.115  1.00  0.00    -0.248 NA
ATOM     51  C   UNL A   1      40.287  31.513  32.441  1.00  0.00     0.031 C 
ATOM     52  C   UNL A   1      39.827  28.224  28.649  1.00  0.00     0.029 A 
ATOM     53  N   UNL A   1      41.679  28.100  29.895  1.00  0.00    -0.354 N 
ATOM     54  C   UNL A   1      42.360  30.869  33.154  1.00  0.00     0.074 A 
ATOM     55  C   UNL A   1      41.275  31.817  33.269  1.00  0.00     0.031 C 
ATOM     56  C   UNL A   1      40.587  27.238  28.143  1.00  0.00     0.029 A 
ATOM     57  C   UNL A   1      41.818  27.141  28.920  1.00  0.00     0.049 A 
ATOM     58  H   UNL A   1      42.359  28.266  30.589  1.00  0.00     0.167 HD
ATOM     59  C   UNL A   1      43.444  30.853  33.964  1.00  0.00     0.034 A 
ATOM     60  C   UNL A   1      42.827  26.282  28.679  1.00  0.00     0.034 A 
ATOM     61  C   UNL A   1      44.506  29.889  33.864  1.00  0.00     0.049 A 
ATOM     62  C   UNL A   1      44.020  26.289  29.597  1.00  0.00     0.074 A 
ATOM     63  C   UNL A   1      45.623  29.753  34.667  1.00  0.00     0.029 A 
ATOM     64  N   UNL A   1      44.585  28.897  32.898  1.00  0.00    -0.354 N 
ATOM     65  N   UNL A   1      44.242  27.024  30.659  1.00  0.00    -0.248 NA
ATOM     66  C   UNL A   1      45.085  25.319  29.307  1.00  0.00     0.031 C 
ATOM     67  C   UNL A   1      46.391  28.695  34.171  1.00  0.00     0.029 A 
ATOM     68  C   UNL A   1      45.733  28.148  33.082  1.00  0.00     0.049 A 
ATOM     69  H   UNL A   1      43.921  28.749  32.185  1.00  0.00     0.167 HD
ATOM     70  C   UNL A   1      45.446  26.577  31.187  1.00  0.00     0.074 A 
ATOM     71  C   UNL A   1      45.895  25.489  30.342  1.00  0.00     0.031 C 
ATOM     72  C   UNL A   1      46.132  27.032  32.265  1.00  0.00     0.034 A 
BRANCH  59  73
ATOM     73  C   UNL A   1      43.509  31.872  35.073  1.00  0.00     0.023 A 
ATOM     74  C   UNL A   1      44.254  33.055  34.884  1.00  0.00     0.012 A 
ATOM     75  C   UNL A   1      42.780  31.699  36.266  1.00  0.00     0.148 A 
ATOM     76  C   UNL A   1      44.298  34.035  35.875  1.00  0.00     0.002 A 
ATOM     77  C   UNL A   1      42.790  32.701  37.229  1.00  0.00     0.091 A 
ATOM     78  F   UNL A   1      42.090  30.562  36.434  1.00  0.00    -0.205 F 
ATOM     79  C   UNL A   1      43.557  33.863  37.040  1.00  0.00     0.022 A 
BRANCH  77  80
ATOM     80  S   UNL A   1      41.810  32.618  38.732  1.00  0.00     0.127 S 
ATOM     81  O   UNL A   1      41.966  33.972  39.262  1.00  0.00    -0.237 OA
ATOM     82  O   UNL A   1      40.478  32.315  38.211  1.00  0.00    -0.237 OA
ATOM     83  O   UNL A   1      42.403  31.564  39.543  1.00  0.00    -0.744 OA
ENDBRANCH  77  80
ENDBRANCH  59  73
BRANCH  60  84
ATOM     84  C   UNL A   1      42.741  25.308  27.554  1.00  0.00     0.023 A 
ATOM     85  C   UNL A   1      43.474  25.543  26.373  1.00  0.00     0.012 A 
ATOM     86  C   UNL A   1      41.926  24.163  27.636  1.00  0.00     0.148 A 
ATOM     87  C   UNL A   1      43.355  24.688  25.278  1.00  0.00     0.002 A 
ATOM     88  C   UNL A   1      41.859  23.281  26.563  1.00  0.00     0.091 A 
ATOM     89  F   UNL A   1      41.230  23.958  28.763  1.00  0.00    -0.205 F 
ATOM     90  C   UNL A   1      42.554  23.553  25.375  1.00  0.00     0.022 A 
BRANCH  88  91
ATOM     91  S   UNL A   1      40.955  21.733  26.651  1.00  0.00     0.127 S 
ATOM     92  O   UNL A   1      41.812  20.841  25.875  1.00  0.00    -0.237 OA
ATOM     93  O   UNL A   1      40.937  21.473  28.091  1.00  0.00    -0.237 OA
ATOM     94  O   UNL A   1      39.645  22.011  26.078  1.00  0.00    -0.744 OA
ENDBRANCH  88  91
ENDBRANCH  60  84
BRANCH  72  95
ATOM     95  C   UNL A   1      47.409  26.323  32.630  1.00  0.00     0.023 A 
ATOM     96  C   UNL A   1      47.384  25.235  33.526  1.00  0.00     0.012 A 
ATOM     97  C   UNL A   1      48.629  26.696  32.030  1.00  0.00     0.148 A 
ATOM     98  C   UNL A   1      48.557  24.558  33.852  1.00  0.00     0.002 A 
ATOM     99  C   UNL A   1      49.784  25.981  32.316  1.00  0.00     0.091 A 
ATOM    100  F   UNL A   1      48.634  27.744  31.192  1.00  0.00    -0.205 F 
ATOM    101  C   UNL A   1      49.753  24.922  33.238  1.00  0.00     0.022 A 
BRANCH  99 102
ATOM    102  S   UNL A   1      51.350  26.312  31.501  1.00  0.00     0.127 S 
ATOM    103  O   UNL A   1      51.224  25.516  30.282  1.00  0.00    -0.237 OA
ATOM    104  O   UNL A   1      51.290  27.759  31.295  1.00  0.00    -0.237 OA
ATOM    105  O   UNL A   1      52.387  25.874  32.426  1.00  0.00    -0.744 OA
ENDBRANCH  99 102
ENDBRANCH  72  95
ENDBRANCH  46  47
ENDBRANCH  38  41
ENDBRANCH  36  37
ENDBRANCH  35  36
ENDBRANCH  34  35
ENDBRANCH  33  34
ENDBRANCH  32  33
ENDBRANCH   1  32
TORSDOF 24
ENDMDL
