MODEL 1
REMARK VINA RESULT:     -11.4      0.000      0.000
REMARK SMILES C/C=C/C[C@]1(C(=O)NCCCCCCNC(=O)c2ccc(-c3c4nc(c(-c5cccc(S(=O)(=O)[O-])c5F)c5ccc([nH]5)c(-c5cccc(S(=O)(=O)[O-])c5F)c5nc(c(-c6cccc(S(=O)(=O)[O-])c6F)c6ccc3[nH]6)C=C5)C=C4)cc2)CCN(C(=O)OC(C)(C)C)C1
REMARK SMILES IDX 11 1 10 2 9 3 8 4 6 5 7 6 5 8 81 9 91 10 82 11 83 12 4 13
REMARK SMILES IDX 3 14 1 15 2 16 84 17 85 18 86 19 87 20 88 21 89 22 90 23
REMARK SMILES IDX 12 24 13 25 14 26 15 27 16 28 17 30 18 31 19 32 80 33 20 34
REMARK SMILES IDX 79 35 21 36 22 37 23 38 73 39 24 40 78 41 72 42 74 43 25 44
REMARK SMILES IDX 77 45 71 46 70 47 26 49 58 50 38 51 57 52 39 53 42 54 56 55
REMARK SMILES IDX 75 56 40 57 41 58 55 60 76 61 43 62 27 63 28 64 36 65 29 66
REMARK SMILES IDX 31 67 37 68 30 69 32 70 33 71 34 72 35 73 59 74 60 75 68 76
REMARK SMILES IDX 61 77 63 78 69 79 62 80 64 81 65 82 66 83 67 84 44 85 45 86
REMARK SMILES IDX 53 87 46 88 48 89 54 90 47 91 49 92 50 93 51 94 52 95
REMARK H PARENT 8 7 15 29 74 48 42 59
REMARK Flexibility Score: inf
ROOT
ATOM      1  C   UNL A   1      32.569  27.115  26.457  1.00  0.00     0.002 C 
ENDROOT
BRANCH   1   2
ATOM      2  C   UNL A   1      33.647  26.257  25.785  1.00  0.00     0.021 C 
BRANCH   2   3
ATOM      3  C   UNL A   1      33.167  24.904  25.264  1.00  0.00     0.116 C 
BRANCH   3   4
ATOM      4  N   UNL A   1      33.969  24.451  24.144  1.00  0.00    -0.356 N 
ATOM      5  C   UNL A   1      34.738  23.355  23.952  1.00  0.00     0.228 C 
ATOM      6  O   UNL A   1      34.944  23.083  22.762  1.00  0.00    -0.274 OA
ATOM      7  H   UNL A   1      33.950  25.061  23.372  1.00  0.00     0.163 HD
BRANCH   5   8
ATOM      8  C   UNL A   1      35.229  22.432  25.086  1.00  0.00     0.072 C 
ATOM      9  C   UNL A   1      34.582  22.640  26.484  1.00  0.00     0.041 C 
ATOM     10  C   UNL A   1      34.815  21.006  24.671  1.00  0.00     0.140 C 
ATOM     11  C   UNL A   1      34.057  21.265  26.906  1.00  0.00     0.124 C 
ATOM     12  N   UNL A   1      33.849  20.578  25.657  1.00  0.00    -0.307 N 
BRANCH   8  13
ATOM     13  C   UNL A   1      36.780  22.534  25.228  1.00  0.00     0.046 C 
BRANCH  13  14
ATOM     14  C   UNL A   1      37.265  23.640  26.136  1.00  0.00    -0.030 C 
ATOM     15  C   UNL A   1      38.880  25.145  27.276  1.00  0.00     0.035 C 
ATOM     16  C   UNL A   1      38.505  24.140  26.231  1.00  0.00    -0.035 C 
ENDBRANCH  13  14
ENDBRANCH   8  13
BRANCH  12  17
ATOM     17  C   UNL A   1      32.809  19.734  25.342  1.00  0.00     0.410 C 
ATOM     18  O   UNL A   1      31.774  20.133  24.830  1.00  0.00    -0.224 OA
BRANCH  17  19
ATOM     19  O   UNL A   1      33.068  18.448  25.686  1.00  0.00    -0.444 OA
BRANCH  19  20
ATOM     20  C   UNL A   1      33.506  17.477  24.691  1.00  0.00     0.106 C 
ATOM     21  C   UNL A   1      32.924  17.863  23.328  1.00  0.00     0.056 C 
ATOM     22  C   UNL A   1      35.029  17.296  24.621  1.00  0.00     0.056 C 
ATOM     23  C   UNL A   1      32.891  16.144  25.143  1.00  0.00     0.056 C 
ENDBRANCH  19  20
ENDBRANCH  17  19
ENDBRANCH  12  17
ENDBRANCH   5   8
ENDBRANCH   3   4
ENDBRANCH   2   3
ENDBRANCH   1   2
BRANCH   1  24
ATOM     24  C   UNL A   1      31.541  27.744  25.514  1.00  0.00     0.002 C 
BRANCH  24  25
ATOM     25  C   UNL A   1      31.774  29.216  25.171  1.00  0.00     0.021 C 
BRANCH  25  26
ATOM     26  C   UNL A   1      32.916  29.886  25.925  1.00  0.00     0.116 C 
BRANCH  26  27
ATOM     27  N   UNL A   1      32.620  31.257  26.297  1.00  0.00    -0.352 N 
ATOM     28  C   UNL A   1      33.235  32.051  27.230  1.00  0.00     0.251 C 
ATOM     29  H   UNL A   1      31.872  31.676  25.812  1.00  0.00     0.163 HD
ATOM     30  O   UNL A   1      32.768  33.157  27.492  1.00  0.00    -0.269 OA
BRANCH  28  31
ATOM     31  C   UNL A   1      34.445  31.571  27.936  1.00  0.00     0.039 A 
ATOM     32  C   UNL A   1      35.380  32.514  28.371  1.00  0.00     0.014 A 
ATOM     33  C   UNL A   1      34.679  30.208  28.142  1.00  0.00     0.014 A 
ATOM     34  C   UNL A   1      36.536  32.093  29.031  1.00  0.00     0.010 A 
ATOM     35  C   UNL A   1      35.796  29.794  28.864  1.00  0.00     0.010 A 
ATOM     36  C   UNL A   1      36.750  30.729  29.290  1.00  0.00    -0.014 A 
BRANCH  36  37
ATOM     37  C   UNL A   1      37.991  30.271  29.965  1.00  0.00     0.031 A 
ATOM     38  C   UNL A   1      38.283  30.702  31.377  1.00  0.00     0.074 A 
ATOM     39  C   UNL A   1      38.876  29.509  29.295  1.00  0.00     0.049 A 
ATOM     40  N   UNL A   1      39.303  30.394  32.138  1.00  0.00    -0.248 NA
ATOM     41  C   UNL A   1      37.323  31.621  32.011  1.00  0.00     0.031 C 
ATOM     42  C   UNL A   1      38.750  29.100  27.894  1.00  0.00     0.029 A 
ATOM     43  N   UNL A   1      40.065  28.956  29.697  1.00  0.00    -0.354 N 
ATOM     44  C   UNL A   1      39.122  31.104  33.320  1.00  0.00     0.074 A 
ATOM     45  C   UNL A   1      37.919  31.890  33.162  1.00  0.00     0.031 C 
ATOM     46  C   UNL A   1      39.814  28.352  27.558  1.00  0.00     0.029 A 
ATOM     47  C   UNL A   1      40.700  28.236  28.713  1.00  0.00     0.049 A 
ATOM     48  H   UNL A   1      40.429  29.065  30.606  1.00  0.00     0.167 HD
ATOM     49  C   UNL A   1      39.867  31.075  34.451  1.00  0.00     0.034 A 
ATOM     50  C   UNL A   1      41.858  27.548  28.744  1.00  0.00     0.034 A 
ATOM     51  C   UNL A   1      41.028  30.246  34.627  1.00  0.00     0.049 A 
ATOM     52  C   UNL A   1      42.620  27.459  30.039  1.00  0.00     0.074 A 
ATOM     53  C   UNL A   1      41.806  30.079  35.759  1.00  0.00     0.029 A 
ATOM     54  N   UNL A   1      41.576  29.437  33.643  1.00  0.00    -0.354 N 
ATOM     55  N   UNL A   1      42.343  28.004  31.199  1.00  0.00    -0.248 NA
ATOM     56  C   UNL A   1      43.826  26.620  30.045  1.00  0.00     0.031 C 
ATOM     57  C   UNL A   1      42.828  29.172  35.457  1.00  0.00     0.029 A 
ATOM     58  C   UNL A   1      42.677  28.763  34.141  1.00  0.00     0.049 A 
ATOM     59  H   UNL A   1      41.231  29.354  32.723  1.00  0.00     0.167 HD
ATOM     60  C   UNL A   1      43.312  27.540  32.082  1.00  0.00     0.074 A 
ATOM     61  C   UNL A   1      44.173  26.655  31.325  1.00  0.00     0.031 C 
ATOM     62  C   UNL A   1      43.482  27.833  33.394  1.00  0.00     0.034 A 
BRANCH  49  63
ATOM     63  C   UNL A   1      39.405  31.915  35.613  1.00  0.00     0.023 A 
ATOM     64  C   UNL A   1      39.764  33.278  35.665  1.00  0.00     0.012 A 
ATOM     65  C   UNL A   1      38.583  31.379  36.621  1.00  0.00     0.148 A 
ATOM     66  C   UNL A   1      39.344  34.085  36.722  1.00  0.00     0.002 A 
ATOM     67  C   UNL A   1      38.132  32.200  37.650  1.00  0.00     0.091 A 
ATOM     68  F   UNL A   1      38.271  30.076  36.569  1.00  0.00    -0.205 F 
ATOM     69  C   UNL A   1      38.520  33.548  37.707  1.00  0.00     0.022 A 
BRANCH  67  70
ATOM     70  S   UNL A   1      37.006  31.621  38.925  1.00  0.00     0.127 S 
ATOM     71  O   UNL A   1      37.844  31.706  40.120  1.00  0.00    -0.237 OA
ATOM     72  O   UNL A   1      35.932  32.614  38.863  1.00  0.00    -0.237 OA
ATOM     73  O   UNL A   1      36.611  30.277  38.528  1.00  0.00    -0.744 OA
ENDBRANCH  67  70
ENDBRANCH  49  63
BRANCH  50  74
ATOM     74  C   UNL A   1      42.309  26.800  27.537  1.00  0.00     0.023 A 
ATOM     75  C   UNL A   1      42.875  27.507  26.458  1.00  0.00     0.012 A 
ATOM     76  C   UNL A   1      42.212  25.397  27.462  1.00  0.00     0.148 A 
ATOM     77  C   UNL A   1      43.306  26.836  25.314  1.00  0.00     0.002 A 
ATOM     78  C   UNL A   1      42.690  24.730  26.340  1.00  0.00     0.091 A 
ATOM     79  F   UNL A   1      41.660  24.742  28.493  1.00  0.00    -0.205 F 
ATOM     80  C   UNL A   1      43.223  25.448  25.258  1.00  0.00     0.022 A 
BRANCH  78  81
ATOM     81  S   UNL A   1      42.739  22.936  26.239  1.00  0.00     0.127 S 
ATOM     82  O   UNL A   1      43.052  22.724  24.828  1.00  0.00    -0.237 OA
ATOM     83  O   UNL A   1      43.822  22.608  27.167  1.00  0.00    -0.237 OA
ATOM     84  O   UNL A   1      41.423  22.487  26.674  1.00  0.00    -0.744 OA
ENDBRANCH  78  81
ENDBRANCH  50  74
BRANCH  62  85
ATOM     85  C   UNL A   1      44.617  27.158  34.118  1.00  0.00     0.023 A 
ATOM     86  C   UNL A   1      45.886  27.769  34.153  1.00  0.00     0.012 A 
ATOM     87  C   UNL A   1      44.406  25.957  34.823  1.00  0.00     0.148 A 
ATOM     88  C   UNL A   1      46.937  27.177  34.854  1.00  0.00     0.002 A 
ATOM     89  C   UNL A   1      45.446  25.398  35.557  1.00  0.00     0.091 A 
ATOM     90  F   UNL A   1      43.198  25.378  34.760  1.00  0.00    -0.205 F 
ATOM     91  C   UNL A   1      46.714  26.000  35.564  1.00  0.00     0.022 A 
BRANCH  89  92
ATOM     92  S   UNL A   1      45.213  23.936  36.574  1.00  0.00     0.127 S 
ATOM     93  O   UNL A   1      46.589  23.590  36.922  1.00  0.00    -0.237 OA
ATOM     94  O   UNL A   1      44.413  24.450  37.687  1.00  0.00    -0.237 OA
ATOM     95  O   UNL A   1      44.513  22.976  35.730  1.00  0.00    -0.744 OA
ENDBRANCH  89  92
ENDBRANCH  62  85
ENDBRANCH  36  37
ENDBRANCH  28  31
ENDBRANCH  26  27
ENDBRANCH  25  26
ENDBRANCH  24  25
ENDBRANCH   1  24
TORSDOF 21
ENDMDL
MODEL 2
REMARK VINA RESULT:     -11.4      1.791      2.565
REMARK SMILES C/C=C/C[C@]1(C(=O)NCCCCCCNC(=O)c2ccc(-c3c4nc(c(-c5cccc(S(=O)(=O)[O-])c5F)c5ccc([nH]5)c(-c5cccc(S(=O)(=O)[O-])c5F)c5nc(c(-c6cccc(S(=O)(=O)[O-])c6F)c6ccc3[nH]6)C=C5)C=C4)cc2)CCN(C(=O)OC(C)(C)C)C1
REMARK SMILES IDX 11 1 10 2 9 3 8 4 6 5 7 6 5 8 81 9 91 10 82 11 83 12 4 13
REMARK SMILES IDX 3 14 1 15 2 16 84 17 85 18 86 19 87 20 88 21 89 22 90 23
REMARK SMILES IDX 12 24 13 25 14 26 15 27 16 28 17 30 18 31 19 32 80 33 20 34
REMARK SMILES IDX 79 35 21 36 22 37 23 38 73 39 24 40 78 41 72 42 74 43 25 44
REMARK SMILES IDX 77 45 71 46 70 47 26 49 58 50 38 51 57 52 39 53 42 54 56 55
REMARK SMILES IDX 75 56 40 57 41 58 55 60 76 61 43 62 27 63 28 64 36 65 29 66
REMARK SMILES IDX 31 67 37 68 30 69 32 70 33 71 34 72 35 73 59 74 60 75 68 76
REMARK SMILES IDX 61 77 63 78 69 79 62 80 64 81 65 82 66 83 67 84 44 85 45 86
REMARK SMILES IDX 53 87 46 88 48 89 54 90 47 91 49 92 50 93 51 94 52 95
REMARK H PARENT 8 7 15 29 74 48 42 59
REMARK Flexibility Score: inf
ROOT
ATOM      1  C   UNL A   1      32.152  27.221  26.236  1.00  0.00     0.002 C 
ENDROOT
BRANCH   1   2
ATOM      2  C   UNL A   1      31.580  25.833  26.548  1.00  0.00     0.021 C 
BRANCH   2   3
ATOM      3  C   UNL A   1      30.425  25.391  25.652  1.00  0.00     0.116 C 
BRANCH   3   4
ATOM      4  N   UNL A   1      30.065  24.007  25.891  1.00  0.00    -0.356 N 
ATOM      5  C   UNL A   1      30.670  22.837  25.583  1.00  0.00     0.228 C 
ATOM      6  O   UNL A   1      30.308  21.881  26.281  1.00  0.00    -0.274 OA
ATOM      7  H   UNL A   1      29.214  23.898  26.374  1.00  0.00     0.163 HD
BRANCH   5   8
ATOM      8  C   UNL A   1      31.801  22.695  24.545  1.00  0.00     0.072 C 
ATOM      9  C   UNL A   1      33.231  23.085  25.013  1.00  0.00     0.041 C 
ATOM     10  C   UNL A   1      31.890  21.189  24.228  1.00  0.00     0.140 C 
ATOM     11  C   UNL A   1      34.113  21.872  24.704  1.00  0.00     0.124 C 
ATOM     12  N   UNL A   1      33.189  20.767  24.700  1.00  0.00    -0.307 N 
BRANCH   8  13
ATOM     13  C   UNL A   1      31.453  23.506  23.257  1.00  0.00     0.046 C 
BRANCH  13  14
ATOM     14  C   UNL A   1      32.366  24.678  22.977  1.00  0.00    -0.030 C 
ATOM     15  C   UNL A   1      33.359  26.577  21.720  1.00  0.00     0.035 C 
ATOM     16  C   UNL A   1      32.303  25.540  21.953  1.00  0.00    -0.035 C 
ENDBRANCH  13  14
ENDBRANCH   8  13
BRANCH  12  17
ATOM     17  C   UNL A   1      33.410  19.504  25.199  1.00  0.00     0.410 C 
ATOM     18  O   UNL A   1      33.100  19.185  26.337  1.00  0.00    -0.224 OA
BRANCH  17  19
ATOM     19  O   UNL A   1      34.019  18.695  24.297  1.00  0.00    -0.444 OA
BRANCH  19  20
ATOM     20  C   UNL A   1      33.285  17.631  23.624  1.00  0.00     0.106 C 
ATOM     21  C   UNL A   1      32.450  16.870  24.658  1.00  0.00     0.056 C 
ATOM     22  C   UNL A   1      32.420  18.114  22.450  1.00  0.00     0.056 C 
ATOM     23  C   UNL A   1      34.367  16.697  23.063  1.00  0.00     0.056 C 
ENDBRANCH  19  20
ENDBRANCH  17  19
ENDBRANCH  12  17
ENDBRANCH   5   8
ENDBRANCH   3   4
ENDBRANCH   2   3
ENDBRANCH   1   2
BRANCH   1  24
ATOM     24  C   UNL A   1      31.552  27.925  25.016  1.00  0.00     0.002 C 
BRANCH  24  25
ATOM     25  C   UNL A   1      32.496  28.868  24.268  1.00  0.00     0.021 C 
BRANCH  25  26
ATOM     26  C   UNL A   1      33.471  29.642  25.147  1.00  0.00     0.116 C 
BRANCH  26  27
ATOM     27  N   UNL A   1      32.863  30.794  25.786  1.00  0.00    -0.352 N 
ATOM     28  C   UNL A   1      33.250  31.453  26.925  1.00  0.00     0.251 C 
ATOM     29  H   UNL A   1      32.061  31.152  25.342  1.00  0.00     0.163 HD
ATOM     30  O   UNL A   1      32.539  32.344  27.383  1.00  0.00    -0.269 OA
BRANCH  28  31
ATOM     31  C   UNL A   1      34.508  31.081  27.612  1.00  0.00     0.039 A 
ATOM     32  C   UNL A   1      34.650  29.770  28.074  1.00  0.00     0.014 A 
ATOM     33  C   UNL A   1      35.525  32.015  27.832  1.00  0.00     0.014 A 
ATOM     34  C   UNL A   1      35.820  29.390  28.735  1.00  0.00     0.010 A 
ATOM     35  C   UNL A   1      36.720  31.616  28.426  1.00  0.00     0.010 A 
ATOM     36  C   UNL A   1      36.869  30.308  28.909  1.00  0.00    -0.014 A 
BRANCH  36  37
ATOM     37  C   UNL A   1      38.104  29.920  29.636  1.00  0.00     0.031 A 
ATOM     38  C   UNL A   1      38.360  30.451  31.021  1.00  0.00     0.074 A 
ATOM     39  C   UNL A   1      39.016  29.131  29.036  1.00  0.00     0.049 A 
ATOM     40  N   UNL A   1      39.369  30.215  31.821  1.00  0.00    -0.248 NA
ATOM     41  C   UNL A   1      37.371  31.393  31.572  1.00  0.00     0.031 C 
ATOM     42  C   UNL A   1      38.925  28.625  27.664  1.00  0.00     0.029 A 
ATOM     43  N   UNL A   1      40.206  28.628  29.498  1.00  0.00    -0.354 N 
ATOM     44  C   UNL A   1      39.153  30.999  32.948  1.00  0.00     0.074 A 
ATOM     45  C   UNL A   1      37.939  31.750  32.714  1.00  0.00     0.031 C 
ATOM     46  C   UNL A   1      40.009  27.876  27.401  1.00  0.00     0.029 A 
ATOM     47  C   UNL A   1      40.873  27.856  28.577  1.00  0.00     0.049 A 
ATOM     48  H   UNL A   1      40.549  28.805  30.404  1.00  0.00     0.167 HD
ATOM     49  C   UNL A   1      39.875  31.061  34.092  1.00  0.00     0.034 A 
ATOM     50  C   UNL A   1      42.042  27.193  28.677  1.00  0.00     0.034 A 
ATOM     51  C   UNL A   1      41.046  30.268  34.346  1.00  0.00     0.049 A 
ATOM     52  C   UNL A   1      42.779  27.206  29.990  1.00  0.00     0.074 A 
ATOM     53  C   UNL A   1      41.804  30.193  35.501  1.00  0.00     0.029 A 
ATOM     54  N   UNL A   1      41.628  29.404  33.430  1.00  0.00    -0.354 N 
ATOM     55  N   UNL A   1      42.469  27.824  31.104  1.00  0.00    -0.248 NA
ATOM     56  C   UNL A   1      43.999  26.392  30.076  1.00  0.00     0.031 C 
ATOM     57  C   UNL A   1      42.847  29.286  35.281  1.00  0.00     0.029 A 
ATOM     58  C   UNL A   1      42.730  28.787  33.994  1.00  0.00     0.049 A 
ATOM     59  H   UNL A   1      41.303  29.253  32.512  1.00  0.00     0.167 HD
ATOM     60  C   UNL A   1      43.428  27.439  32.035  1.00  0.00     0.074 A 
ATOM     61  C   UNL A   1      44.319  26.520  31.357  1.00  0.00     0.031 C 
ATOM     62  C   UNL A   1      43.566  27.823  33.328  1.00  0.00     0.034 A 
BRANCH  49  63
ATOM     63  C   UNL A   1      39.375  31.969  35.185  1.00  0.00     0.023 A 
ATOM     64  C   UNL A   1      38.373  31.506  36.063  1.00  0.00     0.012 A 
ATOM     65  C   UNL A   1      39.922  33.252  35.376  1.00  0.00     0.148 A 
ATOM     66  C   UNL A   1      37.897  32.319  37.091  1.00  0.00     0.002 A 
ATOM     67  C   UNL A   1      39.472  34.040  36.431  1.00  0.00     0.091 A 
ATOM     68  F   UNL A   1      40.856  33.686  34.519  1.00  0.00    -0.205 F 
ATOM     69  C   UNL A   1      38.453  33.580  37.280  1.00  0.00     0.022 A 
BRANCH  67  70
ATOM     70  S   UNL A   1      40.178  35.650  36.803  1.00  0.00     0.127 S 
ATOM     71  O   UNL A   1      41.610  35.381  36.677  1.00  0.00    -0.237 OA
ATOM     72  O   UNL A   1      39.619  36.486  35.739  1.00  0.00    -0.237 OA
ATOM     73  O   UNL A   1      39.717  35.988  38.142  1.00  0.00    -0.744 OA
ENDBRANCH  67  70
ENDBRANCH  49  63
BRANCH  50  74
ATOM     74  C   UNL A   1      42.530  26.373  27.533  1.00  0.00     0.023 A 
ATOM     75  C   UNL A   1      43.417  26.948  26.601  1.00  0.00     0.012 A 
ATOM     76  C   UNL A   1      42.151  25.026  27.378  1.00  0.00     0.148 A 
ATOM     77  C   UNL A   1      43.891  26.207  25.519  1.00  0.00     0.002 A 
ATOM     78  C   UNL A   1      42.667  24.279  26.326  1.00  0.00     0.091 A 
ATOM     79  F   UNL A   1      41.296  24.500  28.267  1.00  0.00    -0.205 F 
ATOM     80  C   UNL A   1      43.524  24.871  25.386  1.00  0.00     0.022 A 
BRANCH  78  81
ATOM     81  S   UNL A   1      42.349  22.518  26.153  1.00  0.00     0.127 S 
ATOM     82  O   UNL A   1      43.085  22.200  24.933  1.00  0.00    -0.237 OA
ATOM     83  O   UNL A   1      42.931  21.981  27.383  1.00  0.00    -0.237 OA
ATOM     84  O   UNL A   1      40.899  22.392  26.073  1.00  0.00    -0.744 OA
ENDBRANCH  78  81
ENDBRANCH  50  74
BRANCH  62  85
ATOM     85  C   UNL A   1      44.698  27.221  34.117  1.00  0.00     0.023 A 
ATOM     86  C   UNL A   1      45.969  27.826  34.091  1.00  0.00     0.012 A 
ATOM     87  C   UNL A   1      44.481  26.098  34.941  1.00  0.00     0.148 A 
ATOM     88  C   UNL A   1      47.018  27.304  34.849  1.00  0.00     0.002 A 
ATOM     89  C   UNL A   1      45.519  25.612  35.728  1.00  0.00     0.091 A 
ATOM     90  F   UNL A   1      43.271  25.522  34.935  1.00  0.00    -0.205 F 
ATOM     91  C   UNL A   1      46.790  26.206  35.675  1.00  0.00     0.022 A 
BRANCH  89  92
ATOM     92  S   UNL A   1      45.278  24.262  36.889  1.00  0.00     0.127 S 
ATOM     93  O   UNL A   1      44.273  24.819  37.791  1.00  0.00    -0.237 OA
ATOM     94  O   UNL A   1      44.793  23.185  36.026  1.00  0.00    -0.237 OA
ATOM     95  O   UNL A   1      46.588  24.012  37.478  1.00  0.00    -0.744 OA
ENDBRANCH  89  92
ENDBRANCH  62  85
ENDBRANCH  36  37
ENDBRANCH  28  31
ENDBRANCH  26  27
ENDBRANCH  25  26
ENDBRANCH  24  25
ENDBRANCH   1  24
TORSDOF 21
ENDMDL
MODEL 3
REMARK VINA RESULT:     -11.2      5.750      9.130
REMARK SMILES C/C=C/C[C@]1(C(=O)NCCCCCCNC(=O)c2ccc(-c3c4nc(c(-c5cccc(S(=O)(=O)[O-])c5F)c5ccc([nH]5)c(-c5cccc(S(=O)(=O)[O-])c5F)c5nc(c(-c6cccc(S(=O)(=O)[O-])c6F)c6ccc3[nH]6)C=C5)C=C4)cc2)CCN(C(=O)OC(C)(C)C)C1
REMARK SMILES IDX 11 1 10 2 9 3 8 4 6 5 7 6 5 8 81 9 91 10 82 11 83 12 4 13
REMARK SMILES IDX 3 14 1 15 2 16 84 17 85 18 86 19 87 20 88 21 89 22 90 23
REMARK SMILES IDX 12 24 13 25 14 26 15 27 16 28 17 30 18 31 19 32 80 33 20 34
REMARK SMILES IDX 79 35 21 36 22 37 23 38 73 39 24 40 78 41 72 42 74 43 25 44
REMARK SMILES IDX 77 45 71 46 70 47 26 49 58 50 38 51 57 52 39 53 42 54 56 55
REMARK SMILES IDX 75 56 40 57 41 58 55 60 76 61 43 62 27 63 28 64 36 65 29 66
REMARK SMILES IDX 31 67 37 68 30 69 32 70 33 71 34 72 35 73 59 74 60 75 68 76
REMARK SMILES IDX 61 77 63 78 69 79 62 80 64 81 65 82 66 83 67 84 44 85 45 86
REMARK SMILES IDX 53 87 46 88 48 89 54 90 47 91 49 92 50 93 51 94 52 95
REMARK H PARENT 8 7 15 29 74 48 42 59
REMARK Flexibility Score: inf
ROOT
ATOM      1  C   UNL A   1      37.539  21.881  24.944  1.00  0.00     0.002 C 
ENDROOT
BRANCH   1   2
ATOM      2  C   UNL A   1      36.672  22.818  24.094  1.00  0.00     0.021 C 
BRANCH   2   3
ATOM      3  C   UNL A   1      35.992  23.948  24.864  1.00  0.00     0.116 C 
BRANCH   3   4
ATOM      4  N   UNL A   1      35.435  23.478  26.116  1.00  0.00    -0.356 N 
ATOM      5  C   UNL A   1      34.226  22.970  26.448  1.00  0.00     0.228 C 
ATOM      6  O   UNL A   1      34.226  22.303  27.490  1.00  0.00    -0.274 OA
ATOM      7  H   UNL A   1      36.059  23.540  26.875  1.00  0.00     0.163 HD
BRANCH   5   8
ATOM      8  C   UNL A   1      32.967  23.086  25.565  1.00  0.00     0.072 C 
ATOM      9  C   UNL A   1      31.600  22.835  26.263  1.00  0.00     0.041 C 
ATOM     10  C   UNL A   1      32.911  24.558  25.111  1.00  0.00     0.140 C 
ATOM     11  C   UNL A   1      30.746  24.069  25.955  1.00  0.00     0.124 C 
ATOM     12  N   UNL A   1      31.715  25.106  25.711  1.00  0.00    -0.307 N 
BRANCH   8  13
ATOM     13  C   UNL A   1      33.086  22.136  24.333  1.00  0.00     0.046 C 
BRANCH  13  14
ATOM     14  C   UNL A   1      32.671  20.705  24.588  1.00  0.00    -0.030 C 
ATOM     15  C   UNL A   1      32.927  18.263  24.964  1.00  0.00     0.035 C 
ATOM     16  C   UNL A   1      33.460  19.660  24.869  1.00  0.00    -0.035 C 
ENDBRANCH  13  14
ENDBRANCH   8  13
BRANCH  12  17
ATOM     17  C   UNL A   1      31.632  26.422  26.103  1.00  0.00     0.410 C 
ATOM     18  O   UNL A   1      30.928  26.786  27.033  1.00  0.00    -0.224 OA
BRANCH  17  19
ATOM     19  O   UNL A   1      32.391  27.238  25.330  1.00  0.00    -0.444 OA
BRANCH  19  20
ATOM     20  C   UNL A   1      31.792  28.328  24.572  1.00  0.00     0.106 C 
ATOM     21  C   UNL A   1      30.433  27.873  24.034  1.00  0.00     0.056 C 
ATOM     22  C   UNL A   1      31.674  29.644  25.355  1.00  0.00     0.056 C 
ATOM     23  C   UNL A   1      32.749  28.563  23.394  1.00  0.00     0.056 C 
ENDBRANCH  19  20
ENDBRANCH  17  19
ENDBRANCH  12  17
ENDBRANCH   5   8
ENDBRANCH   3   4
ENDBRANCH   2   3
ENDBRANCH   1   2
BRANCH   1  24
ATOM     24  C   UNL A   1      37.157  20.400  24.896  1.00  0.00     0.002 C 
BRANCH  24  25
ATOM     25  C   UNL A   1      38.281  19.417  25.224  1.00  0.00     0.021 C 
BRANCH  25  26
ATOM     26  C   UNL A   1      39.566  20.049  25.746  1.00  0.00     0.116 C 
BRANCH  26  27
ATOM     27  N   UNL A   1      40.581  19.068  26.081  1.00  0.00    -0.352 N 
ATOM     28  C   UNL A   1      41.896  19.268  26.417  1.00  0.00     0.251 C 
ATOM     29  H   UNL A   1      40.286  18.130  26.066  1.00  0.00     0.163 HD
ATOM     30  O   UNL A   1      42.641  18.301  26.557  1.00  0.00    -0.269 OA
BRANCH  28  31
ATOM     31  C   UNL A   1      42.422  20.641  26.590  1.00  0.00     0.039 A 
ATOM     32  C   UNL A   1      42.471  21.178  27.879  1.00  0.00     0.014 A 
ATOM     33  C   UNL A   1      42.833  21.409  25.496  1.00  0.00     0.014 A 
ATOM     34  C   UNL A   1      42.952  22.474  28.074  1.00  0.00     0.010 A 
ATOM     35  C   UNL A   1      43.381  22.674  25.700  1.00  0.00     0.010 A 
ATOM     36  C   UNL A   1      43.419  23.230  26.987  1.00  0.00    -0.014 A 
BRANCH  36  37
ATOM     37  C   UNL A   1      43.904  24.619  27.182  1.00  0.00     0.031 A 
ATOM     38  C   UNL A   1      42.970  25.677  27.708  1.00  0.00     0.074 A 
ATOM     39  C   UNL A   1      45.167  24.943  26.843  1.00  0.00     0.049 A 
ATOM     40  N   UNL A   1      43.212  26.938  27.961  1.00  0.00    -0.248 NA
ATOM     41  C   UNL A   1      41.576  25.275  27.957  1.00  0.00     0.031 C 
ATOM     42  C   UNL A   1      46.141  24.030  26.240  1.00  0.00     0.029 A 
ATOM     43  N   UNL A   1      45.843  26.132  26.943  1.00  0.00    -0.354 N 
ATOM     44  C   UNL A   1      41.999  27.484  28.365  1.00  0.00     0.074 A 
ATOM     45  C   UNL A   1      41.013  26.429  28.285  1.00  0.00     0.031 C 
ATOM     46  C   UNL A   1      47.292  24.691  26.033  1.00  0.00     0.029 A 
ATOM     47  C   UNL A   1      47.136  26.073  26.479  1.00  0.00     0.049 A 
ATOM     48  H   UNL A   1      45.440  26.951  27.311  1.00  0.00     0.167 HD
ATOM     49  C   UNL A   1      41.734  28.738  28.801  1.00  0.00     0.034 A 
ATOM     50  C   UNL A   1      48.092  27.021  26.435  1.00  0.00     0.034 A 
ATOM     51  C   UNL A   1      42.728  29.767  28.937  1.00  0.00     0.049 A 
ATOM     52  C   UNL A   1      47.799  28.381  27.009  1.00  0.00     0.074 A 
ATOM     53  C   UNL A   1      42.583  31.045  29.447  1.00  0.00     0.029 A 
ATOM     54  N   UNL A   1      44.058  29.633  28.568  1.00  0.00    -0.354 N 
ATOM     55  N   UNL A   1      46.688  28.830  27.543  1.00  0.00    -0.248 NA
ATOM     56  C   UNL A   1      48.903  29.351  27.022  1.00  0.00     0.031 C 
ATOM     57  C   UNL A   1      43.826  31.685  29.381  1.00  0.00     0.029 A 
ATOM     58  C   UNL A   1      44.747  30.801  28.843  1.00  0.00     0.049 A 
ATOM     59  H   UNL A   1      44.454  28.824  28.168  1.00  0.00     0.167 HD
ATOM     60  C   UNL A   1      46.971  30.114  27.994  1.00  0.00     0.074 A 
ATOM     61  C   UNL A   1      48.365  30.365  27.686  1.00  0.00     0.031 C 
ATOM     62  C   UNL A   1      46.149  31.010  28.594  1.00  0.00     0.034 A 
BRANCH  49  63
ATOM     63  C   UNL A   1      40.323  29.045  29.231  1.00  0.00     0.023 A 
ATOM     64  C   UNL A   1      39.382  29.461  28.265  1.00  0.00     0.012 A 
ATOM     65  C   UNL A   1      39.913  28.878  30.566  1.00  0.00     0.148 A 
ATOM     66  C   UNL A   1      38.067  29.742  28.629  1.00  0.00     0.002 A 
ATOM     67  C   UNL A   1      38.588  29.120  30.914  1.00  0.00     0.091 A 
ATOM     68  F   UNL A   1      40.825  28.505  31.475  1.00  0.00    -0.205 F 
ATOM     69  C   UNL A   1      37.668  29.562  29.950  1.00  0.00     0.022 A 
BRANCH  67  70
ATOM     70  S   UNL A   1      37.959  28.844  32.575  1.00  0.00     0.127 S 
ATOM     71  O   UNL A   1      36.593  29.351  32.462  1.00  0.00    -0.237 OA
ATOM     72  O   UNL A   1      38.060  27.389  32.706  1.00  0.00    -0.237 OA
ATOM     73  O   UNL A   1      38.837  29.593  33.463  1.00  0.00    -0.744 OA
ENDBRANCH  67  70
ENDBRANCH  49  63
BRANCH  50  74
ATOM     74  C   UNL A   1      49.450  26.682  25.923  1.00  0.00     0.023 A 
ATOM     75  C   UNL A   1      50.293  25.858  26.695  1.00  0.00     0.012 A 
ATOM     76  C   UNL A   1      49.900  27.142  24.671  1.00  0.00     0.148 A 
ATOM     77  C   UNL A   1      51.569  25.524  26.244  1.00  0.00     0.002 A 
ATOM     78  C   UNL A   1      51.154  26.764  24.205  1.00  0.00     0.091 A 
ATOM     79  F   UNL A   1      49.090  27.936  23.956  1.00  0.00    -0.205 F 
ATOM     80  C   UNL A   1      51.997  25.968  24.996  1.00  0.00     0.022 A 
BRANCH  78  81
ATOM     81  S   UNL A   1      51.732  27.185  22.556  1.00  0.00     0.127 S 
ATOM     82  O   UNL A   1      52.015  28.611  22.694  1.00  0.00    -0.237 OA
ATOM     83  O   UNL A   1      52.912  26.332  22.419  1.00  0.00    -0.237 OA
ATOM     84  O   UNL A   1      50.636  26.837  21.660  1.00  0.00    -0.744 OA
ENDBRANCH  78  81
ENDBRANCH  50  74
BRANCH  62  85
ATOM     85  C   UNL A   1      46.738  32.334  29.002  1.00  0.00     0.023 A 
ATOM     86  C   UNL A   1      47.317  32.478  30.278  1.00  0.00     0.012 A 
ATOM     87  C   UNL A   1      46.782  33.411  28.095  1.00  0.00     0.148 A 
ATOM     88  C   UNL A   1      47.904  33.686  30.657  1.00  0.00     0.002 A 
ATOM     89  C   UNL A   1      47.408  34.596  28.464  1.00  0.00     0.091 A 
ATOM     90  F   UNL A   1      46.205  33.263  26.894  1.00  0.00    -0.205 F 
ATOM     91  C   UNL A   1      47.960  34.739  29.747  1.00  0.00     0.022 A 
BRANCH  89  92
ATOM     92  S   UNL A   1      47.606  35.963  27.316  1.00  0.00     0.127 S 
ATOM     93  O   UNL A   1      48.357  36.924  28.121  1.00  0.00    -0.237 OA
ATOM     94  O   UNL A   1      48.368  35.354  26.226  1.00  0.00    -0.237 OA
ATOM     95  O   UNL A   1      46.254  36.366  26.947  1.00  0.00    -0.744 OA
ENDBRANCH  89  92
ENDBRANCH  62  85
ENDBRANCH  36  37
ENDBRANCH  28  31
ENDBRANCH  26  27
ENDBRANCH  25  26
ENDBRANCH  24  25
ENDBRANCH   1  24
TORSDOF 21
ENDMDL
