MODEL 1
REMARK VINA RESULT:     -11.3      0.000      0.000
REMARK SMILES O=C(Cn1cc(C(=O)C(F)(F)F)c2ccccc21)NCCCCCCNC(=O)c1ccc(-c2c3nc(c(-c4cccc(S(=O)(=O)[O-])c4F)c4ccc([nH]4)c(-c4cccc(S(=O)(=O)[O-])c4F)c4nc(c(-c5cccc(S(=O)(=O)[O-])c5F)c5ccc2[nH]5)C=C4)C=C3)cc1
REMARK SMILES IDX 22 1 21 2 20 3 19 4 1 5 2 6 3 8 4 9 5 10 18 11 6 12 13 13
REMARK SMILES IDX 17 14 14 15 16 16 15 17 7 18 8 19 9 20 10 21 11 22 12 23
REMARK SMILES IDX 23 24 24 25 25 26 26 27 27 28 28 30 29 31 30 32 91 33 31 34
REMARK SMILES IDX 90 35 32 36 33 37 34 38 84 39 35 40 89 41 83 42 85 43 36 44
REMARK SMILES IDX 88 45 82 46 81 47 37 49 69 50 49 51 68 52 50 53 53 54 67 55
REMARK SMILES IDX 86 56 51 57 52 58 66 60 87 61 54 62 38 63 39 64 47 65 40 66
REMARK SMILES IDX 42 67 48 68 41 69 43 70 44 71 45 72 46 73 70 74 71 75 79 76
REMARK SMILES IDX 72 77 74 78 80 79 73 80 75 81 76 82 77 83 78 84 55 85 56 86
REMARK SMILES IDX 64 87 57 88 59 89 65 90 58 91 60 92 61 93 62 94 63 95
REMARK H PARENT 19 7 26 29 85 48 53 59
REMARK Flexibility Score: inf
ROOT
ATOM      1  C   UNL A   1      36.783  22.329  24.440  1.00  0.00     0.002 C 
ENDROOT
BRANCH   1   2
ATOM      2  C   UNL A   1      35.426  21.636  24.232  1.00  0.00     0.021 C 
BRANCH   2   3
ATOM      3  C   UNL A   1      34.229  22.335  24.884  1.00  0.00     0.116 C 
BRANCH   3   4
ATOM      4  N   UNL A   1      34.024  23.651  24.315  1.00  0.00    -0.355 N 
ATOM      5  O   UNL A   1      32.619  23.077  22.598  1.00  0.00    -0.273 OA
ATOM      6  C   UNL A   1      33.278  23.927  23.192  1.00  0.00     0.239 C 
ATOM      7  H   UNL A   1      34.454  24.411  24.770  1.00  0.00     0.163 HD
BRANCH   6   8
ATOM      8  C   UNL A   1      33.429  25.342  22.649  1.00  0.00     0.222 C 
BRANCH   8   9
ATOM      9  N   UNL A   1      32.488  26.303  23.210  1.00  0.00    -0.337 N 
ATOM     10  C   UNL A   1      31.294  26.647  22.623  1.00  0.00     0.099 A 
ATOM     11  C   UNL A   1      32.670  27.040  24.364  1.00  0.00     0.049 A 
ATOM     12  C   UNL A   1      30.629  27.534  23.454  1.00  0.00     0.053 A 
ATOM     13  C   UNL A   1      31.467  27.713  24.604  1.00  0.00     0.011 A 
ATOM     14  C   UNL A   1      33.767  27.155  25.235  1.00  0.00     0.027 A 
ATOM     15  C   UNL A   1      31.328  28.424  25.816  1.00  0.00     0.011 A 
ATOM     16  C   UNL A   1      33.591  27.838  26.439  1.00  0.00     0.002 A 
ATOM     17  C   UNL A   1      32.380  28.449  26.738  1.00  0.00     0.001 A 
BRANCH  12  18
ATOM     18  C   UNL A   1      29.331  28.176  23.192  1.00  0.00     0.268 C 
ATOM     19  O   UNL A   1      28.277  27.552  23.352  1.00  0.00    -0.284 OA
BRANCH  18  20
ATOM     20  C   UNL A   1      29.331  29.643  22.766  1.00  0.00     0.454 C 
ATOM     21  F   UNL A   1      28.092  30.077  22.385  1.00  0.00    -0.163 F 
ATOM     22  F   UNL A   1      29.732  30.484  23.762  1.00  0.00    -0.163 F 
ATOM     23  F   UNL A   1      30.152  29.898  21.706  1.00  0.00    -0.163 F 
ENDBRANCH  18  20
ENDBRANCH  12  18
ENDBRANCH   8   9
ENDBRANCH   6   8
ENDBRANCH   3   4
ENDBRANCH   2   3
ENDBRANCH   1   2
BRANCH   1  24
ATOM     24  C   UNL A   1      37.842  21.509  25.185  1.00  0.00     0.002 C 
BRANCH  24  25
ATOM     25  C   UNL A   1      38.747  22.309  26.132  1.00  0.00     0.021 C 
BRANCH  25  26
ATOM     26  C   UNL A   1      40.048  21.601  26.515  1.00  0.00     0.116 C 
BRANCH  26  27
ATOM     27  N   UNL A   1      41.203  22.061  25.775  1.00  0.00    -0.352 N 
ATOM     28  C   UNL A   1      42.002  23.170  25.827  1.00  0.00     0.251 C 
ATOM     29  H   UNL A   1      41.477  21.430  25.071  1.00  0.00     0.163 HD
ATOM     30  O   UNL A   1      43.008  23.137  25.112  1.00  0.00    -0.269 OA
BRANCH  28  31
ATOM     31  C   UNL A   1      41.708  24.404  26.606  1.00  0.00     0.039 A 
ATOM     32  C   UNL A   1      40.818  25.410  26.228  1.00  0.00     0.014 A 
ATOM     33  C   UNL A   1      42.450  24.573  27.792  1.00  0.00     0.014 A 
ATOM     34  C   UNL A   1      40.750  26.597  26.947  1.00  0.00     0.010 A 
ATOM     35  C   UNL A   1      42.374  25.751  28.525  1.00  0.00     0.010 A 
ATOM     36  C   UNL A   1      41.560  26.781  28.068  1.00  0.00    -0.014 A 
BRANCH  36  37
ATOM     37  C   UNL A   1      41.443  28.044  28.785  1.00  0.00     0.031 A 
ATOM     38  C   UNL A   1      42.449  29.074  28.398  1.00  0.00     0.074 A 
ATOM     39  C   UNL A   1      40.449  28.298  29.660  1.00  0.00     0.049 A 
ATOM     40  N   UNL A   1      43.363  29.619  29.136  1.00  0.00    -0.248 NA
ATOM     41  C   UNL A   1      42.525  29.445  26.976  1.00  0.00     0.031 C 
ATOM     42  C   UNL A   1      39.258  27.487  29.926  1.00  0.00     0.029 A 
ATOM     43  N   UNL A   1      40.229  29.418  30.405  1.00  0.00    -0.354 N 
ATOM     44  C   UNL A   1      43.993  30.557  28.319  1.00  0.00     0.074 A 
ATOM     45  C   UNL A   1      43.545  30.304  26.974  1.00  0.00     0.031 C 
ATOM     46  C   UNL A   1      38.335  28.247  30.556  1.00  0.00     0.029 A 
ATOM     47  C   UNL A   1      38.915  29.544  30.854  1.00  0.00     0.049 A 
ATOM     48  H   UNL A   1      40.932  30.077  30.607  1.00  0.00     0.167 HD
ATOM     49  C   UNL A   1      44.678  31.622  28.819  1.00  0.00     0.034 A 
ATOM     50  C   UNL A   1      38.341  30.672  31.342  1.00  0.00     0.034 A 
ATOM     51  C   UNL A   1      44.991  31.472  30.210  1.00  0.00     0.049 A 
ATOM     52  C   UNL A   1      39.445  31.552  31.790  1.00  0.00     0.074 A 
ATOM     53  C   UNL A   1      45.754  30.596  30.954  1.00  0.00     0.029 A 
ATOM     54  N   UNL A   1      44.171  32.118  31.101  1.00  0.00    -0.354 N 
ATOM     55  N   UNL A   1      40.241  31.275  32.783  1.00  0.00    -0.248 NA
ATOM     56  C   UNL A   1      39.914  32.580  30.876  1.00  0.00     0.031 C 
ATOM     57  C   UNL A   1      45.033  30.425  32.171  1.00  0.00     0.029 A 
ATOM     58  C   UNL A   1      43.899  31.239  32.114  1.00  0.00     0.049 A 
ATOM     59  H   UNL A   1      43.842  33.043  31.025  1.00  0.00     0.167 HD
ATOM     60  C   UNL A   1      41.477  31.759  32.380  1.00  0.00     0.074 A 
ATOM     61  C   UNL A   1      41.191  32.648  31.257  1.00  0.00     0.031 C 
ATOM     62  C   UNL A   1      42.633  31.176  32.808  1.00  0.00     0.034 A 
BRANCH  49  63
ATOM     63  C   UNL A   1      44.769  32.954  28.127  1.00  0.00     0.023 A 
ATOM     64  C   UNL A   1      43.576  33.630  27.798  1.00  0.00     0.012 A 
ATOM     65  C   UNL A   1      45.970  33.440  27.561  1.00  0.00     0.148 A 
ATOM     66  C   UNL A   1      43.581  34.740  26.945  1.00  0.00     0.002 A 
ATOM     67  C   UNL A   1      45.978  34.585  26.774  1.00  0.00     0.091 A 
ATOM     68  F   UNL A   1      47.091  32.720  27.675  1.00  0.00    -0.205 F 
ATOM     69  C   UNL A   1      44.783  35.228  26.446  1.00  0.00     0.022 A 
BRANCH  67  70
ATOM     70  S   UNL A   1      47.511  35.273  26.138  1.00  0.00     0.127 S 
ATOM     71  O   UNL A   1      47.065  36.585  25.665  1.00  0.00    -0.237 OA
ATOM     72  O   UNL A   1      48.345  35.303  27.343  1.00  0.00    -0.237 OA
ATOM     73  O   UNL A   1      47.963  34.344  25.121  1.00  0.00    -0.744 OA
ENDBRANCH  67  70
ENDBRANCH  49  63
BRANCH  50  74
ATOM     74  C   UNL A   1      36.957  31.192  31.179  1.00  0.00     0.023 A 
ATOM     75  C   UNL A   1      36.273  31.675  32.316  1.00  0.00     0.012 A 
ATOM     76  C   UNL A   1      36.424  31.507  29.909  1.00  0.00     0.148 A 
ATOM     77  C   UNL A   1      35.146  32.497  32.193  1.00  0.00     0.002 A 
ATOM     78  C   UNL A   1      35.294  32.314  29.793  1.00  0.00     0.091 A 
ATOM     79  F   UNL A   1      37.076  31.109  28.810  1.00  0.00    -0.205 F 
ATOM     80  C   UNL A   1      34.664  32.828  30.932  1.00  0.00     0.022 A 
BRANCH  78  81
ATOM     81  S   UNL A   1      34.623  32.781  28.190  1.00  0.00     0.127 S 
ATOM     82  O   UNL A   1      34.325  31.480  27.590  1.00  0.00    -0.237 OA
ATOM     83  O   UNL A   1      33.451  33.563  28.570  1.00  0.00    -0.237 OA
ATOM     84  O   UNL A   1      35.688  33.515  27.517  1.00  0.00    -0.744 OA
ENDBRANCH  78  81
ENDBRANCH  50  74
BRANCH  62  85
ATOM     85  C   UNL A   1      42.545  30.173  33.928  1.00  0.00     0.023 A 
ATOM     86  C   UNL A   1      41.963  28.900  33.751  1.00  0.00     0.012 A 
ATOM     87  C   UNL A   1      43.244  30.448  35.113  1.00  0.00     0.148 A 
ATOM     88  C   UNL A   1      42.077  27.921  34.743  1.00  0.00     0.002 A 
ATOM     89  C   UNL A   1      43.388  29.461  36.079  1.00  0.00     0.091 A 
ATOM     90  F   UNL A   1      43.798  31.662  35.251  1.00  0.00    -0.205 F 
ATOM     91  C   UNL A   1      42.802  28.197  35.900  1.00  0.00     0.022 A 
BRANCH  89  92
ATOM     92  S   UNL A   1      44.404  29.706  37.537  1.00  0.00     0.127 S 
ATOM     93  O   UNL A   1      43.650  30.724  38.268  1.00  0.00    -0.237 OA
ATOM     94  O   UNL A   1      44.390  28.377  38.149  1.00  0.00    -0.237 OA
ATOM     95  O   UNL A   1      45.713  30.130  37.055  1.00  0.00    -0.744 OA
ENDBRANCH  89  92
ENDBRANCH  62  85
ENDBRANCH  36  37
ENDBRANCH  28  31
ENDBRANCH  26  27
ENDBRANCH  25  26
ENDBRANCH  24  25
ENDBRANCH   1  24
TORSDOF 19
ENDMDL
MODEL 2
REMARK VINA RESULT:     -11.2      1.961      2.323
REMARK SMILES O=C(Cn1cc(C(=O)C(F)(F)F)c2ccccc21)NCCCCCCNC(=O)c1ccc(-c2c3nc(c(-c4cccc(S(=O)(=O)[O-])c4F)c4ccc([nH]4)c(-c4cccc(S(=O)(=O)[O-])c4F)c4nc(c(-c5cccc(S(=O)(=O)[O-])c5F)c5ccc2[nH]5)C=C4)C=C3)cc1
REMARK SMILES IDX 22 1 21 2 20 3 19 4 1 5 2 6 3 8 4 9 5 10 18 11 6 12 13 13
REMARK SMILES IDX 17 14 14 15 16 16 15 17 7 18 8 19 9 20 10 21 11 22 12 23
REMARK SMILES IDX 23 24 24 25 25 26 26 27 27 28 28 30 29 31 30 32 91 33 31 34
REMARK SMILES IDX 90 35 32 36 33 37 34 38 84 39 35 40 89 41 83 42 85 43 36 44
REMARK SMILES IDX 88 45 82 46 81 47 37 49 69 50 49 51 68 52 50 53 53 54 67 55
REMARK SMILES IDX 86 56 51 57 52 58 66 60 87 61 54 62 38 63 39 64 47 65 40 66
REMARK SMILES IDX 42 67 48 68 41 69 43 70 44 71 45 72 46 73 70 74 71 75 79 76
REMARK SMILES IDX 72 77 74 78 80 79 73 80 75 81 76 82 77 83 78 84 55 85 56 86
REMARK SMILES IDX 64 87 57 88 59 89 65 90 58 91 60 92 61 93 62 94 63 95
REMARK H PARENT 19 7 26 29 85 48 53 59
REMARK Flexibility Score: inf
ROOT
ATOM      1  C   UNL A   1      35.632  22.302  23.930  1.00  0.00     0.002 C 
ENDROOT
BRANCH   1   2
ATOM      2  C   UNL A   1      34.734  21.899  25.112  1.00  0.00     0.021 C 
BRANCH   2   3
ATOM      3  C   UNL A   1      33.753  22.976  25.584  1.00  0.00     0.116 C 
BRANCH   3   4
ATOM      4  N   UNL A   1      33.659  24.052  24.618  1.00  0.00    -0.355 N 
ATOM      5  O   UNL A   1      31.414  24.481  24.787  1.00  0.00    -0.273 OA
ATOM      6  C   UNL A   1      32.499  24.694  24.252  1.00  0.00     0.239 C 
ATOM      7  H   UNL A   1      34.494  24.346  24.189  1.00  0.00     0.163 HD
BRANCH   6   8
ATOM      8  C   UNL A   1      32.622  25.604  23.036  1.00  0.00     0.222 C 
BRANCH   8   9
ATOM      9  N   UNL A   1      31.985  26.905  23.193  1.00  0.00    -0.337 N 
ATOM     10  C   UNL A   1      31.018  27.398  22.350  1.00  0.00     0.099 A 
ATOM     11  C   UNL A   1      32.285  27.845  24.160  1.00  0.00     0.049 A 
ATOM     12  C   UNL A   1      30.593  28.627  22.830  1.00  0.00     0.053 A 
ATOM     13  C   UNL A   1      31.338  28.868  24.032  1.00  0.00     0.011 A 
ATOM     14  C   UNL A   1      33.279  27.880  25.154  1.00  0.00     0.027 A 
ATOM     15  C   UNL A   1      31.320  29.890  25.007  1.00  0.00     0.011 A 
ATOM     16  C   UNL A   1      33.218  28.884  26.120  1.00  0.00     0.002 A 
ATOM     17  C   UNL A   1      32.239  29.867  26.061  1.00  0.00     0.001 A 
BRANCH  12  18
ATOM     18  C   UNL A   1      29.593  29.511  22.212  1.00  0.00     0.268 C 
ATOM     19  O   UNL A   1      29.833  30.080  21.142  1.00  0.00    -0.284 OA
BRANCH  18  20
ATOM     20  C   UNL A   1      28.242  29.661  22.908  1.00  0.00     0.454 C 
ATOM     21  F   UNL A   1      27.238  29.980  22.037  1.00  0.00    -0.163 F 
ATOM     22  F   UNL A   1      27.841  28.519  23.539  1.00  0.00    -0.163 F 
ATOM     23  F   UNL A   1      28.229  30.639  23.859  1.00  0.00    -0.163 F 
ENDBRANCH  18  20
ENDBRANCH  12  18
ENDBRANCH   8   9
ENDBRANCH   6   8
ENDBRANCH   3   4
ENDBRANCH   2   3
ENDBRANCH   1   2
BRANCH   1  24
ATOM     24  C   UNL A   1      37.055  22.736  24.293  1.00  0.00     0.002 C 
BRANCH  24  25
ATOM     25  C   UNL A   1      37.727  21.921  25.408  1.00  0.00     0.021 C 
BRANCH  25  26
ATOM     26  C   UNL A   1      38.621  22.740  26.341  1.00  0.00     0.116 C 
BRANCH  26  27
ATOM     27  N   UNL A   1      40.018  22.360  26.292  1.00  0.00    -0.352 N 
ATOM     28  C   UNL A   1      41.179  22.896  26.776  1.00  0.00     0.251 C 
ATOM     29  H   UNL A   1      40.164  21.522  25.797  1.00  0.00     0.163 HD
ATOM     30  O   UNL A   1      42.183  22.188  26.658  1.00  0.00    -0.269 OA
BRANCH  28  31
ATOM     31  C   UNL A   1      41.320  24.263  27.349  1.00  0.00     0.039 A 
ATOM     32  C   UNL A   1      42.197  24.627  28.372  1.00  0.00     0.014 A 
ATOM     33  C   UNL A   1      40.440  25.237  26.839  1.00  0.00     0.014 A 
ATOM     34  C   UNL A   1      42.123  25.890  28.946  1.00  0.00     0.010 A 
ATOM     35  C   UNL A   1      40.373  26.507  27.398  1.00  0.00     0.010 A 
ATOM     36  C   UNL A   1      41.182  26.811  28.486  1.00  0.00    -0.014 A 
BRANCH  36  37
ATOM     37  C   UNL A   1      41.154  28.122  29.123  1.00  0.00     0.031 A 
ATOM     38  C   UNL A   1      42.131  29.103  28.569  1.00  0.00     0.074 A 
ATOM     39  C   UNL A   1      40.256  28.455  30.072  1.00  0.00     0.049 A 
ATOM     40  N   UNL A   1      43.121  29.678  29.174  1.00  0.00    -0.248 NA
ATOM     41  C   UNL A   1      42.070  29.377  27.124  1.00  0.00     0.031 C 
ATOM     42  C   UNL A   1      39.086  27.687  30.509  1.00  0.00     0.029 A 
ATOM     43  N   UNL A   1      40.125  29.626  30.755  1.00  0.00    -0.354 N 
ATOM     44  C   UNL A   1      43.678  30.547  28.236  1.00  0.00     0.074 A 
ATOM     45  C   UNL A   1      43.095  30.212  26.962  1.00  0.00     0.031 C 
ATOM     46  C   UNL A   1      38.241  28.506  31.172  1.00  0.00     0.029 A 
ATOM     47  C   UNL A   1      38.865  29.808  31.322  1.00  0.00     0.049 A 
ATOM     48  H   UNL A   1      40.854  30.283  30.841  1.00  0.00     0.167 HD
ATOM     49  C   UNL A   1      44.424  31.628  28.592  1.00  0.00     0.034 A 
ATOM     50  C   UNL A   1      38.357  30.977  31.785  1.00  0.00     0.034 A 
ATOM     51  C   UNL A   1      44.871  31.566  29.952  1.00  0.00     0.049 A 
ATOM     52  C   UNL A   1      39.511  31.864  32.061  1.00  0.00     0.074 A 
ATOM     53  C   UNL A   1      45.693  30.728  30.676  1.00  0.00     0.029 A 
ATOM     54  N   UNL A   1      44.153  32.287  30.872  1.00  0.00    -0.354 N 
ATOM     55  N   UNL A   1      40.399  31.638  32.987  1.00  0.00    -0.248 NA
ATOM     56  C   UNL A   1      39.901  32.819  31.036  1.00  0.00     0.031 C 
ATOM     57  C   UNL A   1      45.095  30.653  31.967  1.00  0.00     0.029 A 
ATOM     58  C   UNL A   1      43.971  31.484  31.966  1.00  0.00     0.049 A 
ATOM     59  H   UNL A   1      43.830  33.211  30.766  1.00  0.00     0.167 HD
ATOM     60  C   UNL A   1      41.594  32.069  32.432  1.00  0.00     0.074 A 
ATOM     61  C   UNL A   1      41.210  32.886  31.284  1.00  0.00     0.031 C 
ATOM     62  C   UNL A   1      42.779  31.493  32.784  1.00  0.00     0.034 A 
BRANCH  49  63
ATOM     63  C   UNL A   1      44.463  32.909  27.804  1.00  0.00     0.023 A 
ATOM     64  C   UNL A   1      45.577  33.161  26.977  1.00  0.00     0.012 A 
ATOM     65  C   UNL A   1      43.577  33.983  28.046  1.00  0.00     0.148 A 
ATOM     66  C   UNL A   1      45.795  34.424  26.415  1.00  0.00     0.002 A 
ATOM     67  C   UNL A   1      43.757  35.214  27.428  1.00  0.00     0.091 A 
ATOM     68  F   UNL A   1      42.627  33.855  28.979  1.00  0.00    -0.205 F 
ATOM     69  C   UNL A   1      44.877  35.447  26.627  1.00  0.00     0.022 A 
BRANCH  67  70
ATOM     70  S   UNL A   1      42.577  36.551  27.643  1.00  0.00     0.127 S 
ATOM     71  O   UNL A   1      41.313  35.871  27.353  1.00  0.00    -0.237 OA
ATOM     72  O   UNL A   1      42.779  36.901  29.052  1.00  0.00    -0.237 OA
ATOM     73  O   UNL A   1      42.981  37.582  26.707  1.00  0.00    -0.744 OA
ENDBRANCH  67  70
ENDBRANCH  49  63
BRANCH  50  74
ATOM     74  C   UNL A   1      36.971  31.513  31.723  1.00  0.00     0.023 A 
ATOM     75  C   UNL A   1      36.389  32.034  32.900  1.00  0.00     0.012 A 
ATOM     76  C   UNL A   1      36.338  31.804  30.494  1.00  0.00     0.148 A 
ATOM     77  C   UNL A   1      35.266  32.869  32.849  1.00  0.00     0.002 A 
ATOM     78  C   UNL A   1      35.212  32.623  30.450  1.00  0.00     0.091 A 
ATOM     79  F   UNL A   1      36.891  31.369  29.356  1.00  0.00    -0.205 F 
ATOM     80  C   UNL A   1      34.685  33.175  31.624  1.00  0.00     0.022 A 
BRANCH  78  81
ATOM     81  S   UNL A   1      34.416  33.060  28.897  1.00  0.00     0.127 S 
ATOM     82  O   UNL A   1      35.506  33.705  28.163  1.00  0.00    -0.237 OA
ATOM     83  O   UNL A   1      34.019  31.753  28.382  1.00  0.00    -0.237 OA
ATOM     84  O   UNL A   1      33.327  33.961  29.254  1.00  0.00    -0.744 OA
ENDBRANCH  78  81
ENDBRANCH  50  74
BRANCH  62  85
ATOM     85  C   UNL A   1      42.790  30.569  33.973  1.00  0.00     0.023 A 
ATOM     86  C   UNL A   1      42.954  31.046  35.291  1.00  0.00     0.012 A 
ATOM     87  C   UNL A   1      42.426  29.230  33.769  1.00  0.00     0.148 A 
ATOM     88  C   UNL A   1      42.759  30.197  36.385  1.00  0.00     0.002 A 
ATOM     89  C   UNL A   1      42.194  28.400  34.858  1.00  0.00     0.091 A 
ATOM     90  F   UNL A   1      42.265  28.806  32.506  1.00  0.00    -0.205 F 
ATOM     91  C   UNL A   1      42.364  28.878  36.168  1.00  0.00     0.022 A 
BRANCH  89  92
ATOM     92  S   UNL A   1      41.574  26.729  34.658  1.00  0.00     0.127 S 
ATOM     93  O   UNL A   1      40.442  26.929  33.754  1.00  0.00    -0.237 OA
ATOM     94  O   UNL A   1      42.720  26.043  34.062  1.00  0.00    -0.237 OA
ATOM     95  O   UNL A   1      41.225  26.262  35.995  1.00  0.00    -0.744 OA
ENDBRANCH  89  92
ENDBRANCH  62  85
ENDBRANCH  36  37
ENDBRANCH  28  31
ENDBRANCH  26  27
ENDBRANCH  25  26
ENDBRANCH  24  25
ENDBRANCH   1  24
TORSDOF 19
ENDMDL
MODEL 3
REMARK VINA RESULT:     -11.1      4.284      9.533
REMARK SMILES O=C(Cn1cc(C(=O)C(F)(F)F)c2ccccc21)NCCCCCCNC(=O)c1ccc(-c2c3nc(c(-c4cccc(S(=O)(=O)[O-])c4F)c4ccc([nH]4)c(-c4cccc(S(=O)(=O)[O-])c4F)c4nc(c(-c5cccc(S(=O)(=O)[O-])c5F)c5ccc2[nH]5)C=C4)C=C3)cc1
REMARK SMILES IDX 22 1 21 2 20 3 19 4 1 5 2 6 3 8 4 9 5 10 18 11 6 12 13 13
REMARK SMILES IDX 17 14 14 15 16 16 15 17 7 18 8 19 9 20 10 21 11 22 12 23
REMARK SMILES IDX 23 24 24 25 25 26 26 27 27 28 28 30 29 31 30 32 91 33 31 34
REMARK SMILES IDX 90 35 32 36 33 37 34 38 84 39 35 40 89 41 83 42 85 43 36 44
REMARK SMILES IDX 88 45 82 46 81 47 37 49 69 50 49 51 68 52 50 53 53 54 67 55
REMARK SMILES IDX 86 56 51 57 52 58 66 60 87 61 54 62 38 63 39 64 47 65 40 66
REMARK SMILES IDX 42 67 48 68 41 69 43 70 44 71 45 72 46 73 70 74 71 75 79 76
REMARK SMILES IDX 72 77 74 78 80 79 73 80 75 81 76 82 77 83 78 84 55 85 56 86
REMARK SMILES IDX 64 87 57 88 59 89 65 90 58 91 60 92 61 93 62 94 63 95
REMARK H PARENT 19 7 26 29 85 48 53 59
REMARK Flexibility Score: inf
ROOT
ATOM      1  C   UNL A   1      37.565  30.937  28.587  1.00  0.00     0.002 C 
ENDROOT
BRANCH   1   2
ATOM      2  C   UNL A   1      36.980  29.693  27.897  1.00  0.00     0.021 C 
BRANCH   2   3
ATOM      3  C   UNL A   1      35.463  29.528  28.027  1.00  0.00     0.116 C 
BRANCH   3   4
ATOM      4  N   UNL A   1      34.842  29.395  26.724  1.00  0.00    -0.355 N 
ATOM      5  O   UNL A   1      32.690  29.927  27.305  1.00  0.00    -0.273 OA
ATOM      6  C   UNL A   1      33.501  29.555  26.461  1.00  0.00     0.239 C 
ATOM      7  H   UNL A   1      35.428  29.171  25.966  1.00  0.00     0.163 HD
BRANCH   6   8
ATOM      8  C   UNL A   1      33.059  29.108  25.073  1.00  0.00     0.222 C 
BRANCH   8   9
ATOM      9  N   UNL A   1      32.181  27.945  25.068  1.00  0.00    -0.337 N 
ATOM     10  C   UNL A   1      32.465  26.762  25.708  1.00  0.00     0.099 A 
ATOM     11  C   UNL A   1      30.982  27.834  24.393  1.00  0.00     0.049 A 
ATOM     12  C   UNL A   1      31.391  25.901  25.548  1.00  0.00     0.053 A 
ATOM     13  C   UNL A   1      30.410  26.619  24.786  1.00  0.00     0.011 A 
ATOM     14  C   UNL A   1      30.331  28.700  23.497  1.00  0.00     0.027 A 
ATOM     15  C   UNL A   1      29.096  26.328  24.358  1.00  0.00     0.011 A 
ATOM     16  C   UNL A   1      29.022  28.402  23.115  1.00  0.00     0.002 A 
ATOM     17  C   UNL A   1      28.403  27.240  23.556  1.00  0.00     0.001 A 
BRANCH  12  18
ATOM     18  C   UNL A   1      31.292  24.520  26.045  1.00  0.00     0.268 C 
ATOM     19  O   UNL A   1      31.015  24.296  27.228  1.00  0.00    -0.284 OA
BRANCH  18  20
ATOM     20  C   UNL A   1      31.493  23.383  25.046  1.00  0.00     0.454 C 
ATOM     21  F   UNL A   1      32.687  23.471  24.386  1.00  0.00    -0.163 F 
ATOM     22  F   UNL A   1      31.481  22.151  25.633  1.00  0.00    -0.163 F 
ATOM     23  F   UNL A   1      30.538  23.343  24.072  1.00  0.00    -0.163 F 
ENDBRANCH  18  20
ENDBRANCH  12  18
ENDBRANCH   8   9
ENDBRANCH   6   8
ENDBRANCH   3   4
ENDBRANCH   2   3
ENDBRANCH   1   2
BRANCH   1  24
ATOM     24  C   UNL A   1      36.551  32.003  29.010  1.00  0.00     0.002 C 
BRANCH  24  25
ATOM     25  C   UNL A   1      36.838  33.423  28.501  1.00  0.00     0.021 C 
BRANCH  25  26
ATOM     26  C   UNL A   1      37.910  34.175  29.292  1.00  0.00     0.116 C 
BRANCH  26  27
ATOM     27  N   UNL A   1      37.716  34.131  30.726  1.00  0.00    -0.352 N 
ATOM     28  C   UNL A   1      38.315  33.466  31.759  1.00  0.00     0.251 C 
ATOM     29  H   UNL A   1      36.983  34.716  31.026  1.00  0.00     0.163 HD
ATOM     30  O   UNL A   1      37.963  33.810  32.891  1.00  0.00    -0.269 OA
BRANCH  28  31
ATOM     31  C   UNL A   1      39.279  32.341  31.612  1.00  0.00     0.039 A 
ATOM     32  C   UNL A   1      40.568  32.441  31.087  1.00  0.00     0.014 A 
ATOM     33  C   UNL A   1      38.800  31.070  31.984  1.00  0.00     0.014 A 
ATOM     34  C   UNL A   1      41.317  31.297  30.838  1.00  0.00     0.010 A 
ATOM     35  C   UNL A   1      39.551  29.924  31.753  1.00  0.00     0.010 A 
ATOM     36  C   UNL A   1      40.789  30.040  31.131  1.00  0.00    -0.014 A 
BRANCH  36  37
ATOM     37  C   UNL A   1      41.622  28.876  30.852  1.00  0.00     0.031 A 
ATOM     38  C   UNL A   1      42.580  28.524  31.939  1.00  0.00     0.074 A 
ATOM     39  C   UNL A   1      41.476  28.122  29.745  1.00  0.00     0.049 A 
ATOM     40  N   UNL A   1      43.874  28.505  31.893  1.00  0.00    -0.248 NA
ATOM     41  C   UNL A   1      42.024  28.286  33.281  1.00  0.00     0.031 C 
ATOM     42  C   UNL A   1      40.409  28.196  28.742  1.00  0.00     0.029 A 
ATOM     43  N   UNL A   1      42.187  27.027  29.354  1.00  0.00    -0.354 N 
ATOM     44  C   UNL A   1      44.287  28.050  33.144  1.00  0.00     0.074 A 
ATOM     45  C   UNL A   1      43.127  28.075  33.998  1.00  0.00     0.031 C 
ATOM     46  C   UNL A   1      40.395  27.051  28.024  1.00  0.00     0.029 A 
ATOM     47  C   UNL A   1      41.524  26.230  28.422  1.00  0.00     0.049 A 
ATOM     48  H   UNL A   1      43.086  26.819  29.698  1.00  0.00     0.167 HD
ATOM     49  C   UNL A   1      45.503  27.476  33.349  1.00  0.00     0.034 A 
ATOM     50  C   UNL A   1      41.842  24.954  28.090  1.00  0.00     0.034 A 
ATOM     51  C   UNL A   1      46.419  27.725  32.276  1.00  0.00     0.049 A 
ATOM     52  C   UNL A   1      43.259  24.755  28.473  1.00  0.00     0.074 A 
ATOM     53  C   UNL A   1      47.009  28.846  31.731  1.00  0.00     0.029 A 
ATOM     54  N   UNL A   1      46.573  26.723  31.350  1.00  0.00    -0.354 N 
ATOM     55  N   UNL A   1      44.259  25.374  27.913  1.00  0.00    -0.248 NA
ATOM     56  C   UNL A   1      43.540  24.142  29.761  1.00  0.00     0.031 C 
ATOM     57  C   UNL A   1      47.069  28.587  30.332  1.00  0.00     0.029 A 
ATOM     58  C   UNL A   1      46.552  27.307  30.112  1.00  0.00     0.049 A 
ATOM     59  H   UNL A   1      46.680  25.763  31.542  1.00  0.00     0.167 HD
ATOM     60  C   UNL A   1      45.147  25.607  28.954  1.00  0.00     0.074 A 
ATOM     61  C   UNL A   1      44.706  24.730  30.036  1.00  0.00     0.031 C 
ATOM     62  C   UNL A   1      45.976  26.689  28.939  1.00  0.00     0.034 A 
BRANCH  49  63
ATOM     63  C   UNL A   1      45.757  26.401  34.371  1.00  0.00     0.023 A 
ATOM     64  C   UNL A   1      46.748  26.618  35.350  1.00  0.00     0.012 A 
ATOM     65  C   UNL A   1      45.240  25.091  34.247  1.00  0.00     0.148 A 
ATOM     66  C   UNL A   1      47.202  25.576  36.168  1.00  0.00     0.002 A 
ATOM     67  C   UNL A   1      45.641  24.078  35.109  1.00  0.00     0.091 A 
ATOM     68  F   UNL A   1      44.454  24.790  33.207  1.00  0.00    -0.205 F 
ATOM     69  C   UNL A   1      46.638  24.310  36.059  1.00  0.00     0.022 A 
BRANCH  67  70
ATOM     70  S   UNL A   1      44.913  22.438  35.029  1.00  0.00     0.127 S 
ATOM     71  O   UNL A   1      45.359  21.861  36.299  1.00  0.00    -0.237 OA
ATOM     72  O   UNL A   1      43.483  22.752  34.964  1.00  0.00    -0.237 OA
ATOM     73  O   UNL A   1      45.448  21.832  33.826  1.00  0.00    -0.744 OA
ENDBRANCH  67  70
ENDBRANCH  49  63
BRANCH  50  74
ATOM     74  C   UNL A   1      40.963  23.800  27.761  1.00  0.00     0.023 A 
ATOM     75  C   UNL A   1      39.611  24.047  27.432  1.00  0.00     0.012 A 
ATOM     76  C   UNL A   1      41.488  22.523  27.464  1.00  0.00     0.148 A 
ATOM     77  C   UNL A   1      38.836  23.087  26.770  1.00  0.00     0.002 A 
ATOM     78  C   UNL A   1      40.708  21.566  26.819  1.00  0.00     0.091 A 
ATOM     79  F   UNL A   1      42.778  22.273  27.716  1.00  0.00    -0.205 F 
ATOM     80  C   UNL A   1      39.387  21.852  26.451  1.00  0.00     0.022 A 
BRANCH  78  81
ATOM     81  S   UNL A   1      41.362  19.950  26.375  1.00  0.00     0.127 S 
ATOM     82  O   UNL A   1      42.441  20.299  25.450  1.00  0.00    -0.237 OA
ATOM     83  O   UNL A   1      41.805  19.438  27.668  1.00  0.00    -0.237 OA
ATOM     84  O   UNL A   1      40.254  19.236  25.752  1.00  0.00    -0.744 OA
ENDBRANCH  78  81
ENDBRANCH  50  74
BRANCH  62  85
ATOM     85  C   UNL A   1      46.095  27.471  27.658  1.00  0.00     0.023 A 
ATOM     86  C   UNL A   1      45.609  28.790  27.536  1.00  0.00     0.012 A 
ATOM     87  C   UNL A   1      46.890  26.936  26.633  1.00  0.00     0.148 A 
ATOM     88  C   UNL A   1      45.912  29.559  26.408  1.00  0.00     0.002 A 
ATOM     89  C   UNL A   1      47.221  27.715  25.532  1.00  0.00     0.091 A 
ATOM     90  F   UNL A   1      47.349  25.684  26.779  1.00  0.00    -0.205 F 
ATOM     91  C   UNL A   1      46.730  29.027  25.414  1.00  0.00     0.022 A 
BRANCH  89  92
ATOM     92  S   UNL A   1      48.361  27.139  24.273  1.00  0.00     0.127 S 
ATOM     93  O   UNL A   1      48.232  28.173  23.247  1.00  0.00    -0.237 OA
ATOM     94  O   UNL A   1      49.637  27.141  24.988  1.00  0.00    -0.237 OA
ATOM     95  O   UNL A   1      47.896  25.814  23.879  1.00  0.00    -0.744 OA
ENDBRANCH  89  92
ENDBRANCH  62  85
ENDBRANCH  36  37
ENDBRANCH  28  31
ENDBRANCH  26  27
ENDBRANCH  25  26
ENDBRANCH  24  25
ENDBRANCH   1  24
TORSDOF 19
ENDMDL
