MODEL 1
REMARK VINA RESULT:     -12.0      0.000      0.000
REMARK SMILES CC(C)(C)c1cc2c(cc1Cl)C=C(C(=O)NCCCCCCNC(=O)c1ccc(-c3c4nc(c(-c5cccc(S(=O)(=O)[O-])c5F)c5ccc([nH]5)c(-c5cccc(S(=O)(=O)[O-])c5F)c5nc(c(-c6cccc(S(=O)(=O)[O-])c6F)c6ccc3[nH]6)C=C5)C=C4)cc1)[C@@H](C(F)(F)F)O2
REMARK SMILES IDX 20 1 19 2 18 3 17 4 16 5 14 6 15 7 13 9 5 10 6 11 10 12 7 13
REMARK SMILES IDX 9 14 11 15 8 16 94 17 12 18 89 19 2 20 1 21 3 22 4 23 90 24
REMARK SMILES IDX 91 25 92 26 93 27 21 28 22 29 23 30 24 31 25 33 26 34 27 35
REMARK SMILES IDX 88 36 28 37 87 38 29 39 30 40 31 41 81 42 32 43 86 44 80 45
REMARK SMILES IDX 82 46 33 47 85 48 79 49 78 50 34 52 66 53 46 54 65 55 47 56
REMARK SMILES IDX 50 57 64 58 83 59 48 60 49 61 63 63 84 64 51 65 35 66 36 67
REMARK SMILES IDX 44 68 37 69 39 70 45 71 38 72 40 73 41 74 42 75 43 76 67 77
REMARK SMILES IDX 68 78 76 79 69 80 71 81 77 82 70 83 72 84 73 85 74 86 75 87
REMARK SMILES IDX 52 88 53 89 61 90 54 91 56 92 62 93 55 94 57 95 58 96 59 97
REMARK SMILES IDX 60 98
REMARK H PARENT 16 8 23 32 82 51 50 62
REMARK Flexibility Score: inf
ROOT
ATOM      1  C   UNL A   1      32.523  30.523  27.230  1.00  0.00     0.002 C 
ENDROOT
BRANCH   1   2
ATOM      2  C   UNL A   1      31.774  29.353  26.578  1.00  0.00     0.002 C 
BRANCH   2   3
ATOM      3  C   UNL A   1      31.425  28.188  27.510  1.00  0.00     0.021 C 
BRANCH   3   4
ATOM      4  C   UNL A   1      31.792  26.813  26.959  1.00  0.00     0.116 C 
BRANCH   4   5
ATOM      5  N   UNL A   1      32.776  26.903  25.895  1.00  0.00    -0.352 N 
ATOM      6  C   UNL A   1      33.370  26.063  25.017  1.00  0.00     0.251 C 
ATOM      7  O   UNL A   1      34.172  26.597  24.243  1.00  0.00    -0.270 OA
ATOM      8  H   UNL A   1      33.096  27.827  25.781  1.00  0.00     0.163 HD
BRANCH   6   9
ATOM      9  C   UNL A   1      33.128  24.592  24.922  1.00  0.00     0.067 C 
ATOM     10  C   UNL A   1      33.718  19.537  24.726  1.00  0.00    -0.020 A 
ATOM     11  C   UNL A   1      32.630  20.434  24.786  1.00  0.00     0.053 A 
ATOM     12  C   UNL A   1      35.004  20.124  24.810  1.00  0.00     0.045 A 
ATOM     13  C   UNL A   1      32.805  21.815  24.889  1.00  0.00     0.128 A 
ATOM     14  C   UNL A   1      35.171  21.518  24.932  1.00  0.00     0.032 A 
ATOM     15  Cl  UNL A   1      36.486  19.229  24.775  1.00  0.00    -0.084 Cl
ATOM     16  C   UNL A   1      34.071  22.369  24.964  1.00  0.00     0.019 A 
ATOM     17  O   UNL A   1      31.668  22.562  24.949  1.00  0.00    -0.475 OA
ATOM     18  C   UNL A   1      34.214  23.813  25.097  1.00  0.00     0.025 C 
ATOM     19  C   UNL A   1      31.798  23.966  24.598  1.00  0.00     0.314 C 
BRANCH  10  20
ATOM     20  C   UNL A   1      33.440  18.022  24.560  1.00  0.00    -0.012 C 
ATOM     21  C   UNL A   1      34.730  17.167  24.397  1.00  0.00     0.016 C 
ATOM     22  C   UNL A   1      32.604  17.744  23.293  1.00  0.00     0.016 C 
ATOM     23  C   UNL A   1      32.735  17.460  25.814  1.00  0.00     0.016 C 
ENDBRANCH  10  20
BRANCH  19  24
ATOM     24  C   UNL A   1      31.395  24.153  23.125  1.00  0.00     0.429 C 
ATOM     25  F   UNL A   1      32.318  23.600  22.303  1.00  0.00    -0.167 F 
ATOM     26  F   UNL A   1      30.214  23.560  22.830  1.00  0.00    -0.167 F 
ATOM     27  F   UNL A   1      31.275  25.457  22.785  1.00  0.00    -0.167 F 
ENDBRANCH  19  24
ENDBRANCH   6   9
ENDBRANCH   4   5
ENDBRANCH   3   4
ENDBRANCH   2   3
ENDBRANCH   1   2
BRANCH   1  28
ATOM     28  C   UNL A   1      31.792  31.869  27.223  1.00  0.00     0.021 C 
BRANCH  28  29
ATOM     29  C   UNL A   1      32.630  33.058  26.771  1.00  0.00     0.116 C 
BRANCH  29  30
ATOM     30  N   UNL A   1      32.449  34.224  27.619  1.00  0.00    -0.352 N 
ATOM     31  C   UNL A   1      33.138  34.580  28.755  1.00  0.00     0.251 C 
ATOM     32  H   UNL A   1      31.736  34.843  27.343  1.00  0.00     0.163 HD
ATOM     33  O   UNL A   1      32.753  35.527  29.435  1.00  0.00    -0.269 OA
BRANCH  31  34
ATOM     34  C   UNL A   1      34.319  33.790  29.166  1.00  0.00     0.039 A 
ATOM     35  C   UNL A   1      34.167  32.623  29.918  1.00  0.00     0.014 A 
ATOM     36  C   UNL A   1      35.595  34.243  28.822  1.00  0.00     0.014 A 
ATOM     37  C   UNL A   1      35.287  31.998  30.456  1.00  0.00     0.010 A 
ATOM     38  C   UNL A   1      36.722  33.570  29.302  1.00  0.00     0.010 A 
ATOM     39  C   UNL A   1      36.577  32.470  30.161  1.00  0.00    -0.014 A 
BRANCH  39  40
ATOM     40  C   UNL A   1      37.758  31.795  30.760  1.00  0.00     0.031 A 
ATOM     41  C   UNL A   1      38.164  32.068  32.183  1.00  0.00     0.074 A 
ATOM     42  C   UNL A   1      38.445  30.900  30.025  1.00  0.00     0.049 A 
ATOM     43  N   UNL A   1      39.151  31.548  32.868  1.00  0.00    -0.248 NA
ATOM     44  C   UNL A   1      37.369  33.051  32.939  1.00  0.00     0.031 C 
ATOM     45  C   UNL A   1      38.160  30.564  28.628  1.00  0.00     0.029 A 
ATOM     46  N   UNL A   1      39.512  30.100  30.348  1.00  0.00    -0.354 N 
ATOM     47  C   UNL A   1      39.122  32.164  34.112  1.00  0.00     0.074 A 
ATOM     48  C   UNL A   1      38.020  33.102  34.095  1.00  0.00     0.031 C 
ATOM     49  C   UNL A   1      39.001  29.599  28.228  1.00  0.00     0.029 A 
ATOM     50  C   UNL A   1      39.915  29.280  29.321  1.00  0.00     0.049 A 
ATOM     51  H   UNL A   1      39.946  30.113  31.231  1.00  0.00     0.167 HD
ATOM     52  C   UNL A   1      39.926  31.954  35.180  1.00  0.00     0.034 A 
ATOM     53  C   UNL A   1      40.910  28.375  29.259  1.00  0.00     0.034 A 
ATOM     54  C   UNL A   1      40.983  30.981  35.221  1.00  0.00     0.049 A 
ATOM     55  C   UNL A   1      41.773  28.148  30.465  1.00  0.00     0.074 A 
ATOM     56  C   UNL A   1      41.815  30.664  36.281  1.00  0.00     0.029 A 
ATOM     57  N   UNL A   1      41.350  30.164  34.165  1.00  0.00    -0.354 N 
ATOM     58  N   UNL A   1      41.677  28.687  31.655  1.00  0.00    -0.248 NA
ATOM     59  C   UNL A   1      42.873  27.183  30.326  1.00  0.00     0.031 C 
ATOM     60  C   UNL A   1      42.687  29.654  35.864  1.00  0.00     0.029 A 
ATOM     61  C   UNL A   1      42.396  29.342  34.546  1.00  0.00     0.049 A 
ATOM     62  H   UNL A   1      40.929  30.168  33.275  1.00  0.00     0.167 HD
ATOM     63  C   UNL A   1      42.696  28.122  32.410  1.00  0.00     0.074 A 
ATOM     64  C   UNL A   1      43.385  27.182  31.551  1.00  0.00     0.031 C 
ATOM     65  C   UNL A   1      43.043  28.380  33.694  1.00  0.00     0.034 A 
BRANCH  52  66
ATOM     66  C   UNL A   1      39.667  32.748  36.430  1.00  0.00     0.023 A 
ATOM     67  C   UNL A   1      40.297  33.997  36.592  1.00  0.00     0.012 A 
ATOM     68  C   UNL A   1      38.726  32.313  37.385  1.00  0.00     0.148 A 
ATOM     69  C   UNL A   1      40.000  34.802  37.692  1.00  0.00     0.002 A 
ATOM     70  C   UNL A   1      38.417  33.132  38.464  1.00  0.00     0.091 A 
ATOM     71  F   UNL A   1      38.151  31.115  37.213  1.00  0.00    -0.205 F 
ATOM     72  C   UNL A   1      39.055  34.375  38.620  1.00  0.00     0.022 A 
BRANCH  70  73
ATOM     73  S   UNL A   1      37.175  32.703  39.689  1.00  0.00     0.127 S 
ATOM     74  O   UNL A   1      37.265  33.838  40.609  1.00  0.00    -0.237 OA
ATOM     75  O   UNL A   1      35.952  32.663  38.887  1.00  0.00    -0.237 OA
ATOM     76  O   UNL A   1      37.584  31.421  40.247  1.00  0.00    -0.744 OA
ENDBRANCH  70  73
ENDBRANCH  52  66
BRANCH  53  77
ATOM     77  C   UNL A   1      41.091  27.582  28.014  1.00  0.00     0.023 A 
ATOM     78  C   UNL A   1      41.711  28.182  26.903  1.00  0.00     0.012 A 
ATOM     79  C   UNL A   1      40.737  26.220  27.960  1.00  0.00     0.148 A 
ATOM     80  C   UNL A   1      41.975  27.437  25.753  1.00  0.00     0.002 A 
ATOM     81  C   UNL A   1      41.044  25.474  26.830  1.00  0.00     0.091 A 
ATOM     82  F   UNL A   1      40.141  25.677  29.032  1.00  0.00    -0.205 F 
ATOM     83  C   UNL A   1      41.655  26.082  25.721  1.00  0.00     0.022 A 
BRANCH  81  84
ATOM     84  S   UNL A   1      40.781  23.698  26.742  1.00  0.00     0.127 S 
ATOM     85  O   UNL A   1      41.142  23.277  28.094  1.00  0.00    -0.237 OA
ATOM     86  O   UNL A   1      39.353  23.623  26.434  1.00  0.00    -0.237 OA
ATOM     87  O   UNL A   1      41.655  23.221  25.680  1.00  0.00    -0.744 OA
ENDBRANCH  81  84
ENDBRANCH  53  77
BRANCH  65  88
ATOM     88  C   UNL A   1      44.220  27.643  34.267  1.00  0.00     0.023 A 
ATOM     89  C   UNL A   1      45.487  28.258  34.245  1.00  0.00     0.012 A 
ATOM     90  C   UNL A   1      44.052  26.414  34.930  1.00  0.00     0.148 A 
ATOM     91  C   UNL A   1      46.575  27.653  34.873  1.00  0.00     0.002 A 
ATOM     92  C   UNL A   1      45.133  25.832  35.581  1.00  0.00     0.091 A 
ATOM     93  F   UNL A   1      42.836  25.848  34.926  1.00  0.00    -0.205 F 
ATOM     94  C   UNL A   1      46.396  26.449  35.550  1.00  0.00     0.022 A 
BRANCH  92  95
ATOM     95  S   UNL A   1      44.989  24.320  36.539  1.00  0.00     0.127 S 
ATOM     96  O   UNL A   1      44.095  23.521  35.702  1.00  0.00    -0.237 OA
ATOM     97  O   UNL A   1      46.372  23.847  36.580  1.00  0.00    -0.237 OA
ATOM     98  O   UNL A   1      44.442  24.713  37.832  1.00  0.00    -0.744 OA
ENDBRANCH  92  95
ENDBRANCH  65  88
ENDBRANCH  39  40
ENDBRANCH  31  34
ENDBRANCH  29  30
ENDBRANCH  28  29
ENDBRANCH   1  28
TORSDOF 18
ENDMDL
MODEL 2
REMARK VINA RESULT:     -11.7      1.874      2.294
REMARK SMILES CC(C)(C)c1cc2c(cc1Cl)C=C(C(=O)NCCCCCCNC(=O)c1ccc(-c3c4nc(c(-c5cccc(S(=O)(=O)[O-])c5F)c5ccc([nH]5)c(-c5cccc(S(=O)(=O)[O-])c5F)c5nc(c(-c6cccc(S(=O)(=O)[O-])c6F)c6ccc3[nH]6)C=C5)C=C4)cc1)[C@@H](C(F)(F)F)O2
REMARK SMILES IDX 20 1 19 2 18 3 17 4 16 5 14 6 15 7 13 9 5 10 6 11 10 12 7 13
REMARK SMILES IDX 9 14 11 15 8 16 94 17 12 18 89 19 2 20 1 21 3 22 4 23 90 24
REMARK SMILES IDX 91 25 92 26 93 27 21 28 22 29 23 30 24 31 25 33 26 34 27 35
REMARK SMILES IDX 88 36 28 37 87 38 29 39 30 40 31 41 81 42 32 43 86 44 80 45
REMARK SMILES IDX 82 46 33 47 85 48 79 49 78 50 34 52 66 53 46 54 65 55 47 56
REMARK SMILES IDX 50 57 64 58 83 59 48 60 49 61 63 63 84 64 51 65 35 66 36 67
REMARK SMILES IDX 44 68 37 69 39 70 45 71 38 72 40 73 41 74 42 75 43 76 67 77
REMARK SMILES IDX 68 78 76 79 69 80 71 81 77 82 70 83 72 84 73 85 74 86 75 87
REMARK SMILES IDX 52 88 53 89 61 90 54 91 56 92 62 93 55 94 57 95 58 96 59 97
REMARK SMILES IDX 60 98
REMARK H PARENT 16 8 23 32 82 51 50 62
REMARK Flexibility Score: inf
ROOT
ATOM      1  C   UNL A   1      32.034  29.507  27.226  1.00  0.00     0.002 C 
ENDROOT
BRANCH   1   2
ATOM      2  C   UNL A   1      33.380  28.821  26.950  1.00  0.00     0.002 C 
BRANCH   2   3
ATOM      3  C   UNL A   1      33.597  28.342  25.511  1.00  0.00     0.021 C 
BRANCH   3   4
ATOM      4  C   UNL A   1      33.511  26.829  25.335  1.00  0.00     0.116 C 
BRANCH   4   5
ATOM      5  N   UNL A   1      32.368  26.443  24.527  1.00  0.00    -0.352 N 
ATOM      6  C   UNL A   1      31.814  25.295  24.074  1.00  0.00     0.251 C 
ATOM      7  O   UNL A   1      30.786  25.441  23.402  1.00  0.00    -0.270 OA
ATOM      8  H   UNL A   1      31.857  27.230  24.230  1.00  0.00     0.163 HD
BRANCH   6   9
ATOM      9  C   UNL A   1      32.338  23.918  24.325  1.00  0.00     0.067 C 
ATOM     10  C   UNL A   1      33.405  18.950  23.983  1.00  0.00    -0.020 A 
ATOM     11  C   UNL A   1      33.808  20.025  24.805  1.00  0.00     0.053 A 
ATOM     12  C   UNL A   1      32.537  19.285  22.915  1.00  0.00     0.045 A 
ATOM     13  C   UNL A   1      33.357  21.330  24.602  1.00  0.00     0.128 A 
ATOM     14  C   UNL A   1      32.101  20.609  22.707  1.00  0.00     0.032 A 
ATOM     15  Cl  UNL A   1      31.923  18.144  21.766  1.00  0.00    -0.084 Cl
ATOM     16  C   UNL A   1      32.505  21.635  23.555  1.00  0.00     0.019 A 
ATOM     17  O   UNL A   1      33.835  22.271  25.463  1.00  0.00    -0.475 OA
ATOM     18  C   UNL A   1      32.076  23.015  23.360  1.00  0.00     0.025 C 
ATOM     19  C   UNL A   1      33.062  23.497  25.574  1.00  0.00     0.314 C 
BRANCH  10  20
ATOM     20  C   UNL A   1      33.910  17.522  24.305  1.00  0.00    -0.012 C 
ATOM     21  C   UNL A   1      34.055  16.615  23.048  1.00  0.00     0.016 C 
ATOM     22  C   UNL A   1      32.925  16.779  25.232  1.00  0.00     0.016 C 
ATOM     23  C   UNL A   1      35.318  17.573  24.935  1.00  0.00     0.016 C 
ENDBRANCH  10  20
BRANCH  19  24
ATOM     24  C   UNL A   1      32.133  23.393  26.796  1.00  0.00     0.429 C 
ATOM     25  F   UNL A   1      31.042  22.644  26.504  1.00  0.00    -0.167 F 
ATOM     26  F   UNL A   1      32.732  22.802  27.856  1.00  0.00    -0.167 F 
ATOM     27  F   UNL A   1      31.696  24.603  27.216  1.00  0.00    -0.167 F 
ENDBRANCH  19  24
ENDBRANCH   6   9
ENDBRANCH   4   5
ENDBRANCH   3   4
ENDBRANCH   2   3
ENDBRANCH   1   2
BRANCH   1  28
ATOM     28  C   UNL A   1      31.950  30.987  26.840  1.00  0.00     0.021 C 
BRANCH  28  29
ATOM     29  C   UNL A   1      33.136  31.838  27.278  1.00  0.00     0.116 C 
BRANCH  29  30
ATOM     30  N   UNL A   1      32.760  33.210  27.570  1.00  0.00    -0.352 N 
ATOM     31  C   UNL A   1      33.287  34.069  28.506  1.00  0.00     0.251 C 
ATOM     32  H   UNL A   1      32.028  33.575  27.023  1.00  0.00     0.163 HD
ATOM     33  O   UNL A   1      32.747  35.151  28.719  1.00  0.00    -0.269 OA
BRANCH  31  34
ATOM     34  C   UNL A   1      34.484  33.662  29.274  1.00  0.00     0.039 A 
ATOM     35  C   UNL A   1      35.754  34.102  28.894  1.00  0.00     0.014 A 
ATOM     36  C   UNL A   1      34.333  32.803  30.365  1.00  0.00     0.014 A 
ATOM     37  C   UNL A   1      36.881  33.562  29.505  1.00  0.00     0.010 A 
ATOM     38  C   UNL A   1      35.466  32.319  31.026  1.00  0.00     0.010 A 
ATOM     39  C   UNL A   1      36.750  32.657  30.572  1.00  0.00    -0.014 A 
BRANCH  39  40
ATOM     40  C   UNL A   1      37.969  32.083  31.198  1.00  0.00     0.031 A 
ATOM     41  C   UNL A   1      38.456  32.575  32.534  1.00  0.00     0.074 A 
ATOM     42  C   UNL A   1      38.619  31.083  30.573  1.00  0.00     0.049 A 
ATOM     43  N   UNL A   1      39.485  32.167  33.233  1.00  0.00    -0.248 NA
ATOM     44  C   UNL A   1      37.698  33.665  33.173  1.00  0.00     0.031 C 
ATOM     45  C   UNL A   1      38.255  30.532  29.265  1.00  0.00     0.029 A 
ATOM     46  N   UNL A   1      39.709  30.342  30.953  1.00  0.00    -0.354 N 
ATOM     47  C   UNL A   1      39.524  32.971  34.365  1.00  0.00     0.074 A 
ATOM     48  C   UNL A   1      38.416  33.896  34.266  1.00  0.00     0.031 C 
ATOM     49  C   UNL A   1      39.079  29.516  28.972  1.00  0.00     0.029 A 
ATOM     50  C   UNL A   1      40.058  29.371  30.045  1.00  0.00     0.049 A 
ATOM     51  H   UNL A   1      40.195  30.493  31.797  1.00  0.00     0.167 HD
ATOM     52  C   UNL A   1      40.391  32.930  35.403  1.00  0.00     0.034 A 
ATOM     53  C   UNL A   1      41.055  28.467  30.068  1.00  0.00     0.034 A 
ATOM     54  C   UNL A   1      41.457  31.974  35.533  1.00  0.00     0.049 A 
ATOM     55  C   UNL A   1      41.989  28.429  31.241  1.00  0.00     0.074 A 
ATOM     56  C   UNL A   1      42.352  31.826  36.578  1.00  0.00     0.029 A 
ATOM     57  N   UNL A   1      41.768  31.001  34.598  1.00  0.00    -0.354 N 
ATOM     58  N   UNL A   1      41.959  29.148  32.336  1.00  0.00    -0.248 NA
ATOM     59  C   UNL A   1      43.087  27.453  31.189  1.00  0.00     0.031 C 
ATOM     60  C   UNL A   1      43.206  30.762  36.274  1.00  0.00     0.029 A 
ATOM     61  C   UNL A   1      42.840  30.248  35.040  1.00  0.00     0.049 A 
ATOM     62  H   UNL A   1      41.295  30.866  33.745  1.00  0.00     0.167 HD
ATOM     63  C   UNL A   1      43.025  28.708  33.108  1.00  0.00     0.074 A 
ATOM     64  C   UNL A   1      43.670  27.644  32.367  1.00  0.00     0.031 C 
ATOM     65  C   UNL A   1      43.445  29.163  34.313  1.00  0.00     0.034 A 
BRANCH  52  66
ATOM     66  C   UNL A   1      40.199  33.911  36.527  1.00  0.00     0.023 A 
ATOM     67  C   UNL A   1      40.532  35.263  36.320  1.00  0.00     0.012 A 
ATOM     68  C   UNL A   1      39.595  33.518  37.738  1.00  0.00     0.148 A 
ATOM     69  C   UNL A   1      40.272  36.214  37.307  1.00  0.00     0.002 A 
ATOM     70  C   UNL A   1      39.316  34.476  38.705  1.00  0.00     0.091 A 
ATOM     71  F   UNL A   1      39.300  32.223  37.913  1.00  0.00    -0.205 F 
ATOM     72  C   UNL A   1      39.656  35.823  38.493  1.00  0.00     0.022 A 
BRANCH  70  73
ATOM     73  S   UNL A   1      38.477  34.089  40.246  1.00  0.00     0.127 S 
ATOM     74  O   UNL A   1      38.363  35.413  40.859  1.00  0.00    -0.237 OA
ATOM     75  O   UNL A   1      37.212  33.525  39.774  1.00  0.00    -0.237 OA
ATOM     76  O   UNL A   1      39.340  33.152  40.952  1.00  0.00    -0.744 OA
ENDBRANCH  70  73
ENDBRANCH  52  66
BRANCH  53  77
ATOM     77  C   UNL A   1      41.169  27.488  28.953  1.00  0.00     0.023 A 
ATOM     78  C   UNL A   1      40.302  26.381  28.921  1.00  0.00     0.012 A 
ATOM     79  C   UNL A   1      42.064  27.699  27.887  1.00  0.00     0.148 A 
ATOM     80  C   UNL A   1      40.324  25.496  27.843  1.00  0.00     0.002 A 
ATOM     81  C   UNL A   1      42.050  26.840  26.795  1.00  0.00     0.091 A 
ATOM     82  F   UNL A   1      42.884  28.758  27.948  1.00  0.00    -0.205 F 
ATOM     83  C   UNL A   1      41.187  25.732  26.776  1.00  0.00     0.022 A 
BRANCH  81  84
ATOM     84  S   UNL A   1      43.036  27.130  25.322  1.00  0.00     0.127 S 
ATOM     85  O   UNL A   1      42.266  28.174  24.649  1.00  0.00    -0.237 OA
ATOM     86  O   UNL A   1      44.306  27.575  25.896  1.00  0.00    -0.237 OA
ATOM     87  O   UNL A   1      43.100  25.851  24.630  1.00  0.00    -0.744 OA
ENDBRANCH  81  84
ENDBRANCH  53  77
BRANCH  65  88
ATOM     88  C   UNL A   1      44.659  28.524  34.923  1.00  0.00     0.023 A 
ATOM     89  C   UNL A   1      45.912  29.145  34.760  1.00  0.00     0.012 A 
ATOM     90  C   UNL A   1      44.543  27.393  35.751  1.00  0.00     0.148 A 
ATOM     91  C   UNL A   1      47.038  28.644  35.412  1.00  0.00     0.002 A 
ATOM     92  C   UNL A   1      45.663  26.917  36.422  1.00  0.00     0.091 A 
ATOM     93  F   UNL A   1      43.338  26.817  35.879  1.00  0.00    -0.205 F 
ATOM     94  C   UNL A   1      46.911  27.538  36.251  1.00  0.00     0.022 A 
BRANCH  92  95
ATOM     95  S   UNL A   1      45.588  25.544  37.580  1.00  0.00     0.127 S 
ATOM     96  O   UNL A   1      44.309  25.785  38.245  1.00  0.00    -0.237 OA
ATOM     97  O   UNL A   1      45.604  24.386  36.687  1.00  0.00    -0.237 OA
ATOM     98  O   UNL A   1      46.764  25.672  38.432  1.00  0.00    -0.744 OA
ENDBRANCH  92  95
ENDBRANCH  65  88
ENDBRANCH  39  40
ENDBRANCH  31  34
ENDBRANCH  29  30
ENDBRANCH  28  29
ENDBRANCH   1  28
TORSDOF 18
ENDMDL
MODEL 3
REMARK VINA RESULT:     -11.7      6.365     10.065
REMARK SMILES CC(C)(C)c1cc2c(cc1Cl)C=C(C(=O)NCCCCCCNC(=O)c1ccc(-c3c4nc(c(-c5cccc(S(=O)(=O)[O-])c5F)c5ccc([nH]5)c(-c5cccc(S(=O)(=O)[O-])c5F)c5nc(c(-c6cccc(S(=O)(=O)[O-])c6F)c6ccc3[nH]6)C=C5)C=C4)cc1)[C@@H](C(F)(F)F)O2
REMARK SMILES IDX 20 1 19 2 18 3 17 4 16 5 14 6 15 7 13 9 5 10 6 11 10 12 7 13
REMARK SMILES IDX 9 14 11 15 8 16 94 17 12 18 89 19 2 20 1 21 3 22 4 23 90 24
REMARK SMILES IDX 91 25 92 26 93 27 21 28 22 29 23 30 24 31 25 33 26 34 27 35
REMARK SMILES IDX 88 36 28 37 87 38 29 39 30 40 31 41 81 42 32 43 86 44 80 45
REMARK SMILES IDX 82 46 33 47 85 48 79 49 78 50 34 52 66 53 46 54 65 55 47 56
REMARK SMILES IDX 50 57 64 58 83 59 48 60 49 61 63 63 84 64 51 65 35 66 36 67
REMARK SMILES IDX 44 68 37 69 39 70 45 71 38 72 40 73 41 74 42 75 43 76 67 77
REMARK SMILES IDX 68 78 76 79 69 80 71 81 77 82 70 83 72 84 73 85 74 86 75 87
REMARK SMILES IDX 52 88 53 89 61 90 54 91 56 92 62 93 55 94 57 95 58 96 59 97
REMARK SMILES IDX 60 98
REMARK H PARENT 16 8 23 32 82 51 50 62
REMARK Flexibility Score: inf
ROOT
ATOM      1  C   UNL A   1      38.859  21.578  25.710  1.00  0.00     0.002 C 
ENDROOT
BRANCH   1   2
ATOM      2  C   UNL A   1      37.487  21.954  25.134  1.00  0.00     0.002 C 
BRANCH   2   3
ATOM      3  C   UNL A   1      36.282  21.273  25.792  1.00  0.00     0.021 C 
BRANCH   3   4
ATOM      4  C   UNL A   1      35.718  20.096  25.001  1.00  0.00     0.116 C 
BRANCH   4   5
ATOM      5  N   UNL A   1      34.280  19.976  25.163  1.00  0.00    -0.352 N 
ATOM      6  C   UNL A   1      33.201  20.787  25.085  1.00  0.00     0.251 C 
ATOM      7  O   UNL A   1      32.114  20.233  25.290  1.00  0.00    -0.270 OA
ATOM      8  H   UNL A   1      34.021  19.054  25.390  1.00  0.00     0.163 HD
BRANCH   6   9
ATOM      9  C   UNL A   1      33.232  22.248  24.774  1.00  0.00     0.067 C 
ATOM     10  C   UNL A   1      32.727  27.311  24.997  1.00  0.00    -0.020 A 
ATOM     11  C   UNL A   1      33.339  26.386  24.124  1.00  0.00     0.053 A 
ATOM     12  C   UNL A   1      32.149  26.763  26.168  1.00  0.00     0.045 A 
ATOM     13  C   UNL A   1      33.348  25.013  24.378  1.00  0.00     0.128 A 
ATOM     14  C   UNL A   1      32.179  25.378  26.425  1.00  0.00     0.032 A 
ATOM     15  Cl  UNL A   1      31.360  27.698  27.393  1.00  0.00    -0.084 Cl
ATOM     16  C   UNL A   1      32.773  24.497  25.526  1.00  0.00     0.019 A 
ATOM     17  O   UNL A   1      33.983  24.236  23.457  1.00  0.00    -0.475 OA
ATOM     18  C   UNL A   1      32.825  23.061  25.769  1.00  0.00     0.025 C 
ATOM     19  C   UNL A   1      33.625  22.828  23.442  1.00  0.00     0.314 C 
BRANCH  10  20
ATOM     20  C   UNL A   1      32.716  28.813  24.619  1.00  0.00    -0.012 C 
ATOM     21  C   UNL A   1      33.277  29.741  25.736  1.00  0.00     0.016 C 
ATOM     22  C   UNL A   1      31.278  29.311  24.360  1.00  0.00     0.016 C 
ATOM     23  C   UNL A   1      33.612  29.070  23.388  1.00  0.00     0.016 C 
ENDBRANCH  10  20
BRANCH  19  24
ATOM     24  C   UNL A   1      32.563  22.594  22.353  1.00  0.00     0.429 C 
ATOM     25  F   UNL A   1      32.842  23.327  21.249  1.00  0.00    -0.167 F 
ATOM     26  F   UNL A   1      32.507  21.302  21.952  1.00  0.00    -0.167 F 
ATOM     27  F   UNL A   1      31.320  22.933  22.765  1.00  0.00    -0.167 F 
ENDBRANCH  19  24
ENDBRANCH   6   9
ENDBRANCH   4   5
ENDBRANCH   3   4
ENDBRANCH   2   3
ENDBRANCH   1   2
BRANCH   1  28
ATOM     28  C   UNL A   1      39.321  20.142  25.445  1.00  0.00     0.021 C 
BRANCH  28  29
ATOM     29  C   UNL A   1      40.097  19.492  26.584  1.00  0.00     0.116 C 
BRANCH  29  30
ATOM     30  N   UNL A   1      41.310  18.834  26.129  1.00  0.00    -0.352 N 
ATOM     31  C   UNL A   1      42.535  19.386  25.839  1.00  0.00     0.251 C 
ATOM     32  H   UNL A   1      41.245  17.858  26.013  1.00  0.00     0.163 HD
ATOM     33  O   UNL A   1      43.412  18.699  25.323  1.00  0.00    -0.269 OA
BRANCH  31  34
ATOM     34  C   UNL A   1      42.771  20.819  26.122  1.00  0.00     0.039 A 
ATOM     35  C   UNL A   1      42.800  21.752  25.083  1.00  0.00     0.014 A 
ATOM     36  C   UNL A   1      43.000  21.225  27.439  1.00  0.00     0.014 A 
ATOM     37  C   UNL A   1      43.209  23.057  25.340  1.00  0.00     0.010 A 
ATOM     38  C   UNL A   1      43.339  22.554  27.705  1.00  0.00     0.010 A 
ATOM     39  C   UNL A   1      43.492  23.470  26.653  1.00  0.00    -0.014 A 
BRANCH  39  40
ATOM     40  C   UNL A   1      43.942  24.864  26.899  1.00  0.00     0.031 A 
ATOM     41  C   UNL A   1      43.000  25.890  27.470  1.00  0.00     0.074 A 
ATOM     42  C   UNL A   1      45.221  25.197  26.642  1.00  0.00     0.049 A 
ATOM     43  N   UNL A   1      43.236  27.143  27.770  1.00  0.00    -0.248 NA
ATOM     44  C   UNL A   1      41.616  25.465  27.739  1.00  0.00     0.031 C 
ATOM     45  C   UNL A   1      46.225  24.296  26.070  1.00  0.00     0.029 A 
ATOM     46  N   UNL A   1      45.902  26.371  26.837  1.00  0.00    -0.354 N 
ATOM     47  C   UNL A   1      42.029  27.663  28.220  1.00  0.00     0.074 A 
ATOM     48  C   UNL A   1      41.057  26.594  28.156  1.00  0.00     0.031 C 
ATOM     49  C   UNL A   1      47.400  24.936  26.000  1.00  0.00     0.029 A 
ATOM     50  C   UNL A   1      47.227  26.305  26.477  1.00  0.00     0.049 A 
ATOM     51  H   UNL A   1      45.482  27.184  27.201  1.00  0.00     0.167 HD
ATOM     52  C   UNL A   1      41.761  28.912  28.666  1.00  0.00     0.034 A 
ATOM     53  C   UNL A   1      48.196  27.239  26.519  1.00  0.00     0.034 A 
ATOM     54  C   UNL A   1      42.738  29.959  28.788  1.00  0.00     0.049 A 
ATOM     55  C   UNL A   1      47.875  28.609  27.038  1.00  0.00     0.074 A 
ATOM     56  C   UNL A   1      42.564  31.241  29.279  1.00  0.00     0.029 A 
ATOM     57  N   UNL A   1      44.069  29.847  28.423  1.00  0.00    -0.354 N 
ATOM     58  N   UNL A   1      46.746  29.055  27.531  1.00  0.00    -0.248 NA
ATOM     59  C   UNL A   1      48.959  29.602  27.017  1.00  0.00     0.031 C 
ATOM     60  C   UNL A   1      43.792  31.904  29.212  1.00  0.00     0.029 A 
ATOM     61  C   UNL A   1      44.730  31.035  28.679  1.00  0.00     0.049 A 
ATOM     62  H   UNL A   1      44.484  29.041  28.038  1.00  0.00     0.167 HD
ATOM     63  C   UNL A   1      46.983  30.376  27.888  1.00  0.00     0.074 A 
ATOM     64  C   UNL A   1      48.371  30.653  27.575  1.00  0.00     0.031 C 
ATOM     65  C   UNL A   1      46.121  31.283  28.405  1.00  0.00     0.034 A 
BRANCH  52  66
ATOM     66  C   UNL A   1      40.360  29.216  29.121  1.00  0.00     0.023 A 
ATOM     67  C   UNL A   1      39.389  29.569  28.162  1.00  0.00     0.012 A 
ATOM     68  C   UNL A   1      39.981  29.050  30.468  1.00  0.00     0.148 A 
ATOM     69  C   UNL A   1      38.060  29.759  28.538  1.00  0.00     0.002 A 
ATOM     70  C   UNL A   1      38.649  29.216  30.830  1.00  0.00     0.091 A 
ATOM     71  F   UNL A   1      40.926  28.728  31.360  1.00  0.00    -0.205 F 
ATOM     72  C   UNL A   1      37.689  29.573  29.868  1.00  0.00     0.022 A 
BRANCH  70  73
ATOM     73  S   UNL A   1      38.054  28.949  32.504  1.00  0.00     0.127 S 
ATOM     74  O   UNL A   1      38.295  27.516  32.675  1.00  0.00    -0.237 OA
ATOM     75  O   UNL A   1      38.938  29.814  33.286  1.00  0.00    -0.237 OA
ATOM     76  O   UNL A   1      36.653  29.346  32.502  1.00  0.00    -0.744 OA
ENDBRANCH  70  73
ENDBRANCH  52  66
BRANCH  53  77
ATOM     77  C   UNL A   1      49.576  26.870  26.104  1.00  0.00     0.023 A 
ATOM     78  C   UNL A   1      50.344  26.038  26.939  1.00  0.00     0.012 A 
ATOM     79  C   UNL A   1      50.090  27.262  24.852  1.00  0.00     0.148 A 
ATOM     80  C   UNL A   1      51.606  25.602  26.534  1.00  0.00     0.002 A 
ATOM     81  C   UNL A   1      51.327  26.787  24.438  1.00  0.00     0.091 A 
ATOM     82  F   UNL A   1      49.339  28.061  24.081  1.00  0.00    -0.205 F 
ATOM     83  C   UNL A   1      52.091  25.964  25.281  1.00  0.00     0.022 A 
BRANCH  81  84
ATOM     84  S   UNL A   1      51.982  27.100  22.794  1.00  0.00     0.127 S 
ATOM     85  O   UNL A   1      53.123  26.188  22.749  1.00  0.00    -0.237 OA
ATOM     86  O   UNL A   1      50.854  26.717  21.946  1.00  0.00    -0.237 OA
ATOM     87  O   UNL A   1      52.309  28.519  22.761  1.00  0.00    -0.744 OA
ENDBRANCH  81  84
ENDBRANCH  53  77
BRANCH  65  88
ATOM     88  C   UNL A   1      46.633  32.669  28.673  1.00  0.00     0.023 A 
ATOM     89  C   UNL A   1      47.230  32.949  29.917  1.00  0.00     0.012 A 
ATOM     90  C   UNL A   1      46.637  33.647  27.661  1.00  0.00     0.148 A 
ATOM     91  C   UNL A   1      47.821  34.189  30.153  1.00  0.00     0.002 A 
ATOM     92  C   UNL A   1      47.256  34.870  27.892  1.00  0.00     0.091 A 
ATOM     93  F   UNL A   1      46.053  33.356  26.489  1.00  0.00    -0.205 F 
ATOM     94  C   UNL A   1      47.844  35.143  29.138  1.00  0.00     0.022 A 
BRANCH  92  95
ATOM     95  S   UNL A   1      47.402  36.137  26.627  1.00  0.00     0.127 S 
ATOM     96  O   UNL A   1      47.970  37.250  27.385  1.00  0.00    -0.237 OA
ATOM     97  O   UNL A   1      48.319  35.515  25.672  1.00  0.00    -0.237 OA
ATOM     98  O   UNL A   1      46.053  36.357  26.119  1.00  0.00    -0.744 OA
ENDBRANCH  92  95
ENDBRANCH  65  88
ENDBRANCH  39  40
ENDBRANCH  31  34
ENDBRANCH  29  30
ENDBRANCH  28  29
ENDBRANCH   1  28
TORSDOF 18
ENDMDL
