MODEL 1
REMARK VINA RESULT:     -12.3      0.000      0.000
REMARK SMILES Cc1c(Cl)cc2c(c1C)O[C@@H](C(F)(F)F)C(C(=O)NCCCCCCNC(=O)c1ccc(-c3c4nc(c(-c5cccc(S(=O)(=O)[O-])c5F)c5ccc([nH]5)c(-c5cccc(S(=O)(=O)[O-])c5F)c5nc(c(-c6cccc(S(=O)(=O)[O-])c6F)c6ccc3[nH]6)C=C5)C=C4)cc1)=C2
REMARK SMILES IDX 23 1 22 2 21 3 20 4 19 5 17 6 18 7 16 9 1 10 2 11 3 12 8 13
REMARK SMILES IDX 4 14 5 15 7 16 9 17 6 18 10 19 92 20 11 21 12 22 13 23 14 24
REMARK SMILES IDX 15 25 24 26 25 27 26 28 27 29 28 31 29 32 30 33 91 34 31 35
REMARK SMILES IDX 90 36 32 37 33 38 34 39 84 40 35 41 89 42 83 43 85 44 36 45
REMARK SMILES IDX 88 46 82 47 81 48 37 50 69 51 49 52 68 53 50 54 53 55 67 56
REMARK SMILES IDX 86 57 51 58 52 59 66 61 87 62 54 63 38 64 39 65 47 66 40 67
REMARK SMILES IDX 42 68 48 69 41 70 43 71 44 72 45 73 46 74 70 75 71 76 79 77
REMARK SMILES IDX 72 78 74 79 80 80 73 81 75 82 76 83 77 84 78 85 55 86 56 87
REMARK SMILES IDX 64 88 57 89 59 90 65 91 58 92 60 93 61 94 62 95 63 96
REMARK H PARENT 19 8 26 30 85 49 53 60
REMARK Flexibility Score: inf
ROOT
ATOM      1  C   UNL A   1      35.132  21.946  24.209  1.00  0.00     0.002 C 
ENDROOT
BRANCH   1   2
ATOM      2  C   UNL A   1      34.604  21.078  25.357  1.00  0.00     0.002 C 
BRANCH   2   3
ATOM      3  C   UNL A   1      33.476  20.119  24.973  1.00  0.00     0.021 C 
BRANCH   3   4
ATOM      4  C   UNL A   1      32.175  20.822  24.595  1.00  0.00     0.116 C 
BRANCH   4   5
ATOM      5  N   UNL A   1      31.554  21.457  25.747  1.00  0.00    -0.352 N 
ATOM      6  C   UNL A   1      31.161  22.701  26.109  1.00  0.00     0.251 C 
ATOM      7  O   UNL A   1      30.632  22.782  27.223  1.00  0.00    -0.270 OA
ATOM      8  H   UNL A   1      31.369  20.802  26.458  1.00  0.00     0.163 HD
BRANCH   6   9
ATOM      9  C   UNL A   1      31.321  23.934  25.279  1.00  0.00     0.067 C 
ATOM     10  C   UNL A   1      30.577  29.470  21.855  1.00  0.00     0.046 C 
ATOM     11  C   UNL A   1      30.512  28.195  22.655  1.00  0.00    -0.026 A 
ATOM     12  C   UNL A   1      29.288  27.816  23.254  1.00  0.00     0.045 A 
ATOM     13  C   UNL A   1      31.626  27.340  22.809  1.00  0.00    -0.004 A 
ATOM     14  Cl  UNL A   1      27.854  28.772  23.071  1.00  0.00    -0.084 Cl
ATOM     15  C   UNL A   1      29.172  26.646  24.014  1.00  0.00     0.032 A 
ATOM     16  C   UNL A   1      31.488  26.181  23.601  1.00  0.00     0.131 A 
ATOM     17  C   UNL A   1      32.988  27.603  22.211  1.00  0.00     0.049 C 
ATOM     18  C   UNL A   1      30.279  25.827  24.199  1.00  0.00     0.019 A 
ATOM     19  O   UNL A   1      32.598  25.393  23.717  1.00  0.00    -0.475 OA
ATOM     20  C   UNL A   1      30.188  24.592  24.972  1.00  0.00     0.025 C 
ATOM     21  C   UNL A   1      32.646  24.479  24.835  1.00  0.00     0.314 C 
BRANCH  21  22
ATOM     22  C   UNL A   1      33.458  25.103  25.985  1.00  0.00     0.429 C 
ATOM     23  F   UNL A   1      34.451  25.909  25.546  1.00  0.00    -0.167 F 
ATOM     24  F   UNL A   1      32.660  25.862  26.775  1.00  0.00    -0.167 F 
ATOM     25  F   UNL A   1      34.041  24.171  26.774  1.00  0.00    -0.167 F 
ENDBRANCH  21  22
ENDBRANCH   6   9
ENDBRANCH   4   5
ENDBRANCH   3   4
ENDBRANCH   2   3
ENDBRANCH   1   2
BRANCH   1  26
ATOM     26  C   UNL A   1      36.614  22.317  24.304  1.00  0.00     0.021 C 
BRANCH  26  27
ATOM     27  C   UNL A   1      37.144  22.416  25.731  1.00  0.00     0.116 C 
BRANCH  27  28
ATOM     28  N   UNL A   1      38.143  21.394  26.000  1.00  0.00    -0.352 N 
ATOM     29  C   UNL A   1      39.460  21.548  26.347  1.00  0.00     0.251 C 
ATOM     30  H   UNL A   1      37.831  20.463  25.921  1.00  0.00     0.163 HD
ATOM     31  O   UNL A   1      40.232  20.592  26.288  1.00  0.00    -0.269 OA
BRANCH  29  32
ATOM     32  C   UNL A   1      39.943  22.871  26.788  1.00  0.00     0.039 A 
ATOM     33  C   UNL A   1      40.798  22.952  27.887  1.00  0.00     0.014 A 
ATOM     34  C   UNL A   1      39.543  24.028  26.112  1.00  0.00     0.014 A 
ATOM     35  C   UNL A   1      41.286  24.197  28.286  1.00  0.00     0.010 A 
ATOM     36  C   UNL A   1      40.092  25.256  26.462  1.00  0.00     0.010 A 
ATOM     37  C   UNL A   1      40.953  25.355  27.565  1.00  0.00    -0.014 A 
BRANCH  37  38
ATOM     38  C   UNL A   1      41.472  26.684  27.971  1.00  0.00     0.031 A 
ATOM     39  C   UNL A   1      42.906  27.046  27.695  1.00  0.00     0.074 A 
ATOM     40  C   UNL A   1      40.667  27.543  28.628  1.00  0.00     0.049 A 
ATOM     41  N   UNL A   1      43.545  28.149  27.984  1.00  0.00    -0.248 NA
ATOM     42  C   UNL A   1      43.737  26.031  27.026  1.00  0.00     0.031 C 
ATOM     43  C   UNL A   1      39.278  27.278  29.004  1.00  0.00     0.029 A 
ATOM     44  N   UNL A   1      40.906  28.807  29.105  1.00  0.00    -0.354 N 
ATOM     45  C   UNL A   1      44.851  27.954  27.552  1.00  0.00     0.074 A 
ATOM     46  C   UNL A   1      44.929  26.610  27.027  1.00  0.00     0.031 C 
ATOM     47  C   UNL A   1      38.782  28.353  29.636  1.00  0.00     0.029 A 
ATOM     48  C   UNL A   1      39.823  29.372  29.738  1.00  0.00     0.049 A 
ATOM     49  H   UNL A   1      41.770  29.267  29.005  1.00  0.00     0.167 HD
ATOM     50  C   UNL A   1      45.882  28.830  27.552  1.00  0.00     0.034 A 
ATOM     51  C   UNL A   1      39.685  30.575  30.331  1.00  0.00     0.034 A 
ATOM     52  C   UNL A   1      45.788  30.179  28.038  1.00  0.00     0.049 A 
ATOM     53  C   UNL A   1      40.848  31.532  30.317  1.00  0.00     0.074 A 
ATOM     54  C   UNL A   1      46.755  31.166  28.020  1.00  0.00     0.029 A 
ATOM     55  N   UNL A   1      44.663  30.729  28.634  1.00  0.00    -0.354 N 
ATOM     56  N   UNL A   1      42.031  31.383  29.771  1.00  0.00    -0.248 NA
ATOM     57  C   UNL A   1      40.651  32.832  30.973  1.00  0.00     0.031 C 
ATOM     58  C   UNL A   1      46.226  32.306  28.632  1.00  0.00     0.029 A 
ATOM     59  C   UNL A   1      44.918  32.039  29.004  1.00  0.00     0.049 A 
ATOM     60  H   UNL A   1      43.809  30.259  28.773  1.00  0.00     0.167 HD
ATOM     61  C   UNL A   1      42.710  32.576  29.996  1.00  0.00     0.074 A 
ATOM     62  C   UNL A   1      41.794  33.448  30.702  1.00  0.00     0.031 C 
ATOM     63  C   UNL A   1      43.982  32.910  29.667  1.00  0.00     0.034 A 
BRANCH  50  64
ATOM     64  C   UNL A   1      47.189  28.383  26.949  1.00  0.00     0.023 A 
ATOM     65  C   UNL A   1      48.285  28.116  27.795  1.00  0.00     0.012 A 
ATOM     66  C   UNL A   1      47.308  28.144  25.566  1.00  0.00     0.148 A 
ATOM     67  C   UNL A   1      49.488  27.644  27.272  1.00  0.00     0.002 A 
ATOM     68  C   UNL A   1      48.495  27.626  25.059  1.00  0.00     0.091 A 
ATOM     69  F   UNL A   1      46.262  28.423  24.776  1.00  0.00    -0.205 F 
ATOM     70  C   UNL A   1      49.588  27.386  25.908  1.00  0.00     0.022 A 
BRANCH  68  71
ATOM     71  S   UNL A   1      48.700  27.174  23.333  1.00  0.00     0.127 S 
ATOM     72  O   UNL A   1      47.939  25.927  23.262  1.00  0.00    -0.237 OA
ATOM     73  O   UNL A   1      48.080  28.307  22.645  1.00  0.00    -0.237 OA
ATOM     74  O   UNL A   1      50.134  27.037  23.118  1.00  0.00    -0.744 OA
ENDBRANCH  68  71
ENDBRANCH  50  64
BRANCH  51  75
ATOM     75  C   UNL A   1      38.370  30.966  30.917  1.00  0.00     0.023 A 
ATOM     76  C   UNL A   1      38.130  30.734  32.285  1.00  0.00     0.012 A 
ATOM     77  C   UNL A   1      37.381  31.609  30.147  1.00  0.00     0.148 A 
ATOM     78  C   UNL A   1      36.921  31.113  32.872  1.00  0.00     0.002 A 
ATOM     79  C   UNL A   1      36.204  32.038  30.750  1.00  0.00     0.091 A 
ATOM     80  F   UNL A   1      37.623  31.812  28.845  1.00  0.00    -0.205 F 
ATOM     81  C   UNL A   1      35.964  31.775  32.108  1.00  0.00     0.022 A 
BRANCH  79  82
ATOM     82  S   UNL A   1      34.976  33.022  29.883  1.00  0.00     0.127 S 
ATOM     83  O   UNL A   1      34.433  32.056  28.931  1.00  0.00    -0.237 OA
ATOM     84  O   UNL A   1      34.070  33.395  30.969  1.00  0.00    -0.237 OA
ATOM     85  O   UNL A   1      35.705  34.140  29.298  1.00  0.00    -0.744 OA
ENDBRANCH  79  82
ENDBRANCH  51  75
BRANCH  63  86
ATOM     86  C   UNL A   1      44.479  34.278  30.061  1.00  0.00     0.023 A 
ATOM     87  C   UNL A   1      45.195  34.436  31.264  1.00  0.00     0.012 A 
ATOM     88  C   UNL A   1      44.348  35.376  29.185  1.00  0.00     0.148 A 
ATOM     89  C   UNL A   1      45.754  35.668  31.600  1.00  0.00     0.002 A 
ATOM     90  C   UNL A   1      44.956  36.585  29.501  1.00  0.00     0.091 A 
ATOM     91  F   UNL A   1      43.655  35.208  28.050  1.00  0.00    -0.205 F 
ATOM     92  C   UNL A   1      45.648  36.736  30.713  1.00  0.00     0.022 A 
BRANCH  90  93
ATOM     93  S   UNL A   1      44.970  37.986  28.376  1.00  0.00     0.127 S 
ATOM     94  O   UNL A   1      45.967  38.856  28.998  1.00  0.00    -0.237 OA
ATOM     95  O   UNL A   1      45.396  37.368  27.120  1.00  0.00    -0.237 OA
ATOM     96  O   UNL A   1      43.610  38.509  28.366  1.00  0.00    -0.744 OA
ENDBRANCH  90  93
ENDBRANCH  63  86
ENDBRANCH  37  38
ENDBRANCH  29  32
ENDBRANCH  27  28
ENDBRANCH  26  27
ENDBRANCH   1  26
TORSDOF 17
ENDMDL
MODEL 2
REMARK VINA RESULT:     -12.2      2.632      3.223
REMARK SMILES Cc1c(Cl)cc2c(c1C)O[C@@H](C(F)(F)F)C(C(=O)NCCCCCCNC(=O)c1ccc(-c3c4nc(c(-c5cccc(S(=O)(=O)[O-])c5F)c5ccc([nH]5)c(-c5cccc(S(=O)(=O)[O-])c5F)c5nc(c(-c6cccc(S(=O)(=O)[O-])c6F)c6ccc3[nH]6)C=C5)C=C4)cc1)=C2
REMARK SMILES IDX 23 1 22 2 21 3 20 4 19 5 17 6 18 7 16 9 1 10 2 11 3 12 8 13
REMARK SMILES IDX 4 14 5 15 7 16 9 17 6 18 10 19 92 20 11 21 12 22 13 23 14 24
REMARK SMILES IDX 15 25 24 26 25 27 26 28 27 29 28 31 29 32 30 33 91 34 31 35
REMARK SMILES IDX 90 36 32 37 33 38 34 39 84 40 35 41 89 42 83 43 85 44 36 45
REMARK SMILES IDX 88 46 82 47 81 48 37 50 69 51 49 52 68 53 50 54 53 55 67 56
REMARK SMILES IDX 86 57 51 58 52 59 66 61 87 62 54 63 38 64 39 65 47 66 40 67
REMARK SMILES IDX 42 68 48 69 41 70 43 71 44 72 45 73 46 74 70 75 71 76 79 77
REMARK SMILES IDX 72 78 74 79 80 80 73 81 75 82 76 83 77 84 78 85 55 86 56 87
REMARK SMILES IDX 64 88 57 89 59 90 65 91 58 92 60 93 61 94 62 95 63 96
REMARK H PARENT 19 8 26 30 85 49 53 60
REMARK Flexibility Score: inf
ROOT
ATOM      1  C   UNL A   1      35.043  21.814  26.629  1.00  0.00     0.002 C 
ENDROOT
BRANCH   1   2
ATOM      2  C   UNL A   1      33.550  21.494  26.758  1.00  0.00     0.002 C 
BRANCH   2   3
ATOM      3  C   UNL A   1      32.955  20.715  25.584  1.00  0.00     0.021 C 
BRANCH   3   4
ATOM      4  C   UNL A   1      32.411  21.606  24.470  1.00  0.00     0.116 C 
BRANCH   4   5
ATOM      5  N   UNL A   1      33.477  22.115  23.622  1.00  0.00    -0.352 N 
ATOM      6  C   UNL A   1      33.902  23.317  23.168  1.00  0.00     0.251 C 
ATOM      7  O   UNL A   1      34.912  23.284  22.457  1.00  0.00    -0.270 OA
ATOM      8  H   UNL A   1      34.046  21.385  23.286  1.00  0.00     0.163 HD
BRANCH   6   9
ATOM      9  C   UNL A   1      33.252  24.631  23.461  1.00  0.00     0.067 C 
ATOM     10  C   UNL A   1      31.496  30.530  25.706  1.00  0.00     0.046 C 
ATOM     11  C   UNL A   1      32.059  29.175  25.363  1.00  0.00    -0.026 A 
ATOM     12  C   UNL A   1      33.273  28.761  25.960  1.00  0.00     0.045 A 
ATOM     13  C   UNL A   1      31.406  28.283  24.485  1.00  0.00    -0.004 A 
ATOM     14  Cl  UNL A   1      34.116  29.765  27.094  1.00  0.00    -0.084 Cl
ATOM     15  C   UNL A   1      33.846  27.517  25.672  1.00  0.00     0.032 A 
ATOM     16  C   UNL A   1      32.019  27.047  24.193  1.00  0.00     0.131 A 
ATOM     17  C   UNL A   1      30.097  28.579  23.792  1.00  0.00     0.049 C 
ATOM     18  C   UNL A   1      33.223  26.656  24.777  1.00  0.00     0.019 A 
ATOM     19  O   UNL A   1      31.342  26.226  23.336  1.00  0.00    -0.475 OA
ATOM     20  C   UNL A   1      33.786  25.346  24.468  1.00  0.00     0.025 C 
ATOM     21  C   UNL A   1      32.105  25.192  22.673  1.00  0.00     0.314 C 
BRANCH  21  22
ATOM     22  C   UNL A   1      32.512  25.664  21.266  1.00  0.00     0.429 C 
ATOM     23  F   UNL A   1      32.797  24.638  20.432  1.00  0.00    -0.167 F 
ATOM     24  F   UNL A   1      31.507  26.366  20.688  1.00  0.00    -0.167 F 
ATOM     25  F   UNL A   1      33.606  26.460  21.281  1.00  0.00    -0.167 F 
ENDBRANCH  21  22
ENDBRANCH   6   9
ENDBRANCH   4   5
ENDBRANCH   3   4
ENDBRANCH   2   3
ENDBRANCH   1   2
BRANCH   1  26
ATOM     26  C   UNL A   1      35.380  23.300  26.488  1.00  0.00     0.021 C 
BRANCH  26  27
ATOM     27  C   UNL A   1      36.699  23.578  25.774  1.00  0.00     0.116 C 
BRANCH  27  28
ATOM     28  N   UNL A   1      37.686  22.550  26.062  1.00  0.00    -0.352 N 
ATOM     29  C   UNL A   1      38.991  22.697  26.454  1.00  0.00     0.251 C 
ATOM     30  H   UNL A   1      37.375  21.622  25.960  1.00  0.00     0.163 HD
ATOM     31  O   UNL A   1      39.763  21.740  26.407  1.00  0.00    -0.269 OA
BRANCH  29  32
ATOM     32  C   UNL A   1      39.462  24.012  26.929  1.00  0.00     0.039 A 
ATOM     33  C   UNL A   1      40.030  24.902  26.017  1.00  0.00     0.014 A 
ATOM     34  C   UNL A   1      39.343  24.358  28.279  1.00  0.00     0.014 A 
ATOM     35  C   UNL A   1      40.444  26.161  26.455  1.00  0.00     0.010 A 
ATOM     36  C   UNL A   1      39.682  25.639  28.696  1.00  0.00     0.010 A 
ATOM     37  C   UNL A   1      40.255  26.546  27.793  1.00  0.00    -0.014 A 
BRANCH  37  38
ATOM     38  C   UNL A   1      40.681  27.885  28.271  1.00  0.00     0.031 A 
ATOM     39  C   UNL A   1      42.141  28.247  28.282  1.00  0.00     0.074 A 
ATOM     40  C   UNL A   1      39.761  28.752  28.736  1.00  0.00     0.049 A 
ATOM     41  N   UNL A   1      42.709  29.358  28.673  1.00  0.00    -0.248 NA
ATOM     42  C   UNL A   1      43.090  27.223  27.812  1.00  0.00     0.031 C 
ATOM     43  C   UNL A   1      38.324  28.488  28.831  1.00  0.00     0.029 A 
ATOM     44  N   UNL A   1      39.898  30.025  29.229  1.00  0.00    -0.354 N 
ATOM     45  C   UNL A   1      44.075  29.160  28.516  1.00  0.00     0.074 A 
ATOM     46  C   UNL A   1      44.257  27.807  28.042  1.00  0.00     0.031 C 
ATOM     47  C   UNL A   1      37.711  29.572  29.330  1.00  0.00     0.029 A 
ATOM     48  C   UNL A   1      38.710  30.597  29.621  1.00  0.00     0.049 A 
ATOM     49  H   UNL A   1      40.765  30.487  29.296  1.00  0.00     0.167 HD
ATOM     50  C   UNL A   1      45.085  30.040  28.708  1.00  0.00     0.034 A 
ATOM     51  C   UNL A   1      38.455  31.810  30.151  1.00  0.00     0.034 A 
ATOM     52  C   UNL A   1      44.894  31.397  29.140  1.00  0.00     0.049 A 
ATOM     53  C   UNL A   1      39.597  32.771  30.354  1.00  0.00     0.074 A 
ATOM     54  C   UNL A   1      45.846  32.387  29.299  1.00  0.00     0.029 A 
ATOM     55  N   UNL A   1      43.673  31.953  29.487  1.00  0.00    -0.354 N 
ATOM     56  N   UNL A   1      40.866  32.617  30.060  1.00  0.00    -0.248 NA
ATOM     57  C   UNL A   1      39.272  34.082  30.933  1.00  0.00     0.031 C 
ATOM     58  C   UNL A   1      45.204  33.535  29.770  1.00  0.00     0.029 A 
ATOM     59  C   UNL A   1      43.848  33.270  29.877  1.00  0.00     0.049 A 
ATOM     60  H   UNL A   1      42.809  31.483  29.461  1.00  0.00     0.167 HD
ATOM     61  C   UNL A   1      41.485  33.816  30.395  1.00  0.00     0.074 A 
ATOM     62  C   UNL A   1      40.446  34.698  30.886  1.00  0.00     0.031 C 
ATOM     63  C   UNL A   1      42.797  34.150  30.322  1.00  0.00     0.034 A 
BRANCH  50  64
ATOM     64  C   UNL A   1      46.486  29.588  28.388  1.00  0.00     0.023 A 
ATOM     65  C   UNL A   1      47.009  29.816  27.098  1.00  0.00     0.012 A 
ATOM     66  C   UNL A   1      47.313  29.021  29.378  1.00  0.00     0.148 A 
ATOM     67  C   UNL A   1      48.322  29.464  26.789  1.00  0.00     0.002 A 
ATOM     68  C   UNL A   1      48.636  28.719  29.077  1.00  0.00     0.091 A 
ATOM     69  F   UNL A   1      46.793  28.794  30.592  1.00  0.00    -0.205 F 
ATOM     70  C   UNL A   1      49.138  28.929  27.781  1.00  0.00     0.022 A 
BRANCH  68  71
ATOM     71  S   UNL A   1      49.798  28.108  30.303  1.00  0.00     0.127 S 
ATOM     72  O   UNL A   1      49.762  29.178  31.301  1.00  0.00    -0.237 OA
ATOM     73  O   UNL A   1      49.168  26.858  30.725  1.00  0.00    -0.237 OA
ATOM     74  O   UNL A   1      51.070  27.951  29.612  1.00  0.00    -0.744 OA
ENDBRANCH  68  71
ENDBRANCH  50  64
BRANCH  51  75
ATOM     75  C   UNL A   1      37.049  32.206  30.454  1.00  0.00     0.023 A 
ATOM     76  C   UNL A   1      36.545  32.015  31.755  1.00  0.00     0.012 A 
ATOM     77  C   UNL A   1      36.229  32.814  29.484  1.00  0.00     0.148 A 
ATOM     78  C   UNL A   1      35.243  32.401  32.079  1.00  0.00     0.002 A 
ATOM     79  C   UNL A   1      34.955  33.250  29.828  1.00  0.00     0.091 A 
ATOM     80  F   UNL A   1      36.722  32.978  28.248  1.00  0.00    -0.205 F 
ATOM     81  C   UNL A   1      34.453  33.029  31.121  1.00  0.00     0.022 A 
BRANCH  79  82
ATOM     82  S   UNL A   1      33.918  34.194  28.704  1.00  0.00     0.127 S 
ATOM     83  O   UNL A   1      32.834  34.623  29.585  1.00  0.00    -0.237 OA
ATOM     84  O   UNL A   1      34.827  35.258  28.280  1.00  0.00    -0.237 OA
ATOM     85  O   UNL A   1      33.538  33.269  27.644  1.00  0.00    -0.744 OA
ENDBRANCH  79  82
ENDBRANCH  51  75
BRANCH  63  86
ATOM     86  C   UNL A   1      43.205  35.527  30.782  1.00  0.00     0.023 A 
ATOM     87  C   UNL A   1      43.602  35.721  32.120  1.00  0.00     0.012 A 
ATOM     88  C   UNL A   1      43.315  36.593  29.866  1.00  0.00     0.148 A 
ATOM     89  C   UNL A   1      44.081  36.959  32.545  1.00  0.00     0.002 A 
ATOM     90  C   UNL A   1      43.846  37.807  30.284  1.00  0.00     0.091 A 
ATOM     91  F   UNL A   1      42.922  36.391  28.601  1.00  0.00    -0.205 F 
ATOM     92  C   UNL A   1      44.218  37.996  31.625  1.00  0.00     0.022 A 
BRANCH  90  93
ATOM     93  S   UNL A   1      44.163  39.168  29.153  1.00  0.00     0.127 S 
ATOM     94  O   UNL A   1      44.402  38.460  27.897  1.00  0.00    -0.237 OA
ATOM     95  O   UNL A   1      42.904  39.910  29.206  1.00  0.00    -0.237 OA
ATOM     96  O   UNL A   1      45.313  39.881  29.693  1.00  0.00    -0.744 OA
ENDBRANCH  90  93
ENDBRANCH  63  86
ENDBRANCH  37  38
ENDBRANCH  29  32
ENDBRANCH  27  28
ENDBRANCH  26  27
ENDBRANCH   1  26
TORSDOF 17
ENDMDL
MODEL 3
REMARK VINA RESULT:     -12.1      5.077      9.699
REMARK SMILES Cc1c(Cl)cc2c(c1C)O[C@@H](C(F)(F)F)C(C(=O)NCCCCCCNC(=O)c1ccc(-c3c4nc(c(-c5cccc(S(=O)(=O)[O-])c5F)c5ccc([nH]5)c(-c5cccc(S(=O)(=O)[O-])c5F)c5nc(c(-c6cccc(S(=O)(=O)[O-])c6F)c6ccc3[nH]6)C=C5)C=C4)cc1)=C2
REMARK SMILES IDX 23 1 22 2 21 3 20 4 19 5 17 6 18 7 16 9 1 10 2 11 3 12 8 13
REMARK SMILES IDX 4 14 5 15 7 16 9 17 6 18 10 19 92 20 11 21 12 22 13 23 14 24
REMARK SMILES IDX 15 25 24 26 25 27 26 28 27 29 28 31 29 32 30 33 91 34 31 35
REMARK SMILES IDX 90 36 32 37 33 38 34 39 84 40 35 41 89 42 83 43 85 44 36 45
REMARK SMILES IDX 88 46 82 47 81 48 37 50 69 51 49 52 68 53 50 54 53 55 67 56
REMARK SMILES IDX 86 57 51 58 52 59 66 61 87 62 54 63 38 64 39 65 47 66 40 67
REMARK SMILES IDX 42 68 48 69 41 70 43 71 44 72 45 73 46 74 70 75 71 76 79 77
REMARK SMILES IDX 72 78 74 79 80 80 73 81 75 82 76 83 77 84 78 85 55 86 56 87
REMARK SMILES IDX 64 88 57 89 59 90 65 91 58 92 60 93 61 94 62 95 63 96
REMARK H PARENT 19 8 26 30 85 49 53 60
REMARK Flexibility Score: inf
ROOT
ATOM      1  C   UNL A   1      33.720  28.620  24.108  1.00  0.00     0.002 C 
ENDROOT
BRANCH   1   2
ATOM      2  C   UNL A   1      32.804  28.607  22.879  1.00  0.00     0.002 C 
BRANCH   2   3
ATOM      3  C   UNL A   1      32.144  27.260  22.582  1.00  0.00     0.021 C 
BRANCH   3   4
ATOM      4  C   UNL A   1      30.690  27.176  23.036  1.00  0.00     0.116 C 
BRANCH   4   5
ATOM      5  N   UNL A   1      30.580  27.157  24.486  1.00  0.00    -0.352 N 
ATOM      6  C   UNL A   1      31.013  26.383  25.509  1.00  0.00     0.251 C 
ATOM      7  O   UNL A   1      30.690  26.771  26.636  1.00  0.00    -0.270 OA
ATOM      8  H   UNL A   1      30.045  27.915  24.813  1.00  0.00     0.163 HD
BRANCH   6   9
ATOM      9  C   UNL A   1      31.826  25.137  25.366  1.00  0.00     0.067 C 
ATOM     10  C   UNL A   1      36.510  20.566  25.045  1.00  0.00     0.046 C 
ATOM     11  C   UNL A   1      35.610  21.772  25.137  1.00  0.00    -0.026 A 
ATOM     12  C   UNL A   1      36.159  23.015  25.528  1.00  0.00     0.045 A 
ATOM     13  C   UNL A   1      34.236  21.717  24.821  1.00  0.00    -0.004 A 
ATOM     14  Cl  UNL A   1      37.848  23.191  25.881  1.00  0.00    -0.084 Cl
ATOM     15  C   UNL A   1      35.370  24.166  25.639  1.00  0.00     0.032 A 
ATOM     16  C   UNL A   1      33.458  22.885  24.965  1.00  0.00     0.131 A 
ATOM     17  C   UNL A   1      33.516  20.467  24.370  1.00  0.00     0.049 C 
ATOM     18  C   UNL A   1      34.009  24.102  25.366  1.00  0.00     0.019 A 
ATOM     19  O   UNL A   1      32.134  22.772  24.646  1.00  0.00    -0.475 OA
ATOM     20  C   UNL A   1      33.161  25.286  25.455  1.00  0.00     0.025 C 
ATOM     21  C   UNL A   1      31.238  23.768  25.187  1.00  0.00     0.314 C 
BRANCH  21  22
ATOM     22  C   UNL A   1      30.566  23.229  26.463  1.00  0.00     0.429 C 
ATOM     23  F   UNL A   1      30.119  21.960  26.322  1.00  0.00    -0.167 F 
ATOM     24  F   UNL A   1      31.443  23.219  27.497  1.00  0.00    -0.167 F 
ATOM     25  F   UNL A   1      29.500  23.971  26.842  1.00  0.00    -0.167 F 
ENDBRANCH  21  22
ENDBRANCH   6   9
ENDBRANCH   4   5
ENDBRANCH   3   4
ENDBRANCH   2   3
ENDBRANCH   1   2
BRANCH   1  26
ATOM     26  C   UNL A   1      33.132  29.292  25.351  1.00  0.00     0.021 C 
BRANCH  26  27
ATOM     27  C   UNL A   1      34.134  29.503  26.482  1.00  0.00     0.116 C 
BRANCH  27  28
ATOM     28  N   UNL A   1      33.961  30.803  27.111  1.00  0.00    -0.352 N 
ATOM     29  C   UNL A   1      34.655  31.351  28.158  1.00  0.00     0.251 C 
ATOM     30  H   UNL A   1      33.247  31.366  26.732  1.00  0.00     0.163 HD
ATOM     31  O   UNL A   1      34.220  32.347  28.735  1.00  0.00    -0.269 OA
BRANCH  29  32
ATOM     32  C   UNL A   1      35.924  30.734  28.588  1.00  0.00     0.039 A 
ATOM     33  C   UNL A   1      37.129  31.245  28.104  1.00  0.00     0.014 A 
ATOM     34  C   UNL A   1      35.917  29.648  29.469  1.00  0.00     0.014 A 
ATOM     35  C   UNL A   1      38.333  30.689  28.536  1.00  0.00     0.010 A 
ATOM     36  C   UNL A   1      37.117  29.147  29.958  1.00  0.00     0.010 A 
ATOM     37  C   UNL A   1      38.337  29.649  29.481  1.00  0.00    -0.014 A 
BRANCH  37  38
ATOM     38  C   UNL A   1      39.610  29.053  29.957  1.00  0.00     0.031 A 
ATOM     39  C   UNL A   1      40.285  29.607  31.182  1.00  0.00     0.074 A 
ATOM     40  C   UNL A   1      40.179  28.049  29.262  1.00  0.00     0.049 A 
ATOM     41  N   UNL A   1      41.404  29.232  31.744  1.00  0.00    -0.248 NA
ATOM     42  C   UNL A   1      39.631  30.744  31.853  1.00  0.00     0.031 C 
ATOM     43  C   UNL A   1      39.647  27.472  28.026  1.00  0.00     0.029 A 
ATOM     44  N   UNL A   1      41.334  27.345  29.488  1.00  0.00    -0.354 N 
ATOM     45  C   UNL A   1      41.597  30.094  32.817  1.00  0.00     0.074 A 
ATOM     46  C   UNL A   1      40.508  31.044  32.800  1.00  0.00     0.031 C 
ATOM     47  C   UNL A   1      40.464  26.489  27.615  1.00  0.00     0.029 A 
ATOM     48  C   UNL A   1      41.591  26.385  28.537  1.00  0.00     0.049 A 
ATOM     49  H   UNL A   1      41.924  27.510  30.259  1.00  0.00     0.167 HD
ATOM     50  C   UNL A   1      42.569  30.070  33.757  1.00  0.00     0.034 A 
ATOM     51  C   UNL A   1      42.618  25.519  28.422  1.00  0.00     0.034 A 
ATOM     52  C   UNL A   1      43.626  29.097  33.792  1.00  0.00     0.049 A 
ATOM     53  C   UNL A   1      43.687  25.513  29.484  1.00  0.00     0.074 A 
ATOM     54  C   UNL A   1      44.620  28.946  34.742  1.00  0.00     0.029 A 
ATOM     55  N   UNL A   1      43.831  28.114  32.836  1.00  0.00    -0.354 N 
ATOM     56  N   UNL A   1      43.772  26.239  30.572  1.00  0.00    -0.248 NA
ATOM     57  C   UNL A   1      44.786  24.550  29.319  1.00  0.00     0.031 C 
ATOM     58  C   UNL A   1      45.444  27.890  34.344  1.00  0.00     0.029 A 
ATOM     59  C   UNL A   1      44.946  27.363  33.162  1.00  0.00     0.049 A 
ATOM     60  H   UNL A   1      43.266  27.972  32.042  1.00  0.00     0.167 HD
ATOM     61  C   UNL A   1      44.917  25.806  31.233  1.00  0.00     0.074 A 
ATOM     62  C   UNL A   1      45.476  24.733  30.437  1.00  0.00     0.031 C 
ATOM     63  C   UNL A   1      45.467  26.269  32.383  1.00  0.00     0.034 A 
BRANCH  50  64
ATOM     64  C   UNL A   1      42.502  31.085  34.869  1.00  0.00     0.023 A 
ATOM     65  C   UNL A   1      41.902  30.729  36.095  1.00  0.00     0.012 A 
ATOM     66  C   UNL A   1      43.103  32.352  34.736  1.00  0.00     0.148 A 
ATOM     67  C   UNL A   1      41.879  31.625  37.162  1.00  0.00     0.002 A 
ATOM     68  C   UNL A   1      43.119  33.221  35.821  1.00  0.00     0.091 A 
ATOM     69  F   UNL A   1      43.650  32.679  33.557  1.00  0.00    -0.205 F 
ATOM     70  C   UNL A   1      42.498  32.865  37.029  1.00  0.00     0.022 A 
BRANCH  68  71
ATOM     71  S   UNL A   1      43.966  34.805  35.786  1.00  0.00     0.127 S 
ATOM     72  O   UNL A   1      45.340  34.398  35.487  1.00  0.00    -0.237 OA
ATOM     73  O   UNL A   1      43.282  35.493  34.691  1.00  0.00    -0.237 OA
ATOM     74  O   UNL A   1      43.769  35.398  37.100  1.00  0.00    -0.744 OA
ENDBRANCH  68  71
ENDBRANCH  50  64
BRANCH  51  75
ATOM     75  C   UNL A   1      42.638  24.537  27.300  1.00  0.00     0.023 A 
ATOM     76  C   UNL A   1      43.289  24.878  26.099  1.00  0.00     0.012 A 
ATOM     77  C   UNL A   1      42.067  23.256  27.430  1.00  0.00     0.148 A 
ATOM     78  C   UNL A   1      43.351  23.972  25.038  1.00  0.00     0.002 A 
ATOM     79  C   UNL A   1      42.182  22.338  26.393  1.00  0.00     0.091 A 
ATOM     80  F   UNL A   1      41.441  22.954  28.576  1.00  0.00    -0.205 F 
ATOM     81  C   UNL A   1      42.809  22.699  25.190  1.00  0.00     0.022 A 
BRANCH  79  82
ATOM     82  S   UNL A   1      41.642  20.631  26.547  1.00  0.00     0.127 S 
ATOM     83  O   UNL A   1      40.194  20.760  26.401  1.00  0.00    -0.237 OA
ATOM     84  O   UNL A   1      42.323  19.998  25.418  1.00  0.00    -0.237 OA
ATOM     85  O   UNL A   1      42.106  20.186  27.855  1.00  0.00    -0.744 OA
ENDBRANCH  79  82
ENDBRANCH  51  75
BRANCH  63  86
ATOM     86  C   UNL A   1      46.743  25.628  32.866  1.00  0.00     0.023 A 
ATOM     87  C   UNL A   1      47.982  26.179  32.487  1.00  0.00     0.012 A 
ATOM     88  C   UNL A   1      46.713  24.565  33.792  1.00  0.00     0.148 A 
ATOM     89  C   UNL A   1      49.173  25.670  33.003  1.00  0.00     0.002 A 
ATOM     90  C   UNL A   1      47.900  24.100  34.344  1.00  0.00     0.091 A 
ATOM     91  F   UNL A   1      45.524  24.047  34.133  1.00  0.00    -0.205 F 
ATOM     92  C   UNL A   1      49.131  24.642  33.942  1.00  0.00     0.022 A 
BRANCH  90  93
ATOM     93  S   UNL A   1      47.945  22.855  35.640  1.00  0.00     0.127 S 
ATOM     94  O   UNL A   1      49.384  22.695  35.849  1.00  0.00    -0.237 OA
ATOM     95  O   UNL A   1      47.240  23.525  36.733  1.00  0.00    -0.237 OA
ATOM     96  O   UNL A   1      47.263  21.687  35.102  1.00  0.00    -0.744 OA
ENDBRANCH  90  93
ENDBRANCH  63  86
ENDBRANCH  37  38
ENDBRANCH  29  32
ENDBRANCH  27  28
ENDBRANCH  26  27
ENDBRANCH   1  26
TORSDOF 17
ENDMDL
