MODEL 1
REMARK VINA RESULT:     -12.0      0.000      0.000
REMARK SMILES O=C(NCCCCCCNC(=O)[C@@H]1[C@H](C(=O)NCc2ccncc2)[C@H]2C=C[C@@H]1O2)c1ccc(-c2c3nc(c(-c4cccc(S(=O)(=O)[O-])c4F)c4ccc([nH]4)c(-c4cccc(S(=O)(=O)[O-])c4F)c4nc(c(-c5cccc(S(=O)(=O)[O-])c5F)c5ccc2[nH]5)C=C4)C=C3)cc1
REMARK SMILES IDX 6 1 5 2 4 3 3 4 1 5 2 6 30 8 31 9 92 10 32 11 91 12 33 13
REMARK SMILES IDX 34 14 35 15 85 16 36 17 90 18 84 19 86 20 37 21 89 22 83 23
REMARK SMILES IDX 82 24 38 26 70 27 50 28 69 29 51 30 54 31 68 32 87 33 52 34
REMARK SMILES IDX 53 35 67 37 88 38 55 39 39 40 40 41 48 42 41 43 43 44 49 45
REMARK SMILES IDX 42 46 44 47 45 48 46 49 47 50 71 51 72 52 80 53 73 54 75 55
REMARK SMILES IDX 81 56 74 57 76 58 77 59 78 60 79 61 56 62 57 63 65 64 58 65
REMARK SMILES IDX 60 66 66 67 59 68 61 69 62 70 63 71 64 72 7 73 8 74 9 75
REMARK SMILES IDX 10 76 11 77 12 79 13 80 14 81 28 82 25 83 27 84 29 85 26 86
REMARK SMILES IDX 15 87 16 88 17 89 18 91 19 92 20 93 24 94 21 95 23 96 22 97
REMARK H PARENT 3 7 86 25 54 36 10 78 17 90
REMARK Flexibility Score: inf
ROOT
ATOM      1  C   UNL A   1      31.040  28.731  24.164  1.00  0.00     0.002 C 
ENDROOT
BRANCH   1   2
ATOM      2  C   UNL A   1      32.565  28.755  24.068  1.00  0.00     0.021 C 
BRANCH   2   3
ATOM      3  C   UNL A   1      33.262  29.231  25.336  1.00  0.00     0.116 C 
BRANCH   3   4
ATOM      4  N   UNL A   1      32.722  30.495  25.808  1.00  0.00    -0.352 N 
ATOM      5  O   UNL A   1      32.431  32.190  27.266  1.00  0.00    -0.269 OA
ATOM      6  C   UNL A   1      33.133  31.260  26.870  1.00  0.00     0.251 C 
ATOM      7  H   UNL A   1      31.959  30.850  25.297  1.00  0.00     0.163 HD
BRANCH   6   8
ATOM      8  C   UNL A   1      34.408  30.941  27.544  1.00  0.00     0.039 A 
ATOM      9  C   UNL A   1      34.633  29.665  28.070  1.00  0.00     0.014 A 
ATOM     10  C   UNL A   1      35.384  31.933  27.656  1.00  0.00     0.014 A 
ATOM     11  C   UNL A   1      35.777  29.418  28.822  1.00  0.00     0.010 A 
ATOM     12  C   UNL A   1      36.567  31.657  28.342  1.00  0.00     0.010 A 
ATOM     13  C   UNL A   1      36.761  30.408  28.955  1.00  0.00    -0.014 A 
BRANCH  13  14
ATOM     14  C   UNL A   1      38.020  30.117  29.686  1.00  0.00     0.031 A 
ATOM     15  C   UNL A   1      39.034  29.164  29.122  1.00  0.00     0.074 A 
ATOM     16  C   UNL A   1      38.215  30.679  30.894  1.00  0.00     0.049 A 
ATOM     17  N   UNL A   1      40.142  28.728  29.661  1.00  0.00    -0.248 NA
ATOM     18  C   UNL A   1      38.764  28.620  27.781  1.00  0.00     0.031 C 
ATOM     19  C   UNL A   1      37.286  31.598  31.554  1.00  0.00     0.029 A 
ATOM     20  N   UNL A   1      39.240  30.538  31.794  1.00  0.00    -0.354 N 
ATOM     21  C   UNL A   1      40.678  27.822  28.753  1.00  0.00     0.074 A 
ATOM     22  C   UNL A   1      39.770  27.769  27.627  1.00  0.00     0.031 C 
ATOM     23  C   UNL A   1      37.777  31.930  32.757  1.00  0.00     0.029 A 
ATOM     24  C   UNL A   1      39.021  31.203  32.977  1.00  0.00     0.049 A 
ATOM     25  H   UNL A   1      40.052  30.011  31.611  1.00  0.00     0.167 HD
ATOM     26  C   UNL A   1      41.825  27.106  28.848  1.00  0.00     0.034 A 
ATOM     27  C   UNL A   1      39.719  31.199  34.128  1.00  0.00     0.034 A 
ATOM     28  C   UNL A   1      42.726  27.176  29.967  1.00  0.00     0.049 A 
ATOM     29  C   UNL A   1      40.982  30.393  34.212  1.00  0.00     0.074 A 
ATOM     30  C   UNL A   1      43.945  26.541  30.131  1.00  0.00     0.029 A 
ATOM     31  N   UNL A   1      42.500  27.909  31.123  1.00  0.00    -0.354 N 
ATOM     32  N   UNL A   1      41.533  29.631  33.299  1.00  0.00    -0.248 NA
ATOM     33  C   UNL A   1      41.735  30.466  35.471  1.00  0.00     0.031 C 
ATOM     34  C   UNL A   1      44.435  26.856  31.402  1.00  0.00     0.029 A 
ATOM     35  C   UNL A   1      43.546  27.729  32.012  1.00  0.00     0.049 A 
ATOM     36  H   UNL A   1      41.710  28.473  31.288  1.00  0.00     0.167 HD
ATOM     37  C   UNL A   1      42.720  29.168  33.855  1.00  0.00     0.074 A 
ATOM     38  C   UNL A   1      42.807  29.739  35.184  1.00  0.00     0.031 C 
ATOM     39  C   UNL A   1      43.648  28.344  33.312  1.00  0.00     0.034 A 
BRANCH  26  40
ATOM     40  C   UNL A   1      42.172  26.184  27.705  1.00  0.00     0.023 A 
ATOM     41  C   UNL A   1      42.980  26.648  26.646  1.00  0.00     0.012 A 
ATOM     42  C   UNL A   1      41.729  24.847  27.697  1.00  0.00     0.148 A 
ATOM     43  C   UNL A   1      43.302  25.812  25.578  1.00  0.00     0.002 A 
ATOM     44  C   UNL A   1      42.095  24.004  26.653  1.00  0.00     0.091 A 
ATOM     45  F   UNL A   1      40.947  24.424  28.701  1.00  0.00    -0.205 F 
ATOM     46  C   UNL A   1      42.868  24.489  25.586  1.00  0.00     0.022 A 
BRANCH  44  47
ATOM     47  S   UNL A   1      41.654  22.264  26.617  1.00  0.00     0.127 S 
ATOM     48  O   UNL A   1      42.286  21.826  25.373  1.00  0.00    -0.237 OA
ATOM     49  O   UNL A   1      42.291  21.759  27.835  1.00  0.00    -0.237 OA
ATOM     50  O   UNL A   1      40.199  22.219  26.632  1.00  0.00    -0.744 OA
ENDBRANCH  44  47
ENDBRANCH  26  40
BRANCH  27  51
ATOM     51  C   UNL A   1      39.236  32.014  35.276  1.00  0.00     0.023 A 
ATOM     52  C   UNL A   1      39.362  33.415  35.234  1.00  0.00     0.012 A 
ATOM     53  C   UNL A   1      38.587  31.410  36.371  1.00  0.00     0.148 A 
ATOM     54  C   UNL A   1      38.867  34.202  36.275  1.00  0.00     0.002 A 
ATOM     55  C   UNL A   1      38.047  32.203  37.376  1.00  0.00     0.091 A 
ATOM     56  F   UNL A   1      38.481  30.075  36.388  1.00  0.00    -0.205 F 
ATOM     57  C   UNL A   1      38.200  33.598  37.339  1.00  0.00     0.022 A 
BRANCH  55  58
ATOM     58  S   UNL A   1      37.055  31.528  38.713  1.00  0.00     0.127 S 
ATOM     59  O   UNL A   1      35.902  32.425  38.710  1.00  0.00    -0.237 OA
ATOM     60  O   UNL A   1      36.785  30.174  38.229  1.00  0.00    -0.237 OA
ATOM     61  O   UNL A   1      37.896  31.590  39.900  1.00  0.00    -0.744 OA
ENDBRANCH  55  58
ENDBRANCH  27  51
BRANCH  39  62
ATOM     62  C   UNL A   1      44.885  28.049  34.120  1.00  0.00     0.023 A 
ATOM     63  C   UNL A   1      45.996  28.911  34.061  1.00  0.00     0.012 A 
ATOM     64  C   UNL A   1      44.900  26.959  35.014  1.00  0.00     0.148 A 
ATOM     65  C   UNL A   1      47.113  28.680  34.864  1.00  0.00     0.002 A 
ATOM     66  C   UNL A   1      45.992  26.766  35.849  1.00  0.00     0.091 A 
ATOM     67  F   UNL A   1      43.839  26.138  35.037  1.00  0.00    -0.205 F 
ATOM     68  C   UNL A   1      47.104  27.619  35.768  1.00  0.00     0.022 A 
BRANCH  66  69
ATOM     69  S   UNL A   1      46.025  25.490  37.112  1.00  0.00     0.127 S 
ATOM     70  O   UNL A   1      44.858  25.840  37.920  1.00  0.00    -0.237 OA
ATOM     71  O   UNL A   1      45.877  24.269  36.321  1.00  0.00    -0.237 OA
ATOM     72  O   UNL A   1      47.310  25.623  37.787  1.00  0.00    -0.744 OA
ENDBRANCH  66  69
ENDBRANCH  39  62
ENDBRANCH  13  14
ENDBRANCH   6   8
ENDBRANCH   3   4
ENDBRANCH   2   3
ENDBRANCH   1   2
BRANCH   1  73
ATOM     73  C   UNL A   1      30.432  27.327  24.259  1.00  0.00     0.002 C 
BRANCH  73  74
ATOM     74  C   UNL A   1      30.700  26.596  25.584  1.00  0.00     0.021 C 
BRANCH  74  75
ATOM     75  C   UNL A   1      30.867  25.083  25.436  1.00  0.00     0.116 C 
BRANCH  75  76
ATOM     76  N   UNL A   1      31.389  24.529  26.668  1.00  0.00    -0.356 N 
ATOM     77  C   UNL A   1      32.370  23.592  26.758  1.00  0.00     0.227 C 
ATOM     78  H   UNL A   1      31.002  24.858  27.511  1.00  0.00     0.163 HD
ATOM     79  O   UNL A   1      32.163  22.623  27.484  1.00  0.00    -0.275 OA
BRANCH  77  80
ATOM     80  C   UNL A   1      33.582  23.713  25.867  1.00  0.00     0.127 C 
ATOM     81  C   UNL A   1      33.558  22.844  24.580  1.00  0.00     0.127 C 
ATOM     82  C   UNL A   1      34.916  23.263  26.501  1.00  0.00     0.155 C 
ATOM     83  C   UNL A   1      34.910  22.132  24.642  1.00  0.00     0.155 C 
ATOM     84  C   UNL A   1      36.050  23.812  25.680  1.00  0.00     0.004 C 
ATOM     85  O   UNL A   1      35.010  21.885  26.067  1.00  0.00    -0.365 OA
ATOM     86  C   UNL A   1      36.034  23.127  24.526  1.00  0.00     0.004 C 
BRANCH  81  87
ATOM     87  C   UNL A   1      32.394  21.900  24.293  1.00  0.00     0.227 C 
ATOM     88  O   UNL A   1      31.561  22.254  23.442  1.00  0.00    -0.275 OA
ATOM     89  N   UNL A   1      32.173  20.682  24.839  1.00  0.00    -0.352 N 
ATOM     90  H   UNL A   1      31.315  20.295  24.550  1.00  0.00     0.163 HD
BRANCH  89  91
ATOM     91  C   UNL A   1      32.892  19.805  25.748  1.00  0.00     0.151 C 
BRANCH  91  92
ATOM     92  C   UNL A   1      33.176  18.427  25.205  1.00  0.00    -0.026 A 
ATOM     93  C   UNL A   1      32.530  17.306  25.744  1.00  0.00     0.025 A 
ATOM     94  C   UNL A   1      34.120  18.211  24.195  1.00  0.00     0.025 A 
ATOM     95  C   UNL A   1      32.826  16.048  25.236  1.00  0.00     0.111 A 
ATOM     96  C   UNL A   1      34.347  16.914  23.754  1.00  0.00     0.111 A 
ATOM     97  N   UNL A   1      33.719  15.828  24.250  1.00  0.00    -0.265 NA
ENDBRANCH  91  92
ENDBRANCH  89  91
ENDBRANCH  81  87
ENDBRANCH  77  80
ENDBRANCH  75  76
ENDBRANCH  74  75
ENDBRANCH  73  74
ENDBRANCH   1  73
TORSDOF 19
ENDMDL
MODEL 2
REMARK VINA RESULT:     -12.0      1.315      1.642
REMARK SMILES O=C(NCCCCCCNC(=O)[C@@H]1[C@H](C(=O)NCc2ccncc2)[C@H]2C=C[C@@H]1O2)c1ccc(-c2c3nc(c(-c4cccc(S(=O)(=O)[O-])c4F)c4ccc([nH]4)c(-c4cccc(S(=O)(=O)[O-])c4F)c4nc(c(-c5cccc(S(=O)(=O)[O-])c5F)c5ccc2[nH]5)C=C4)C=C3)cc1
REMARK SMILES IDX 6 1 5 2 4 3 3 4 1 5 2 6 30 8 31 9 92 10 32 11 91 12 33 13
REMARK SMILES IDX 34 14 35 15 85 16 36 17 90 18 84 19 86 20 37 21 89 22 83 23
REMARK SMILES IDX 82 24 38 26 70 27 50 28 69 29 51 30 54 31 68 32 87 33 52 34
REMARK SMILES IDX 53 35 67 37 88 38 55 39 39 40 40 41 48 42 41 43 43 44 49 45
REMARK SMILES IDX 42 46 44 47 45 48 46 49 47 50 71 51 72 52 80 53 73 54 75 55
REMARK SMILES IDX 81 56 74 57 76 58 77 59 78 60 79 61 56 62 57 63 65 64 58 65
REMARK SMILES IDX 60 66 66 67 59 68 61 69 62 70 63 71 64 72 7 73 8 74 9 75
REMARK SMILES IDX 10 76 11 77 12 79 13 80 14 81 28 82 25 83 27 84 29 85 26 86
REMARK SMILES IDX 15 87 16 88 17 89 18 91 19 92 20 93 24 94 21 95 23 96 22 97
REMARK H PARENT 3 7 86 25 54 36 10 78 17 90
REMARK Flexibility Score: inf
ROOT
ATOM      1  C   UNL A   1      32.204  27.238  24.232  1.00  0.00     0.002 C 
ENDROOT
BRANCH   1   2
ATOM      2  C   UNL A   1      33.059  27.748  25.392  1.00  0.00     0.021 C 
BRANCH   2   3
ATOM      3  C   UNL A   1      33.775  29.062  25.106  1.00  0.00     0.116 C 
BRANCH   3   4
ATOM      4  N   UNL A   1      33.035  30.204  25.614  1.00  0.00    -0.352 N 
ATOM      5  O   UNL A   1      32.395  31.717  27.156  1.00  0.00    -0.269 OA
ATOM      6  C   UNL A   1      33.244  30.919  26.765  1.00  0.00     0.251 C 
ATOM      7  H   UNL A   1      32.282  30.506  25.056  1.00  0.00     0.163 HD
BRANCH   6   8
ATOM      8  C   UNL A   1      34.483  30.701  27.540  1.00  0.00     0.039 A 
ATOM      9  C   UNL A   1      35.449  31.709  27.632  1.00  0.00     0.014 A 
ATOM     10  C   UNL A   1      34.682  29.473  28.173  1.00  0.00     0.014 A 
ATOM     11  C   UNL A   1      36.669  31.445  28.245  1.00  0.00     0.010 A 
ATOM     12  C   UNL A   1      35.875  29.239  28.858  1.00  0.00     0.010 A 
ATOM     13  C   UNL A   1      36.890  30.211  28.875  1.00  0.00    -0.014 A 
BRANCH  13  14
ATOM     14  C   UNL A   1      38.159  29.960  29.602  1.00  0.00     0.031 A 
ATOM     15  C   UNL A   1      39.198  29.033  29.041  1.00  0.00     0.074 A 
ATOM     16  C   UNL A   1      38.342  30.536  30.806  1.00  0.00     0.049 A 
ATOM     17  N   UNL A   1      40.320  28.632  29.578  1.00  0.00    -0.248 NA
ATOM     18  C   UNL A   1      38.938  28.472  27.705  1.00  0.00     0.031 C 
ATOM     19  C   UNL A   1      37.391  31.434  31.463  1.00  0.00     0.029 A 
ATOM     20  N   UNL A   1      39.375  30.430  31.702  1.00  0.00    -0.354 N 
ATOM     21  C   UNL A   1      40.878  27.735  28.674  1.00  0.00     0.074 A 
ATOM     22  C   UNL A   1      39.967  27.649  27.552  1.00  0.00     0.031 C 
ATOM     23  C   UNL A   1      37.876  31.788  32.661  1.00  0.00     0.029 A 
ATOM     24  C   UNL A   1      39.142  31.097  32.882  1.00  0.00     0.049 A 
ATOM     25  H   UNL A   1      40.201  29.925  31.520  1.00  0.00     0.167 HD
ATOM     26  C   UNL A   1      42.044  27.052  28.769  1.00  0.00     0.034 A 
ATOM     27  C   UNL A   1      39.844  31.121  34.029  1.00  0.00     0.034 A 
ATOM     28  C   UNL A   1      42.948  27.155  29.885  1.00  0.00     0.049 A 
ATOM     29  C   UNL A   1      41.129  30.351  34.115  1.00  0.00     0.074 A 
ATOM     30  C   UNL A   1      44.184  26.556  30.048  1.00  0.00     0.029 A 
ATOM     31  N   UNL A   1      42.705  27.890  31.037  1.00  0.00    -0.354 N 
ATOM     32  N   UNL A   1      41.699  29.600  33.204  1.00  0.00    -0.248 NA
ATOM     33  C   UNL A   1      41.885  30.455  35.370  1.00  0.00     0.031 C 
ATOM     34  C   UNL A   1      44.670  26.894  31.315  1.00  0.00     0.029 A 
ATOM     35  C   UNL A   1      43.760  27.746  31.922  1.00  0.00     0.049 A 
ATOM     36  H   UNL A   1      41.900  28.433  31.201  1.00  0.00     0.167 HD
ATOM     37  C   UNL A   1      42.900  29.174  33.759  1.00  0.00     0.074 A 
ATOM     38  C   UNL A   1      42.976  29.757  35.083  1.00  0.00     0.031 C 
ATOM     39  C   UNL A   1      43.849  28.372  33.218  1.00  0.00     0.034 A 
BRANCH  26  40
ATOM     40  C   UNL A   1      42.413  26.133  27.632  1.00  0.00     0.023 A 
ATOM     41  C   UNL A   1      43.249  26.595  26.594  1.00  0.00     0.012 A 
ATOM     42  C   UNL A   1      41.962  24.798  27.608  1.00  0.00     0.148 A 
ATOM     43  C   UNL A   1      43.591  25.761  25.530  1.00  0.00     0.002 A 
ATOM     44  C   UNL A   1      42.348  23.958  26.570  1.00  0.00     0.091 A 
ATOM     45  F   UNL A   1      41.154  24.377  28.592  1.00  0.00    -0.205 F 
ATOM     46  C   UNL A   1      43.149  24.441  25.524  1.00  0.00     0.022 A 
BRANCH  44  47
ATOM     47  S   UNL A   1      41.898  22.220  26.517  1.00  0.00     0.127 S 
ATOM     48  O   UNL A   1      42.686  21.746  25.380  1.00  0.00    -0.237 OA
ATOM     49  O   UNL A   1      42.361  21.741  27.820  1.00  0.00    -0.237 OA
ATOM     50  O   UNL A   1      40.453  22.186  26.337  1.00  0.00    -0.744 OA
ENDBRANCH  44  47
ENDBRANCH  26  40
BRANCH  27  51
ATOM     51  C   UNL A   1      39.342  31.931  35.174  1.00  0.00     0.023 A 
ATOM     52  C   UNL A   1      38.470  31.344  36.110  1.00  0.00     0.012 A 
ATOM     53  C   UNL A   1      39.786  33.253  35.375  1.00  0.00     0.148 A 
ATOM     54  C   UNL A   1      38.031  32.068  37.219  1.00  0.00     0.002 A 
ATOM     55  C   UNL A   1      39.390  33.948  36.511  1.00  0.00     0.091 A 
ATOM     56  F   UNL A   1      40.614  33.789  34.469  1.00  0.00    -0.205 F 
ATOM     57  C   UNL A   1      38.499  33.364  37.426  1.00  0.00     0.022 A 
BRANCH  55  58
ATOM     58  S   UNL A   1      40.045  35.566  36.933  1.00  0.00     0.127 S 
ATOM     59  O   UNL A   1      41.476  35.291  37.033  1.00  0.00    -0.237 OA
ATOM     60  O   UNL A   1      39.649  36.360  35.770  1.00  0.00    -0.237 OA
ATOM     61  O   UNL A   1      39.390  35.947  38.176  1.00  0.00    -0.744 OA
ENDBRANCH  55  58
ENDBRANCH  27  51
BRANCH  39  62
ATOM     62  C   UNL A   1      45.097  28.118  34.022  1.00  0.00     0.023 A 
ATOM     63  C   UNL A   1      46.197  28.991  33.924  1.00  0.00     0.012 A 
ATOM     64  C   UNL A   1      45.133  27.059  34.952  1.00  0.00     0.148 A 
ATOM     65  C   UNL A   1      47.324  28.799  34.724  1.00  0.00     0.002 A 
ATOM     66  C   UNL A   1      46.234  26.906  35.782  1.00  0.00     0.091 A 
ATOM     67  F   UNL A   1      44.082  26.227  35.012  1.00  0.00    -0.205 F 
ATOM     68  C   UNL A   1      47.336  27.768  35.662  1.00  0.00     0.022 A 
BRANCH  66  69
ATOM     69  S   UNL A   1      46.295  25.673  37.086  1.00  0.00     0.127 S 
ATOM     70  O   UNL A   1      47.668  25.816  37.568  1.00  0.00    -0.237 OA
ATOM     71  O   UNL A   1      45.270  26.154  38.013  1.00  0.00    -0.237 OA
ATOM     72  O   UNL A   1      45.988  24.398  36.452  1.00  0.00    -0.744 OA
ENDBRANCH  66  69
ENDBRANCH  39  62
ENDBRANCH  13  14
ENDBRANCH   6   8
ENDBRANCH   3   4
ENDBRANCH   2   3
ENDBRANCH   1   2
BRANCH   1  73
ATOM     73  C   UNL A   1      30.701  27.182  24.528  1.00  0.00     0.002 C 
BRANCH  73  74
ATOM     74  C   UNL A   1      30.314  26.330  25.746  1.00  0.00     0.021 C 
BRANCH  74  75
ATOM     75  C   UNL A   1      30.689  24.854  25.618  1.00  0.00     0.116 C 
BRANCH  75  76
ATOM     76  N   UNL A   1      31.382  24.421  26.813  1.00  0.00    -0.356 N 
ATOM     77  C   UNL A   1      32.466  23.600  26.844  1.00  0.00     0.227 C 
ATOM     78  H   UNL A   1      31.040  24.749  27.676  1.00  0.00     0.163 HD
ATOM     79  O   UNL A   1      32.437  22.652  27.625  1.00  0.00    -0.275 OA
BRANCH  77  80
ATOM     80  C   UNL A   1      33.568  23.806  25.835  1.00  0.00     0.127 C 
ATOM     81  C   UNL A   1      33.460  22.955  24.540  1.00  0.00     0.127 C 
ATOM     82  C   UNL A   1      34.985  23.429  26.317  1.00  0.00     0.155 C 
ATOM     83  C   UNL A   1      34.850  22.324  24.447  1.00  0.00     0.155 C 
ATOM     84  C   UNL A   1      35.993  24.056  25.394  1.00  0.00     0.004 C 
ATOM     85  O   UNL A   1      35.114  22.065  25.849  1.00  0.00    -0.365 OA
ATOM     86  C   UNL A   1      35.897  23.387  24.235  1.00  0.00     0.004 C 
BRANCH  81  87
ATOM     87  C   UNL A   1      32.330  21.947  24.357  1.00  0.00     0.227 C 
ATOM     88  O   UNL A   1      31.399  22.256  23.596  1.00  0.00    -0.275 OA
ATOM     89  N   UNL A   1      32.234  20.714  24.908  1.00  0.00    -0.352 N 
ATOM     90  H   UNL A   1      31.376  20.279  24.699  1.00  0.00     0.163 HD
BRANCH  89  91
ATOM     91  C   UNL A   1      33.088  19.875  25.731  1.00  0.00     0.151 C 
BRANCH  91  92
ATOM     92  C   UNL A   1      33.285  18.471  25.214  1.00  0.00    -0.026 A 
ATOM     93  C   UNL A   1      32.528  17.412  25.733  1.00  0.00     0.025 A 
ATOM     94  C   UNL A   1      34.251  18.169  24.249  1.00  0.00     0.025 A 
ATOM     95  C   UNL A   1      32.745  16.129  25.250  1.00  0.00     0.111 A 
ATOM     96  C   UNL A   1      34.394  16.853  23.830  1.00  0.00     0.111 A 
ATOM     97  N   UNL A   1      33.660  15.826  24.307  1.00  0.00    -0.265 NA
ENDBRANCH  91  92
ENDBRANCH  89  91
ENDBRANCH  81  87
ENDBRANCH  77  80
ENDBRANCH  75  76
ENDBRANCH  74  75
ENDBRANCH  73  74
ENDBRANCH   1  73
TORSDOF 19
ENDMDL
MODEL 3
REMARK VINA RESULT:     -11.9      2.628      7.816
REMARK SMILES O=C(NCCCCCCNC(=O)[C@@H]1[C@H](C(=O)NCc2ccncc2)[C@H]2C=C[C@@H]1O2)c1ccc(-c2c3nc(c(-c4cccc(S(=O)(=O)[O-])c4F)c4ccc([nH]4)c(-c4cccc(S(=O)(=O)[O-])c4F)c4nc(c(-c5cccc(S(=O)(=O)[O-])c5F)c5ccc2[nH]5)C=C4)C=C3)cc1
REMARK SMILES IDX 6 1 5 2 4 3 3 4 1 5 2 6 30 8 31 9 92 10 32 11 91 12 33 13
REMARK SMILES IDX 34 14 35 15 85 16 36 17 90 18 84 19 86 20 37 21 89 22 83 23
REMARK SMILES IDX 82 24 38 26 70 27 50 28 69 29 51 30 54 31 68 32 87 33 52 34
REMARK SMILES IDX 53 35 67 37 88 38 55 39 39 40 40 41 48 42 41 43 43 44 49 45
REMARK SMILES IDX 42 46 44 47 45 48 46 49 47 50 71 51 72 52 80 53 73 54 75 55
REMARK SMILES IDX 81 56 74 57 76 58 77 59 78 60 79 61 56 62 57 63 65 64 58 65
REMARK SMILES IDX 60 66 66 67 59 68 61 69 62 70 63 71 64 72 7 73 8 74 9 75
REMARK SMILES IDX 10 76 11 77 12 79 13 80 14 81 28 82 25 83 27 84 29 85 26 86
REMARK SMILES IDX 15 87 16 88 17 89 18 91 19 92 20 93 24 94 21 95 23 96 22 97
REMARK H PARENT 3 7 86 25 54 36 10 78 17 90
REMARK Flexibility Score: inf
ROOT
ATOM      1  C   UNL A   1      32.198  27.735  24.665  1.00  0.00     0.002 C 
ENDROOT
BRANCH   1   2
ATOM      2  C   UNL A   1      32.633  28.010  26.104  1.00  0.00     0.021 C 
BRANCH   2   3
ATOM      3  C   UNL A   1      33.977  28.717  26.224  1.00  0.00     0.116 C 
BRANCH   3   4
ATOM      4  N   UNL A   1      33.826  30.101  26.640  1.00  0.00    -0.352 N 
ATOM      5  O   UNL A   1      34.172  31.903  27.949  1.00  0.00    -0.269 OA
ATOM      6  C   UNL A   1      34.567  30.809  27.551  1.00  0.00     0.251 C 
ATOM      7  H   UNL A   1      33.092  30.597  26.211  1.00  0.00     0.163 HD
BRANCH   6   8
ATOM      8  C   UNL A   1      35.828  30.234  28.065  1.00  0.00     0.039 A 
ATOM      9  C   UNL A   1      35.865  29.607  29.314  1.00  0.00     0.014 A 
ATOM     10  C   UNL A   1      36.985  30.331  27.289  1.00  0.00     0.014 A 
ATOM     11  C   UNL A   1      37.082  29.194  29.846  1.00  0.00     0.010 A 
ATOM     12  C   UNL A   1      38.191  29.841  27.792  1.00  0.00     0.010 A 
ATOM     13  C   UNL A   1      38.256  29.296  29.085  1.00  0.00    -0.014 A 
BRANCH  13  14
ATOM     14  C   UNL A   1      39.539  28.778  29.619  1.00  0.00     0.031 A 
ATOM     15  C   UNL A   1      40.253  29.488  30.733  1.00  0.00     0.074 A 
ATOM     16  C   UNL A   1      40.087  27.687  29.049  1.00  0.00     0.049 A 
ATOM     17  N   UNL A   1      41.420  29.228  31.261  1.00  0.00    -0.248 NA
ATOM     18  C   UNL A   1      39.572  30.651  31.326  1.00  0.00     0.031 C 
ATOM     19  C   UNL A   1      39.498  26.930  27.943  1.00  0.00     0.029 A 
ATOM     20  N   UNL A   1      41.271  27.043  29.300  1.00  0.00    -0.354 N 
ATOM     21  C   UNL A   1      41.639  30.218  32.211  1.00  0.00     0.074 A 
ATOM     22  C   UNL A   1      40.482  31.089  32.184  1.00  0.00     0.031 C 
ATOM     23  C   UNL A   1      40.327  25.933  27.602  1.00  0.00     0.029 A 
ATOM     24  C   UNL A   1      41.529  26.016  28.424  1.00  0.00     0.049 A 
ATOM     25  H   UNL A   1      41.878  27.293  30.035  1.00  0.00     0.167 HD
ATOM     26  C   UNL A   1      42.704  30.383  33.033  1.00  0.00     0.034 A 
ATOM     27  C   UNL A   1      42.624  25.250  28.267  1.00  0.00     0.034 A 
ATOM     28  C   UNL A   1      43.843  29.504  33.058  1.00  0.00     0.049 A 
ATOM     29  C   UNL A   1      43.795  25.455  29.184  1.00  0.00     0.074 A 
ATOM     30  C   UNL A   1      44.943  29.546  33.897  1.00  0.00     0.029 A 
ATOM     31  N   UNL A   1      44.041  28.437  32.194  1.00  0.00    -0.354 N 
ATOM     32  N   UNL A   1      43.936  26.324  30.154  1.00  0.00    -0.248 NA
ATOM     33  C   UNL A   1      44.943  24.556  29.007  1.00  0.00     0.031 C 
ATOM     34  C   UNL A   1      45.825  28.530  33.514  1.00  0.00     0.029 A 
ATOM     35  C   UNL A   1      45.251  27.822  32.468  1.00  0.00     0.049 A 
ATOM     36  H   UNL A   1      43.413  28.157  31.490  1.00  0.00     0.167 HD
ATOM     37  C   UNL A   1      45.170  26.052  30.733  1.00  0.00     0.074 A 
ATOM     38  C   UNL A   1      45.733  24.933  30.005  1.00  0.00     0.031 C 
ATOM     39  C   UNL A   1      45.778  26.676  31.770  1.00  0.00     0.034 A 
BRANCH  26  40
ATOM     40  C   UNL A   1      42.685  31.559  33.977  1.00  0.00     0.023 A 
ATOM     41  C   UNL A   1      43.184  32.809  33.557  1.00  0.00     0.012 A 
ATOM     42  C   UNL A   1      42.138  31.437  35.270  1.00  0.00     0.148 A 
ATOM     43  C   UNL A   1      43.183  33.904  34.421  1.00  0.00     0.002 A 
ATOM     44  C   UNL A   1      42.094  32.545  36.108  1.00  0.00     0.091 A 
ATOM     45  F   UNL A   1      41.683  30.238  35.663  1.00  0.00    -0.205 F 
ATOM     46  C   UNL A   1      42.629  33.774  35.692  1.00  0.00     0.022 A 
BRANCH  44  47
ATOM     47  S   UNL A   1      41.327  32.498  37.732  1.00  0.00     0.127 S 
ATOM     48  O   UNL A   1      41.404  33.901  38.134  1.00  0.00    -0.237 OA
ATOM     49  O   UNL A   1      39.977  32.026  37.421  1.00  0.00    -0.237 OA
ATOM     50  O   UNL A   1      42.124  31.572  38.524  1.00  0.00    -0.744 OA
ENDBRANCH  44  47
ENDBRANCH  26  40
BRANCH  27  51
ATOM     51  C   UNL A   1      42.636  24.203  27.208  1.00  0.00     0.023 A 
ATOM     52  C   UNL A   1      43.331  24.439  26.007  1.00  0.00     0.012 A 
ATOM     53  C   UNL A   1      42.025  22.952  27.420  1.00  0.00     0.148 A 
ATOM     54  C   UNL A   1      43.400  23.451  25.024  1.00  0.00     0.002 A 
ATOM     55  C   UNL A   1      42.147  21.953  26.462  1.00  0.00     0.091 A 
ATOM     56  F   UNL A   1      41.369  22.753  28.571  1.00  0.00    -0.205 F 
ATOM     57  C   UNL A   1      42.819  22.206  25.256  1.00  0.00     0.022 A 
BRANCH  55  58
ATOM     58  S   UNL A   1      41.552  20.280  26.727  1.00  0.00     0.127 S 
ATOM     59  O   UNL A   1      42.355  19.856  27.872  1.00  0.00    -0.237 OA
ATOM     60  O   UNL A   1      40.137  20.509  27.017  1.00  0.00    -0.237 OA
ATOM     61  O   UNL A   1      41.806  19.567  25.483  1.00  0.00    -0.744 OA
ENDBRANCH  55  58
ENDBRANCH  27  51
BRANCH  39  62
ATOM     62  C   UNL A   1      47.102  26.131  32.239  1.00  0.00     0.023 A 
ATOM     63  C   UNL A   1      47.152  25.165  33.262  1.00  0.00     0.012 A 
ATOM     64  C   UNL A   1      48.293  26.516  31.590  1.00  0.00     0.148 A 
ATOM     65  C   UNL A   1      48.371  24.606  33.646  1.00  0.00     0.002 A 
ATOM     66  C   UNL A   1      49.494  25.916  31.940  1.00  0.00     0.091 A 
ATOM     67  F   UNL A   1      48.224  27.454  30.633  1.00  0.00    -0.205 F 
ATOM     68  C   UNL A   1      49.538  24.968  32.975  1.00  0.00     0.022 A 
BRANCH  66  69
ATOM     69  S   UNL A   1      51.027  26.244  31.063  1.00  0.00     0.127 S 
ATOM     70  O   UNL A   1      51.434  27.523  31.643  1.00  0.00    -0.237 OA
ATOM     71  O   UNL A   1      51.857  25.104  31.455  1.00  0.00    -0.237 OA
ATOM     72  O   UNL A   1      50.683  26.286  29.648  1.00  0.00    -0.744 OA
ENDBRANCH  66  69
ENDBRANCH  39  62
ENDBRANCH  13  14
ENDBRANCH   6   8
ENDBRANCH   3   4
ENDBRANCH   2   3
ENDBRANCH   1   2
BRANCH   1  73
ATOM     73  C   UNL A   1      30.689  27.543  24.483  1.00  0.00     0.002 C 
BRANCH  73  74
ATOM     74  C   UNL A   1      30.119  26.269  25.124  1.00  0.00     0.021 C 
BRANCH  74  75
ATOM     75  C   UNL A   1      30.957  25.015  24.869  1.00  0.00     0.116 C 
BRANCH  75  76
ATOM     76  N   UNL A   1      31.393  24.455  26.131  1.00  0.00    -0.356 N 
ATOM     77  C   UNL A   1      32.406  23.564  26.291  1.00  0.00     0.227 C 
ATOM     78  H   UNL A   1      30.915  24.746  26.942  1.00  0.00     0.163 HD
ATOM     79  O   UNL A   1      32.183  22.568  26.976  1.00  0.00    -0.275 OA
BRANCH  77  80
ATOM     80  C   UNL A   1      33.686  23.763  25.517  1.00  0.00     0.127 C 
ATOM     81  C   UNL A   1      33.839  22.895  24.239  1.00  0.00     0.127 C 
ATOM     82  C   UNL A   1      34.981  23.401  26.275  1.00  0.00     0.155 C 
ATOM     83  C   UNL A   1      35.222  22.272  24.430  1.00  0.00     0.155 C 
ATOM     84  C   UNL A   1      36.149  24.022  25.561  1.00  0.00     0.004 C 
ATOM     85  O   UNL A   1      35.204  22.031  25.861  1.00  0.00    -0.365 OA
ATOM     86  C   UNL A   1      36.286  23.338  24.415  1.00  0.00     0.004 C 
BRANCH  81  87
ATOM     87  C   UNL A   1      32.770  21.877  23.849  1.00  0.00     0.227 C 
ATOM     88  O   UNL A   1      32.007  22.172  22.915  1.00  0.00    -0.275 OA
ATOM     89  N   UNL A   1      32.572  20.651  24.387  1.00  0.00    -0.352 N 
ATOM     90  H   UNL A   1      31.773  20.209  24.019  1.00  0.00     0.163 HD
BRANCH  89  91
ATOM     91  C   UNL A   1      33.249  19.828  25.375  1.00  0.00     0.151 C 
BRANCH  91  92
ATOM     92  C   UNL A   1      33.308  18.358  25.040  1.00  0.00    -0.026 A 
ATOM     93  C   UNL A   1      32.587  17.429  25.802  1.00  0.00     0.025 A 
ATOM     94  C   UNL A   1      34.113  17.868  24.007  1.00  0.00     0.025 A 
ATOM     95  C   UNL A   1      32.675  16.081  25.482  1.00  0.00     0.111 A 
ATOM     96  C   UNL A   1      34.135  16.502  23.763  1.00  0.00     0.111 A 
ATOM     97  N   UNL A   1      33.433  15.597  24.476  1.00  0.00    -0.265 NA
ENDBRANCH  91  92
ENDBRANCH  89  91
ENDBRANCH  81  87
ENDBRANCH  77  80
ENDBRANCH  75  76
ENDBRANCH  74  75
ENDBRANCH  73  74
ENDBRANCH   1  73
TORSDOF 19
ENDMDL
