MODEL 1
REMARK VINA RESULT:     -12.7      0.000      0.000
REMARK SMILES C[NH+]1CCN(C(=O)c2ccc3c(c2)N(CC(=O)NCCCCCCNC(=O)c2ccc(-c4c5nc(c(-c6cccc(S(=O)(=O)[O-])c6F)c6ccc([nH]6)c(-c6cccc(S(=O)(=O)[O-])c6F)c6nc(c(-c7cccc(S(=O)(=O)[O-])c7F)c7ccc4[nH]7)C=C6)C=C5)cc2)C(=O)CO3)CC1
REMARK SMILES IDX 22 1 21 2 20 3 19 4 18 5 16 6 17 7 15 9 14 10 8 11 9 12
REMARK SMILES IDX 13 13 10 14 12 15 11 16 94 17 91 18 93 19 92 20 6 21 1 22
REMARK SMILES IDX 2 23 3 24 96 25 4 27 95 28 5 29 7 30 23 31 24 32 25 33 26 34
REMARK SMILES IDX 27 36 28 37 29 38 90 39 30 40 89 41 31 42 32 43 33 44 83 45
REMARK SMILES IDX 34 46 88 47 82 48 84 49 35 50 87 51 81 52 80 53 36 55 68 56
REMARK SMILES IDX 48 57 67 58 49 59 52 60 66 61 85 62 50 63 51 64 65 66 86 67
REMARK SMILES IDX 53 68 37 69 38 70 46 71 39 72 41 73 47 74 40 75 42 76 43 77
REMARK SMILES IDX 44 78 45 79 69 80 70 81 78 82 71 83 73 84 79 85 72 86 74 87
REMARK SMILES IDX 75 88 76 89 77 90 54 91 55 92 63 93 56 94 58 95 64 96 57 97
REMARK SMILES IDX 59 98 60 99 61 100 62 101
REMARK H PARENT 18 8 2 26 25 35 84 54 52 65
REMARK Flexibility Score: inf
ROOT
ATOM      1  C   UNL A   1      31.617  29.252  25.244  1.00  0.00     0.002 C 
ENDROOT
BRANCH   1   2
ATOM      2  C   UNL A   1      31.212  28.952  23.795  1.00  0.00     0.002 C 
BRANCH   2   3
ATOM      3  C   UNL A   1      32.344  28.439  22.896  1.00  0.00     0.021 C 
BRANCH   3   4
ATOM      4  C   UNL A   1      32.037  27.110  22.208  1.00  0.00     0.116 C 
BRANCH   4   5
ATOM      5  N   UNL A   1      33.170  26.209  22.266  1.00  0.00    -0.355 N 
ATOM      6  C   UNL A   1      33.206  24.883  22.575  1.00  0.00     0.240 C 
ATOM      7  O   UNL A   1      34.291  24.302  22.471  1.00  0.00    -0.273 OA
ATOM      8  H   UNL A   1      34.042  26.614  22.050  1.00  0.00     0.163 HD
BRANCH   6   9
ATOM      9  C   UNL A   1      31.936  24.108  22.949  1.00  0.00     0.225 C 
BRANCH   9  10
ATOM     10  N   UNL A   1      31.642  24.040  24.381  1.00  0.00    -0.296 N 
ATOM     11  C   UNL A   1      33.776  21.210  25.598  1.00  0.00     0.042 A 
ATOM     12  C   UNL A   1      33.652  21.357  26.980  1.00  0.00     0.018 A 
ATOM     13  C   UNL A   1      33.079  22.056  24.723  1.00  0.00     0.044 A 
ATOM     14  C   UNL A   1      32.861  22.384  27.489  1.00  0.00     0.049 A 
ATOM     15  C   UNL A   1      32.296  23.103  25.228  1.00  0.00     0.087 A 
ATOM     16  C   UNL A   1      32.185  23.245  26.620  1.00  0.00     0.143 A 
ATOM     17  O   UNL A   1      31.488  24.251  27.226  1.00  0.00    -0.482 OA
ATOM     18  C   UNL A   1      30.708  24.920  24.913  1.00  0.00     0.265 C 
ATOM     19  C   UNL A   1      30.475  24.806  26.413  1.00  0.00     0.330 C 
ATOM     20  O   UNL A   1      30.062  25.714  24.228  1.00  0.00    -0.270 OA
BRANCH  11  21
ATOM     21  C   UNL A   1      34.614  20.107  25.081  1.00  0.00     0.254 C 
ATOM     22  C   UNL A   1      32.738  14.842  25.351  1.00  0.00     0.332 C 
ATOM     23  N   UNL A   1      33.049  16.130  24.733  1.00  0.00    -0.334 N 
ATOM     24  C   UNL A   1      34.495  16.426  24.846  1.00  0.00     0.283 C 
ATOM     25  C   UNL A   1      32.282  17.210  25.393  1.00  0.00     0.283 C 
ATOM     26  H   UNL A   1      32.793  16.081  23.747  1.00  0.00     0.347 HD
ATOM     27  C   UNL A   1      34.863  17.805  24.262  1.00  0.00     0.181 C 
ATOM     28  C   UNL A   1      32.588  18.587  24.774  1.00  0.00     0.181 C 
ATOM     29  N   UNL A   1      34.028  18.878  24.805  1.00  0.00    -0.327 N 
ATOM     30  O   UNL A   1      35.806  20.346  24.905  1.00  0.00    -0.269 OA
ENDBRANCH  11  21
ENDBRANCH   9  10
ENDBRANCH   6   9
ENDBRANCH   4   5
ENDBRANCH   3   4
ENDBRANCH   2   3
ENDBRANCH   1   2
BRANCH   1  31
ATOM     31  C   UNL A   1      32.600  28.254  25.861  1.00  0.00     0.021 C 
BRANCH  31  32
ATOM     32  C   UNL A   1      33.944  28.855  26.256  1.00  0.00     0.116 C 
BRANCH  32  33
ATOM     33  N   UNL A   1      33.805  30.211  26.766  1.00  0.00    -0.352 N 
ATOM     34  C   UNL A   1      34.569  30.868  27.697  1.00  0.00     0.251 C 
ATOM     35  H   UNL A   1      33.057  30.730  26.390  1.00  0.00     0.163 HD
ATOM     36  O   UNL A   1      34.182  31.939  28.161  1.00  0.00    -0.269 OA
BRANCH  34  37
ATOM     37  C   UNL A   1      35.848  30.280  28.148  1.00  0.00     0.039 A 
ATOM     38  C   UNL A   1      36.977  30.401  27.335  1.00  0.00     0.014 A 
ATOM     39  C   UNL A   1      35.930  29.601  29.367  1.00  0.00     0.014 A 
ATOM     40  C   UNL A   1      38.200  29.883  27.766  1.00  0.00     0.010 A 
ATOM     41  C   UNL A   1      37.165  29.156  29.831  1.00  0.00     0.010 A 
ATOM     42  C   UNL A   1      38.310  29.277  29.029  1.00  0.00    -0.014 A 
BRANCH  42  43
ATOM     43  C   UNL A   1      39.609  28.751  29.524  1.00  0.00     0.031 A 
ATOM     44  C   UNL A   1      40.335  29.463  30.636  1.00  0.00     0.074 A 
ATOM     45  C   UNL A   1      40.170  27.682  28.928  1.00  0.00     0.049 A 
ATOM     46  N   UNL A   1      41.503  29.196  31.161  1.00  0.00    -0.248 NA
ATOM     47  C   UNL A   1      39.674  30.644  31.218  1.00  0.00     0.031 C 
ATOM     48  C   UNL A   1      39.600  26.947  27.796  1.00  0.00     0.029 A 
ATOM     49  N   UNL A   1      41.359  27.040  29.173  1.00  0.00    -0.354 N 
ATOM     50  C   UNL A   1      41.731  30.191  32.106  1.00  0.00     0.074 A 
ATOM     51  C   UNL A   1      40.600  31.090  32.055  1.00  0.00     0.031 C 
ATOM     52  C   UNL A   1      40.435  25.953  27.450  1.00  0.00     0.029 A 
ATOM     53  C   UNL A   1      41.614  26.000  28.309  1.00  0.00     0.049 A 
ATOM     54  H   UNL A   1      41.971  27.300  29.899  1.00  0.00     0.167 HD
ATOM     55  C   UNL A   1      42.773  30.327  32.960  1.00  0.00     0.034 A 
ATOM     56  C   UNL A   1      42.682  25.183  28.213  1.00  0.00     0.034 A 
ATOM     57  C   UNL A   1      43.878  29.410  33.035  1.00  0.00     0.049 A 
ATOM     58  C   UNL A   1      43.815  25.346  29.191  1.00  0.00     0.074 A 
ATOM     59  C   UNL A   1      44.945  29.420  33.915  1.00  0.00     0.029 A 
ATOM     60  N   UNL A   1      44.062  28.323  32.196  1.00  0.00    -0.354 N 
ATOM     61  N   UNL A   1      43.944  26.207  30.171  1.00  0.00    -0.248 NA
ATOM     62  C   UNL A   1      44.933  24.398  29.075  1.00  0.00     0.031 C 
ATOM     63  C   UNL A   1      45.789  28.355  33.590  1.00  0.00     0.029 A 
ATOM     64  C   UNL A   1      45.227  27.658  32.533  1.00  0.00     0.049 A 
ATOM     65  H   UNL A   1      43.452  28.062  31.468  1.00  0.00     0.167 HD
ATOM     66  C   UNL A   1      45.131  25.876  30.815  1.00  0.00     0.074 A 
ATOM     67  C   UNL A   1      45.675  24.726  30.125  1.00  0.00     0.031 C 
ATOM     68  C   UNL A   1      45.724  26.478  31.876  1.00  0.00     0.034 A 
BRANCH  55  69
ATOM     69  C   UNL A   1      42.744  31.487  33.923  1.00  0.00     0.023 A 
ATOM     70  C   UNL A   1      43.293  32.727  33.538  1.00  0.00     0.012 A 
ATOM     71  C   UNL A   1      42.114  31.372  35.178  1.00  0.00     0.148 A 
ATOM     72  C   UNL A   1      43.249  33.824  34.396  1.00  0.00     0.002 A 
ATOM     73  C   UNL A   1      42.031  32.483  36.010  1.00  0.00     0.091 A 
ATOM     74  F   UNL A   1      41.613  30.181  35.535  1.00  0.00    -0.205 F 
ATOM     75  C   UNL A   1      42.608  33.705  35.626  1.00  0.00     0.022 A 
BRANCH  73  76
ATOM     76  S   UNL A   1      41.157  32.459  37.578  1.00  0.00     0.127 S 
ATOM     77  O   UNL A   1      41.086  33.883  37.900  1.00  0.00    -0.237 OA
ATOM     78  O   UNL A   1      39.878  31.853  37.206  1.00  0.00    -0.237 OA
ATOM     79  O   UNL A   1      41.971  31.658  38.482  1.00  0.00    -0.744 OA
ENDBRANCH  73  76
ENDBRANCH  55  69
BRANCH  56  80
ATOM     80  C   UNL A   1      42.713  24.101  27.188  1.00  0.00     0.023 A 
ATOM     81  C   UNL A   1      43.374  24.325  25.964  1.00  0.00     0.012 A 
ATOM     82  C   UNL A   1      42.091  22.859  27.415  1.00  0.00     0.148 A 
ATOM     83  C   UNL A   1      43.378  23.347  24.967  1.00  0.00     0.002 A 
ATOM     84  C   UNL A   1      42.149  21.868  26.441  1.00  0.00     0.091 A 
ATOM     85  F   UNL A   1      41.459  22.667  28.580  1.00  0.00    -0.205 F 
ATOM     86  C   UNL A   1      42.772  22.117  25.208  1.00  0.00     0.022 A 
BRANCH  84  87
ATOM     87  S   UNL A   1      41.508  20.213  26.713  1.00  0.00     0.127 S 
ATOM     88  O   UNL A   1      40.085  20.472  26.918  1.00  0.00    -0.237 OA
ATOM     89  O   UNL A   1      41.838  19.550  25.450  1.00  0.00    -0.237 OA
ATOM     90  O   UNL A   1      42.231  19.696  27.867  1.00  0.00    -0.744 OA
ENDBRANCH  84  87
ENDBRANCH  56  80
BRANCH  68  91
ATOM     91  C   UNL A   1      46.999  25.872  32.403  1.00  0.00     0.023 A 
ATOM     92  C   UNL A   1      48.247  26.311  31.918  1.00  0.00     0.012 A 
ATOM     93  C   UNL A   1      46.957  24.916  33.438  1.00  0.00     0.148 A 
ATOM     94  C   UNL A   1      49.431  25.781  32.429  1.00  0.00     0.002 A 
ATOM     95  C   UNL A   1      48.141  24.433  33.979  1.00  0.00     0.091 A 
ATOM     96  F   UNL A   1      45.759  24.498  33.874  1.00  0.00    -0.205 F 
ATOM     97  C   UNL A   1      49.380  24.853  33.466  1.00  0.00     0.022 A 
BRANCH  95  98
ATOM     98  S   UNL A   1      48.174  23.314  35.384  1.00  0.00     0.127 S 
ATOM     99  O   UNL A   1      47.438  22.162  34.864  1.00  0.00    -0.237 OA
ATOM    100  O   UNL A   1      49.608  23.090  35.569  1.00  0.00    -0.237 OA
ATOM    101  O   UNL A   1      47.526  24.024  36.479  1.00  0.00    -0.744 OA
ENDBRANCH  95  98
ENDBRANCH  68  91
ENDBRANCH  42  43
ENDBRANCH  34  37
ENDBRANCH  32  33
ENDBRANCH  31  32
ENDBRANCH   1  31
TORSDOF 18
ENDMDL
MODEL 2
REMARK VINA RESULT:     -12.5      1.922      2.621
REMARK SMILES C[NH+]1CCN(C(=O)c2ccc3c(c2)N(CC(=O)NCCCCCCNC(=O)c2ccc(-c4c5nc(c(-c6cccc(S(=O)(=O)[O-])c6F)c6ccc([nH]6)c(-c6cccc(S(=O)(=O)[O-])c6F)c6nc(c(-c7cccc(S(=O)(=O)[O-])c7F)c7ccc4[nH]7)C=C6)C=C5)cc2)C(=O)CO3)CC1
REMARK SMILES IDX 22 1 21 2 20 3 19 4 18 5 16 6 17 7 15 9 14 10 8 11 9 12
REMARK SMILES IDX 13 13 10 14 12 15 11 16 94 17 91 18 93 19 92 20 6 21 1 22
REMARK SMILES IDX 2 23 3 24 96 25 4 27 95 28 5 29 7 30 23 31 24 32 25 33 26 34
REMARK SMILES IDX 27 36 28 37 29 38 90 39 30 40 89 41 31 42 32 43 33 44 83 45
REMARK SMILES IDX 34 46 88 47 82 48 84 49 35 50 87 51 81 52 80 53 36 55 68 56
REMARK SMILES IDX 48 57 67 58 49 59 52 60 66 61 85 62 50 63 51 64 65 66 86 67
REMARK SMILES IDX 53 68 37 69 38 70 46 71 39 72 41 73 47 74 40 75 42 76 43 77
REMARK SMILES IDX 44 78 45 79 69 80 70 81 78 82 71 83 73 84 79 85 72 86 74 87
REMARK SMILES IDX 75 88 76 89 77 90 54 91 55 92 63 93 56 94 58 95 64 96 57 97
REMARK SMILES IDX 59 98 60 99 61 100 62 101
REMARK H PARENT 18 8 2 26 25 35 84 54 52 65
REMARK Flexibility Score: inf
ROOT
ATOM      1  C   UNL A   1      30.778  29.355  24.511  1.00  0.00     0.002 C 
ENDROOT
BRANCH   1   2
ATOM      2  C   UNL A   1      30.937  28.855  23.070  1.00  0.00     0.002 C 
BRANCH   2   3
ATOM      3  C   UNL A   1      32.226  28.069  22.792  1.00  0.00     0.021 C 
BRANCH   3   4
ATOM      4  C   UNL A   1      32.026  26.842  21.905  1.00  0.00     0.116 C 
BRANCH   4   5
ATOM      5  N   UNL A   1      33.128  25.910  22.032  1.00  0.00    -0.355 N 
ATOM      6  C   UNL A   1      33.121  24.615  22.451  1.00  0.00     0.240 C 
ATOM      7  O   UNL A   1      34.185  23.989  22.391  1.00  0.00    -0.273 OA
ATOM      8  H   UNL A   1      34.011  26.266  21.779  1.00  0.00     0.163 HD
BRANCH   6   9
ATOM      9  C   UNL A   1      31.828  23.918  22.895  1.00  0.00     0.225 C 
BRANCH   9  10
ATOM     10  N   UNL A   1      31.590  23.900  24.340  1.00  0.00    -0.296 N 
ATOM     11  C   UNL A   1      33.768  21.109  25.570  1.00  0.00     0.042 A 
ATOM     12  C   UNL A   1      33.697  21.305  26.950  1.00  0.00     0.018 A 
ATOM     13  C   UNL A   1      33.038  21.926  24.695  1.00  0.00     0.044 A 
ATOM     14  C   UNL A   1      32.928  22.350  27.454  1.00  0.00     0.049 A 
ATOM     15  C   UNL A   1      32.276  22.992  25.193  1.00  0.00     0.087 A 
ATOM     16  C   UNL A   1      32.219  23.182  26.582  1.00  0.00     0.143 A 
ATOM     17  O   UNL A   1      31.547  24.210  27.179  1.00  0.00    -0.482 OA
ATOM     18  C   UNL A   1      30.678  24.799  24.876  1.00  0.00     0.265 C 
ATOM     19  C   UNL A   1      30.503  24.738  26.387  1.00  0.00     0.330 C 
ATOM     20  O   UNL A   1      30.007  25.571  24.190  1.00  0.00    -0.270 OA
BRANCH  11  21
ATOM     21  C   UNL A   1      34.585  19.988  25.060  1.00  0.00     0.254 C 
ATOM     22  C   UNL A   1      32.613  14.760  25.372  1.00  0.00     0.332 C 
ATOM     23  N   UNL A   1      32.946  16.038  24.744  1.00  0.00    -0.334 N 
ATOM     24  C   UNL A   1      34.397  16.308  24.852  1.00  0.00     0.283 C 
ATOM     25  C   UNL A   1      32.201  17.137  25.398  1.00  0.00     0.283 C 
ATOM     26  H   UNL A   1      32.687  15.986  23.759  1.00  0.00     0.347 HD
ATOM     27  C   UNL A   1      34.790  17.675  24.257  1.00  0.00     0.181 C 
ATOM     28  C   UNL A   1      32.530  18.503  24.768  1.00  0.00     0.181 C 
ATOM     29  N   UNL A   1      33.975  18.768  24.794  1.00  0.00    -0.327 N 
ATOM     30  O   UNL A   1      35.780  20.204  24.880  1.00  0.00    -0.269 OA
ENDBRANCH  11  21
ENDBRANCH   9  10
ENDBRANCH   6   9
ENDBRANCH   4   5
ENDBRANCH   3   4
ENDBRANCH   2   3
ENDBRANCH   1   2
BRANCH   1  31
ATOM     31  C   UNL A   1      31.708  28.694  25.532  1.00  0.00     0.021 C 
BRANCH  31  32
ATOM     32  C   UNL A   1      32.993  29.466  25.806  1.00  0.00     0.116 C 
BRANCH  32  33
ATOM     33  N   UNL A   1      32.730  30.857  26.145  1.00  0.00    -0.352 N 
ATOM     34  C   UNL A   1      33.324  31.641  27.103  1.00  0.00     0.251 C 
ATOM     35  H   UNL A   1      32.027  31.297  25.615  1.00  0.00     0.163 HD
ATOM     36  O   UNL A   1      32.834  32.731  27.392  1.00  0.00    -0.269 OA
BRANCH  34  37
ATOM     37  C   UNL A   1      34.543  31.167  27.791  1.00  0.00     0.039 A 
ATOM     38  C   UNL A   1      35.609  32.051  27.975  1.00  0.00     0.014 A 
ATOM     39  C   UNL A   1      34.639  29.848  28.246  1.00  0.00     0.014 A 
ATOM     40  C   UNL A   1      36.751  31.627  28.657  1.00  0.00     0.010 A 
ATOM     41  C   UNL A   1      35.743  29.451  28.994  1.00  0.00     0.010 A 
ATOM     42  C   UNL A   1      36.819  30.331  29.194  1.00  0.00    -0.014 A 
BRANCH  42  43
ATOM     43  C   UNL A   1      38.009  29.869  29.954  1.00  0.00     0.031 A 
ATOM     44  C   UNL A   1      38.265  30.394  31.343  1.00  0.00     0.074 A 
ATOM     45  C   UNL A   1      38.897  29.040  29.372  1.00  0.00     0.049 A 
ATOM     46  N   UNL A   1      39.276  30.161  32.139  1.00  0.00    -0.248 NA
ATOM     47  C   UNL A   1      37.267  31.323  31.902  1.00  0.00     0.031 C 
ATOM     48  C   UNL A   1      38.797  28.516  28.008  1.00  0.00     0.029 A 
ATOM     49  N   UNL A   1      40.072  28.510  29.845  1.00  0.00    -0.354 N 
ATOM     50  C   UNL A   1      39.055  30.936  33.273  1.00  0.00     0.074 A 
ATOM     51  C   UNL A   1      37.835  31.678  33.046  1.00  0.00     0.031 C 
ATOM     52  C   UNL A   1      39.862  27.736  27.757  1.00  0.00     0.029 A 
ATOM     53  C   UNL A   1      40.737  27.732  28.925  1.00  0.00     0.049 A 
ATOM     54  H   UNL A   1      40.407  28.672  30.757  1.00  0.00     0.167 HD
ATOM     55  C   UNL A   1      39.784  31.002  34.412  1.00  0.00     0.034 A 
ATOM     56  C   UNL A   1      41.922  27.096  29.011  1.00  0.00     0.034 A 
ATOM     57  C   UNL A   1      40.977  30.235  34.650  1.00  0.00     0.049 A 
ATOM     58  C   UNL A   1      42.699  27.170  30.298  1.00  0.00     0.074 A 
ATOM     59  C   UNL A   1      41.746  30.176  35.798  1.00  0.00     0.029 A 
ATOM     60  N   UNL A   1      41.576  29.396  33.723  1.00  0.00    -0.354 N 
ATOM     61  N   UNL A   1      42.399  27.796  31.410  1.00  0.00    -0.248 NA
ATOM     62  C   UNL A   1      43.961  26.418  30.356  1.00  0.00     0.031 C 
ATOM     63  C   UNL A   1      42.827  29.324  35.556  1.00  0.00     0.029 A 
ATOM     64  C   UNL A   1      42.708  28.821  34.271  1.00  0.00     0.049 A 
ATOM     65  H   UNL A   1      41.244  29.234  32.811  1.00  0.00     0.167 HD
ATOM     66  C   UNL A   1      43.408  27.475  32.312  1.00  0.00     0.074 A 
ATOM     67  C   UNL A   1      44.319  26.587  31.621  1.00  0.00     0.031 C 
ATOM     68  C   UNL A   1      43.572  27.890  33.592  1.00  0.00     0.034 A 
BRANCH  55  69
ATOM     69  C   UNL A   1      39.285  31.902  35.514  1.00  0.00     0.023 A 
ATOM     70  C   UNL A   1      38.373  31.400  36.464  1.00  0.00     0.012 A 
ATOM     71  C   UNL A   1      39.769  33.218  35.651  1.00  0.00     0.148 A 
ATOM     72  C   UNL A   1      37.922  32.201  37.512  1.00  0.00     0.002 A 
ATOM     73  C   UNL A   1      39.352  33.996  36.725  1.00  0.00     0.091 A 
ATOM     74  F   UNL A   1      40.621  33.685  34.728  1.00  0.00    -0.205 F 
ATOM     75  C   UNL A   1      38.420  33.493  37.648  1.00  0.00     0.022 A 
BRANCH  73  76
ATOM     76  S   UNL A   1      39.994  35.643  37.039  1.00  0.00     0.127 S 
ATOM     77  O   UNL A   1      39.289  36.007  38.267  1.00  0.00    -0.237 OA
ATOM     78  O   UNL A   1      41.424  35.386  37.210  1.00  0.00    -0.237 OA
ATOM     79  O   UNL A   1      39.653  36.439  35.868  1.00  0.00    -0.744 OA
ENDBRANCH  73  76
ENDBRANCH  55  69
BRANCH  56  80
ATOM     80  C   UNL A   1      42.426  26.286  27.865  1.00  0.00     0.023 A 
ATOM     81  C   UNL A   1      43.372  26.845  26.984  1.00  0.00     0.012 A 
ATOM     82  C   UNL A   1      41.973  24.972  27.640  1.00  0.00     0.148 A 
ATOM     83  C   UNL A   1      43.825  26.128  25.876  1.00  0.00     0.002 A 
ATOM     84  C   UNL A   1      42.472  24.242  26.568  1.00  0.00     0.091 A 
ATOM     85  F   UNL A   1      41.066  24.459  28.483  1.00  0.00    -0.205 F 
ATOM     86  C   UNL A   1      43.382  24.825  25.671  1.00  0.00     0.022 A 
BRANCH  84  87
ATOM     87  S   UNL A   1      42.054  22.516  26.301  1.00  0.00     0.127 S 
ATOM     88  O   UNL A   1      42.683  22.251  25.009  1.00  0.00    -0.237 OA
ATOM     89  O   UNL A   1      42.699  21.869  27.446  1.00  0.00    -0.237 OA
ATOM     90  O   UNL A   1      40.599  22.456  26.322  1.00  0.00    -0.744 OA
ENDBRANCH  84  87
ENDBRANCH  56  80
BRANCH  68  91
ATOM     91  C   UNL A   1      44.746  27.342  34.361  1.00  0.00     0.023 A 
ATOM     92  C   UNL A   1      45.970  28.039  34.381  1.00  0.00     0.012 A 
ATOM     93  C   UNL A   1      44.607  26.166  35.128  1.00  0.00     0.148 A 
ATOM     94  C   UNL A   1      47.048  27.556  35.121  1.00  0.00     0.002 A 
ATOM     95  C   UNL A   1      45.668  25.721  35.905  1.00  0.00     0.091 A 
ATOM     96  F   UNL A   1      43.440  25.508  35.082  1.00  0.00    -0.205 F 
ATOM     97  C   UNL A   1      46.895  26.406  35.892  1.00  0.00     0.022 A 
BRANCH  95  98
ATOM     98  S   UNL A   1      45.530  24.310  37.008  1.00  0.00     0.127 S 
ATOM     99  O   UNL A   1      44.615  24.818  38.028  1.00  0.00    -0.237 OA
ATOM    100  O   UNL A   1      44.961  23.287  36.131  1.00  0.00    -0.237 OA
ATOM    101  O   UNL A   1      46.883  24.026  37.470  1.00  0.00    -0.744 OA
ENDBRANCH  95  98
ENDBRANCH  68  91
ENDBRANCH  42  43
ENDBRANCH  34  37
ENDBRANCH  32  33
ENDBRANCH  31  32
ENDBRANCH   1  31
TORSDOF 18
ENDMDL
MODEL 3
REMARK VINA RESULT:     -12.4      2.094      7.510
REMARK SMILES C[NH+]1CCN(C(=O)c2ccc3c(c2)N(CC(=O)NCCCCCCNC(=O)c2ccc(-c4c5nc(c(-c6cccc(S(=O)(=O)[O-])c6F)c6ccc([nH]6)c(-c6cccc(S(=O)(=O)[O-])c6F)c6nc(c(-c7cccc(S(=O)(=O)[O-])c7F)c7ccc4[nH]7)C=C6)C=C5)cc2)C(=O)CO3)CC1
REMARK SMILES IDX 22 1 21 2 20 3 19 4 18 5 16 6 17 7 15 9 14 10 8 11 9 12
REMARK SMILES IDX 13 13 10 14 12 15 11 16 94 17 91 18 93 19 92 20 6 21 1 22
REMARK SMILES IDX 2 23 3 24 96 25 4 27 95 28 5 29 7 30 23 31 24 32 25 33 26 34
REMARK SMILES IDX 27 36 28 37 29 38 90 39 30 40 89 41 31 42 32 43 33 44 83 45
REMARK SMILES IDX 34 46 88 47 82 48 84 49 35 50 87 51 81 52 80 53 36 55 68 56
REMARK SMILES IDX 48 57 67 58 49 59 52 60 66 61 85 62 50 63 51 64 65 66 86 67
REMARK SMILES IDX 53 68 37 69 38 70 46 71 39 72 41 73 47 74 40 75 42 76 43 77
REMARK SMILES IDX 44 78 45 79 69 80 70 81 78 82 71 83 73 84 79 85 72 86 74 87
REMARK SMILES IDX 75 88 76 89 77 90 54 91 55 92 63 93 56 94 58 95 64 96 57 97
REMARK SMILES IDX 59 98 60 99 61 100 62 101
REMARK H PARENT 18 8 2 26 25 35 84 54 52 65
REMARK Flexibility Score: inf
ROOT
ATOM      1  C   UNL A   1      30.644  29.197  24.241  1.00  0.00     0.002 C 
ENDROOT
BRANCH   1   2
ATOM      2  C   UNL A   1      30.638  28.545  22.852  1.00  0.00     0.002 C 
BRANCH   2   3
ATOM      3  C   UNL A   1      31.943  27.840  22.458  1.00  0.00     0.021 C 
BRANCH   3   4
ATOM      4  C   UNL A   1      31.736  26.555  21.658  1.00  0.00     0.116 C 
BRANCH   4   5
ATOM      5  N   UNL A   1      32.868  25.660  21.792  1.00  0.00    -0.355 N 
ATOM      6  C   UNL A   1      32.921  24.407  22.322  1.00  0.00     0.240 C 
ATOM      7  O   UNL A   1      33.994  23.799  22.244  1.00  0.00    -0.273 OA
ATOM      8  H   UNL A   1      33.723  26.009  21.449  1.00  0.00     0.163 HD
BRANCH   6   9
ATOM      9  C   UNL A   1      31.678  23.727  22.911  1.00  0.00     0.225 C 
BRANCH   9  10
ATOM     10  N   UNL A   1      31.558  23.796  24.369  1.00  0.00    -0.296 N 
ATOM     11  C   UNL A   1      33.875  21.113  25.584  1.00  0.00     0.042 A 
ATOM     12  C   UNL A   1      33.913  21.392  26.950  1.00  0.00     0.018 A 
ATOM     13  C   UNL A   1      33.063  21.865  24.723  1.00  0.00     0.044 A 
ATOM     14  C   UNL A   1      33.169  22.458  27.451  1.00  0.00     0.049 A 
ATOM     15  C   UNL A   1      32.326  22.951  25.216  1.00  0.00     0.087 A 
ATOM     16  C   UNL A   1      32.379  23.225  26.592  1.00  0.00     0.143 A 
ATOM     17  O   UNL A   1      31.740  24.280  27.178  1.00  0.00    -0.482 OA
ATOM     18  C   UNL A   1      30.678  24.716  24.922  1.00  0.00     0.265 C 
ATOM     19  C   UNL A   1      30.626  24.747  26.444  1.00  0.00     0.330 C 
ATOM     20  O   UNL A   1      29.940  25.435  24.248  1.00  0.00    -0.270 OA
BRANCH  11  21
ATOM     21  C   UNL A   1      34.666  19.971  25.077  1.00  0.00     0.254 C 
ATOM     22  C   UNL A   1      32.562  14.795  25.375  1.00  0.00     0.332 C 
ATOM     23  N   UNL A   1      32.931  16.064  24.750  1.00  0.00    -0.334 N 
ATOM     24  C   UNL A   1      34.388  16.297  24.867  1.00  0.00     0.283 C 
ATOM     25  C   UNL A   1      32.210  17.180  25.401  1.00  0.00     0.283 C 
ATOM     26  H   UNL A   1      32.677  16.019  23.764  1.00  0.00     0.347 HD
ATOM     27  C   UNL A   1      34.818  17.655  24.274  1.00  0.00     0.181 C 
ATOM     28  C   UNL A   1      32.577  18.538  24.773  1.00  0.00     0.181 C 
ATOM     29  N   UNL A   1      34.028  18.767  24.808  1.00  0.00    -0.327 N 
ATOM     30  O   UNL A   1      35.868  20.157  24.904  1.00  0.00    -0.269 OA
ENDBRANCH  11  21
ENDBRANCH   9  10
ENDBRANCH   6   9
ENDBRANCH   4   5
ENDBRANCH   3   4
ENDBRANCH   2   3
ENDBRANCH   1   2
BRANCH   1  31
ATOM     31  C   UNL A   1      31.638  28.592  25.235  1.00  0.00     0.021 C 
BRANCH  31  32
ATOM     32  C   UNL A   1      32.823  29.491  25.569  1.00  0.00     0.116 C 
BRANCH  32  33
ATOM     33  N   UNL A   1      32.399  30.831  25.949  1.00  0.00    -0.352 N 
ATOM     34  C   UNL A   1      32.894  31.648  26.933  1.00  0.00     0.251 C 
ATOM     35  H   UNL A   1      31.651  31.202  25.427  1.00  0.00     0.163 HD
ATOM     36  O   UNL A   1      32.279  32.665  27.251  1.00  0.00    -0.269 OA
BRANCH  34  37
ATOM     37  C   UNL A   1      34.158  31.299  27.615  1.00  0.00     0.039 A 
ATOM     38  C   UNL A   1      35.119  32.292  27.819  1.00  0.00     0.014 A 
ATOM     39  C   UNL A   1      34.399  29.990  28.043  1.00  0.00     0.014 A 
ATOM     40  C   UNL A   1      36.301  31.983  28.496  1.00  0.00     0.010 A 
ATOM     41  C   UNL A   1      35.540  29.703  28.787  1.00  0.00     0.010 A 
ATOM     42  C   UNL A   1      36.511  30.691  29.007  1.00  0.00    -0.014 A 
BRANCH  42  43
ATOM     43  C   UNL A   1      37.745  30.350  29.761  1.00  0.00     0.031 A 
ATOM     44  C   UNL A   1      38.761  29.414  29.159  1.00  0.00     0.074 A 
ATOM     45  C   UNL A   1      37.918  30.819  31.012  1.00  0.00     0.049 A 
ATOM     46  N   UNL A   1      39.865  28.947  29.683  1.00  0.00    -0.248 NA
ATOM     47  C   UNL A   1      38.488  28.915  27.800  1.00  0.00     0.031 C 
ATOM     48  C   UNL A   1      36.976  31.679  31.732  1.00  0.00     0.029 A 
ATOM     49  N   UNL A   1      38.937  30.621  31.911  1.00  0.00    -0.354 N 
ATOM     50  C   UNL A   1      40.398  28.079  28.737  1.00  0.00     0.074 A 
ATOM     51  C   UNL A   1      39.477  28.051  27.623  1.00  0.00     0.031 C 
ATOM     52  C   UNL A   1      37.462  31.937  32.958  1.00  0.00     0.029 A 
ATOM     53  C   UNL A   1      38.731  31.237  33.124  1.00  0.00     0.049 A 
ATOM     54  H   UNL A   1      39.739  30.087  31.706  1.00  0.00     0.167 HD
ATOM     55  C   UNL A   1      41.563  27.391  28.778  1.00  0.00     0.034 A 
ATOM     56  C   UNL A   1      39.477  31.229  34.247  1.00  0.00     0.034 A 
ATOM     57  C   UNL A   1      42.496  27.450  29.870  1.00  0.00     0.049 A 
ATOM     58  C   UNL A   1      40.778  30.472  34.255  1.00  0.00     0.074 A 
ATOM     59  C   UNL A   1      43.737  26.848  29.975  1.00  0.00     0.029 A 
ATOM     60  N   UNL A   1      42.289  28.149  31.049  1.00  0.00    -0.354 N 
ATOM     61  N   UNL A   1      41.333  29.772  33.295  1.00  0.00    -0.248 NA
ATOM     62  C   UNL A   1      41.577  30.536  35.488  1.00  0.00     0.031 C 
ATOM     63  C   UNL A   1      44.268  27.159  31.229  1.00  0.00     0.029 A 
ATOM     64  C   UNL A   1      43.376  27.988  31.890  1.00  0.00     0.049 A 
ATOM     65  H   UNL A   1      41.487  28.681  31.257  1.00  0.00     0.167 HD
ATOM     66  C   UNL A   1      42.562  29.352  33.791  1.00  0.00     0.074 A 
ATOM     67  C   UNL A   1      42.678  29.891  35.129  1.00  0.00     0.031 C 
ATOM     68  C   UNL A   1      43.505  28.581  33.195  1.00  0.00     0.034 A 
BRANCH  55  69
ATOM     69  C   UNL A   1      41.923  26.548  27.580  1.00  0.00     0.023 A 
ATOM     70  C   UNL A   1      42.575  27.142  26.480  1.00  0.00     0.012 A 
ATOM     71  C   UNL A   1      41.680  25.160  27.570  1.00  0.00     0.148 A 
ATOM     72  C   UNL A   1      42.948  26.379  25.376  1.00  0.00     0.002 A 
ATOM     73  C   UNL A   1      42.098  24.397  26.487  1.00  0.00     0.091 A 
ATOM     74  F   UNL A   1      41.043  24.616  28.616  1.00  0.00    -0.205 F 
ATOM     75  C   UNL A   1      42.720  25.006  25.384  1.00  0.00     0.022 A 
BRANCH  73  76
ATOM     76  S   UNL A   1      41.926  22.610  26.433  1.00  0.00     0.127 S 
ATOM     77  O   UNL A   1      42.552  22.291  25.151  1.00  0.00    -0.237 OA
ATOM     78  O   UNL A   1      42.693  22.194  27.607  1.00  0.00    -0.237 OA
ATOM     79  O   UNL A   1      40.497  22.340  26.511  1.00  0.00    -0.744 OA
ENDBRANCH  73  76
ENDBRANCH  55  69
BRANCH  56  80
ATOM     80  C   UNL A   1      39.042  32.004  35.445  1.00  0.00     0.023 A 
ATOM     81  C   UNL A   1      39.333  33.381  35.521  1.00  0.00     0.012 A 
ATOM     82  C   UNL A   1      38.350  31.389  36.505  1.00  0.00     0.148 A 
ATOM     83  C   UNL A   1      38.981  34.121  36.651  1.00  0.00     0.002 A 
ATOM     84  C   UNL A   1      37.951  32.145  37.601  1.00  0.00     0.091 A 
ATOM     85  F   UNL A   1      38.091  30.078  36.419  1.00  0.00    -0.205 F 
ATOM     86  C   UNL A   1      38.284  33.506  37.687  1.00  0.00     0.022 A 
BRANCH  84  87
ATOM     87  S   UNL A   1      36.941  31.466  38.921  1.00  0.00     0.127 S 
ATOM     88  O   UNL A   1      37.811  31.635  40.083  1.00  0.00    -0.237 OA
ATOM     89  O   UNL A   1      35.773  32.350  38.892  1.00  0.00    -0.237 OA
ATOM     90  O   UNL A   1      36.660  30.090  38.534  1.00  0.00    -0.744 OA
ENDBRANCH  84  87
ENDBRANCH  56  80
BRANCH  68  91
ATOM     91  C   UNL A   1      44.779  28.318  33.957  1.00  0.00     0.023 A 
ATOM     92  C   UNL A   1      45.879  29.187  33.821  1.00  0.00     0.012 A 
ATOM     93  C   UNL A   1      44.854  27.244  34.867  1.00  0.00     0.148 A 
ATOM     94  C   UNL A   1      47.046  28.971  34.551  1.00  0.00     0.002 A 
ATOM     95  C   UNL A   1      46.000  27.067  35.631  1.00  0.00     0.091 A 
ATOM     96  F   UNL A   1      43.803  26.418  34.969  1.00  0.00    -0.205 F 
ATOM     97  C   UNL A   1      47.103  27.920  35.464  1.00  0.00     0.022 A 
BRANCH  95  98
ATOM     98  S   UNL A   1      46.125  25.805  36.902  1.00  0.00     0.127 S 
ATOM     99  O   UNL A   1      47.572  25.726  37.102  1.00  0.00    -0.237 OA
ATOM    100  O   UNL A   1      45.388  26.410  38.012  1.00  0.00    -0.237 OA
ATOM    101  O   UNL A   1      45.507  24.609  36.345  1.00  0.00    -0.744 OA
ENDBRANCH  95  98
ENDBRANCH  68  91
ENDBRANCH  42  43
ENDBRANCH  34  37
ENDBRANCH  32  33
ENDBRANCH  31  32
ENDBRANCH   1  31
TORSDOF 18
ENDMDL
