MODEL 1
REMARK VINA RESULT:     -13.1      0.000      0.000
REMARK SMILES Cc1c(NC(=O)[C@@H]2CC=CC[C@@H]2C(=O)NCCCCCCNC(=O)c2ccc(-c3c4nc(c(-c5cccc(S(=O)(=O)[O-])c5F)c5ccc([nH]5)c(-c5cccc(S(=O)(=O)[O-])c5F)c5nc(c(-c6cccc(S(=O)(=O)[O-])c6F)c6ccc3[nH]6)C=C5)C=C4)cc2)cccc1C(=O)N1CCOCC1
REMARK SMILES IDX 18 1 17 2 16 3 15 4 13 5 14 6 12 8 7 9 8 10 9 11 11 12 10 13
REMARK SMILES IDX 5 14 4 15 6 17 3 18 1 19 2 20 91 21 88 22 90 23 89 24 92 25
REMARK SMILES IDX 93 26 94 27 95 28 99 29 96 30 98 31 97 32 19 33 20 34 21 35
REMARK SMILES IDX 22 36 23 37 24 39 25 40 26 41 87 42 27 43 86 44 28 45 29 46
REMARK SMILES IDX 30 47 80 48 31 49 85 50 79 51 81 52 32 53 84 54 78 55 77 56
REMARK SMILES IDX 33 58 65 59 45 60 64 61 46 62 49 63 63 64 82 65 47 66 48 67
REMARK SMILES IDX 62 69 83 70 50 71 34 72 35 73 43 74 36 75 38 76 44 77 37 78
REMARK SMILES IDX 39 79 40 80 41 81 42 82 66 83 67 84 75 85 68 86 70 87 76 88
REMARK SMILES IDX 69 89 71 90 72 91 73 92 74 93 51 94 52 95 60 96 53 97 55 98
REMARK SMILES IDX 61 99 54 100 56 101 57 102 58 103 59 104
REMARK H PARENT 15 7 4 16 22 38 81 57 49 68
REMARK Flexibility Score: inf
ROOT
ATOM      1  C   UNL A   1      36.245  19.177  24.561  1.00  0.00     0.002 C 
ENDROOT
BRANCH   1   2
ATOM      2  C   UNL A   1      34.731  19.257  24.776  1.00  0.00     0.021 C 
BRANCH   2   3
ATOM      3  C   UNL A   1      34.294  20.067  25.997  1.00  0.00     0.116 C 
BRANCH   3   4
ATOM      4  N   UNL A   1      32.875  20.351  25.990  1.00  0.00    -0.356 N 
ATOM      5  C   UNL A   1      32.098  21.433  25.762  1.00  0.00     0.224 C 
ATOM      6  O   UNL A   1      30.883  21.169  25.738  1.00  0.00    -0.275 OA
ATOM      7  H   UNL A   1      32.339  19.554  26.206  1.00  0.00     0.163 HD
BRANCH   5   8
ATOM      8  C   UNL A   1      32.536  22.884  25.459  1.00  0.00     0.095 C 
ATOM      9  C   UNL A   1      31.556  23.974  24.967  1.00  0.00     0.095 C 
ATOM     10  C   UNL A   1      30.929  23.543  23.630  1.00  0.00     0.041 C 
ATOM     11  C   UNL A   1      31.989  23.140  22.640  1.00  0.00    -0.030 C 
ATOM     12  C   UNL A   1      33.707  22.829  24.437  1.00  0.00     0.041 C 
ATOM     13  C   UNL A   1      33.246  22.842  23.003  1.00  0.00    -0.030 C 
BRANCH   9  14
ATOM     14  C   UNL A   1      30.659  24.451  26.103  1.00  0.00     0.228 C 
ATOM     15  N   UNL A   1      30.423  25.748  26.415  1.00  0.00    -0.326 N 
ATOM     16  H   UNL A   1      29.644  25.842  27.009  1.00  0.00     0.169 HD
ATOM     17  O   UNL A   1      30.060  23.633  26.816  1.00  0.00    -0.274 OA
BRANCH  15  18
ATOM     18  C   UNL A   1      31.000  26.995  26.114  1.00  0.00     0.044 A 
ATOM     19  C   UNL A   1      30.264  26.587  23.737  1.00  0.00     0.047 C 
ATOM     20  C   UNL A   1      30.783  27.519  24.805  1.00  0.00    -0.015 A 
ATOM     21  C   UNL A   1      31.135  28.862  24.527  1.00  0.00     0.045 A 
ATOM     22  C   UNL A   1      31.687  27.755  27.061  1.00  0.00     0.026 A 
ATOM     23  C   UNL A   1      31.860  29.578  25.498  1.00  0.00     0.014 A 
ATOM     24  C   UNL A   1      32.158  29.022  26.738  1.00  0.00     0.003 A 
BRANCH  21  25
ATOM     25  C   UNL A   1      30.936  29.593  23.228  1.00  0.00     0.254 C 
ATOM     26  O   UNL A   1      31.838  29.553  22.390  1.00  0.00    -0.269 OA
ATOM     27  N   UNL A   1      29.751  30.259  22.947  1.00  0.00    -0.334 N 
ATOM     28  C   UNL A   1      29.173  31.302  23.795  1.00  0.00     0.148 C 
ATOM     29  C   UNL A   1      29.362  30.358  21.541  1.00  0.00     0.148 C 
ATOM     30  C   UNL A   1      27.657  31.434  23.563  1.00  0.00     0.181 C 
ATOM     31  C   UNL A   1      27.840  30.427  21.427  1.00  0.00     0.181 C 
ATOM     32  O   UNL A   1      27.331  31.552  22.169  1.00  0.00    -0.378 OA
ENDBRANCH  21  25
ENDBRANCH  15  18
ENDBRANCH   9  14
ENDBRANCH   5   8
ENDBRANCH   3   4
ENDBRANCH   2   3
ENDBRANCH   1   2
BRANCH   1  33
ATOM     33  C   UNL A   1      37.080  20.308  25.184  1.00  0.00     0.002 C 
BRANCH  33  34
ATOM     34  C   UNL A   1      37.076  21.644  24.439  1.00  0.00     0.021 C 
BRANCH  34  35
ATOM     35  C   UNL A   1      37.856  22.742  25.143  1.00  0.00     0.116 C 
BRANCH  35  36
ATOM     36  N   UNL A   1      39.021  22.261  25.858  1.00  0.00    -0.352 N 
ATOM     37  C   UNL A   1      40.024  22.956  26.515  1.00  0.00     0.251 C 
ATOM     38  H   UNL A   1      39.117  21.281  25.881  1.00  0.00     0.163 HD
ATOM     39  O   UNL A   1      41.014  22.339  26.871  1.00  0.00    -0.269 OA
BRANCH  37  40
ATOM     40  C   UNL A   1      39.828  24.382  26.902  1.00  0.00     0.039 A 
ATOM     41  C   UNL A   1      40.578  25.356  26.223  1.00  0.00     0.014 A 
ATOM     42  C   UNL A   1      39.097  24.745  28.025  1.00  0.00     0.014 A 
ATOM     43  C   UNL A   1      40.790  26.606  26.809  1.00  0.00     0.010 A 
ATOM     44  C   UNL A   1      39.394  25.926  28.662  1.00  0.00     0.010 A 
ATOM     45  C   UNL A   1      40.288  26.830  28.082  1.00  0.00    -0.014 A 
BRANCH  45  46
ATOM     46  C   UNL A   1      40.572  27.977  28.928  1.00  0.00     0.031 A 
ATOM     47  C   UNL A   1      39.676  29.146  28.862  1.00  0.00     0.074 A 
ATOM     48  C   UNL A   1      41.394  27.796  29.985  1.00  0.00     0.049 A 
ATOM     49  N   UNL A   1      39.810  30.187  29.604  1.00  0.00    -0.248 NA
ATOM     50  C   UNL A   1      38.565  29.242  27.923  1.00  0.00     0.031 C 
ATOM     51  C   UNL A   1      41.370  28.512  31.255  1.00  0.00     0.029 A 
ATOM     52  N   UNL A   1      42.584  27.062  30.034  1.00  0.00    -0.354 N 
ATOM     53  C   UNL A   1      38.689  30.967  29.442  1.00  0.00     0.074 A 
ATOM     54  C   UNL A   1      38.004  30.393  28.310  1.00  0.00     0.031 C 
ATOM     55  C   UNL A   1      42.577  28.418  31.828  1.00  0.00     0.029 A 
ATOM     56  C   UNL A   1      43.459  27.810  30.849  1.00  0.00     0.049 A 
ATOM     57  H   UNL A   1      42.771  26.203  29.592  1.00  0.00     0.167 HD
ATOM     58  C   UNL A   1      38.445  31.933  30.369  1.00  0.00     0.034 A 
ATOM     59  C   UNL A   1      44.633  28.349  30.405  1.00  0.00     0.034 A 
ATOM     60  C   UNL A   1      39.609  32.111  31.253  1.00  0.00     0.049 A 
ATOM     61  C   UNL A   1      44.720  29.863  30.564  1.00  0.00     0.074 A 
ATOM     62  C   UNL A   1      39.941  31.747  32.545  1.00  0.00     0.029 A 
ATOM     63  N   UNL A   1      40.773  32.584  30.679  1.00  0.00    -0.354 N 
ATOM     64  N   UNL A   1      43.803  30.609  31.118  1.00  0.00    -0.248 NA
ATOM     65  C   UNL A   1      45.818  30.663  30.016  1.00  0.00     0.031 C 
ATOM     66  C   UNL A   1      41.341  31.982  32.722  1.00  0.00     0.029 A 
ATOM     67  C   UNL A   1      41.844  32.515  31.546  1.00  0.00     0.049 A 
ATOM     68  H   UNL A   1      40.832  32.929  29.759  1.00  0.00     0.167 HD
ATOM     69  C   UNL A   1      44.058  31.926  30.831  1.00  0.00     0.074 A 
ATOM     70  C   UNL A   1      45.364  31.915  30.200  1.00  0.00     0.031 C 
ATOM     71  C   UNL A   1      43.149  32.925  31.046  1.00  0.00     0.034 A 
BRANCH  58  72
ATOM     72  C   UNL A   1      37.143  32.678  30.606  1.00  0.00     0.023 A 
ATOM     73  C   UNL A   1      36.703  32.769  31.949  1.00  0.00     0.012 A 
ATOM     74  C   UNL A   1      36.266  33.215  29.636  1.00  0.00     0.148 A 
ATOM     75  C   UNL A   1      35.463  33.308  32.304  1.00  0.00     0.002 A 
ATOM     76  C   UNL A   1      35.035  33.775  29.990  1.00  0.00     0.091 A 
ATOM     77  F   UNL A   1      36.575  33.157  28.342  1.00  0.00    -0.205 F 
ATOM     78  C   UNL A   1      34.625  33.809  31.323  1.00  0.00     0.022 A 
BRANCH  76  79
ATOM     79  S   UNL A   1      33.888  34.445  28.769  1.00  0.00     0.127 S 
ATOM     80  O   UNL A   1      32.784  34.901  29.613  1.00  0.00    -0.237 OA
ATOM     81  O   UNL A   1      34.670  35.520  28.159  1.00  0.00    -0.237 OA
ATOM     82  O   UNL A   1      33.555  33.350  27.866  1.00  0.00    -0.744 OA
ENDBRANCH  76  79
ENDBRANCH  58  72
BRANCH  59  83
ATOM     83  C   UNL A   1      45.240  27.576  29.282  1.00  0.00     0.023 A 
ATOM     84  C   UNL A   1      45.749  26.292  29.585  1.00  0.00     0.012 A 
ATOM     85  C   UNL A   1      44.930  27.891  27.947  1.00  0.00     0.148 A 
ATOM     86  C   UNL A   1      45.813  25.301  28.605  1.00  0.00     0.002 A 
ATOM     87  C   UNL A   1      44.992  26.895  26.977  1.00  0.00     0.091 A 
ATOM     88  F   UNL A   1      44.483  29.121  27.666  1.00  0.00    -0.205 F 
ATOM     89  C   UNL A   1      45.399  25.593  27.310  1.00  0.00     0.022 A 
BRANCH  87  90
ATOM     90  S   UNL A   1      44.397  27.177  25.303  1.00  0.00     0.127 S 
ATOM     91  O   UNL A   1      43.898  25.853  24.944  1.00  0.00    -0.237 OA
ATOM     92  O   UNL A   1      43.366  28.195  25.509  1.00  0.00    -0.237 OA
ATOM     93  O   UNL A   1      45.560  27.653  24.570  1.00  0.00    -0.744 OA
ENDBRANCH  87  90
ENDBRANCH  59  83
BRANCH  71  94
ATOM     94  C   UNL A   1      43.421  34.388  30.764  1.00  0.00     0.023 A 
ATOM     95  C   UNL A   1      43.620  35.291  31.826  1.00  0.00     0.012 A 
ATOM     96  C   UNL A   1      43.325  34.938  29.459  1.00  0.00     0.148 A 
ATOM     97  C   UNL A   1      43.747  36.668  31.602  1.00  0.00     0.002 A 
ATOM     98  C   UNL A   1      43.349  36.313  29.254  1.00  0.00     0.091 A 
ATOM     99  F   UNL A   1      43.264  34.127  28.398  1.00  0.00    -0.205 F 
ATOM    100  C   UNL A   1      43.586  37.181  30.321  1.00  0.00     0.022 A 
BRANCH  98 101
ATOM    101  S   UNL A   1      42.955  37.055  27.661  1.00  0.00     0.127 S 
ATOM    102  O   UNL A   1      42.914  38.479  28.000  1.00  0.00    -0.237 OA
ATOM    103  O   UNL A   1      44.104  36.654  26.853  1.00  0.00    -0.237 OA
ATOM    104  O   UNL A   1      41.672  36.494  27.266  1.00  0.00    -0.744 OA
ENDBRANCH  98 101
ENDBRANCH  71  94
ENDBRANCH  45  46
ENDBRANCH  37  40
ENDBRANCH  35  36
ENDBRANCH  34  35
ENDBRANCH  33  34
ENDBRANCH   1  33
TORSDOF 19
ENDMDL
MODEL 2
REMARK VINA RESULT:     -12.9      1.940      2.816
REMARK SMILES Cc1c(NC(=O)[C@@H]2CC=CC[C@@H]2C(=O)NCCCCCCNC(=O)c2ccc(-c3c4nc(c(-c5cccc(S(=O)(=O)[O-])c5F)c5ccc([nH]5)c(-c5cccc(S(=O)(=O)[O-])c5F)c5nc(c(-c6cccc(S(=O)(=O)[O-])c6F)c6ccc3[nH]6)C=C5)C=C4)cc2)cccc1C(=O)N1CCOCC1
REMARK SMILES IDX 18 1 17 2 16 3 15 4 13 5 14 6 12 8 7 9 8 10 9 11 11 12 10 13
REMARK SMILES IDX 5 14 4 15 6 17 3 18 1 19 2 20 91 21 88 22 90 23 89 24 92 25
REMARK SMILES IDX 93 26 94 27 95 28 99 29 96 30 98 31 97 32 19 33 20 34 21 35
REMARK SMILES IDX 22 36 23 37 24 39 25 40 26 41 87 42 27 43 86 44 28 45 29 46
REMARK SMILES IDX 30 47 80 48 31 49 85 50 79 51 81 52 32 53 84 54 78 55 77 56
REMARK SMILES IDX 33 58 65 59 45 60 64 61 46 62 49 63 63 64 82 65 47 66 48 67
REMARK SMILES IDX 62 69 83 70 50 71 34 72 35 73 43 74 36 75 38 76 44 77 37 78
REMARK SMILES IDX 39 79 40 80 41 81 42 82 66 83 67 84 75 85 68 86 70 87 76 88
REMARK SMILES IDX 69 89 71 90 72 91 73 92 74 93 51 94 52 95 60 96 53 97 55 98
REMARK SMILES IDX 61 99 54 100 56 101 57 102 58 103 59 104
REMARK H PARENT 15 7 4 16 22 38 81 57 49 68
REMARK Flexibility Score: inf
ROOT
ATOM      1  C   UNL A   1      36.943  21.426  24.109  1.00  0.00     0.002 C 
ENDROOT
BRANCH   1   2
ATOM      2  C   UNL A   1      36.519  22.875  23.855  1.00  0.00     0.021 C 
BRANCH   2   3
ATOM      3  C   UNL A   1      35.036  23.165  24.087  1.00  0.00     0.116 C 
BRANCH   3   4
ATOM      4  N   UNL A   1      34.197  22.033  23.756  1.00  0.00    -0.356 N 
ATOM      5  C   UNL A   1      33.255  21.300  24.388  1.00  0.00     0.224 C 
ATOM      6  O   UNL A   1      32.691  20.478  23.644  1.00  0.00    -0.275 OA
ATOM      7  H   UNL A   1      34.352  21.717  22.837  1.00  0.00     0.163 HD
BRANCH   5   8
ATOM      8  C   UNL A   1      32.763  21.419  25.848  1.00  0.00     0.095 C 
ATOM      9  C   UNL A   1      32.132  22.709  26.423  1.00  0.00     0.095 C 
ATOM     10  C   UNL A   1      33.141  23.866  26.330  1.00  0.00     0.041 C 
ATOM     11  C   UNL A   1      34.466  23.478  26.929  1.00  0.00    -0.030 C 
ATOM     12  C   UNL A   1      33.943  21.033  26.785  1.00  0.00     0.041 C 
ATOM     13  C   UNL A   1      34.815  22.203  27.156  1.00  0.00    -0.030 C 
BRANCH   9  14
ATOM     14  C   UNL A   1      30.713  22.898  25.898  1.00  0.00     0.228 C 
ATOM     15  N   UNL A   1      30.385  23.575  24.772  1.00  0.00    -0.326 N 
ATOM     16  H   UNL A   1      29.465  23.377  24.485  1.00  0.00     0.169 HD
ATOM     17  O   UNL A   1      29.750  22.402  26.500  1.00  0.00    -0.274 OA
BRANCH  15  18
ATOM     18  C   UNL A   1      31.015  24.486  23.904  1.00  0.00     0.044 A 
ATOM     19  C   UNL A   1      29.996  26.304  25.323  1.00  0.00     0.047 C 
ATOM     20  C   UNL A   1      30.974  25.867  24.261  1.00  0.00    -0.015 A 
ATOM     21  C   UNL A   1      31.786  26.790  23.557  1.00  0.00     0.045 A 
ATOM     22  C   UNL A   1      31.734  24.080  22.780  1.00  0.00     0.026 A 
ATOM     23  C   UNL A   1      32.464  26.343  22.408  1.00  0.00     0.014 A 
ATOM     24  C   UNL A   1      32.415  25.013  22.006  1.00  0.00     0.003 A 
BRANCH  21  25
ATOM     25  C   UNL A   1      31.908  28.265  23.824  1.00  0.00     0.254 C 
ATOM     26  O   UNL A   1      31.471  29.050  22.982  1.00  0.00    -0.269 OA
ATOM     27  N   UNL A   1      32.451  28.743  25.009  1.00  0.00    -0.334 N 
ATOM     28  C   UNL A   1      33.783  28.391  25.503  1.00  0.00     0.148 C 
ATOM     29  C   UNL A   1      31.967  30.036  25.488  1.00  0.00     0.148 C 
ATOM     30  C   UNL A   1      33.881  28.581  27.027  1.00  0.00     0.181 C 
ATOM     31  C   UNL A   1      32.058  30.092  27.012  1.00  0.00     0.181 C 
ATOM     32  O   UNL A   1      33.416  29.875  27.443  1.00  0.00    -0.378 OA
ENDBRANCH  21  25
ENDBRANCH  15  18
ENDBRANCH   9  14
ENDBRANCH   5   8
ENDBRANCH   3   4
ENDBRANCH   2   3
ENDBRANCH   1   2
BRANCH   1  33
ATOM     33  C   UNL A   1      37.705  21.161  25.419  1.00  0.00     0.002 C 
BRANCH  33  34
ATOM     34  C   UNL A   1      38.727  22.221  25.837  1.00  0.00     0.021 C 
BRANCH  34  35
ATOM     35  C   UNL A   1      39.841  21.686  26.719  1.00  0.00     0.116 C 
BRANCH  35  36
ATOM     36  N   UNL A   1      41.169  22.028  26.249  1.00  0.00    -0.352 N 
ATOM     37  C   UNL A   1      41.772  23.264  26.077  1.00  0.00     0.251 C 
ATOM     38  H   UNL A   1      41.736  21.258  26.014  1.00  0.00     0.163 HD
ATOM     39  O   UNL A   1      42.832  23.309  25.474  1.00  0.00    -0.269 OA
BRANCH  37  40
ATOM     40  C   UNL A   1      41.213  24.477  26.738  1.00  0.00     0.039 A 
ATOM     41  C   UNL A   1      41.142  25.662  25.987  1.00  0.00     0.014 A 
ATOM     42  C   UNL A   1      40.957  24.520  28.103  1.00  0.00     0.014 A 
ATOM     43  C   UNL A   1      41.069  26.896  26.636  1.00  0.00     0.010 A 
ATOM     44  C   UNL A   1      41.003  25.730  28.753  1.00  0.00     0.010 A 
ATOM     45  C   UNL A   1      41.120  26.915  28.022  1.00  0.00    -0.014 A 
BRANCH  45  46
ATOM     46  C   UNL A   1      41.258  28.093  28.860  1.00  0.00     0.031 A 
ATOM     47  C   UNL A   1      40.212  29.131  28.804  1.00  0.00     0.074 A 
ATOM     48  C   UNL A   1      42.110  28.030  29.907  1.00  0.00     0.049 A 
ATOM     49  N   UNL A   1      40.214  30.184  29.541  1.00  0.00    -0.248 NA
ATOM     50  C   UNL A   1      39.086  29.073  27.879  1.00  0.00     0.031 C 
ATOM     51  C   UNL A   1      42.006  28.741  31.175  1.00  0.00     0.029 A 
ATOM     52  N   UNL A   1      43.389  27.463  29.942  1.00  0.00    -0.354 N 
ATOM     53  C   UNL A   1      38.996  30.805  29.392  1.00  0.00     0.074 A 
ATOM     54  C   UNL A   1      38.379  30.139  28.271  1.00  0.00     0.031 C 
ATOM     55  C   UNL A   1      43.222  28.813  31.732  1.00  0.00     0.029 A 
ATOM     56  C   UNL A   1      44.166  28.325  30.743  1.00  0.00     0.049 A 
ATOM     57  H   UNL A   1      43.684  26.635  29.500  1.00  0.00     0.167 HD
ATOM     58  C   UNL A   1      38.636  31.734  30.320  1.00  0.00     0.034 A 
ATOM     59  C   UNL A   1      45.251  29.016  30.282  1.00  0.00     0.034 A 
ATOM     60  C   UNL A   1      39.777  32.070  31.187  1.00  0.00     0.049 A 
ATOM     61  C   UNL A   1      45.135  30.528  30.435  1.00  0.00     0.074 A 
ATOM     62  C   UNL A   1      40.172  31.760  32.476  1.00  0.00     0.029 A 
ATOM     63  N   UNL A   1      40.859  32.693  30.597  1.00  0.00    -0.354 N 
ATOM     64  N   UNL A   1      44.133  31.146  30.999  1.00  0.00    -0.248 NA
ATOM     65  C   UNL A   1      46.107  31.467  29.870  1.00  0.00     0.031 C 
ATOM     66  C   UNL A   1      41.530  32.183  32.633  1.00  0.00     0.029 A 
ATOM     67  C   UNL A   1      41.940  32.773  31.449  1.00  0.00     0.049 A 
ATOM     68  H   UNL A   1      40.859  33.040  29.675  1.00  0.00     0.167 HD
ATOM     69  C   UNL A   1      44.204  32.485  30.705  1.00  0.00     0.074 A 
ATOM     70  C   UNL A   1      45.492  32.647  30.057  1.00  0.00     0.031 C 
ATOM     71  C   UNL A   1      43.172  33.353  30.930  1.00  0.00     0.034 A 
BRANCH  58  72
ATOM     72  C   UNL A   1      37.249  32.297  30.573  1.00  0.00     0.023 A 
ATOM     73  C   UNL A   1      36.690  32.050  31.850  1.00  0.00     0.012 A 
ATOM     74  C   UNL A   1      36.406  32.964  29.654  1.00  0.00     0.148 A 
ATOM     75  C   UNL A   1      35.375  32.391  32.180  1.00  0.00     0.002 A 
ATOM     76  C   UNL A   1      35.099  33.328  29.988  1.00  0.00     0.091 A 
ATOM     77  F   UNL A   1      36.828  33.222  28.418  1.00  0.00    -0.205 F 
ATOM     78  C   UNL A   1      34.575  33.029  31.247  1.00  0.00     0.022 A 
BRANCH  76  79
ATOM     79  S   UNL A   1      33.996  34.158  28.826  1.00  0.00     0.127 S 
ATOM     80  O   UNL A   1      34.820  35.281  28.379  1.00  0.00    -0.237 OA
ATOM     81  O   UNL A   1      33.773  33.127  27.812  1.00  0.00    -0.237 OA
ATOM     82  O   UNL A   1      32.806  34.534  29.579  1.00  0.00    -0.744 OA
ENDBRANCH  76  79
ENDBRANCH  58  72
BRANCH  59  83
ATOM     83  C   UNL A   1      45.941  28.327  29.152  1.00  0.00     0.023 A 
ATOM     84  C   UNL A   1      46.770  27.228  29.479  1.00  0.00     0.012 A 
ATOM     85  C   UNL A   1      45.463  28.456  27.836  1.00  0.00     0.148 A 
ATOM     86  C   UNL A   1      47.000  26.210  28.554  1.00  0.00     0.002 A 
ATOM     87  C   UNL A   1      45.694  27.432  26.921  1.00  0.00     0.091 A 
ATOM     88  F   UNL A   1      44.710  29.518  27.528  1.00  0.00    -0.205 F 
ATOM     89  C   UNL A   1      46.430  26.295  27.287  1.00  0.00     0.022 A 
BRANCH  87  90
ATOM     90  S   UNL A   1      44.923  27.436  25.296  1.00  0.00     0.127 S 
ATOM     91  O   UNL A   1      45.992  27.984  24.468  1.00  0.00    -0.237 OA
ATOM     92  O   UNL A   1      44.640  26.016  25.085  1.00  0.00    -0.237 OA
ATOM     93  O   UNL A   1      43.734  28.260  25.450  1.00  0.00    -0.744 OA
ENDBRANCH  87  90
ENDBRANCH  59  83
BRANCH  71  94
ATOM     94  C   UNL A   1      43.240  34.838  30.641  1.00  0.00     0.023 A 
ATOM     95  C   UNL A   1      43.313  35.301  29.313  1.00  0.00     0.012 A 
ATOM     96  C   UNL A   1      43.398  35.803  31.670  1.00  0.00     0.148 A 
ATOM     97  C   UNL A   1      43.504  36.657  29.020  1.00  0.00     0.002 A 
ATOM     98  C   UNL A   1      43.689  37.130  31.373  1.00  0.00     0.091 A 
ATOM     99  F   UNL A   1      43.213  35.451  32.946  1.00  0.00    -0.205 F 
ATOM    100  C   UNL A   1      43.717  37.567  30.048  1.00  0.00     0.022 A 
BRANCH  98 101
ATOM    101  S   UNL A   1      44.167  38.317  32.641  1.00  0.00     0.127 S 
ATOM    102  O   UNL A   1      45.267  37.614  33.306  1.00  0.00    -0.237 OA
ATOM    103  O   UNL A   1      44.577  39.465  31.837  1.00  0.00    -0.237 OA
ATOM    104  O   UNL A   1      42.988  38.510  33.472  1.00  0.00    -0.744 OA
ENDBRANCH  98 101
ENDBRANCH  71  94
ENDBRANCH  45  46
ENDBRANCH  37  40
ENDBRANCH  35  36
ENDBRANCH  34  35
ENDBRANCH  33  34
ENDBRANCH   1  33
TORSDOF 19
ENDMDL
MODEL 3
REMARK VINA RESULT:     -12.8      4.174     10.019
REMARK SMILES Cc1c(NC(=O)[C@@H]2CC=CC[C@@H]2C(=O)NCCCCCCNC(=O)c2ccc(-c3c4nc(c(-c5cccc(S(=O)(=O)[O-])c5F)c5ccc([nH]5)c(-c5cccc(S(=O)(=O)[O-])c5F)c5nc(c(-c6cccc(S(=O)(=O)[O-])c6F)c6ccc3[nH]6)C=C5)C=C4)cc2)cccc1C(=O)N1CCOCC1
REMARK SMILES IDX 18 1 17 2 16 3 15 4 13 5 14 6 12 8 7 9 8 10 9 11 11 12 10 13
REMARK SMILES IDX 5 14 4 15 6 17 3 18 1 19 2 20 91 21 88 22 90 23 89 24 92 25
REMARK SMILES IDX 93 26 94 27 95 28 99 29 96 30 98 31 97 32 19 33 20 34 21 35
REMARK SMILES IDX 22 36 23 37 24 39 25 40 26 41 87 42 27 43 86 44 28 45 29 46
REMARK SMILES IDX 30 47 80 48 31 49 85 50 79 51 81 52 32 53 84 54 78 55 77 56
REMARK SMILES IDX 33 58 65 59 45 60 64 61 46 62 49 63 63 64 82 65 47 66 48 67
REMARK SMILES IDX 62 69 83 70 50 71 34 72 35 73 43 74 36 75 38 76 44 77 37 78
REMARK SMILES IDX 39 79 40 80 41 81 42 82 66 83 67 84 75 85 68 86 70 87 76 88
REMARK SMILES IDX 69 89 71 90 72 91 73 92 74 93 51 94 52 95 60 96 53 97 55 98
REMARK SMILES IDX 61 99 54 100 56 101 57 102 58 103 59 104
REMARK H PARENT 15 7 4 16 22 38 81 57 49 68
REMARK Flexibility Score: inf
ROOT
ATOM      1  C   UNL A   1      31.668  29.415  26.234  1.00  0.00     0.002 C 
ENDROOT
BRANCH   1   2
ATOM      2  C   UNL A   1      31.735  28.362  27.344  1.00  0.00     0.021 C 
BRANCH   2   3
ATOM      3  C   UNL A   1      32.478  27.078  26.972  1.00  0.00     0.116 C 
BRANCH   3   4
ATOM      4  N   UNL A   1      33.245  27.221  25.753  1.00  0.00    -0.356 N 
ATOM      5  C   UNL A   1      33.171  26.740  24.492  1.00  0.00     0.224 C 
ATOM      6  O   UNL A   1      34.001  27.253  23.722  1.00  0.00    -0.275 OA
ATOM      7  H   UNL A   1      34.017  27.819  25.872  1.00  0.00     0.163 HD
BRANCH   5   8
ATOM      8  C   UNL A   1      32.159  25.729  23.907  1.00  0.00     0.095 C 
ATOM      9  C   UNL A   1      31.737  25.724  22.419  1.00  0.00     0.095 C 
ATOM     10  C   UNL A   1      31.086  27.071  22.061  1.00  0.00     0.041 C 
ATOM     11  C   UNL A   1      29.995  27.421  23.037  1.00  0.00    -0.030 C 
ATOM     12  C   UNL A   1      30.855  25.810  24.751  1.00  0.00     0.041 C 
ATOM     13  C   UNL A   1      29.878  26.835  24.238  1.00  0.00    -0.030 C 
BRANCH   9  14
ATOM     14  C   UNL A   1      32.849  25.164  21.540  1.00  0.00     0.228 C 
ATOM     15  N   UNL A   1      33.644  24.117  21.867  1.00  0.00    -0.326 N 
ATOM     16  H   UNL A   1      34.123  23.767  21.082  1.00  0.00     0.169 HD
ATOM     17  O   UNL A   1      33.075  25.655  20.425  1.00  0.00    -0.274 OA
BRANCH  15  18
ATOM     18  C   UNL A   1      33.965  23.399  23.033  1.00  0.00     0.044 A 
ATOM     19  C   UNL A   1      31.801  22.156  22.677  1.00  0.00     0.047 C 
ATOM     20  C   UNL A   1      33.136  22.288  23.369  1.00  0.00    -0.015 A 
ATOM     21  C   UNL A   1      33.549  21.395  24.388  1.00  0.00     0.045 A 
ATOM     22  C   UNL A   1      35.093  23.681  23.804  1.00  0.00     0.026 A 
ATOM     23  C   UNL A   1      34.671  21.741  25.163  1.00  0.00     0.014 A 
ATOM     24  C   UNL A   1      35.416  22.884  24.895  1.00  0.00     0.003 A 
BRANCH  21  25
ATOM     25  C   UNL A   1      32.833  20.153  24.839  1.00  0.00     0.254 C 
ATOM     26  O   UNL A   1      31.756  20.278  25.424  1.00  0.00    -0.269 OA
ATOM     27  N   UNL A   1      33.335  18.889  24.566  1.00  0.00    -0.334 N 
ATOM     28  C   UNL A   1      34.674  18.436  24.947  1.00  0.00     0.148 C 
ATOM     29  C   UNL A   1      32.365  17.805  24.420  1.00  0.00     0.148 C 
ATOM     30  C   UNL A   1      35.147  17.276  24.054  1.00  0.00     0.181 C 
ATOM     31  C   UNL A   1      32.915  16.740  23.472  1.00  0.00     0.181 C 
ATOM     32  O   UNL A   1      34.168  16.228  23.964  1.00  0.00    -0.378 OA
ENDBRANCH  21  25
ENDBRANCH  15  18
ENDBRANCH   9  14
ENDBRANCH   5   8
ENDBRANCH   3   4
ENDBRANCH   2   3
ENDBRANCH   1   2
BRANCH   1  33
ATOM     33  C   UNL A   1      32.693  30.559  26.321  1.00  0.00     0.002 C 
BRANCH  33  34
ATOM     34  C   UNL A   1      33.601  30.565  27.552  1.00  0.00     0.021 C 
BRANCH  34  35
ATOM     35  C   UNL A   1      34.532  31.764  27.623  1.00  0.00     0.116 C 
BRANCH  35  36
ATOM     36  N   UNL A   1      33.946  32.917  28.279  1.00  0.00    -0.352 N 
ATOM     37  C   UNL A   1      34.320  33.580  29.436  1.00  0.00     0.251 C 
ATOM     38  H   UNL A   1      33.153  33.290  27.829  1.00  0.00     0.163 HD
ATOM     39  O   UNL A   1      33.550  34.404  29.903  1.00  0.00    -0.269 OA
BRANCH  37  40
ATOM     40  C   UNL A   1      35.684  33.396  30.007  1.00  0.00     0.039 A 
ATOM     41  C   UNL A   1      36.784  33.743  29.207  1.00  0.00     0.014 A 
ATOM     42  C   UNL A   1      35.898  32.715  31.199  1.00  0.00     0.014 A 
ATOM     43  C   UNL A   1      38.041  33.195  29.472  1.00  0.00     0.010 A 
ATOM     44  C   UNL A   1      37.100  32.080  31.400  1.00  0.00     0.010 A 
ATOM     45  C   UNL A   1      38.153  32.273  30.502  1.00  0.00    -0.014 A 
BRANCH  45  46
ATOM     46  C   UNL A   1      39.316  31.454  30.799  1.00  0.00     0.031 A 
ATOM     47  C   UNL A   1      39.441  30.136  30.151  1.00  0.00     0.074 A 
ATOM     48  C   UNL A   1      40.394  32.059  31.345  1.00  0.00     0.049 A 
ATOM     49  N   UNL A   1      40.453  29.360  30.307  1.00  0.00    -0.248 NA
ATOM     50  C   UNL A   1      38.407  29.576  29.288  1.00  0.00     0.031 C 
ATOM     51  C   UNL A   1      41.793  31.683  31.186  1.00  0.00     0.029 A 
ATOM     52  N   UNL A   1      40.418  33.026  32.356  1.00  0.00    -0.354 N 
ATOM     53  C   UNL A   1      40.344  28.337  29.394  1.00  0.00     0.074 A 
ATOM     54  C   UNL A   1      39.008  28.458  28.865  1.00  0.00     0.031 C 
ATOM     55  C   UNL A   1      42.494  32.174  32.216  1.00  0.00     0.029 A 
ATOM     56  C   UNL A   1      41.530  32.708  33.161  1.00  0.00     0.049 A 
ATOM     57  H   UNL A   1      39.790  33.774  32.478  1.00  0.00     0.167 HD
ATOM     58  C   UNL A   1      41.455  27.593  29.135  1.00  0.00     0.034 A 
ATOM     59  C   UNL A   1      41.437  32.349  34.477  1.00  0.00     0.034 A 
ATOM     60  C   UNL A   1      42.519  27.893  30.108  1.00  0.00     0.049 A 
ATOM     61  C   UNL A   1      42.019  30.975  34.788  1.00  0.00     0.074 A 
ATOM     62  C   UNL A   1      43.695  28.620  30.101  1.00  0.00     0.029 A 
ATOM     63  N   UNL A   1      42.282  27.563  31.428  1.00  0.00    -0.354 N 
ATOM     64  N   UNL A   1      42.611  30.201  33.920  1.00  0.00    -0.248 NA
ATOM     65  C   UNL A   1      41.886  30.327  36.095  1.00  0.00     0.031 C 
ATOM     66  C   UNL A   1      44.139  28.748  31.455  1.00  0.00     0.029 A 
ATOM     67  C   UNL A   1      43.248  28.071  32.271  1.00  0.00     0.049 A 
ATOM     68  H   UNL A   1      41.513  27.028  31.732  1.00  0.00     0.167 HD
ATOM     69  C   UNL A   1      42.742  28.942  34.449  1.00  0.00     0.074 A 
ATOM     70  C   UNL A   1      42.338  29.088  35.836  1.00  0.00     0.031 C 
ATOM     71  C   UNL A   1      43.084  27.850  33.702  1.00  0.00     0.034 A 
BRANCH  58  72
ATOM     72  C   UNL A   1      41.688  26.660  27.961  1.00  0.00     0.023 A 
ATOM     73  C   UNL A   1      41.708  27.255  26.676  1.00  0.00     0.012 A 
ATOM     74  C   UNL A   1      41.798  25.251  27.985  1.00  0.00     0.148 A 
ATOM     75  C   UNL A   1      41.780  26.508  25.497  1.00  0.00     0.002 A 
ATOM     76  C   UNL A   1      41.895  24.502  26.808  1.00  0.00     0.091 A 
ATOM     77  F   UNL A   1      41.766  24.592  29.141  1.00  0.00    -0.205 F 
ATOM     78  C   UNL A   1      41.871  25.128  25.562  1.00  0.00     0.022 A 
BRANCH  76  79
ATOM     79  S   UNL A   1      42.013  22.702  26.812  1.00  0.00     0.127 S 
ATOM     80  O   UNL A   1      43.208  22.480  27.625  1.00  0.00    -0.237 OA
ATOM     81  O   UNL A   1      40.759  22.305  27.452  1.00  0.00    -0.237 OA
ATOM     82  O   UNL A   1      42.137  22.291  25.418  1.00  0.00    -0.744 OA
ENDBRANCH  76  79
ENDBRANCH  58  72
BRANCH  59  83
ATOM     83  C   UNL A   1      40.249  32.943  35.157  1.00  0.00     0.023 A 
ATOM     84  C   UNL A   1      39.089  32.138  35.246  1.00  0.00     0.012 A 
ATOM     85  C   UNL A   1      40.398  34.028  36.040  1.00  0.00     0.148 A 
ATOM     86  C   UNL A   1      38.170  32.325  36.279  1.00  0.00     0.002 A 
ATOM     87  C   UNL A   1      39.479  34.203  37.071  1.00  0.00     0.091 A 
ATOM     88  F   UNL A   1      41.482  34.804  35.924  1.00  0.00    -0.205 F 
ATOM     89  C   UNL A   1      38.386  33.333  37.212  1.00  0.00     0.022 A 
BRANCH  87  90
ATOM     90  S   UNL A   1      39.736  35.432  38.358  1.00  0.00     0.127 S 
ATOM     91  O   UNL A   1      38.627  35.143  39.262  1.00  0.00    -0.237 OA
ATOM     92  O   UNL A   1      41.061  35.074  38.866  1.00  0.00    -0.237 OA
ATOM     93  O   UNL A   1      39.693  36.711  37.665  1.00  0.00    -0.744 OA
ENDBRANCH  87  90
ENDBRANCH  59  83
BRANCH  71  94
ATOM     94  C   UNL A   1      43.262  26.458  34.272  1.00  0.00     0.023 A 
ATOM     95  C   UNL A   1      42.166  25.775  34.833  1.00  0.00     0.012 A 
ATOM     96  C   UNL A   1      44.540  25.858  34.418  1.00  0.00     0.148 A 
ATOM     97  C   UNL A   1      42.325  24.543  35.480  1.00  0.00     0.002 A 
ATOM     98  C   UNL A   1      44.706  24.687  35.149  1.00  0.00     0.091 A 
ATOM     99  F   UNL A   1      45.600  26.390  33.800  1.00  0.00    -0.205 F 
ATOM    100  C   UNL A   1      43.596  24.012  35.661  1.00  0.00     0.022 A 
BRANCH  98 101
ATOM    101  S   UNL A   1      46.332  24.049  35.588  1.00  0.00     0.127 S 
ATOM    102  O   UNL A   1      46.979  25.240  36.141  1.00  0.00    -0.237 OA
ATOM    103  O   UNL A   1      45.995  23.025  36.574  1.00  0.00    -0.237 OA
ATOM    104  O   UNL A   1      46.919  23.568  34.347  1.00  0.00    -0.744 OA
ENDBRANCH  98 101
ENDBRANCH  71  94
ENDBRANCH  45  46
ENDBRANCH  37  40
ENDBRANCH  35  36
ENDBRANCH  34  35
ENDBRANCH  33  34
ENDBRANCH   1  33
TORSDOF 19
ENDMDL
