MODEL 1
REMARK VINA RESULT:     -11.8      0.000      0.000
REMARK SMILES Cc1ccsc1CNC(=O)N[C@@H]1CCCC[C@H]1C(=O)NCCCCCCNC(=O)c1ccc(-c2c3nc(c(-c4cccc(S(=O)(=O)[O-])c4F)c4ccc([nH]4)c(-c4cccc(S(=O)(=O)[O-])c4F)c4nc(c(-c5cccc(S(=O)(=O)[O-])c5F)c5ccc2[nH]5)C=C4)C=C3)cc1
REMARK SMILES IDX 23 1 22 2 21 3 20 4 18 5 19 6 17 8 12 9 13 10 14 11 16 12
REMARK SMILES IDX 15 13 11 14 8 15 9 16 10 18 7 20 6 21 1 22 2 23 3 24 4 25
REMARK SMILES IDX 5 26 24 27 25 28 26 29 27 30 28 31 29 33 30 34 31 35 92 36
REMARK SMILES IDX 32 37 91 38 33 39 34 40 35 41 85 42 36 43 90 44 84 45 86 46
REMARK SMILES IDX 37 47 89 48 83 49 82 50 38 52 70 53 50 54 69 55 51 56 54 57
REMARK SMILES IDX 68 58 87 59 52 60 53 61 67 63 88 64 55 65 39 66 40 67 48 68
REMARK SMILES IDX 41 69 43 70 49 71 42 72 44 73 45 74 46 75 47 76 71 77 72 78
REMARK SMILES IDX 80 79 73 80 75 81 81 82 74 83 76 84 77 85 78 86 79 87 56 88
REMARK SMILES IDX 57 89 65 90 58 91 60 92 66 93 59 94 61 95 62 96 63 97 64 98
REMARK H PARENT 20 7 8 17 11 19 27 32 86 51 54 62
REMARK Flexibility Score: inf
ROOT
ATOM      1  C   UNL A   1      33.103  29.495  26.126  1.00  0.00     0.002 C 
ENDROOT
BRANCH   1   2
ATOM      2  C   UNL A   1      33.738  28.395  26.986  1.00  0.00     0.021 C 
BRANCH   2   3
ATOM      3  C   UNL A   1      33.992  27.097  26.229  1.00  0.00     0.116 C 
BRANCH   3   4
ATOM      4  N   UNL A   1      33.616  27.252  24.840  1.00  0.00    -0.356 N 
ATOM      5  C   UNL A   1      33.425  26.327  23.868  1.00  0.00     0.225 C 
ATOM      6  O   UNL A   1      33.263  26.747  22.720  1.00  0.00    -0.275 OA
ATOM      7  H   UNL A   1      33.477  28.183  24.553  1.00  0.00     0.163 HD
BRANCH   5   8
ATOM      8  C   UNL A   1      33.361  24.840  24.191  1.00  0.00     0.101 C 
ATOM      9  C   UNL A   1      31.929  24.273  24.201  1.00  0.00     0.096 C 
ATOM     10  C   UNL A   1      31.775  22.766  23.952  1.00  0.00     0.026 C 
ATOM     11  C   UNL A   1      32.793  22.205  22.969  1.00  0.00     0.002 C 
ATOM     12  C   UNL A   1      34.413  24.071  23.376  1.00  0.00     0.015 C 
ATOM     13  C   UNL A   1      34.209  22.566  23.382  1.00  0.00     0.001 C 
BRANCH   9  14
ATOM     14  N   UNL A   1      31.120  24.697  25.358  1.00  0.00    -0.335 N 
ATOM     15  N   UNL A   1      29.350  26.153  24.718  1.00  0.00    -0.333 N 
ATOM     16  C   UNL A   1      30.017  25.409  25.598  1.00  0.00     0.315 C 
ATOM     17  H   UNL A   1      28.438  26.364  25.024  1.00  0.00     0.165 HD
ATOM     18  O   UNL A   1      29.569  25.365  26.749  1.00  0.00    -0.249 OA
ATOM     19  H   UNL A   1      31.507  24.357  26.197  1.00  0.00     0.165 HD
BRANCH  15  20
ATOM     20  C   UNL A   1      29.638  26.728  23.425  1.00  0.00     0.164 C 
BRANCH  20  21
ATOM     21  C   UNL A   1      29.080  28.119  23.227  1.00  0.00     0.027 A 
ATOM     22  C   UNL A   1      31.295  29.381  22.904  1.00  0.00     0.045 C 
ATOM     23  C   UNL A   1      29.805  29.268  22.921  1.00  0.00    -0.035 A 
ATOM     24  C   UNL A   1      28.935  30.352  22.566  1.00  0.00     0.015 A 
ATOM     25  C   UNL A   1      27.606  30.022  22.675  1.00  0.00     0.065 A 
ATOM     26  S   UNL A   1      27.395  28.457  23.311  1.00  0.00    -0.147 S 
ENDBRANCH  20  21
ENDBRANCH  15  20
ENDBRANCH   9  14
ENDBRANCH   5   8
ENDBRANCH   3   4
ENDBRANCH   2   3
ENDBRANCH   1   2
BRANCH   1  27
ATOM     27  C   UNL A   1      31.883  30.176  26.754  1.00  0.00     0.002 C 
BRANCH  27  28
ATOM     28  C   UNL A   1      31.861  31.698  26.615  1.00  0.00     0.021 C 
BRANCH  28  29
ATOM     29  C   UNL A   1      32.918  32.413  27.444  1.00  0.00     0.116 C 
BRANCH  29  30
ATOM     30  N   UNL A   1      32.596  33.818  27.632  1.00  0.00    -0.352 N 
ATOM     31  C   UNL A   1      33.096  34.691  28.567  1.00  0.00     0.251 C 
ATOM     32  H   UNL A   1      31.934  34.192  27.008  1.00  0.00     0.163 HD
ATOM     33  O   UNL A   1      32.576  35.782  28.745  1.00  0.00    -0.269 OA
BRANCH  31  34
ATOM     34  C   UNL A   1      34.266  34.272  29.369  1.00  0.00     0.039 A 
ATOM     35  C   UNL A   1      34.054  33.613  30.580  1.00  0.00     0.014 A 
ATOM     36  C   UNL A   1      35.561  34.492  28.891  1.00  0.00     0.014 A 
ATOM     37  C   UNL A   1      35.149  33.114  31.286  1.00  0.00     0.010 A 
ATOM     38  C   UNL A   1      36.642  33.926  29.557  1.00  0.00     0.010 A 
ATOM     39  C   UNL A   1      36.448  33.232  30.760  1.00  0.00    -0.014 A 
BRANCH  39  40
ATOM     40  C   UNL A   1      37.612  32.612  31.438  1.00  0.00     0.031 A 
ATOM     41  C   UNL A   1      38.332  31.457  30.800  1.00  0.00     0.074 A 
ATOM     42  C   UNL A   1      37.959  33.028  32.673  1.00  0.00     0.049 A 
ATOM     43  N   UNL A   1      39.322  30.744  31.269  1.00  0.00    -0.248 NA
ATOM     44  C   UNL A   1      37.862  31.028  29.472  1.00  0.00     0.031 C 
ATOM     45  C   UNL A   1      37.286  34.087  33.427  1.00  0.00     0.029 A 
ATOM     46  N   UNL A   1      38.942  32.589  33.523  1.00  0.00    -0.354 N 
ATOM     47  C   UNL A   1      39.571  29.765  30.316  1.00  0.00     0.074 A 
ATOM     48  C   UNL A   1      38.607  29.954  29.254  1.00  0.00     0.031 C 
ATOM     49  C   UNL A   1      37.875  34.215  34.626  1.00  0.00     0.029 A 
ATOM     50  C   UNL A   1      38.941  33.225  34.743  1.00  0.00     0.049 A 
ATOM     51  H   UNL A   1      39.587  31.884  33.283  1.00  0.00     0.167 HD
ATOM     52  C   UNL A   1      40.531  28.811  30.311  1.00  0.00     0.034 A 
ATOM     53  C   UNL A   1      39.699  33.023  35.837  1.00  0.00     0.034 A 
ATOM     54  C   UNL A   1      41.507  28.648  31.355  1.00  0.00     0.049 A 
ATOM     55  C   UNL A   1      40.772  31.969  35.798  1.00  0.00     0.074 A 
ATOM     56  C   UNL A   1      42.579  27.773  31.400  1.00  0.00     0.029 A 
ATOM     57  N   UNL A   1      41.524  29.362  32.543  1.00  0.00    -0.354 N 
ATOM     58  N   UNL A   1      41.100  31.163  34.818  1.00  0.00    -0.248 NA
ATOM     59  C   UNL A   1      41.600  31.818  37.003  1.00  0.00     0.031 C 
ATOM     60  C   UNL A   1      43.220  27.932  32.632  1.00  0.00     0.029 A 
ATOM     61  C   UNL A   1      42.572  28.933  33.339  1.00  0.00     0.049 A 
ATOM     62  H   UNL A   1      40.883  30.069  32.786  1.00  0.00     0.167 HD
ATOM     63  C   UNL A   1      42.190  30.430  35.275  1.00  0.00     0.074 A 
ATOM     64  C   UNL A   1      42.481  30.907  36.612  1.00  0.00     0.031 C 
ATOM     65  C   UNL A   1      42.878  29.444  34.650  1.00  0.00     0.034 A 
BRANCH  52  66
ATOM     66  C   UNL A   1      40.601  27.890  29.121  1.00  0.00     0.023 A 
ATOM     67  C   UNL A   1      39.704  26.806  29.022  1.00  0.00     0.012 A 
ATOM     68  C   UNL A   1      41.509  28.133  28.071  1.00  0.00     0.148 A 
ATOM     69  C   UNL A   1      39.733  25.958  27.917  1.00  0.00     0.002 A 
ATOM     70  C   UNL A   1      41.500  27.311  26.951  1.00  0.00     0.091 A 
ATOM     71  F   UNL A   1      42.367  29.156  28.192  1.00  0.00    -0.205 F 
ATOM     72  C   UNL A   1      40.622  26.216  26.878  1.00  0.00     0.022 A 
BRANCH  70  73
ATOM     73  S   UNL A   1      42.549  27.607  25.524  1.00  0.00     0.127 S 
ATOM     74  O   UNL A   1      42.264  26.433  24.700  1.00  0.00    -0.237 OA
ATOM     75  O   UNL A   1      42.010  28.863  25.002  1.00  0.00    -0.237 OA
ATOM     76  O   UNL A   1      43.910  27.694  26.035  1.00  0.00    -0.744 OA
ENDBRANCH  70  73
ENDBRANCH  52  66
BRANCH  53  77
ATOM     77  C   UNL A   1      39.497  33.868  37.049  1.00  0.00     0.023 A 
ATOM     78  C   UNL A   1      39.934  35.206  37.043  1.00  0.00     0.012 A 
ATOM     79  C   UNL A   1      38.849  33.362  38.192  1.00  0.00     0.148 A 
ATOM     80  C   UNL A   1      39.761  36.016  38.167  1.00  0.00     0.002 A 
ATOM     81  C   UNL A   1      38.627  34.190  39.287  1.00  0.00     0.091 A 
ATOM     82  F   UNL A   1      38.449  32.082  38.181  1.00  0.00    -0.205 F 
ATOM     83  C   UNL A   1      39.098  35.511  39.283  1.00  0.00     0.022 A 
BRANCH  81  84
ATOM     84  S   UNL A   1      37.666  33.666  40.711  1.00  0.00     0.127 S 
ATOM     85  O   UNL A   1      36.458  33.140  40.080  1.00  0.00    -0.237 OA
ATOM     86  O   UNL A   1      38.539  32.655  41.308  1.00  0.00    -0.237 OA
ATOM     87  O   UNL A   1      37.486  34.859  41.527  1.00  0.00    -0.744 OA
ENDBRANCH  81  84
ENDBRANCH  53  77
BRANCH  65  88
ATOM     88  C   UNL A   1      44.036  28.823  35.387  1.00  0.00     0.023 A 
ATOM     89  C   UNL A   1      45.328  29.370  35.254  1.00  0.00     0.012 A 
ATOM     90  C   UNL A   1      43.827  27.750  36.277  1.00  0.00     0.148 A 
ATOM     91  C   UNL A   1      46.398  28.840  35.972  1.00  0.00     0.002 A 
ATOM     92  C   UNL A   1      44.888  27.261  37.028  1.00  0.00     0.091 A 
ATOM     93  F   UNL A   1      42.593  27.235  36.377  1.00  0.00    -0.205 F 
ATOM     94  C   UNL A   1      46.177  27.796  36.867  1.00  0.00     0.022 A 
BRANCH  92  95
ATOM     95  S   UNL A   1      44.683  25.986  38.275  1.00  0.00     0.127 S 
ATOM     96  O   UNL A   1      46.056  25.805  38.744  1.00  0.00    -0.237 OA
ATOM     97  O   UNL A   1      43.790  26.636  39.236  1.00  0.00    -0.237 OA
ATOM     98  O   UNL A   1      44.104  24.838  37.589  1.00  0.00    -0.744 OA
ENDBRANCH  92  95
ENDBRANCH  65  88
ENDBRANCH  39  40
ENDBRANCH  31  34
ENDBRANCH  29  30
ENDBRANCH  28  29
ENDBRANCH  27  28
ENDBRANCH   1  27
TORSDOF 19
ENDMDL
MODEL 2
REMARK VINA RESULT:     -11.4      6.391     11.441
REMARK SMILES Cc1ccsc1CNC(=O)N[C@@H]1CCCC[C@H]1C(=O)NCCCCCCNC(=O)c1ccc(-c2c3nc(c(-c4cccc(S(=O)(=O)[O-])c4F)c4ccc([nH]4)c(-c4cccc(S(=O)(=O)[O-])c4F)c4nc(c(-c5cccc(S(=O)(=O)[O-])c5F)c5ccc2[nH]5)C=C4)C=C3)cc1
REMARK SMILES IDX 23 1 22 2 21 3 20 4 18 5 19 6 17 8 12 9 13 10 14 11 16 12
REMARK SMILES IDX 15 13 11 14 8 15 9 16 10 18 7 20 6 21 1 22 2 23 3 24 4 25
REMARK SMILES IDX 5 26 24 27 25 28 26 29 27 30 28 31 29 33 30 34 31 35 92 36
REMARK SMILES IDX 32 37 91 38 33 39 34 40 35 41 85 42 36 43 90 44 84 45 86 46
REMARK SMILES IDX 37 47 89 48 83 49 82 50 38 52 70 53 50 54 69 55 51 56 54 57
REMARK SMILES IDX 68 58 87 59 52 60 53 61 67 63 88 64 55 65 39 66 40 67 48 68
REMARK SMILES IDX 41 69 43 70 49 71 42 72 44 73 45 74 46 75 47 76 71 77 72 78
REMARK SMILES IDX 80 79 73 80 75 81 81 82 74 83 76 84 77 85 78 86 79 87 56 88
REMARK SMILES IDX 57 89 65 90 58 91 60 92 66 93 59 94 61 95 62 96 63 97 64 98
REMARK H PARENT 20 7 8 17 11 19 27 32 86 51 54 62
REMARK Flexibility Score: inf
ROOT
ATOM      1  C   UNL A   1      36.946  23.130  24.893  1.00  0.00     0.002 C 
ENDROOT
BRANCH   1   2
ATOM      2  C   UNL A   1      36.148  23.742  26.052  1.00  0.00     0.021 C 
BRANCH   2   3
ATOM      3  C   UNL A   1      34.991  24.624  25.599  1.00  0.00     0.116 C 
BRANCH   3   4
ATOM      4  N   UNL A   1      33.765  24.200  26.238  1.00  0.00    -0.356 N 
ATOM      5  C   UNL A   1      32.510  24.708  26.167  1.00  0.00     0.225 C 
ATOM      6  O   UNL A   1      31.674  24.245  26.947  1.00  0.00    -0.275 OA
ATOM      7  H   UNL A   1      33.856  23.413  26.821  1.00  0.00     0.163 HD
BRANCH   5   8
ATOM      8  C   UNL A   1      32.140  25.764  25.135  1.00  0.00     0.101 C 
ATOM      9  C   UNL A   1      31.788  25.179  23.754  1.00  0.00     0.096 C 
ATOM     10  C   UNL A   1      30.891  26.031  22.845  1.00  0.00     0.026 C 
ATOM     11  C   UNL A   1      29.844  26.834  23.604  1.00  0.00     0.002 C 
ATOM     12  C   UNL A   1      31.154  26.778  25.737  1.00  0.00     0.015 C 
ATOM     13  C   UNL A   1      30.482  27.665  24.704  1.00  0.00     0.001 C 
BRANCH   9  14
ATOM     14  N   UNL A   1      32.946  24.659  23.006  1.00  0.00    -0.335 N 
ATOM     15  N   UNL A   1      32.966  22.281  22.940  1.00  0.00    -0.333 N 
ATOM     16  C   UNL A   1      33.423  23.483  22.593  1.00  0.00     0.315 C 
ATOM     17  H   UNL A   1      33.272  21.575  22.325  1.00  0.00     0.165 HD
ATOM     18  O   UNL A   1      34.375  23.515  21.807  1.00  0.00    -0.249 OA
ATOM     19  H   UNL A   1      33.542  25.394  22.731  1.00  0.00     0.165 HD
BRANCH  15  20
ATOM     20  C   UNL A   1      32.135  21.759  23.999  1.00  0.00     0.164 C 
BRANCH  20  21
ATOM     21  C   UNL A   1      32.478  20.348  24.418  1.00  0.00     0.027 A 
ATOM     22  C   UNL A   1      33.492  20.867  26.722  1.00  0.00     0.045 C 
ATOM     23  C   UNL A   1      33.002  19.952  25.646  1.00  0.00    -0.035 A 
ATOM     24  C   UNL A   1      32.974  18.525  25.788  1.00  0.00     0.015 A 
ATOM     25  C   UNL A   1      32.503  17.890  24.664  1.00  0.00     0.065 A 
ATOM     26  S   UNL A   1      32.203  18.990  23.399  1.00  0.00    -0.147 S 
ENDBRANCH  20  21
ENDBRANCH  15  20
ENDBRANCH   9  14
ENDBRANCH   5   8
ENDBRANCH   3   4
ENDBRANCH   2   3
ENDBRANCH   1   2
BRANCH   1  27
ATOM     27  C   UNL A   1      36.465  21.747  24.443  1.00  0.00     0.002 C 
BRANCH  27  28
ATOM     28  C   UNL A   1      37.273  20.577  25.004  1.00  0.00     0.021 C 
BRANCH  28  29
ATOM     29  C   UNL A   1      38.588  20.984  25.653  1.00  0.00     0.116 C 
BRANCH  29  30
ATOM     30  N   UNL A   1      39.457  19.840  25.871  1.00  0.00    -0.352 N 
ATOM     31  C   UNL A   1      40.802  19.831  26.150  1.00  0.00     0.251 C 
ATOM     32  H   UNL A   1      39.026  18.957  25.812  1.00  0.00     0.163 HD
ATOM     33  O   UNL A   1      41.445  18.793  26.095  1.00  0.00    -0.269 OA
BRANCH  31  34
ATOM     34  C   UNL A   1      41.460  21.108  26.498  1.00  0.00     0.039 A 
ATOM     35  C   UNL A   1      41.969  21.907  25.474  1.00  0.00     0.014 A 
ATOM     36  C   UNL A   1      41.521  21.527  27.830  1.00  0.00     0.014 A 
ATOM     37  C   UNL A   1      42.489  23.165  25.784  1.00  0.00     0.010 A 
ATOM     38  C   UNL A   1      41.966  22.811  28.125  1.00  0.00     0.010 A 
ATOM     39  C   UNL A   1      42.455  23.642  27.106  1.00  0.00    -0.014 A 
BRANCH  39  40
ATOM     40  C   UNL A   1      42.897  25.019  27.439  1.00  0.00     0.031 A 
ATOM     41  C   UNL A   1      41.931  25.998  28.043  1.00  0.00     0.074 A 
ATOM     42  C   UNL A   1      44.143  25.413  27.106  1.00  0.00     0.049 A 
ATOM     43  N   UNL A   1      42.113  27.258  28.338  1.00  0.00    -0.248 NA
ATOM     44  C   UNL A   1      40.573  25.506  28.331  1.00  0.00     0.031 C 
ATOM     45  C   UNL A   1      45.145  24.575  26.444  1.00  0.00     0.029 A 
ATOM     46  N   UNL A   1      44.767  26.625  27.250  1.00  0.00    -0.354 N 
ATOM     47  C   UNL A   1      40.892  27.719  28.811  1.00  0.00     0.074 A 
ATOM     48  C   UNL A   1      39.964  26.611  28.735  1.00  0.00     0.031 C 
ATOM     49  C   UNL A   1      46.257  25.298  26.239  1.00  0.00     0.029 A 
ATOM     50  C   UNL A   1      46.036  26.659  26.719  1.00  0.00     0.049 A 
ATOM     51  H   UNL A   1      44.346  27.399  27.691  1.00  0.00     0.167 HD
ATOM     52  C   UNL A   1      40.575  28.945  29.290  1.00  0.00     0.034 A 
ATOM     53  C   UNL A   1      46.915  27.673  26.614  1.00  0.00     0.034 A 
ATOM     54  C   UNL A   1      41.510  30.033  29.393  1.00  0.00     0.049 A 
ATOM     55  C   UNL A   1      46.547  29.021  27.172  1.00  0.00     0.074 A 
ATOM     56  C   UNL A   1      41.314  31.284  29.950  1.00  0.00     0.029 A 
ATOM     57  N   UNL A   1      42.811  30.008  28.914  1.00  0.00    -0.354 N 
ATOM     58  N   UNL A   1      45.439  29.390  27.769  1.00  0.00    -0.248 NA
ATOM     59  C   UNL A   1      47.558  30.083  27.071  1.00  0.00     0.031 C 
ATOM     60  C   UNL A   1      42.485  32.028  29.775  1.00  0.00     0.029 A 
ATOM     61  C   UNL A   1      43.423  31.228  29.142  1.00  0.00     0.049 A 
ATOM     62  H   UNL A   1      43.237  29.236  28.475  1.00  0.00     0.167 HD
ATOM     63  C   UNL A   1      45.631  30.716  28.142  1.00  0.00     0.074 A 
ATOM     64  C   UNL A   1      46.970  31.077  27.724  1.00  0.00     0.031 C 
ATOM     65  C   UNL A   1      44.771  31.562  28.761  1.00  0.00     0.034 A 
BRANCH  52  66
ATOM     66  C   UNL A   1      39.168  29.167  29.778  1.00  0.00     0.023 A 
ATOM     67  C   UNL A   1      38.820  28.803  31.096  1.00  0.00     0.012 A 
ATOM     68  C   UNL A   1      38.208  29.791  28.958  1.00  0.00     0.148 A 
ATOM     69  C   UNL A   1      37.530  29.024  31.576  1.00  0.00     0.002 A 
ATOM     70  C   UNL A   1      36.938  30.051  29.460  1.00  0.00     0.091 A 
ATOM     71  F   UNL A   1      38.551  30.111  27.702  1.00  0.00    -0.205 F 
ATOM     72  C   UNL A   1      36.594  29.657  30.764  1.00  0.00     0.022 A 
BRANCH  70  73
ATOM     73  S   UNL A   1      35.687  30.933  28.522  1.00  0.00     0.127 S 
ATOM     74  O   UNL A   1      35.166  29.875  27.656  1.00  0.00    -0.237 OA
ATOM     75  O   UNL A   1      34.766  31.368  29.573  1.00  0.00    -0.237 OA
ATOM     76  O   UNL A   1      36.383  32.013  27.836  1.00  0.00    -0.744 OA
ENDBRANCH  70  73
ENDBRANCH  52  66
BRANCH  53  77
ATOM     77  C   UNL A   1      48.249  27.440  25.990  1.00  0.00     0.023 A 
ATOM     78  C   UNL A   1      49.330  27.031  26.795  1.00  0.00     0.012 A 
ATOM     79  C   UNL A   1      48.444  27.593  24.604  1.00  0.00     0.148 A 
ATOM     80  C   UNL A   1      50.590  26.811  26.235  1.00  0.00     0.002 A 
ATOM     81  C   UNL A   1      49.686  27.316  24.044  1.00  0.00     0.091 A 
ATOM     82  F   UNL A   1      47.405  27.993  23.857  1.00  0.00    -0.205 F 
ATOM     83  C   UNL A   1      50.764  26.943  24.861  1.00  0.00     0.022 A 
BRANCH  81  84
ATOM     84  S   UNL A   1      49.967  27.329  22.270  1.00  0.00     0.127 S 
ATOM     85  O   UNL A   1      51.335  26.828  22.180  1.00  0.00    -0.237 OA
ATOM     86  O   UNL A   1      48.938  26.403  21.796  1.00  0.00    -0.237 OA
ATOM     87  O   UNL A   1      49.769  28.710  21.849  1.00  0.00    -0.744 OA
ENDBRANCH  81  84
ENDBRANCH  53  77
BRANCH  65  88
ATOM     88  C   UNL A   1      45.254  32.959  29.055  1.00  0.00     0.023 A 
ATOM     89  C   UNL A   1      45.987  33.215  30.230  1.00  0.00     0.012 A 
ATOM     90  C   UNL A   1      45.051  33.997  28.124  1.00  0.00     0.148 A 
ATOM     91  C   UNL A   1      46.487  34.490  30.488  1.00  0.00     0.002 A 
ATOM     92  C   UNL A   1      45.596  35.253  28.363  1.00  0.00     0.091 A 
ATOM     93  F   UNL A   1      44.337  33.735  27.020  1.00  0.00    -0.205 F 
ATOM     94  C   UNL A   1      46.303  35.505  29.551  1.00  0.00     0.022 A 
BRANCH  92  95
ATOM     95  S   UNL A   1      45.495  36.592  27.173  1.00  0.00     0.127 S 
ATOM     96  O   UNL A   1      46.262  36.052  26.051  1.00  0.00    -0.237 OA
ATOM     97  O   UNL A   1      44.053  36.687  26.936  1.00  0.00    -0.237 OA
ATOM     98  O   UNL A   1      46.080  37.757  27.823  1.00  0.00    -0.744 OA
ENDBRANCH  92  95
ENDBRANCH  65  88
ENDBRANCH  39  40
ENDBRANCH  31  34
ENDBRANCH  29  30
ENDBRANCH  28  29
ENDBRANCH  27  28
ENDBRANCH   1  27
TORSDOF 19
ENDMDL
MODEL 3
REMARK VINA RESULT:     -11.2      5.799     11.509
REMARK SMILES Cc1ccsc1CNC(=O)N[C@@H]1CCCC[C@H]1C(=O)NCCCCCCNC(=O)c1ccc(-c2c3nc(c(-c4cccc(S(=O)(=O)[O-])c4F)c4ccc([nH]4)c(-c4cccc(S(=O)(=O)[O-])c4F)c4nc(c(-c5cccc(S(=O)(=O)[O-])c5F)c5ccc2[nH]5)C=C4)C=C3)cc1
REMARK SMILES IDX 23 1 22 2 21 3 20 4 18 5 19 6 17 8 12 9 13 10 14 11 16 12
REMARK SMILES IDX 15 13 11 14 8 15 9 16 10 18 7 20 6 21 1 22 2 23 3 24 4 25
REMARK SMILES IDX 5 26 24 27 25 28 26 29 27 30 28 31 29 33 30 34 31 35 92 36
REMARK SMILES IDX 32 37 91 38 33 39 34 40 35 41 85 42 36 43 90 44 84 45 86 46
REMARK SMILES IDX 37 47 89 48 83 49 82 50 38 52 70 53 50 54 69 55 51 56 54 57
REMARK SMILES IDX 68 58 87 59 52 60 53 61 67 63 88 64 55 65 39 66 40 67 48 68
REMARK SMILES IDX 41 69 43 70 49 71 42 72 44 73 45 74 46 75 47 76 71 77 72 78
REMARK SMILES IDX 80 79 73 80 75 81 81 82 74 83 76 84 77 85 78 86 79 87 56 88
REMARK SMILES IDX 57 89 65 90 58 91 60 92 66 93 59 94 61 95 62 96 63 97 64 98
REMARK H PARENT 20 7 8 17 11 19 27 32 86 51 54 62
REMARK Flexibility Score: inf
ROOT
ATOM      1  C   UNL A   1      37.750  22.974  24.874  1.00  0.00     0.002 C 
ENDROOT
BRANCH   1   2
ATOM      2  C   UNL A   1      36.910  23.562  26.014  1.00  0.00     0.021 C 
BRANCH   2   3
ATOM      3  C   UNL A   1      35.411  23.343  25.845  1.00  0.00     0.116 C 
BRANCH   3   4
ATOM      4  N   UNL A   1      34.928  22.423  26.852  1.00  0.00    -0.356 N 
ATOM      5  C   UNL A   1      33.804  21.667  26.892  1.00  0.00     0.225 C 
ATOM      6  O   UNL A   1      33.557  21.087  27.952  1.00  0.00    -0.275 OA
ATOM      7  H   UNL A   1      35.512  22.332  27.639  1.00  0.00     0.163 HD
BRANCH   5   8
ATOM      8  C   UNL A   1      32.918  21.501  25.665  1.00  0.00     0.101 C 
ATOM      9  C   UNL A   1      32.070  22.746  25.345  1.00  0.00     0.096 C 
ATOM     10  C   UNL A   1      31.600  22.913  23.893  1.00  0.00     0.026 C 
ATOM     11  C   UNL A   1      32.605  22.410  22.866  1.00  0.00     0.002 C 
ATOM     12  C   UNL A   1      33.717  20.882  24.508  1.00  0.00     0.015 C 
ATOM     13  C   UNL A   1      33.020  20.979  23.162  1.00  0.00     0.001 C 
BRANCH   9  14
ATOM     14  N   UNL A   1      30.958  22.978  26.284  1.00  0.00    -0.335 N 
ATOM     15  N   UNL A   1      30.582  25.297  26.660  1.00  0.00    -0.333 N 
ATOM     16  C   UNL A   1      30.276  24.007  26.791  1.00  0.00     0.315 C 
ATOM     17  H   UNL A   1      29.819  25.883  26.870  1.00  0.00     0.165 HD
ATOM     18  O   UNL A   1      29.260  23.734  27.438  1.00  0.00    -0.249 OA
ATOM     19  H   UNL A   1      30.621  22.125  26.642  1.00  0.00     0.165 HD
BRANCH  15  20
ATOM     20  C   UNL A   1      31.758  26.046  26.288  1.00  0.00     0.164 C 
BRANCH  20  21
ATOM     21  C   UNL A   1      31.468  27.309  25.509  1.00  0.00     0.027 A 
ATOM     22  C   UNL A   1      31.831  29.016  27.395  1.00  0.00     0.045 C 
ATOM     23  C   UNL A   1      31.576  28.616  25.977  1.00  0.00    -0.035 A 
ATOM     24  C   UNL A   1      31.462  29.563  24.906  1.00  0.00     0.015 A 
ATOM     25  C   UNL A   1      31.208  28.966  23.695  1.00  0.00     0.065 A 
ATOM     26  S   UNL A   1      30.993  27.284  23.856  1.00  0.00    -0.147 S 
ENDBRANCH  20  21
ENDBRANCH  15  20
ENDBRANCH   9  14
ENDBRANCH   5   8
ENDBRANCH   3   4
ENDBRANCH   2   3
ENDBRANCH   1   2
BRANCH   1  27
ATOM     27  C   UNL A   1      37.279  21.605  24.370  1.00  0.00     0.002 C 
BRANCH  27  28
ATOM     28  C   UNL A   1      37.914  20.411  25.082  1.00  0.00     0.021 C 
BRANCH  28  29
ATOM     29  C   UNL A   1      39.209  20.738  25.811  1.00  0.00     0.116 C 
BRANCH  29  30
ATOM     30  N   UNL A   1      40.062  19.569  25.945  1.00  0.00    -0.352 N 
ATOM     31  C   UNL A   1      41.424  19.520  26.112  1.00  0.00     0.251 C 
ATOM     32  H   UNL A   1      39.603  18.699  25.912  1.00  0.00     0.163 HD
ATOM     33  O   UNL A   1      42.032  18.467  25.993  1.00  0.00    -0.269 OA
BRANCH  31  34
ATOM     34  C   UNL A   1      42.143  20.775  26.417  1.00  0.00     0.039 A 
ATOM     35  C   UNL A   1      42.585  21.575  25.363  1.00  0.00     0.014 A 
ATOM     36  C   UNL A   1      42.329  21.174  27.744  1.00  0.00     0.014 A 
ATOM     37  C   UNL A   1      43.162  22.815  25.642  1.00  0.00     0.010 A 
ATOM     38  C   UNL A   1      42.832  22.441  28.015  1.00  0.00     0.010 A 
ATOM     39  C   UNL A   1      43.253  23.274  26.968  1.00  0.00    -0.014 A 
BRANCH  39  40
ATOM     40  C   UNL A   1      43.759  24.634  27.278  1.00  0.00     0.031 A 
ATOM     41  C   UNL A   1      42.820  25.693  27.783  1.00  0.00     0.074 A 
ATOM     42  C   UNL A   1      45.045  24.939  27.012  1.00  0.00     0.049 A 
ATOM     43  N   UNL A   1      43.062  26.951  28.043  1.00  0.00    -0.248 NA
ATOM     44  C   UNL A   1      41.419  25.295  28.002  1.00  0.00     0.031 C 
ATOM     45  C   UNL A   1      46.033  24.017  26.446  1.00  0.00     0.029 A 
ATOM     46  N   UNL A   1      45.734  26.117  27.151  1.00  0.00    -0.354 N 
ATOM     47  C   UNL A   1      41.845  27.503  28.420  1.00  0.00     0.074 A 
ATOM     48  C   UNL A   1      40.857  26.450  28.325  1.00  0.00     0.031 C 
ATOM     49  C   UNL A   1      47.198  24.663  26.287  1.00  0.00     0.029 A 
ATOM     50  C   UNL A   1      47.033  26.053  26.702  1.00  0.00     0.049 A 
ATOM     51  H   UNL A   1      45.336  26.932  27.536  1.00  0.00     0.167 HD
ATOM     52  C   UNL A   1      41.577  28.764  28.833  1.00  0.00     0.034 A 
ATOM     53  C   UNL A   1      47.978  27.008  26.616  1.00  0.00     0.034 A 
ATOM     54  C   UNL A   1      42.570  29.797  28.955  1.00  0.00     0.049 A 
ATOM     55  C   UNL A   1      47.661  28.396  27.101  1.00  0.00     0.074 A 
ATOM     56  C   UNL A   1      42.418  31.079  29.453  1.00  0.00     0.029 A 
ATOM     57  N   UNL A   1      43.894  29.675  28.563  1.00  0.00    -0.354 N 
ATOM     58  N   UNL A   1      46.544  28.855  27.611  1.00  0.00    -0.248 NA
ATOM     59  C   UNL A   1      48.741  29.391  27.026  1.00  0.00     0.031 C 
ATOM     60  C   UNL A   1      43.641  31.744  29.327  1.00  0.00     0.029 A 
ATOM     61  C   UNL A   1      44.565  30.864  28.785  1.00  0.00     0.049 A 
ATOM     62  H   UNL A   1      44.296  28.862  28.180  1.00  0.00     0.167 HD
ATOM     63  C   UNL A   1      46.794  30.181  27.947  1.00  0.00     0.074 A 
ATOM     64  C   UNL A   1      48.177  30.444  27.603  1.00  0.00     0.031 C 
ATOM     65  C   UNL A   1      45.952  31.101  28.478  1.00  0.00     0.034 A 
BRANCH  52  66
ATOM     66  C   UNL A   1      40.159  29.089  29.221  1.00  0.00     0.023 A 
ATOM     67  C   UNL A   1      39.199  29.341  28.219  1.00  0.00     0.012 A 
ATOM     68  C   UNL A   1      39.760  29.084  30.573  1.00  0.00     0.148 A 
ATOM     69  C   UNL A   1      37.876  29.618  28.555  1.00  0.00     0.002 A 
ATOM     70  C   UNL A   1      38.429  29.314  30.898  1.00  0.00     0.091 A 
ATOM     71  F   UNL A   1      40.690  28.863  31.513  1.00  0.00    -0.205 F 
ATOM     72  C   UNL A   1      37.488  29.593  29.892  1.00  0.00     0.022 A 
BRANCH  70  73
ATOM     73  S   UNL A   1      37.813  29.225  32.582  1.00  0.00     0.127 S 
ATOM     74  O   UNL A   1      36.427  29.661  32.413  1.00  0.00    -0.237 OA
ATOM     75  O   UNL A   1      37.971  27.803  32.892  1.00  0.00    -0.237 OA
ATOM     76  O   UNL A   1      38.655  30.116  33.367  1.00  0.00    -0.744 OA
ENDBRANCH  70  73
ENDBRANCH  52  66
BRANCH  53  77
ATOM     77  C   UNL A   1      49.331  26.670  26.089  1.00  0.00     0.023 A 
ATOM     78  C   UNL A   1      50.186  25.845  26.845  1.00  0.00     0.012 A 
ATOM     79  C   UNL A   1      49.763  27.138  24.832  1.00  0.00     0.148 A 
ATOM     80  C   UNL A   1      51.459  25.519  26.374  1.00  0.00     0.002 A 
ATOM     81  C   UNL A   1      51.009  26.762  24.343  1.00  0.00     0.091 A 
ATOM     82  F   UNL A   1      48.938  27.931  24.132  1.00  0.00    -0.205 F 
ATOM     83  C   UNL A   1      51.865  25.968  25.121  1.00  0.00     0.022 A 
BRANCH  81  84
ATOM     84  S   UNL A   1      51.558  27.182  22.686  1.00  0.00     0.127 S 
ATOM     85  O   UNL A   1      50.402  26.800  21.881  1.00  0.00    -0.237 OA
ATOM     86  O   UNL A   1      51.782  28.623  22.799  1.00  0.00    -0.237 OA
ATOM     87  O   UNL A   1      52.770  26.404  22.462  1.00  0.00    -0.744 OA
ENDBRANCH  81  84
ENDBRANCH  53  77
BRANCH  65  88
ATOM     88  C   UNL A   1      46.502  32.477  28.752  1.00  0.00     0.023 A 
ATOM     89  C   UNL A   1      47.237  32.718  29.929  1.00  0.00     0.012 A 
ATOM     90  C   UNL A   1      46.360  33.507  27.801  1.00  0.00     0.148 A 
ATOM     91  C   UNL A   1      47.797  33.972  30.169  1.00  0.00     0.002 A 
ATOM     92  C   UNL A   1      46.965  34.738  28.022  1.00  0.00     0.091 A 
ATOM     93  F   UNL A   1      45.644  33.261  26.694  1.00  0.00    -0.205 F 
ATOM     94  C   UNL A   1      47.673  34.976  29.212  1.00  0.00     0.022 A 
BRANCH  92  95
ATOM     95  S   UNL A   1      46.943  36.058  26.806  1.00  0.00     0.127 S 
ATOM     96  O   UNL A   1      47.768  37.075  27.457  1.00  0.00    -0.237 OA
ATOM     97  O   UNL A   1      47.565  35.419  25.645  1.00  0.00    -0.237 OA
ATOM     98  O   UNL A   1      45.543  36.417  26.623  1.00  0.00    -0.744 OA
ENDBRANCH  92  95
ENDBRANCH  65  88
ENDBRANCH  39  40
ENDBRANCH  31  34
ENDBRANCH  29  30
ENDBRANCH  28  29
ENDBRANCH  27  28
ENDBRANCH   1  27
TORSDOF 19
ENDMDL
