MODEL 1
REMARK VINA RESULT:     -11.6      0.000      0.000
REMARK SMILES Cc1n[nH]c(C)c1CC(=O)N1CC[C@H](C(=O)NCCCCCCNC(=O)c2ccc(-c3c4nc(c(-c5cccc(S(=O)(=O)[O-])c5F)c5ccc([nH]5)c(-c5cccc(S(=O)(=O)[O-])c5F)c5nc(c(-c6cccc(S(=O)(=O)[O-])c6F)c6ccc3[nH]6)C=C5)C=C4)cc2)[C@H]1C
REMARK SMILES IDX 20 1 19 2 18 3 17 4 15 5 16 6 14 8 11 9 12 10 90 11 13 12
REMARK SMILES IDX 91 13 9 14 10 15 8 16 7 17 1 18 2 19 3 20 4 21 5 22 6 24
REMARK SMILES IDX 21 25 22 26 23 27 24 28 25 29 26 31 27 32 28 33 89 34 29 35
REMARK SMILES IDX 88 36 30 37 31 38 32 39 82 40 33 41 87 42 81 43 83 44 34 45
REMARK SMILES IDX 86 46 80 47 79 48 35 50 67 51 47 52 66 53 48 54 51 55 65 56
REMARK SMILES IDX 84 57 49 58 50 59 64 61 85 62 52 63 36 64 37 65 45 66 38 67
REMARK SMILES IDX 40 68 46 69 39 70 41 71 42 72 43 73 44 74 68 75 69 76 77 77
REMARK SMILES IDX 70 78 72 79 78 80 71 81 73 82 74 83 75 84 76 85 53 86 54 87
REMARK SMILES IDX 62 88 55 89 57 90 63 91 56 92 58 93 59 94 60 95 61 96
REMARK H PARENT 17 7 4 23 24 30 83 49 51 60
REMARK Flexibility Score: inf
ROOT
ATOM      1  C   UNL A   1      36.672  22.316  23.859  1.00  0.00     0.002 C 
ENDROOT
BRANCH   1   2
ATOM      2  C   UNL A   1      35.677  23.469  24.046  1.00  0.00     0.021 C 
BRANCH   2   3
ATOM      3  C   UNL A   1      34.279  23.031  24.487  1.00  0.00     0.116 C 
BRANCH   3   4
ATOM      4  N   UNL A   1      33.290  23.713  23.681  1.00  0.00    -0.356 N 
ATOM      5  C   UNL A   1      32.440  24.720  23.997  1.00  0.00     0.225 C 
ATOM      6  O   UNL A   1      31.531  24.941  23.191  1.00  0.00    -0.275 OA
ATOM      7  H   UNL A   1      33.224  23.392  22.752  1.00  0.00     0.163 HD
BRANCH   5   8
ATOM      8  C   UNL A   1      32.695  25.638  25.195  1.00  0.00     0.102 C 
ATOM      9  N   UNL A   1      32.145  27.905  24.695  1.00  0.00    -0.339 N 
ATOM     10  C   UNL A   1      33.464  27.633  24.145  1.00  0.00     0.120 C 
ATOM     11  C   UNL A   1      31.677  26.765  25.487  1.00  0.00     0.094 C 
ATOM     12  C   UNL A   1      33.980  26.451  24.954  1.00  0.00     0.037 C 
ATOM     13  C   UNL A   1      31.686  27.063  26.987  1.00  0.00     0.032 C 
BRANCH   9  14
ATOM     14  C   UNL A   1      31.394  28.957  24.199  1.00  0.00     0.227 C 
ATOM     15  O   UNL A   1      31.210  29.964  24.897  1.00  0.00    -0.275 OA
BRANCH  14  16
ATOM     16  C   UNL A   1      30.601  28.813  22.901  1.00  0.00     0.139 C 
BRANCH  16  17
ATOM     17  C   UNL A   1      29.113  28.926  22.935  1.00  0.00     0.005 A 
ATOM     18  C   UNL A   1      28.736  31.504  22.635  1.00  0.00     0.069 C 
ATOM     19  C   UNL A   1      28.308  30.092  22.796  1.00  0.00     0.063 A 
ATOM     20  N   UNL A   1      27.003  29.810  22.873  1.00  0.00    -0.181 NA
ATOM     21  N   UNL A   1      26.963  28.508  23.188  1.00  0.00    -0.282 N 
ATOM     22  C   UNL A   1      28.203  27.942  23.302  1.00  0.00     0.036 A 
ATOM     23  H   UNL A   1      26.125  28.010  23.323  1.00  0.00     0.190 HD
ATOM     24  C   UNL A   1      28.367  26.557  23.811  1.00  0.00     0.066 C 
ENDBRANCH  16  17
ENDBRANCH  14  16
ENDBRANCH   9  14
ENDBRANCH   5   8
ENDBRANCH   3   4
ENDBRANCH   2   3
ENDBRANCH   1   2
BRANCH   1  25
ATOM     25  C   UNL A   1      36.561  21.204  24.904  1.00  0.00     0.002 C 
BRANCH  25  26
ATOM     26  C   UNL A   1      37.712  20.195  24.891  1.00  0.00     0.021 C 
BRANCH  26  27
ATOM     27  C   UNL A   1      38.889  20.568  25.790  1.00  0.00     0.116 C 
BRANCH  27  28
ATOM     28  N   UNL A   1      39.846  19.473  25.901  1.00  0.00    -0.352 N 
ATOM     29  C   UNL A   1      41.209  19.522  26.060  1.00  0.00     0.251 C 
ATOM     30  H   UNL A   1      39.460  18.569  25.856  1.00  0.00     0.163 HD
ATOM     31  O   UNL A   1      41.887  18.509  25.897  1.00  0.00    -0.269 OA
BRANCH  29  32
ATOM     32  C   UNL A   1      41.860  20.801  26.410  1.00  0.00     0.039 A 
ATOM     33  C   UNL A   1      42.168  21.710  25.393  1.00  0.00     0.014 A 
ATOM     34  C   UNL A   1      42.156  21.106  27.741  1.00  0.00     0.014 A 
ATOM     35  C   UNL A   1      42.694  22.962  25.723  1.00  0.00     0.010 A 
ATOM     36  C   UNL A   1      42.619  22.377  28.071  1.00  0.00     0.010 A 
ATOM     37  C   UNL A   1      42.879  23.324  27.067  1.00  0.00    -0.014 A 
BRANCH  37  38
ATOM     38  C   UNL A   1      43.279  24.702  27.454  1.00  0.00     0.031 A 
ATOM     39  C   UNL A   1      42.269  25.659  28.024  1.00  0.00     0.074 A 
ATOM     40  C   UNL A   1      44.531  25.124  27.180  1.00  0.00     0.049 A 
ATOM     41  N   UNL A   1      42.412  26.925  28.321  1.00  0.00    -0.248 NA
ATOM     42  C   UNL A   1      40.916  25.134  28.276  1.00  0.00     0.031 C 
ATOM     43  C   UNL A   1      45.583  24.310  26.566  1.00  0.00     0.029 A 
ATOM     44  N   UNL A   1      45.120  26.354  27.345  1.00  0.00    -0.354 N 
ATOM     45  C   UNL A   1      41.165  27.360  28.752  1.00  0.00     0.074 A 
ATOM     46  C   UNL A   1      40.272  26.224  28.670  1.00  0.00     0.031 C 
ATOM     47  C   UNL A   1      46.682  25.063  26.398  1.00  0.00     0.029 A 
ATOM     48  C   UNL A   1      46.403  26.421  26.850  1.00  0.00     0.049 A 
ATOM     49  H   UNL A   1      44.667  27.115  27.775  1.00  0.00     0.167 HD
ATOM     50  C   UNL A   1      40.802  28.589  29.189  1.00  0.00     0.034 A 
ATOM     51  C   UNL A   1      47.250  27.464  26.745  1.00  0.00     0.034 A 
ATOM     52  C   UNL A   1      41.703  29.704  29.306  1.00  0.00     0.049 A 
ATOM     53  C   UNL A   1      46.815  28.814  27.250  1.00  0.00     0.074 A 
ATOM     54  C   UNL A   1      41.451  30.956  29.839  1.00  0.00     0.029 A 
ATOM     55  N   UNL A   1      43.016  29.716  28.864  1.00  0.00    -0.354 N 
ATOM     56  N   UNL A   1      45.687  29.158  27.820  1.00  0.00    -0.248 NA
ATOM     57  C   UNL A   1      47.783  29.915  27.123  1.00  0.00     0.031 C 
ATOM     58  C   UNL A   1      42.598  31.739  29.680  1.00  0.00     0.029 A 
ATOM     59  C   UNL A   1      43.578  30.961  29.084  1.00  0.00     0.049 A 
ATOM     60  H   UNL A   1      43.481  28.950  28.455  1.00  0.00     0.167 HD
ATOM     61  C   UNL A   1      45.822  30.502  28.150  1.00  0.00     0.074 A 
ATOM     62  C   UNL A   1      47.152  30.902  27.742  1.00  0.00     0.031 C 
ATOM     63  C   UNL A   1      44.920  31.335  28.722  1.00  0.00     0.034 A 
BRANCH  50  64
ATOM     64  C   UNL A   1      39.373  28.804  29.609  1.00  0.00     0.023 A 
ATOM     65  C   UNL A   1      38.970  28.471  30.917  1.00  0.00     0.012 A 
ATOM     66  C   UNL A   1      38.463  29.446  28.746  1.00  0.00     0.148 A 
ATOM     67  C   UNL A   1      37.677  28.757  31.356  1.00  0.00     0.002 A 
ATOM     68  C   UNL A   1      37.191  29.768  29.203  1.00  0.00     0.091 A 
ATOM     69  F   UNL A   1      38.863  29.738  27.500  1.00  0.00    -0.205 F 
ATOM     70  C   UNL A   1      36.794  29.416  30.505  1.00  0.00     0.022 A 
BRANCH  68  71
ATOM     71  S   UNL A   1      36.009  30.691  28.216  1.00  0.00     0.127 S 
ATOM     72  O   UNL A   1      35.707  29.737  27.149  1.00  0.00    -0.237 OA
ATOM     73  O   UNL A   1      34.918  30.906  29.168  1.00  0.00    -0.237 OA
ATOM     74  O   UNL A   1      36.695  31.901  27.788  1.00  0.00    -0.744 OA
ENDBRANCH  68  71
ENDBRANCH  50  64
BRANCH  51  75
ATOM     75  C   UNL A   1      48.608  27.280  26.156  1.00  0.00     0.023 A 
ATOM     76  C   UNL A   1      49.678  26.896  26.988  1.00  0.00     0.012 A 
ATOM     77  C   UNL A   1      48.850  27.501  24.787  1.00  0.00     0.148 A 
ATOM     78  C   UNL A   1      50.972  26.785  26.478  1.00  0.00     0.002 A 
ATOM     79  C   UNL A   1      50.130  27.330  24.273  1.00  0.00     0.091 A 
ATOM     80  F   UNL A   1      47.825  27.881  24.012  1.00  0.00    -0.205 F 
ATOM     81  C   UNL A   1      51.197  26.993  25.120  1.00  0.00     0.022 A 
BRANCH  79  82
ATOM     82  S   UNL A   1      50.481  27.452  22.516  1.00  0.00     0.127 S 
ATOM     83  O   UNL A   1      51.865  26.993  22.453  1.00  0.00    -0.237 OA
ATOM     84  O   UNL A   1      49.498  26.531  21.943  1.00  0.00    -0.237 OA
ATOM     85  O   UNL A   1      50.260  28.851  22.168  1.00  0.00    -0.744 OA
ENDBRANCH  79  82
ENDBRANCH  51  75
BRANCH  63  86
ATOM     86  C   UNL A   1      45.344  32.759  28.979  1.00  0.00     0.023 A 
ATOM     87  C   UNL A   1      45.976  33.096  30.191  1.00  0.00     0.012 A 
ATOM     88  C   UNL A   1      45.177  33.747  27.987  1.00  0.00     0.148 A 
ATOM     89  C   UNL A   1      46.403  34.402  30.429  1.00  0.00     0.002 A 
ATOM     90  C   UNL A   1      45.654  35.033  28.209  1.00  0.00     0.091 A 
ATOM     91  F   UNL A   1      44.560  33.409  26.845  1.00  0.00    -0.205 F 
ATOM     92  C   UNL A   1      46.253  35.366  29.435  1.00  0.00     0.022 A 
BRANCH  90  93
ATOM     93  S   UNL A   1      45.595  36.315  26.954  1.00  0.00     0.127 S 
ATOM     94  O   UNL A   1      44.158  36.564  26.850  1.00  0.00    -0.237 OA
ATOM     95  O   UNL A   1      46.358  37.395  27.579  1.00  0.00    -0.237 OA
ATOM     96  O   UNL A   1      46.215  35.745  25.765  1.00  0.00    -0.744 OA
ENDBRANCH  90  93
ENDBRANCH  63  86
ENDBRANCH  37  38
ENDBRANCH  29  32
ENDBRANCH  27  28
ENDBRANCH  26  27
ENDBRANCH  25  26
ENDBRANCH   1  25
TORSDOF 19
ENDMDL
MODEL 2
REMARK VINA RESULT:     -11.4      6.349     11.203
REMARK SMILES Cc1n[nH]c(C)c1CC(=O)N1CC[C@H](C(=O)NCCCCCCNC(=O)c2ccc(-c3c4nc(c(-c5cccc(S(=O)(=O)[O-])c5F)c5ccc([nH]5)c(-c5cccc(S(=O)(=O)[O-])c5F)c5nc(c(-c6cccc(S(=O)(=O)[O-])c6F)c6ccc3[nH]6)C=C5)C=C4)cc2)[C@H]1C
REMARK SMILES IDX 20 1 19 2 18 3 17 4 15 5 16 6 14 8 11 9 12 10 90 11 13 12
REMARK SMILES IDX 91 13 9 14 10 15 8 16 7 17 1 18 2 19 3 20 4 21 5 22 6 24
REMARK SMILES IDX 21 25 22 26 23 27 24 28 25 29 26 31 27 32 28 33 89 34 29 35
REMARK SMILES IDX 88 36 30 37 31 38 32 39 82 40 33 41 87 42 81 43 83 44 34 45
REMARK SMILES IDX 86 46 80 47 79 48 35 50 67 51 47 52 66 53 48 54 51 55 65 56
REMARK SMILES IDX 84 57 49 58 50 59 64 61 85 62 52 63 36 64 37 65 45 66 38 67
REMARK SMILES IDX 40 68 46 69 39 70 41 71 42 72 43 73 44 74 68 75 69 76 77 77
REMARK SMILES IDX 70 78 72 79 78 80 71 81 73 82 74 83 75 84 76 85 53 86 54 87
REMARK SMILES IDX 62 88 55 89 57 90 63 91 56 92 58 93 59 94 60 95 61 96
REMARK H PARENT 17 7 4 23 24 30 83 49 51 60
REMARK Flexibility Score: inf
ROOT
ATOM      1  C   UNL A   1      33.115  29.497  27.097  1.00  0.00     0.002 C 
ENDROOT
BRANCH   1   2
ATOM      2  C   UNL A   1      32.860  27.989  27.204  1.00  0.00     0.021 C 
BRANCH   2   3
ATOM      3  C   UNL A   1      31.665  27.491  26.391  1.00  0.00     0.116 C 
BRANCH   3   4
ATOM      4  N   UNL A   1      31.211  26.229  26.934  1.00  0.00    -0.356 N 
ATOM      5  C   UNL A   1      31.299  24.972  26.433  1.00  0.00     0.225 C 
ATOM      6  O   UNL A   1      30.607  24.113  26.988  1.00  0.00    -0.275 OA
ATOM      7  H   UNL A   1      30.766  26.294  27.810  1.00  0.00     0.163 HD
BRANCH   5   8
ATOM      8  C   UNL A   1      32.323  24.609  25.355  1.00  0.00     0.102 C 
ATOM      9  N   UNL A   1      31.718  25.512  23.231  1.00  0.00    -0.339 N 
ATOM     10  C   UNL A   1      30.944  24.297  23.438  1.00  0.00     0.120 C 
ATOM     11  C   UNL A   1      32.698  25.682  24.306  1.00  0.00     0.094 C 
ATOM     12  C   UNL A   1      31.749  23.500  24.456  1.00  0.00     0.037 C 
ATOM     13  C   UNL A   1      34.128  25.428  23.828  1.00  0.00     0.032 C 
BRANCH   9  14
ATOM     14  C   UNL A   1      31.278  26.463  22.326  1.00  0.00     0.227 C 
ATOM     15  O   UNL A   1      31.404  26.260  21.110  1.00  0.00    -0.275 OA
BRANCH  14  16
ATOM     16  C   UNL A   1      30.849  27.853  22.794  1.00  0.00     0.139 C 
BRANCH  16  17
ATOM     17  C   UNL A   1      29.398  28.203  22.819  1.00  0.00     0.005 A 
ATOM     18  C   UNL A   1      29.390  30.644  21.858  1.00  0.00     0.069 C 
ATOM     19  C   UNL A   1      28.768  29.405  22.391  1.00  0.00     0.063 A 
ATOM     20  N   UNL A   1      27.442  29.360  22.559  1.00  0.00    -0.181 NA
ATOM     21  N   UNL A   1      27.228  28.206  23.205  1.00  0.00    -0.282 N 
ATOM     22  C   UNL A   1      28.375  27.501  23.445  1.00  0.00     0.036 A 
ATOM     23  H   UNL A   1      26.334  27.897  23.479  1.00  0.00     0.190 HD
ATOM     24  C   UNL A   1      28.361  26.286  24.298  1.00  0.00     0.066 C 
ENDBRANCH  16  17
ENDBRANCH  14  16
ENDBRANCH   9  14
ENDBRANCH   5   8
ENDBRANCH   3   4
ENDBRANCH   2   3
ENDBRANCH   1   2
BRANCH   1  25
ATOM     25  C   UNL A   1      32.152  30.240  26.168  1.00  0.00     0.002 C 
BRANCH  25  26
ATOM     26  C   UNL A   1      31.781  31.653  26.626  1.00  0.00     0.021 C 
BRANCH  26  27
ATOM     27  C   UNL A   1      32.865  32.359  27.437  1.00  0.00     0.116 C 
BRANCH  27  28
ATOM     28  N   UNL A   1      32.566  33.776  27.613  1.00  0.00    -0.352 N 
ATOM     29  C   UNL A   1      33.083  34.669  28.518  1.00  0.00     0.251 C 
ATOM     30  H   UNL A   1      31.896  34.145  26.993  1.00  0.00     0.163 HD
ATOM     31  O   UNL A   1      32.547  35.764  28.682  1.00  0.00    -0.269 OA
BRANCH  29  32
ATOM     32  C   UNL A   1      34.276  34.303  29.308  1.00  0.00     0.039 A 
ATOM     33  C   UNL A   1      34.107  33.688  30.553  1.00  0.00     0.014 A 
ATOM     34  C   UNL A   1      35.559  34.555  28.816  1.00  0.00     0.014 A 
ATOM     35  C   UNL A   1      35.227  33.250  31.264  1.00  0.00     0.010 A 
ATOM     36  C   UNL A   1      36.669  34.060  29.495  1.00  0.00     0.010 A 
ATOM     37  C   UNL A   1      36.514  33.389  30.719  1.00  0.00    -0.014 A 
BRANCH  37  38
ATOM     38  C   UNL A   1      37.705  32.787  31.373  1.00  0.00     0.031 A 
ATOM     39  C   UNL A   1      38.417  31.623  30.740  1.00  0.00     0.074 A 
ATOM     40  C   UNL A   1      38.071  33.219  32.597  1.00  0.00     0.049 A 
ATOM     41  N   UNL A   1      39.405  30.909  31.214  1.00  0.00    -0.248 NA
ATOM     42  C   UNL A   1      37.949  31.192  29.413  1.00  0.00     0.031 C 
ATOM     43  C   UNL A   1      37.417  34.297  33.345  1.00  0.00     0.029 A 
ATOM     44  N   UNL A   1      39.057  32.779  33.448  1.00  0.00    -0.354 N 
ATOM     45  C   UNL A   1      39.649  29.920  30.269  1.00  0.00     0.074 A 
ATOM     46  C   UNL A   1      38.699  30.120  29.195  1.00  0.00     0.031 C 
ATOM     47  C   UNL A   1      38.012  34.427  34.542  1.00  0.00     0.029 A 
ATOM     48  C   UNL A   1      39.058  33.419  34.667  1.00  0.00     0.049 A 
ATOM     49  H   UNL A   1      39.700  32.074  33.207  1.00  0.00     0.167 HD
ATOM     50  C   UNL A   1      40.587  28.944  30.287  1.00  0.00     0.034 A 
ATOM     51  C   UNL A   1      39.798  33.200  35.772  1.00  0.00     0.034 A 
ATOM     52  C   UNL A   1      41.555  28.773  31.338  1.00  0.00     0.049 A 
ATOM     53  C   UNL A   1      40.839  32.111  35.753  1.00  0.00     0.074 A 
ATOM     54  C   UNL A   1      42.612  27.881  31.391  1.00  0.00     0.029 A 
ATOM     55  N   UNL A   1      41.574  29.486  32.525  1.00  0.00    -0.354 N 
ATOM     56  N   UNL A   1      41.170  31.304  34.776  1.00  0.00    -0.248 NA
ATOM     57  C   UNL A   1      41.626  31.923  36.980  1.00  0.00     0.031 C 
ATOM     58  C   UNL A   1      43.243  28.024  32.630  1.00  0.00     0.029 A 
ATOM     59  C   UNL A   1      42.605  29.034  33.331  1.00  0.00     0.049 A 
ATOM     60  H   UNL A   1      40.948  30.209  32.760  1.00  0.00     0.167 HD
ATOM     61  C   UNL A   1      42.227  30.538  35.258  1.00  0.00     0.074 A 
ATOM     62  C   UNL A   1      42.497  30.998  36.604  1.00  0.00     0.031 C 
ATOM     63  C   UNL A   1      42.899  29.532  34.649  1.00  0.00     0.034 A 
BRANCH  50  64
ATOM     64  C   UNL A   1      40.648  27.990  29.125  1.00  0.00     0.023 A 
ATOM     65  C   UNL A   1      39.691  26.964  29.010  1.00  0.00     0.012 A 
ATOM     66  C   UNL A   1      41.581  28.186  28.087  1.00  0.00     0.148 A 
ATOM     67  C   UNL A   1      39.670  26.134  27.889  1.00  0.00     0.002 A 
ATOM     68  C   UNL A   1      41.528  27.385  26.953  1.00  0.00     0.091 A 
ATOM     69  F   UNL A   1      42.494  29.159  28.225  1.00  0.00    -0.205 F 
ATOM     70  C   UNL A   1      40.579  26.354  26.856  1.00  0.00     0.022 A 
BRANCH  68  71
ATOM     71  S   UNL A   1      42.595  27.641  25.531  1.00  0.00     0.127 S 
ATOM     72  O   UNL A   1      42.059  28.885  24.980  1.00  0.00    -0.237 OA
ATOM     73  O   UNL A   1      43.911  27.770  26.158  1.00  0.00    -0.237 OA
ATOM     74  O   UNL A   1      42.431  26.468  24.685  1.00  0.00    -0.744 OA
ENDBRANCH  68  71
ENDBRANCH  50  64
BRANCH  51  75
ATOM     75  C   UNL A   1      39.604  34.037  36.991  1.00  0.00     0.023 A 
ATOM     76  C   UNL A   1      40.071  35.366  37.000  1.00  0.00     0.012 A 
ATOM     77  C   UNL A   1      38.981  33.522  38.144  1.00  0.00     0.148 A 
ATOM     78  C   UNL A   1      39.966  36.149  38.150  1.00  0.00     0.002 A 
ATOM     79  C   UNL A   1      38.825  34.327  39.266  1.00  0.00     0.091 A 
ATOM     80  F   UNL A   1      38.556  32.250  38.124  1.00  0.00    -0.205 F 
ATOM     81  C   UNL A   1      39.336  35.634  39.279  1.00  0.00     0.022 A 
BRANCH  79  82
ATOM     82  S   UNL A   1      37.912  33.784  40.715  1.00  0.00     0.127 S 
ATOM     83  O   UNL A   1      36.728  33.179  40.114  1.00  0.00    -0.237 OA
ATOM     84  O   UNL A   1      38.847  32.838  41.327  1.00  0.00    -0.237 OA
ATOM     85  O   UNL A   1      37.679  34.988  41.504  1.00  0.00    -0.744 OA
ENDBRANCH  79  82
ENDBRANCH  51  75
BRANCH  63  86
ATOM     86  C   UNL A   1      44.021  28.876  35.412  1.00  0.00     0.023 A 
ATOM     87  C   UNL A   1      45.327  29.396  35.327  1.00  0.00     0.012 A 
ATOM     88  C   UNL A   1      43.765  27.785  36.267  1.00  0.00     0.148 A 
ATOM     89  C   UNL A   1      46.369  28.819  36.053  1.00  0.00     0.002 A 
ATOM     90  C   UNL A   1      44.797  27.250  37.029  1.00  0.00     0.091 A 
ATOM     91  F   UNL A   1      42.518  27.295  36.323  1.00  0.00    -0.205 F 
ATOM     92  C   UNL A   1      46.102  27.756  36.912  1.00  0.00     0.022 A 
BRANCH  90  93
ATOM     93  S   UNL A   1      44.532  25.945  38.234  1.00  0.00     0.127 S 
ATOM     94  O   UNL A   1      45.903  25.614  38.620  1.00  0.00    -0.237 OA
ATOM     95  O   UNL A   1      43.756  26.632  39.267  1.00  0.00    -0.237 OA
ATOM     96  O   UNL A   1      43.810  24.890  37.535  1.00  0.00    -0.744 OA
ENDBRANCH  90  93
ENDBRANCH  63  86
ENDBRANCH  37  38
ENDBRANCH  29  32
ENDBRANCH  27  28
ENDBRANCH  26  27
ENDBRANCH  25  26
ENDBRANCH   1  25
TORSDOF 19
ENDMDL
MODEL 3
REMARK VINA RESULT:     -11.4      1.847      2.404
REMARK SMILES Cc1n[nH]c(C)c1CC(=O)N1CC[C@H](C(=O)NCCCCCCNC(=O)c2ccc(-c3c4nc(c(-c5cccc(S(=O)(=O)[O-])c5F)c5ccc([nH]5)c(-c5cccc(S(=O)(=O)[O-])c5F)c5nc(c(-c6cccc(S(=O)(=O)[O-])c6F)c6ccc3[nH]6)C=C5)C=C4)cc2)[C@H]1C
REMARK SMILES IDX 20 1 19 2 18 3 17 4 15 5 16 6 14 8 11 9 12 10 90 11 13 12
REMARK SMILES IDX 91 13 9 14 10 15 8 16 7 17 1 18 2 19 3 20 4 21 5 22 6 24
REMARK SMILES IDX 21 25 22 26 23 27 24 28 25 29 26 31 27 32 28 33 89 34 29 35
REMARK SMILES IDX 88 36 30 37 31 38 32 39 82 40 33 41 87 42 81 43 83 44 34 45
REMARK SMILES IDX 86 46 80 47 79 48 35 50 67 51 47 52 66 53 48 54 51 55 65 56
REMARK SMILES IDX 84 57 49 58 50 59 64 61 85 62 52 63 36 64 37 65 45 66 38 67
REMARK SMILES IDX 40 68 46 69 39 70 41 71 42 72 43 73 44 74 68 75 69 76 77 77
REMARK SMILES IDX 70 78 72 79 78 80 71 81 73 82 74 83 75 84 76 85 53 86 54 87
REMARK SMILES IDX 62 88 55 89 57 90 63 91 56 92 58 93 59 94 60 95 61 96
REMARK H PARENT 17 7 4 23 24 30 83 49 51 60
REMARK Flexibility Score: inf
ROOT
ATOM      1  C   UNL A   1      35.606  19.885  24.956  1.00  0.00     0.002 C 
ENDROOT
BRANCH   1   2
ATOM      2  C   UNL A   1      34.118  20.255  24.952  1.00  0.00     0.021 C 
BRANCH   2   3
ATOM      3  C   UNL A   1      33.625  20.905  26.246  1.00  0.00     0.116 C 
BRANCH   3   4
ATOM      4  N   UNL A   1      32.252  21.326  26.074  1.00  0.00    -0.356 N 
ATOM      5  C   UNL A   1      31.731  22.559  25.856  1.00  0.00     0.225 C 
ATOM      6  O   UNL A   1      30.509  22.668  25.998  1.00  0.00    -0.275 OA
ATOM      7  H   UNL A   1      31.589  20.600  26.125  1.00  0.00     0.163 HD
BRANCH   5   8
ATOM      8  C   UNL A   1      32.582  23.703  25.301  1.00  0.00     0.102 C 
ATOM      9  N   UNL A   1      31.230  25.531  24.577  1.00  0.00    -0.339 N 
ATOM     10  C   UNL A   1      31.223  24.525  23.526  1.00  0.00     0.120 C 
ATOM     11  C   UNL A   1      32.170  25.156  25.637  1.00  0.00     0.094 C 
ATOM     12  C   UNL A   1      32.489  23.713  23.765  1.00  0.00     0.037 C 
ATOM     13  C   UNL A   1      33.420  26.037  25.637  1.00  0.00     0.032 C 
BRANCH   9  14
ATOM     14  C   UNL A   1      30.216  26.472  24.638  1.00  0.00     0.227 C 
ATOM     15  O   UNL A   1      29.042  26.124  24.455  1.00  0.00    -0.275 OA
BRANCH  14  16
ATOM     16  C   UNL A   1      30.534  27.966  24.701  1.00  0.00     0.139 C 
BRANCH  16  17
ATOM     17  C   UNL A   1      30.520  28.772  23.444  1.00  0.00     0.005 A 
ATOM     18  C   UNL A   1      27.958  28.931  22.905  1.00  0.00     0.069 C 
ATOM     19  C   UNL A   1      29.400  29.208  22.682  1.00  0.00     0.063 A 
ATOM     20  N   UNL A   1      29.771  29.920  21.613  1.00  0.00    -0.181 NA
ATOM     21  N   UNL A   1      31.108  29.838  21.606  1.00  0.00    -0.282 N 
ATOM     22  C   UNL A   1      31.609  29.105  22.647  1.00  0.00     0.036 A 
ATOM     23  H   UNL A   1      31.673  30.262  20.921  1.00  0.00     0.190 HD
ATOM     24  C   UNL A   1      33.051  28.757  22.713  1.00  0.00     0.066 C 
ENDBRANCH  16  17
ENDBRANCH  14  16
ENDBRANCH   9  14
ENDBRANCH   5   8
ENDBRANCH   3   4
ENDBRANCH   2   3
ENDBRANCH   1   2
BRANCH   1  25
ATOM     25  C   UNL A   1      36.549  21.044  25.286  1.00  0.00     0.002 C 
BRANCH  25  26
ATOM     26  C   UNL A   1      38.005  20.826  24.866  1.00  0.00     0.021 C 
BRANCH  26  27
ATOM     27  C   UNL A   1      39.009  20.886  26.015  1.00  0.00     0.116 C 
BRANCH  27  28
ATOM     28  N   UNL A   1      39.888  19.722  26.021  1.00  0.00    -0.352 N 
ATOM     29  C   UNL A   1      41.259  19.668  26.058  1.00  0.00     0.251 C 
ATOM     30  H   UNL A   1      39.433  18.850  25.993  1.00  0.00     0.163 HD
ATOM     31  O   UNL A   1      41.843  18.612  25.817  1.00  0.00    -0.269 OA
BRANCH  29  32
ATOM     32  C   UNL A   1      42.033  20.887  26.372  1.00  0.00     0.039 A 
ATOM     33  C   UNL A   1      42.395  21.750  25.334  1.00  0.00     0.014 A 
ATOM     34  C   UNL A   1      42.389  21.181  27.691  1.00  0.00     0.014 A 
ATOM     35  C   UNL A   1      43.041  22.953  25.631  1.00  0.00     0.010 A 
ATOM     36  C   UNL A   1      42.974  22.409  27.989  1.00  0.00     0.010 A 
ATOM     37  C   UNL A   1      43.292  23.315  26.965  1.00  0.00    -0.014 A 
BRANCH  37  38
ATOM     38  C   UNL A   1      43.825  24.656  27.320  1.00  0.00     0.031 A 
ATOM     39  C   UNL A   1      42.914  25.719  27.867  1.00  0.00     0.074 A 
ATOM     40  C   UNL A   1      45.112  24.947  27.037  1.00  0.00     0.049 A 
ATOM     41  N   UNL A   1      43.181  26.972  28.135  1.00  0.00    -0.248 NA
ATOM     42  C   UNL A   1      41.517  25.335  28.130  1.00  0.00     0.031 C 
ATOM     43  C   UNL A   1      46.079  24.021  26.442  1.00  0.00     0.029 A 
ATOM     44  N   UNL A   1      45.819  26.118  27.174  1.00  0.00    -0.354 N 
ATOM     45  C   UNL A   1      41.983  27.536  28.555  1.00  0.00     0.074 A 
ATOM     46  C   UNL A   1      40.983  26.492  28.499  1.00  0.00     0.031 C 
ATOM     47  C   UNL A   1      47.245  24.659  26.258  1.00  0.00     0.029 A 
ATOM     48  C   UNL A   1      47.101  26.048  26.678  1.00  0.00     0.049 A 
ATOM     49  H   UNL A   1      45.443  26.929  27.586  1.00  0.00     0.167 HD
ATOM     50  C   UNL A   1      41.742  28.804  28.963  1.00  0.00     0.034 A 
ATOM     51  C   UNL A   1      48.046  27.000  26.550  1.00  0.00     0.034 A 
ATOM     52  C   UNL A   1      42.748  29.829  29.055  1.00  0.00     0.049 A 
ATOM     53  C   UNL A   1      47.745  28.398  27.023  1.00  0.00     0.074 A 
ATOM     54  C   UNL A   1      42.620  31.112  29.559  1.00  0.00     0.029 A 
ATOM     55  N   UNL A   1      44.055  29.702  28.614  1.00  0.00    -0.354 N 
ATOM     56  N   UNL A   1      46.657  28.863  27.584  1.00  0.00    -0.248 NA
ATOM     57  C   UNL A   1      48.815  29.396  26.871  1.00  0.00     0.031 C 
ATOM     58  C   UNL A   1      43.837  31.775  29.383  1.00  0.00     0.029 A 
ATOM     59  C   UNL A   1      44.735  30.892  28.806  1.00  0.00     0.049 A 
ATOM     60  H   UNL A   1      44.442  28.886  28.222  1.00  0.00     0.167 HD
ATOM     61  C   UNL A   1      46.923  30.195  27.883  1.00  0.00     0.074 A 
ATOM     62  C   UNL A   1      48.285  30.454  27.467  1.00  0.00     0.031 C 
ATOM     63  C   UNL A   1      46.107  31.125  28.436  1.00  0.00     0.034 A 
BRANCH  50  64
ATOM     64  C   UNL A   1      40.341  29.167  29.378  1.00  0.00     0.023 A 
ATOM     65  C   UNL A   1      39.407  29.575  28.405  1.00  0.00     0.012 A 
ATOM     66  C   UNL A   1      39.921  28.989  30.711  1.00  0.00     0.148 A 
ATOM     67  C   UNL A   1      38.079  29.817  28.756  1.00  0.00     0.002 A 
ATOM     68  C   UNL A   1      38.588  29.189  31.045  1.00  0.00     0.091 A 
ATOM     69  F   UNL A   1      40.832  28.617  31.622  1.00  0.00    -0.205 F 
ATOM     70  C   UNL A   1      37.667  29.612  30.070  1.00  0.00     0.022 A 
BRANCH  68  71
ATOM     71  S   UNL A   1      37.939  28.870  32.689  1.00  0.00     0.127 S 
ATOM     72  O   UNL A   1      38.831  29.678  33.520  1.00  0.00    -0.237 OA
ATOM     73  O   UNL A   1      36.573  29.383  32.583  1.00  0.00    -0.237 OA
ATOM     74  O   UNL A   1      38.039  27.432  32.891  1.00  0.00    -0.744 OA
ENDBRANCH  68  71
ENDBRANCH  50  64
BRANCH  51  75
ATOM     75  C   UNL A   1      49.378  26.672  25.966  1.00  0.00     0.023 A 
ATOM     76  C   UNL A   1      50.311  25.946  26.734  1.00  0.00     0.012 A 
ATOM     77  C   UNL A   1      49.735  27.088  24.669  1.00  0.00     0.148 A 
ATOM     78  C   UNL A   1      51.589  25.686  26.239  1.00  0.00     0.002 A 
ATOM     79  C   UNL A   1      50.989  26.773  24.159  1.00  0.00     0.091 A 
ATOM     80  F   UNL A   1      48.841  27.790  23.958  1.00  0.00    -0.205 F 
ATOM     81  C   UNL A   1      51.926  26.090  24.951  1.00  0.00     0.022 A 
BRANCH  79  82
ATOM     82  S   UNL A   1      51.455  27.143  22.465  1.00  0.00     0.127 S 
ATOM     83  O   UNL A   1      50.315  26.620  21.718  1.00  0.00    -0.237 OA
ATOM     84  O   UNL A   1      51.559  28.603  22.490  1.00  0.00    -0.237 OA
ATOM     85  O   UNL A   1      52.724  26.458  22.249  1.00  0.00    -0.744 OA
ENDBRANCH  79  82
ENDBRANCH  51  75
BRANCH  63  86
ATOM     86  C   UNL A   1      46.668  32.506  28.659  1.00  0.00     0.023 A 
ATOM     87  C   UNL A   1      47.284  32.824  29.886  1.00  0.00     0.012 A 
ATOM     88  C   UNL A   1      46.645  33.466  27.627  1.00  0.00     0.148 A 
ATOM     89  C   UNL A   1      47.837  34.087  30.095  1.00  0.00     0.002 A 
ATOM     90  C   UNL A   1      47.246  34.703  27.824  1.00  0.00     0.091 A 
ATOM     91  F   UNL A   1      46.042  33.149  26.473  1.00  0.00    -0.205 F 
ATOM     92  C   UNL A   1      47.829  35.020  29.062  1.00  0.00     0.022 A 
BRANCH  90  93
ATOM     93  S   UNL A   1      47.372  35.934  26.523  1.00  0.00     0.127 S 
ATOM     94  O   UNL A   1      48.090  35.195  25.484  1.00  0.00    -0.237 OA
ATOM     95  O   UNL A   1      45.968  36.206  26.217  1.00  0.00    -0.237 OA
ATOM     96  O   UNL A   1      48.096  37.059  27.099  1.00  0.00    -0.744 OA
ENDBRANCH  90  93
ENDBRANCH  63  86
ENDBRANCH  37  38
ENDBRANCH  29  32
ENDBRANCH  27  28
ENDBRANCH  26  27
ENDBRANCH  25  26
ENDBRANCH   1  25
TORSDOF 19
ENDMDL
