MODEL 1
REMARK VINA RESULT:     -11.6      0.000      0.000
REMARK SMILES O=C(NCCCCCCNC(=O)[C@H](NC(=O)[C@H]1CC(=O)N(CC2CC2)C1)c1ccccc1C(F)(F)F)c1ccc(-c2c3nc(c(-c4cccc(S(=O)(=O)[O-])c4F)c4ccc([nH]4)c(-c4cccc(S(=O)(=O)[O-])c4F)c4nc(c(-c5cccc(S(=O)(=O)[O-])c5F)c5ccc2[nH]5)C=C4)C=C3)cc1
REMARK SMILES IDX 7 1 6 2 5 3 4 4 3 5 1 6 2 7 37 9 38 10 99 11 39 12 98 13
REMARK SMILES IDX 40 14 41 15 42 16 92 17 43 18 97 19 91 20 93 21 44 22 96 23
REMARK SMILES IDX 90 24 89 25 45 27 77 28 57 29 76 30 58 31 61 32 75 33 94 34
REMARK SMILES IDX 59 35 60 36 74 38 95 39 62 40 46 41 47 42 55 43 48 44 50 45
REMARK SMILES IDX 56 46 49 47 51 48 52 49 53 50 54 51 78 52 79 53 87 54 80 55
REMARK SMILES IDX 82 56 88 57 81 58 83 59 84 60 85 61 86 62 63 63 64 64 72 65
REMARK SMILES IDX 65 66 67 67 73 68 66 69 68 70 69 71 70 72 71 73 8 74 9 75
REMARK SMILES IDX 10 76 11 77 12 79 13 80 27 81 28 82 32 83 29 84 31 85 30 86
REMARK SMILES IDX 33 87 34 88 35 89 36 90 14 91 15 92 16 94 17 95 18 96 26 97
REMARK SMILES IDX 19 98 21 99 20 100 22 101 23 102 24 103 25 104
REMARK H PARENT 3 8 93 26 61 37 10 78 14 93
REMARK Flexibility Score: inf
ROOT
ATOM      1  C   UNL A   1      37.100  21.087  24.970  1.00  0.00     0.002 C 
ENDROOT
BRANCH   1   2
ATOM      2  C   UNL A   1      38.585  21.083  25.349  1.00  0.00     0.002 C 
BRANCH   2   3
ATOM      3  C   UNL A   1      39.181  19.705  25.641  1.00  0.00     0.021 C 
BRANCH   3   4
ATOM      4  C   UNL A   1      40.357  19.717  26.606  1.00  0.00     0.116 C 
BRANCH   4   5
ATOM      5  N   UNL A   1      41.518  19.018  26.076  1.00  0.00    -0.352 N 
ATOM      6  O   UNL A   1      43.552  18.829  25.120  1.00  0.00    -0.269 OA
ATOM      7  C   UNL A   1      42.744  19.528  25.723  1.00  0.00     0.251 C 
ATOM      8  H   UNL A   1      41.410  18.047  25.954  1.00  0.00     0.163 HD
BRANCH   7   9
ATOM      9  C   UNL A   1      43.060  20.931  26.061  1.00  0.00     0.039 A 
ATOM     10  C   UNL A   1      43.079  21.900  25.057  1.00  0.00     0.014 A 
ATOM     11  C   UNL A   1      43.366  21.277  27.380  1.00  0.00     0.014 A 
ATOM     12  C   UNL A   1      43.557  23.170  25.336  1.00  0.00     0.010 A 
ATOM     13  C   UNL A   1      43.737  22.591  27.681  1.00  0.00     0.010 A 
ATOM     14  C   UNL A   1      43.858  23.543  26.657  1.00  0.00    -0.014 A 
BRANCH  14  15
ATOM     15  C   UNL A   1      44.183  24.965  26.933  1.00  0.00     0.031 A 
ATOM     16  C   UNL A   1      43.166  25.921  27.486  1.00  0.00     0.074 A 
ATOM     17  C   UNL A   1      45.445  25.376  26.694  1.00  0.00     0.049 A 
ATOM     18  N   UNL A   1      43.321  27.178  27.816  1.00  0.00    -0.248 NA
ATOM     19  C   UNL A   1      41.798  25.416  27.690  1.00  0.00     0.031 C 
ATOM     20  C   UNL A   1      46.505  24.544  26.112  1.00  0.00     0.029 A 
ATOM     21  N   UNL A   1      46.059  26.581  26.913  1.00  0.00    -0.354 N 
ATOM     22  C   UNL A   1      42.074  27.624  28.237  1.00  0.00     0.074 A 
ATOM     23  C   UNL A   1      41.165  26.504  28.111  1.00  0.00     0.031 C 
ATOM     24  C   UNL A   1      47.642  25.249  26.056  1.00  0.00     0.029 A 
ATOM     25  C   UNL A   1      47.379  26.602  26.526  1.00  0.00     0.049 A 
ATOM     26  H   UNL A   1      45.599  27.357  27.308  1.00  0.00     0.167 HD
ATOM     27  C   UNL A   1      41.725  28.850  28.698  1.00  0.00     0.034 A 
ATOM     28  C   UNL A   1      48.275  27.604  26.520  1.00  0.00     0.034 A 
ATOM     29  C   UNL A   1      42.644  29.952  28.838  1.00  0.00     0.049 A 
ATOM     30  C   UNL A   1      47.855  28.946  27.041  1.00  0.00     0.074 A 
ATOM     31  C   UNL A   1      42.398  31.218  29.341  1.00  0.00     0.029 A 
ATOM     32  N   UNL A   1      43.980  29.927  28.464  1.00  0.00    -0.354 N 
ATOM     33  N   UNL A   1      46.702  29.311  27.547  1.00  0.00    -0.248 NA
ATOM     34  C   UNL A   1      48.867  30.009  27.017  1.00  0.00     0.031 C 
ATOM     35  C   UNL A   1      43.575  31.968  29.241  1.00  0.00     0.029 A 
ATOM     36  C   UNL A   1      44.566  31.157  28.713  1.00  0.00     0.049 A 
ATOM     37  H   UNL A   1      44.444  29.148  28.078  1.00  0.00     0.167 HD
ATOM     38  C   UNL A   1      46.857  30.637  27.924  1.00  0.00     0.074 A 
ATOM     39  C   UNL A   1      48.228  30.998  27.624  1.00  0.00     0.031 C 
ATOM     40  C   UNL A   1      45.942  31.489  28.449  1.00  0.00     0.034 A 
BRANCH  27  41
ATOM     41  C   UNL A   1      40.296  29.071  29.123  1.00  0.00     0.023 A 
ATOM     42  C   UNL A   1      39.301  29.281  28.147  1.00  0.00     0.012 A 
ATOM     43  C   UNL A   1      39.919  28.972  30.479  1.00  0.00     0.148 A 
ATOM     44  C   UNL A   1      37.961  29.409  28.511  1.00  0.00     0.002 A 
ATOM     45  C   UNL A   1      38.577  29.057  30.830  1.00  0.00     0.091 A 
ATOM     46  F   UNL A   1      40.881  28.785  31.395  1.00  0.00    -0.205 F 
ATOM     47  C   UNL A   1      37.598  29.285  29.850  1.00  0.00     0.022 A 
BRANCH  45  48
ATOM     48  S   UNL A   1      37.994  28.829  32.515  1.00  0.00     0.127 S 
ATOM     49  O   UNL A   1      38.901  29.700  33.262  1.00  0.00    -0.237 OA
ATOM     50  O   UNL A   1      36.616  29.314  32.431  1.00  0.00    -0.237 OA
ATOM     51  O   UNL A   1      38.126  27.407  32.801  1.00  0.00    -0.744 OA
ENDBRANCH  45  48
ENDBRANCH  27  41
BRANCH  28  52
ATOM     52  C   UNL A   1      49.655  27.371  26.010  1.00  0.00     0.023 A 
ATOM     53  C   UNL A   1      50.670  26.962  26.894  1.00  0.00     0.012 A 
ATOM     54  C   UNL A   1      49.960  27.543  24.646  1.00  0.00     0.148 A 
ATOM     55  C   UNL A   1      51.975  26.771  26.438  1.00  0.00     0.002 A 
ATOM     56  C   UNL A   1      51.244  27.286  24.185  1.00  0.00     0.091 A 
ATOM     57  F   UNL A   1      48.983  27.944  23.820  1.00  0.00    -0.205 F 
ATOM     58  C   UNL A   1      52.260  26.923  25.083  1.00  0.00     0.022 A 
BRANCH  56  59
ATOM     59  S   UNL A   1      51.657  27.317  22.439  1.00  0.00     0.127 S 
ATOM     60  O   UNL A   1      52.838  26.459  22.396  1.00  0.00    -0.237 OA
ATOM     61  O   UNL A   1      50.455  26.744  21.832  1.00  0.00    -0.237 OA
ATOM     62  O   UNL A   1      51.877  28.721  22.114  1.00  0.00    -0.744 OA
ENDBRANCH  56  59
ENDBRANCH  28  52
BRANCH  40  63
ATOM     63  C   UNL A   1      46.410  32.886  28.764  1.00  0.00     0.023 A 
ATOM     64  C   UNL A   1      47.063  33.151  29.985  1.00  0.00     0.012 A 
ATOM     65  C   UNL A   1      46.229  33.930  27.836  1.00  0.00     0.148 A 
ATOM     66  C   UNL A   1      47.482  34.442  30.299  1.00  0.00     0.002 A 
ATOM     67  C   UNL A   1      46.699  35.203  28.133  1.00  0.00     0.091 A 
ATOM     68  F   UNL A   1      45.589  33.663  26.689  1.00  0.00    -0.205 F 
ATOM     69  C   UNL A   1      47.310  35.465  29.370  1.00  0.00     0.022 A 
BRANCH  67  70
ATOM     70  S   UNL A   1      46.607  36.560  26.961  1.00  0.00     0.127 S 
ATOM     71  O   UNL A   1      47.485  37.551  27.582  1.00  0.00    -0.237 OA
ATOM     72  O   UNL A   1      47.141  35.952  25.742  1.00  0.00    -0.237 OA
ATOM     73  O   UNL A   1      45.201  36.931  26.884  1.00  0.00    -0.744 OA
ENDBRANCH  67  70
ENDBRANCH  40  63
ENDBRANCH  14  15
ENDBRANCH   7   9
ENDBRANCH   4   5
ENDBRANCH   3   4
ENDBRANCH   2   3
ENDBRANCH   1   2
BRANCH   1  74
ATOM     74  C   UNL A   1      36.641  22.302  24.169  1.00  0.00     0.021 C 
BRANCH  74  75
ATOM     75  C   UNL A   1      35.771  23.264  24.953  1.00  0.00     0.116 C 
BRANCH  75  76
ATOM     76  N   UNL A   1      35.356  22.775  26.234  1.00  0.00    -0.354 N 
ATOM     77  C   UNL A   1      34.152  22.239  26.586  1.00  0.00     0.247 C 
ATOM     78  H   UNL A   1      36.026  22.834  26.954  1.00  0.00     0.163 HD
ATOM     79  O   UNL A   1      34.152  21.620  27.658  1.00  0.00    -0.272 OA
BRANCH  77  80
ATOM     80  C   UNL A   1      32.880  22.254  25.616  1.00  0.00     0.202 C 
BRANCH  80  81
ATOM     81  C   UNL A   1      32.715  20.829  25.020  1.00  0.00    -0.004 A 
ATOM     82  C   UNL A   1      32.895  19.717  25.879  1.00  0.00     0.007 A 
ATOM     83  C   UNL A   1      32.468  20.547  23.655  1.00  0.00     0.061 A 
ATOM     84  C   UNL A   1      32.870  18.400  25.405  1.00  0.00     0.000 A 
ATOM     85  C   UNL A   1      32.411  19.208  23.204  1.00  0.00     0.013 A 
ATOM     86  C   UNL A   1      32.625  18.145  24.065  1.00  0.00     0.001 A 
BRANCH  83  87
ATOM     87  C   UNL A   1      32.210  21.583  22.605  1.00  0.00     0.416 C 
ATOM     88  F   UNL A   1      31.894  21.064  21.387  1.00  0.00    -0.166 F 
ATOM     89  F   UNL A   1      31.160  22.377  22.952  1.00  0.00    -0.166 F 
ATOM     90  F   UNL A   1      33.266  22.395  22.386  1.00  0.00    -0.166 F 
ENDBRANCH  83  87
ENDBRANCH  80  81
BRANCH  80  91
ATOM     91  N   UNL A   1      31.608  22.658  26.244  1.00  0.00    -0.340 N 
ATOM     92  C   UNL A   1      31.025  23.803  26.669  1.00  0.00     0.226 C 
ATOM     93  H   UNL A   1      31.023  21.881  26.397  1.00  0.00     0.164 HD
ATOM     94  O   UNL A   1      29.972  23.615  27.299  1.00  0.00    -0.275 OA
BRANCH  92  95
ATOM     95  C   UNL A   1      31.505  25.258  26.526  1.00  0.00     0.107 C 
ATOM     96  C   UNL A   1      32.891  25.503  25.934  1.00  0.00     0.115 C 
ATOM     97  C   UNL A   1      30.588  26.267  25.863  1.00  0.00     0.133 C 
ATOM     98  C   UNL A   1      32.780  26.790  25.172  1.00  0.00     0.223 C 
ATOM     99  N   UNL A   1      31.461  27.189  25.166  1.00  0.00    -0.342 N 
ATOM    100  O   UNL A   1      33.725  27.369  24.656  1.00  0.00    -0.275 OA
BRANCH  99 101
ATOM    101  C   UNL A   1      31.073  28.540  24.788  1.00  0.00     0.123 C 
BRANCH 101 102
ATOM    102  C   UNL A   1      30.211  28.682  23.564  1.00  0.00     0.008 C 
ATOM    103  C   UNL A   1      30.626  29.303  22.254  1.00  0.00     0.006 C 
ATOM    104  C   UNL A   1      30.501  27.808  22.372  1.00  0.00     0.006 C 
ENDBRANCH 101 102
ENDBRANCH  99 101
ENDBRANCH  92  95
ENDBRANCH  80  91
ENDBRANCH  77  80
ENDBRANCH  75  76
ENDBRANCH  74  75
ENDBRANCH   1  74
TORSDOF 22
ENDMDL
MODEL 2
REMARK VINA RESULT:     -11.4      3.978      9.094
REMARK SMILES O=C(NCCCCCCNC(=O)[C@H](NC(=O)[C@H]1CC(=O)N(CC2CC2)C1)c1ccccc1C(F)(F)F)c1ccc(-c2c3nc(c(-c4cccc(S(=O)(=O)[O-])c4F)c4ccc([nH]4)c(-c4cccc(S(=O)(=O)[O-])c4F)c4nc(c(-c5cccc(S(=O)(=O)[O-])c5F)c5ccc2[nH]5)C=C4)C=C3)cc1
REMARK SMILES IDX 7 1 6 2 5 3 4 4 3 5 1 6 2 7 37 9 38 10 99 11 39 12 98 13
REMARK SMILES IDX 40 14 41 15 42 16 92 17 43 18 97 19 91 20 93 21 44 22 96 23
REMARK SMILES IDX 90 24 89 25 45 27 77 28 57 29 76 30 58 31 61 32 75 33 94 34
REMARK SMILES IDX 59 35 60 36 74 38 95 39 62 40 46 41 47 42 55 43 48 44 50 45
REMARK SMILES IDX 56 46 49 47 51 48 52 49 53 50 54 51 78 52 79 53 87 54 80 55
REMARK SMILES IDX 82 56 88 57 81 58 83 59 84 60 85 61 86 62 63 63 64 64 72 65
REMARK SMILES IDX 65 66 67 67 73 68 66 69 68 70 69 71 70 72 71 73 8 74 9 75
REMARK SMILES IDX 10 76 11 77 12 79 13 80 27 81 28 82 32 83 29 84 31 85 30 86
REMARK SMILES IDX 33 87 34 88 35 89 36 90 14 91 15 92 16 94 17 95 18 96 26 97
REMARK SMILES IDX 19 98 21 99 20 100 22 101 23 102 24 103 25 104
REMARK H PARENT 3 8 93 26 61 37 10 78 14 93
REMARK Flexibility Score: inf
ROOT
ATOM      1  C   UNL A   1      33.914  23.116  22.612  1.00  0.00     0.002 C 
ENDROOT
BRANCH   1   2
ATOM      2  C   UNL A   1      34.850  24.021  23.421  1.00  0.00     0.002 C 
BRANCH   2   3
ATOM      3  C   UNL A   1      36.274  23.494  23.601  1.00  0.00     0.021 C 
BRANCH   3   4
ATOM      4  C   UNL A   1      36.899  23.811  24.952  1.00  0.00     0.116 C 
BRANCH   4   5
ATOM      5  N   UNL A   1      37.705  22.712  25.462  1.00  0.00    -0.352 N 
ATOM      6  O   UNL A   1      39.515  21.743  26.395  1.00  0.00    -0.269 OA
ATOM      7  C   UNL A   1      38.863  22.763  26.201  1.00  0.00     0.251 C 
ATOM      8  H   UNL A   1      37.376  21.809  25.249  1.00  0.00     0.163 HD
BRANCH   7   9
ATOM      9  C   UNL A   1      39.314  24.064  26.736  1.00  0.00     0.039 A 
ATOM     10  C   UNL A   1      39.995  24.956  25.906  1.00  0.00     0.014 A 
ATOM     11  C   UNL A   1      39.081  24.384  28.076  1.00  0.00     0.014 A 
ATOM     12  C   UNL A   1      40.582  26.087  26.449  1.00  0.00     0.010 A 
ATOM     13  C   UNL A   1      39.577  25.585  28.594  1.00  0.00     0.010 A 
ATOM     14  C   UNL A   1      40.352  26.435  27.791  1.00  0.00    -0.014 A 
BRANCH  14  15
ATOM     15  C   UNL A   1      40.843  27.750  28.274  1.00  0.00     0.031 A 
ATOM     16  C   UNL A   1      42.304  28.103  28.276  1.00  0.00     0.074 A 
ATOM     17  C   UNL A   1      39.926  28.645  28.694  1.00  0.00     0.049 A 
ATOM     18  N   UNL A   1      42.871  29.228  28.628  1.00  0.00    -0.248 NA
ATOM     19  C   UNL A   1      43.253  27.066  27.838  1.00  0.00     0.031 C 
ATOM     20  C   UNL A   1      38.483  28.393  28.780  1.00  0.00     0.029 A 
ATOM     21  N   UNL A   1      40.057  29.941  29.118  1.00  0.00    -0.354 N 
ATOM     22  C   UNL A   1      44.240  29.032  28.485  1.00  0.00     0.074 A 
ATOM     23  C   UNL A   1      44.420  27.671  28.023  1.00  0.00     0.031 C 
ATOM     24  C   UNL A   1      37.862  29.506  29.190  1.00  0.00     0.029 A 
ATOM     25  C   UNL A   1      38.863  30.526  29.468  1.00  0.00     0.049 A 
ATOM     26  H   UNL A   1      40.923  30.408  29.168  1.00  0.00     0.167 HD
ATOM     27  C   UNL A   1      45.248  29.910  28.707  1.00  0.00     0.034 A 
ATOM     28  C   UNL A   1      38.598  31.739  29.985  1.00  0.00     0.034 A 
ATOM     29  C   UNL A   1      45.054  31.268  29.148  1.00  0.00     0.049 A 
ATOM     30  C   UNL A   1      39.739  32.687  30.213  1.00  0.00     0.074 A 
ATOM     31  C   UNL A   1      46.008  32.250  29.354  1.00  0.00     0.029 A 
ATOM     32  N   UNL A   1      43.828  31.835  29.464  1.00  0.00    -0.354 N 
ATOM     33  N   UNL A   1      41.013  32.520  29.956  1.00  0.00    -0.248 NA
ATOM     34  C   UNL A   1      39.403  33.999  30.776  1.00  0.00     0.031 C 
ATOM     35  C   UNL A   1      45.363  33.398  29.825  1.00  0.00     0.029 A 
ATOM     36  C   UNL A   1      44.002  33.146  29.874  1.00  0.00     0.049 A 
ATOM     37  H   UNL A   1      42.960  31.373  29.405  1.00  0.00     0.167 HD
ATOM     38  C   UNL A   1      41.628  33.715  30.303  1.00  0.00     0.074 A 
ATOM     39  C   UNL A   1      40.579  34.609  30.750  1.00  0.00     0.031 C 
ATOM     40  C   UNL A   1      42.945  34.037  30.277  1.00  0.00     0.034 A 
BRANCH  27  41
ATOM     41  C   UNL A   1      46.661  29.453  28.445  1.00  0.00     0.023 A 
ATOM     42  C   UNL A   1      47.248  29.684  27.185  1.00  0.00     0.012 A 
ATOM     43  C   UNL A   1      47.441  28.887  29.475  1.00  0.00     0.148 A 
ATOM     44  C   UNL A   1      48.579  29.342  26.945  1.00  0.00     0.002 A 
ATOM     45  C   UNL A   1      48.779  28.589  29.242  1.00  0.00     0.091 A 
ATOM     46  F   UNL A   1      46.862  28.662  30.663  1.00  0.00    -0.205 F 
ATOM     47  C   UNL A   1      49.347  28.806  27.976  1.00  0.00     0.022 A 
BRANCH  45  48
ATOM     48  S   UNL A   1      49.878  27.972  30.524  1.00  0.00     0.127 S 
ATOM     49  O   UNL A   1      49.310  26.651  30.790  1.00  0.00    -0.237 OA
ATOM     50  O   UNL A   1      51.169  27.953  29.837  1.00  0.00    -0.237 OA
ATOM     51  O   UNL A   1      49.786  28.919  31.626  1.00  0.00    -0.744 OA
ENDBRANCH  45  48
ENDBRANCH  27  41
BRANCH  28  52
ATOM     52  C   UNL A   1      37.198  32.124  30.313  1.00  0.00     0.023 A 
ATOM     53  C   UNL A   1      36.672  31.841  31.586  1.00  0.00     0.012 A 
ATOM     54  C   UNL A   1      36.387  32.781  29.365  1.00  0.00     0.148 A 
ATOM     55  C   UNL A   1      35.351  32.165  31.898  1.00  0.00     0.002 A 
ATOM     56  C   UNL A   1      35.096  33.161  29.703  1.00  0.00     0.091 A 
ATOM     57  F   UNL A   1      36.901  33.031  28.152  1.00  0.00    -0.205 F 
ATOM     58  C   UNL A   1      34.567  32.834  30.961  1.00  0.00     0.022 A 
BRANCH  56  59
ATOM     59  S   UNL A   1      34.074  34.151  28.608  1.00  0.00     0.127 S 
ATOM     60  O   UNL A   1      32.872  34.343  29.415  1.00  0.00    -0.237 OA
ATOM     61  O   UNL A   1      34.895  35.349  28.428  1.00  0.00    -0.237 OA
ATOM     62  O   UNL A   1      33.909  33.353  27.400  1.00  0.00    -0.744 OA
ENDBRANCH  56  59
ENDBRANCH  28  52
BRANCH  40  63
ATOM     63  C   UNL A   1      43.316  35.430  30.714  1.00  0.00     0.023 A 
ATOM     64  C   UNL A   1      43.510  36.442  29.752  1.00  0.00     0.012 A 
ATOM     65  C   UNL A   1      43.442  35.744  32.082  1.00  0.00     0.148 A 
ATOM     66  C   UNL A   1      43.875  37.729  30.140  1.00  0.00     0.002 A 
ATOM     67  C   UNL A   1      43.752  37.043  32.464  1.00  0.00     0.091 A 
ATOM     68  F   UNL A   1      43.273  34.764  32.981  1.00  0.00    -0.205 F 
ATOM     69  C   UNL A   1      43.985  38.032  31.496  1.00  0.00     0.022 A 
BRANCH  67  70
ATOM     70  S   UNL A   1      43.822  37.548  34.185  1.00  0.00     0.127 S 
ATOM     71  O   UNL A   1      44.584  38.793  34.100  1.00  0.00    -0.237 OA
ATOM     72  O   UNL A   1      42.406  37.721  34.515  1.00  0.00    -0.237 OA
ATOM     73  O   UNL A   1      44.478  36.460  34.898  1.00  0.00    -0.744 OA
ENDBRANCH  67  70
ENDBRANCH  40  63
ENDBRANCH  14  15
ENDBRANCH   7   9
ENDBRANCH   4   5
ENDBRANCH   3   4
ENDBRANCH   2   3
ENDBRANCH   1   2
BRANCH   1  74
ATOM     74  C   UNL A   1      32.486  23.632  22.462  1.00  0.00     0.021 C 
BRANCH  74  75
ATOM     75  C   UNL A   1      32.397  25.098  22.086  1.00  0.00     0.116 C 
BRANCH  75  76
ATOM     76  N   UNL A   1      31.187  25.742  22.503  1.00  0.00    -0.354 N 
ATOM     77  C   UNL A   1      30.904  26.309  23.711  1.00  0.00     0.247 C 
ATOM     78  H   UNL A   1      30.467  25.779  21.832  1.00  0.00     0.163 HD
ATOM     79  O   UNL A   1      29.919  27.059  23.714  1.00  0.00    -0.272 OA
BRANCH  77  80
ATOM     80  C   UNL A   1      31.861  26.161  24.984  1.00  0.00     0.202 C 
BRANCH  80  81
ATOM     81  C   UNL A   1      32.103  27.580  25.569  1.00  0.00    -0.004 A 
ATOM     82  C   UNL A   1      31.566  27.880  26.845  1.00  0.00     0.007 A 
ATOM     83  C   UNL A   1      32.761  28.634  24.890  1.00  0.00     0.061 A 
ATOM     84  C   UNL A   1      31.644  29.163  27.401  1.00  0.00     0.000 A 
ATOM     85  C   UNL A   1      32.860  29.912  25.485  1.00  0.00     0.013 A 
ATOM     86  C   UNL A   1      32.294  30.180  26.721  1.00  0.00     0.001 A 
BRANCH  83  87
ATOM     87  C   UNL A   1      33.427  28.500  23.555  1.00  0.00     0.416 C 
ATOM     88  F   UNL A   1      32.565  28.551  22.503  1.00  0.00    -0.166 F 
ATOM     89  F   UNL A   1      34.318  29.511  23.353  1.00  0.00    -0.166 F 
ATOM     90  F   UNL A   1      34.102  27.341  23.410  1.00  0.00    -0.166 F 
ENDBRANCH  83  87
ENDBRANCH  80  81
BRANCH  80  91
ATOM     91  N   UNL A   1      31.359  25.283  26.057  1.00  0.00    -0.340 N 
ATOM     92  C   UNL A   1      31.477  23.985  26.421  1.00  0.00     0.226 C 
ATOM     93  H   UNL A   1      30.777  25.777  26.680  1.00  0.00     0.164 HD
ATOM     94  O   UNL A   1      30.711  23.660  27.343  1.00  0.00    -0.275 OA
BRANCH  92  95
ATOM     95  C   UNL A   1      32.366  22.879  25.827  1.00  0.00     0.107 C 
ATOM     96  C   UNL A   1      33.823  22.807  26.279  1.00  0.00     0.115 C 
ATOM     97  C   UNL A   1      31.860  21.450  25.839  1.00  0.00     0.133 C 
ATOM     98  C   UNL A   1      34.174  21.349  26.275  1.00  0.00     0.223 C 
ATOM     99  N   UNL A   1      33.035  20.620  26.012  1.00  0.00    -0.342 N 
ATOM    100  O   UNL A   1      35.298  20.910  26.470  1.00  0.00    -0.275 OA
BRANCH  99 101
ATOM    101  C   UNL A   1      33.095  19.216  25.632  1.00  0.00     0.123 C 
BRANCH 101 102
ATOM    102  C   UNL A   1      33.851  18.884  24.376  1.00  0.00     0.008 C 
ATOM    103  C   UNL A   1      34.907  17.817  24.231  1.00  0.00     0.006 C 
ATOM    104  C   UNL A   1      33.532  17.598  23.659  1.00  0.00     0.006 C 
ENDBRANCH 101 102
ENDBRANCH  99 101
ENDBRANCH  92  95
ENDBRANCH  80  91
ENDBRANCH  77  80
ENDBRANCH  75  76
ENDBRANCH  74  75
ENDBRANCH   1  74
TORSDOF 22
ENDMDL
MODEL 3
REMARK VINA RESULT:     -11.4      3.683      6.051
REMARK SMILES O=C(NCCCCCCNC(=O)[C@H](NC(=O)[C@H]1CC(=O)N(CC2CC2)C1)c1ccccc1C(F)(F)F)c1ccc(-c2c3nc(c(-c4cccc(S(=O)(=O)[O-])c4F)c4ccc([nH]4)c(-c4cccc(S(=O)(=O)[O-])c4F)c4nc(c(-c5cccc(S(=O)(=O)[O-])c5F)c5ccc2[nH]5)C=C4)C=C3)cc1
REMARK SMILES IDX 7 1 6 2 5 3 4 4 3 5 1 6 2 7 37 9 38 10 99 11 39 12 98 13
REMARK SMILES IDX 40 14 41 15 42 16 92 17 43 18 97 19 91 20 93 21 44 22 96 23
REMARK SMILES IDX 90 24 89 25 45 27 77 28 57 29 76 30 58 31 61 32 75 33 94 34
REMARK SMILES IDX 59 35 60 36 74 38 95 39 62 40 46 41 47 42 55 43 48 44 50 45
REMARK SMILES IDX 56 46 49 47 51 48 52 49 53 50 54 51 78 52 79 53 87 54 80 55
REMARK SMILES IDX 82 56 88 57 81 58 83 59 84 60 85 61 86 62 63 63 64 64 72 65
REMARK SMILES IDX 65 66 67 67 73 68 66 69 68 70 69 71 70 72 71 73 8 74 9 75
REMARK SMILES IDX 10 76 11 77 12 79 13 80 27 81 28 82 32 83 29 84 31 85 30 86
REMARK SMILES IDX 33 87 34 88 35 89 36 90 14 91 15 92 16 94 17 95 18 96 26 97
REMARK SMILES IDX 19 98 21 99 20 100 22 101 23 102 24 103 25 104
REMARK H PARENT 3 8 93 26 61 37 10 78 14 93
REMARK Flexibility Score: inf
ROOT
ATOM      1  C   UNL A   1      33.827  23.019  22.641  1.00  0.00     0.002 C 
ENDROOT
BRANCH   1   2
ATOM      2  C   UNL A   1      34.866  23.896  23.348  1.00  0.00     0.002 C 
BRANCH   2   3
ATOM      3  C   UNL A   1      36.258  23.279  23.485  1.00  0.00     0.021 C 
BRANCH   3   4
ATOM      4  C   UNL A   1      37.023  23.714  24.727  1.00  0.00     0.116 C 
BRANCH   4   5
ATOM      5  N   UNL A   1      37.819  22.637  25.295  1.00  0.00    -0.352 N 
ATOM      6  O   UNL A   1      39.591  21.712  26.341  1.00  0.00    -0.269 OA
ATOM      7  C   UNL A   1      38.931  22.717  26.098  1.00  0.00     0.251 C 
ATOM      8  H   UNL A   1      37.520  21.725  25.073  1.00  0.00     0.163 HD
BRANCH   7   9
ATOM      9  C   UNL A   1      39.326  24.033  26.643  1.00  0.00     0.039 A 
ATOM     10  C   UNL A   1      40.078  24.911  25.860  1.00  0.00     0.014 A 
ATOM     11  C   UNL A   1      38.969  24.381  27.948  1.00  0.00     0.014 A 
ATOM     12  C   UNL A   1      40.608  26.057  26.430  1.00  0.00     0.010 A 
ATOM     13  C   UNL A   1      39.410  25.595  28.483  1.00  0.00     0.010 A 
ATOM     14  C   UNL A   1      40.253  26.433  27.736  1.00  0.00    -0.014 A 
BRANCH  14  15
ATOM     15  C   UNL A   1      40.692  27.760  28.233  1.00  0.00     0.031 A 
ATOM     16  C   UNL A   1      39.717  28.779  28.751  1.00  0.00     0.074 A 
ATOM     17  C   UNL A   1      42.015  28.023  28.232  1.00  0.00     0.049 A 
ATOM     18  N   UNL A   1      39.963  29.962  29.256  1.00  0.00    -0.248 NA
ATOM     19  C   UNL A   1      38.286  28.442  28.691  1.00  0.00     0.031 C 
ATOM     20  C   UNL A   1      43.050  27.125  27.708  1.00  0.00     0.029 A 
ATOM     21  N   UNL A   1      42.721  29.105  28.687  1.00  0.00    -0.354 N 
ATOM     22  C   UNL A   1      38.725  30.522  29.547  1.00  0.00     0.074 A 
ATOM     23  C   UNL A   1      37.724  29.553  29.151  1.00  0.00     0.031 C 
ATOM     24  C   UNL A   1      44.255  27.673  27.905  1.00  0.00     0.029 A 
ATOM     25  C   UNL A   1      44.079  28.991  28.500  1.00  0.00     0.049 A 
ATOM     26  H   UNL A   1      42.298  29.889  29.107  1.00  0.00     0.167 HD
ATOM     27  C   UNL A   1      38.452  31.726  30.104  1.00  0.00     0.034 A 
ATOM     28  C   UNL A   1      45.075  29.859  28.749  1.00  0.00     0.034 A 
ATOM     29  C   UNL A   1      39.457  32.675  30.512  1.00  0.00     0.049 A 
ATOM     30  C   UNL A   1      44.736  31.182  29.370  1.00  0.00     0.074 A 
ATOM     31  C   UNL A   1      39.283  33.901  31.131  1.00  0.00     0.029 A 
ATOM     32  N   UNL A   1      40.824  32.513  30.334  1.00  0.00    -0.354 N 
ATOM     33  N   UNL A   1      43.567  31.641  29.747  1.00  0.00    -0.248 NA
ATOM     34  C   UNL A   1      45.855  32.096  29.626  1.00  0.00     0.031 C 
ATOM     35  C   UNL A   1      40.539  34.493  31.296  1.00  0.00     0.029 A 
ATOM     36  C   UNL A   1      41.501  33.619  30.818  1.00  0.00     0.049 A 
ATOM     37  H   UNL A   1      41.250  31.725  29.924  1.00  0.00     0.167 HD
ATOM     38  C   UNL A   1      43.812  32.886  30.307  1.00  0.00     0.074 A 
ATOM     39  C   UNL A   1      45.246  33.091  30.255  1.00  0.00     0.031 C 
ATOM     40  C   UNL A   1      42.931  33.791  30.798  1.00  0.00     0.034 A 
BRANCH  27  41
ATOM     41  C   UNL A   1      37.008  32.090  30.344  1.00  0.00     0.023 A 
ATOM     42  C   UNL A   1      36.427  31.846  31.605  1.00  0.00     0.012 A 
ATOM     43  C   UNL A   1      36.256  32.762  29.358  1.00  0.00     0.148 A 
ATOM     44  C   UNL A   1      35.118  32.245  31.875  1.00  0.00     0.002 A 
ATOM     45  C   UNL A   1      34.968  33.196  29.649  1.00  0.00     0.091 A 
ATOM     46  F   UNL A   1      36.821  32.974  28.160  1.00  0.00    -0.205 F 
ATOM     47  C   UNL A   1      34.393  32.930  30.902  1.00  0.00     0.022 A 
BRANCH  45  48
ATOM     48  S   UNL A   1      33.979  34.158  28.496  1.00  0.00     0.127 S 
ATOM     49  O   UNL A   1      34.895  35.247  28.159  1.00  0.00    -0.237 OA
ATOM     50  O   UNL A   1      33.748  33.199  27.417  1.00  0.00    -0.237 OA
ATOM     51  O   UNL A   1      32.783  34.559  29.225  1.00  0.00    -0.744 OA
ENDBRANCH  45  48
ENDBRANCH  27  41
BRANCH  28  52
ATOM     52  C   UNL A   1      46.482  29.500  28.417  1.00  0.00     0.023 A 
ATOM     53  C   UNL A   1      47.022  29.859  27.169  1.00  0.00     0.012 A 
ATOM     54  C   UNL A   1      47.290  28.812  29.343  1.00  0.00     0.148 A 
ATOM     55  C   UNL A   1      48.327  29.500  26.831  1.00  0.00     0.002 A 
ATOM     56  C   UNL A   1      48.609  28.517  29.027  1.00  0.00     0.091 A 
ATOM     57  F   UNL A   1      46.755  28.467  30.524  1.00  0.00    -0.205 F 
ATOM     58  C   UNL A   1      49.124  28.839  27.762  1.00  0.00     0.022 A 
BRANCH  56  59
ATOM     59  S   UNL A   1      49.741  27.799  30.221  1.00  0.00     0.127 S 
ATOM     60  O   UNL A   1      49.304  28.432  31.463  1.00  0.00    -0.237 OA
ATOM     61  O   UNL A   1      49.432  26.372  30.113  1.00  0.00    -0.237 OA
ATOM     62  O   UNL A   1      51.075  28.157  29.759  1.00  0.00    -0.744 OA
ENDBRANCH  56  59
ENDBRANCH  28  52
BRANCH  40  63
ATOM     63  C   UNL A   1      43.501  35.071  31.351  1.00  0.00     0.023 A 
ATOM     64  C   UNL A   1      43.927  35.129  32.694  1.00  0.00     0.012 A 
ATOM     65  C   UNL A   1      43.643  36.208  30.531  1.00  0.00     0.148 A 
ATOM     66  C   UNL A   1      44.437  36.312  33.225  1.00  0.00     0.002 A 
ATOM     67  C   UNL A   1      44.203  37.367  31.053  1.00  0.00     0.091 A 
ATOM     68  F   UNL A   1      43.214  36.139  29.262  1.00  0.00    -0.205 F 
ATOM     69  C   UNL A   1      44.584  37.427  32.402  1.00  0.00     0.022 A 
BRANCH  67  70
ATOM     70  S   UNL A   1      44.519  38.819  30.046  1.00  0.00     0.127 S 
ATOM     71  O   UNL A   1      45.404  38.280  29.014  1.00  0.00    -0.237 OA
ATOM     72  O   UNL A   1      43.177  39.168  29.577  1.00  0.00    -0.237 OA
ATOM     73  O   UNL A   1      45.122  39.803  30.935  1.00  0.00    -0.744 OA
ENDBRANCH  67  70
ENDBRANCH  40  63
ENDBRANCH  14  15
ENDBRANCH   7   9
ENDBRANCH   4   5
ENDBRANCH   3   4
ENDBRANCH   2   3
ENDBRANCH   1   2
BRANCH   1  74
ATOM     74  C   UNL A   1      32.421  23.607  22.576  1.00  0.00     0.021 C 
BRANCH  74  75
ATOM     75  C   UNL A   1      32.385  25.079  22.215  1.00  0.00     0.116 C 
BRANCH  75  76
ATOM     76  N   UNL A   1      31.182  25.753  22.604  1.00  0.00    -0.354 N 
ATOM     77  C   UNL A   1      30.896  26.353  23.794  1.00  0.00     0.247 C 
ATOM     78  H   UNL A   1      30.471  25.787  21.924  1.00  0.00     0.163 HD
ATOM     79  O   UNL A   1      29.924  27.120  23.769  1.00  0.00    -0.272 OA
BRANCH  77  80
ATOM     80  C   UNL A   1      31.837  26.220  25.081  1.00  0.00     0.202 C 
BRANCH  80  81
ATOM     81  C   UNL A   1      32.028  27.638  25.684  1.00  0.00    -0.004 A 
ATOM     82  C   UNL A   1      31.477  27.905  26.961  1.00  0.00     0.007 A 
ATOM     83  C   UNL A   1      32.654  28.721  25.020  1.00  0.00     0.061 A 
ATOM     84  C   UNL A   1      31.510  29.184  27.533  1.00  0.00     0.000 A 
ATOM     85  C   UNL A   1      32.708  29.995  25.631  1.00  0.00     0.013 A 
ATOM     86  C   UNL A   1      32.128  30.230  26.867  1.00  0.00     0.001 A 
BRANCH  83  87
ATOM     87  C   UNL A   1      33.330  28.626  23.687  1.00  0.00     0.416 C 
ATOM     88  F   UNL A   1      34.211  29.636  23.445  1.00  0.00    -0.166 F 
ATOM     89  F   UNL A   1      34.050  27.475  23.588  1.00  0.00    -0.166 F 
ATOM     90  F   UNL A   1      32.468  28.646  22.649  1.00  0.00    -0.166 F 
ENDBRANCH  83  87
ENDBRANCH  80  81
BRANCH  80  91
ATOM     91  N   UNL A   1      31.342  25.317  26.137  1.00  0.00    -0.340 N 
ATOM     92  C   UNL A   1      31.489  24.018  26.488  1.00  0.00     0.226 C 
ATOM     93  H   UNL A   1      30.739  25.788  26.757  1.00  0.00     0.164 HD
ATOM     94  O   UNL A   1      30.719  23.663  27.396  1.00  0.00    -0.275 OA
BRANCH  92  95
ATOM     95  C   UNL A   1      32.415  22.942  25.895  1.00  0.00     0.107 C 
ATOM     96  C   UNL A   1      33.869  22.908  26.360  1.00  0.00     0.115 C 
ATOM     97  C   UNL A   1      31.949  21.499  25.893  1.00  0.00     0.133 C 
ATOM     98  C   UNL A   1      34.261  21.461  26.349  1.00  0.00     0.223 C 
ATOM     99  N   UNL A   1      33.146  20.702  26.071  1.00  0.00    -0.342 N 
ATOM    100  O   UNL A   1      35.396  21.052  26.551  1.00  0.00    -0.275 OA
BRANCH  99 101
ATOM    101  C   UNL A   1      33.250  19.303  25.681  1.00  0.00     0.123 C 
BRANCH 101 102
ATOM    102  C   UNL A   1      33.334  19.012  24.209  1.00  0.00     0.008 C 
ATOM    103  C   UNL A   1      33.877  17.753  23.582  1.00  0.00     0.006 C 
ATOM    104  C   UNL A   1      32.393  17.995  23.619  1.00  0.00     0.006 C 
ENDBRANCH 101 102
ENDBRANCH  99 101
ENDBRANCH  92  95
ENDBRANCH  80  91
ENDBRANCH  77  80
ENDBRANCH  75  76
ENDBRANCH  74  75
ENDBRANCH   1  74
TORSDOF 22
ENDMDL
