MODEL 1
REMARK VINA RESULT:     -11.6      0.000      0.000
REMARK SMILES O=C(NCCCCCCNC(=O)[C@@H]1CN(C(=O)C[NH+]2CCOCC2)C[C@H]1c1ccc2c(c1)OCO2)c1ccc(-c2c3nc(c(-c4cccc(S(=O)(=O)[O-])c4F)c4ccc([nH]4)c(-c4cccc(S(=O)(=O)[O-])c4F)c4nc(c(-c5cccc(S(=O)(=O)[O-])c5F)c5ccc2[nH]5)C=C4)C=C3)cc1
REMARK SMILES IDX 6 1 5 2 4 3 3 4 1 5 2 6 36 8 37 9 98 10 38 11 97 12 39 13
REMARK SMILES IDX 40 14 41 15 91 16 42 17 96 18 90 19 92 20 43 21 95 22 89 23
REMARK SMILES IDX 88 24 44 26 76 27 56 28 75 29 57 30 60 31 74 32 93 33 58 34
REMARK SMILES IDX 59 35 73 37 94 38 61 39 45 40 46 41 54 42 47 43 49 44 55 45
REMARK SMILES IDX 48 46 50 47 51 48 52 49 53 50 77 51 78 52 86 53 79 54 81 55
REMARK SMILES IDX 87 56 80 57 82 58 83 59 84 60 85 61 62 62 63 63 71 64 64 65
REMARK SMILES IDX 66 66 72 67 65 68 67 69 68 70 69 71 70 72 7 73 8 74 9 75
REMARK SMILES IDX 10 76 11 77 12 79 13 80 14 81 26 82 15 83 25 84 27 85 28 86
REMARK SMILES IDX 32 87 29 88 31 89 30 90 33 91 35 92 34 93 16 94 17 95 18 96
REMARK SMILES IDX 19 97 20 98 24 99 21 101 23 102 22 103
REMARK H PARENT 3 7 92 25 60 36 10 78 19 100
REMARK Flexibility Score: inf
ROOT
ATOM      1  C   UNL A   1      40.330  21.864  27.194  1.00  0.00     0.002 C 
ENDROOT
BRANCH   1   2
ATOM      2  C   UNL A   1      40.361  20.457  26.597  1.00  0.00     0.021 C 
BRANCH   2   3
ATOM      3  C   UNL A   1      41.500  19.575  27.091  1.00  0.00     0.116 C 
BRANCH   3   4
ATOM      4  N   UNL A   1      42.375  19.142  26.015  1.00  0.00    -0.352 N 
ATOM      5  O   UNL A   1      43.802  19.394  24.289  1.00  0.00    -0.269 OA
ATOM      6  C   UNL A   1      43.262  19.887  25.277  1.00  0.00     0.251 C 
ATOM      7  H   UNL A   1      42.324  18.186  25.784  1.00  0.00     0.163 HD
BRANCH   6   8
ATOM      8  C   UNL A   1      43.540  21.287  25.664  1.00  0.00     0.039 A 
ATOM      9  C   UNL A   1      43.310  22.333  24.765  1.00  0.00     0.014 A 
ATOM     10  C   UNL A   1      44.041  21.558  26.940  1.00  0.00     0.014 A 
ATOM     11  C   UNL A   1      43.702  23.626  25.094  1.00  0.00     0.010 A 
ATOM     12  C   UNL A   1      44.358  22.872  27.299  1.00  0.00     0.010 A 
ATOM     13  C   UNL A   1      44.218  23.913  26.369  1.00  0.00    -0.014 A 
BRANCH  13  14
ATOM     14  C   UNL A   1      44.526  25.322  26.725  1.00  0.00     0.031 A 
ATOM     15  C   UNL A   1      43.480  26.234  27.304  1.00  0.00     0.074 A 
ATOM     16  C   UNL A   1      45.782  25.771  26.530  1.00  0.00     0.049 A 
ATOM     17  N   UNL A   1      43.605  27.474  27.705  1.00  0.00    -0.248 NA
ATOM     18  C   UNL A   1      42.118  25.695  27.446  1.00  0.00     0.031 C 
ATOM     19  C   UNL A   1      46.867  24.991  25.927  1.00  0.00     0.029 A 
ATOM     20  N   UNL A   1      46.362  26.980  26.814  1.00  0.00    -0.354 N 
ATOM     21  C   UNL A   1      42.340  27.873  28.122  1.00  0.00     0.074 A 
ATOM     22  C   UNL A   1      41.456  26.747  27.911  1.00  0.00     0.031 C 
ATOM     23  C   UNL A   1      47.985  25.731  25.910  1.00  0.00     0.029 A 
ATOM     24  C   UNL A   1      47.688  27.049  26.458  1.00  0.00     0.049 A 
ATOM     25  H   UNL A   1      45.875  27.726  27.233  1.00  0.00     0.167 HD
ATOM     26  C   UNL A   1      41.957  29.060  28.652  1.00  0.00     0.034 A 
ATOM     27  C   UNL A   1      48.569  28.063  26.553  1.00  0.00     0.034 A 
ATOM     28  C   UNL A   1      42.848  30.166  28.884  1.00  0.00     0.049 A 
ATOM     29  C   UNL A   1      48.123  29.356  27.174  1.00  0.00     0.074 A 
ATOM     30  C   UNL A   1      42.564  31.398  29.450  1.00  0.00     0.029 A 
ATOM     31  N   UNL A   1      44.198  30.180  28.565  1.00  0.00    -0.354 N 
ATOM     32  N   UNL A   1      46.952  29.667  27.673  1.00  0.00    -0.248 NA
ATOM     33  C   UNL A   1      49.125  30.426  27.271  1.00  0.00     0.031 C 
ATOM     34  C   UNL A   1      43.739  32.157  29.466  1.00  0.00     0.029 A 
ATOM     35  C   UNL A   1      44.760  31.394  28.923  1.00  0.00     0.049 A 
ATOM     36  H   UNL A   1      44.686  29.434  28.146  1.00  0.00     0.167 HD
ATOM     37  C   UNL A   1      47.080  30.960  28.163  1.00  0.00     0.074 A 
ATOM     38  C   UNL A   1      48.454  31.360  27.931  1.00  0.00     0.031 C 
ATOM     39  C   UNL A   1      46.141  31.756  28.730  1.00  0.00     0.034 A 
BRANCH  26  40
ATOM     40  C   UNL A   1      40.519  29.210  29.076  1.00  0.00     0.023 A 
ATOM     41  C   UNL A   1      39.535  29.443  28.093  1.00  0.00     0.012 A 
ATOM     42  C   UNL A   1      40.128  29.044  30.418  1.00  0.00     0.148 A 
ATOM     43  C   UNL A   1      38.188  29.533  28.443  1.00  0.00     0.002 A 
ATOM     44  C   UNL A   1      38.779  29.098  30.755  1.00  0.00     0.091 A 
ATOM     45  F   UNL A   1      41.079  28.843  31.342  1.00  0.00    -0.205 F 
ATOM     46  C   UNL A   1      37.810  29.349  29.769  1.00  0.00     0.022 A 
BRANCH  44  47
ATOM     47  S   UNL A   1      38.182  28.806  32.424  1.00  0.00     0.127 S 
ATOM     48  O   UNL A   1      38.509  27.394  32.611  1.00  0.00    -0.237 OA
ATOM     49  O   UNL A   1      39.000  29.730  33.212  1.00  0.00    -0.237 OA
ATOM     50  O   UNL A   1      36.762  29.124  32.402  1.00  0.00    -0.744 OA
ENDBRANCH  44  47
ENDBRANCH  26  40
BRANCH  27  51
ATOM     51  C   UNL A   1      49.973  27.867  26.095  1.00  0.00     0.023 A 
ATOM     52  C   UNL A   1      50.977  27.576  27.038  1.00  0.00     0.012 A 
ATOM     53  C   UNL A   1      50.308  27.914  24.729  1.00  0.00     0.148 A 
ATOM     54  C   UNL A   1      52.293  27.361  26.630  1.00  0.00     0.002 A 
ATOM     55  C   UNL A   1      51.608  27.638  24.324  1.00  0.00     0.091 A 
ATOM     56  F   UNL A   1      49.344  28.213  23.845  1.00  0.00    -0.205 F 
ATOM     57  C   UNL A   1      52.607  27.378  25.273  1.00  0.00     0.022 A 
BRANCH  55  58
ATOM     58  S   UNL A   1      52.042  27.492  22.587  1.00  0.00     0.127 S 
ATOM     59  O   UNL A   1      53.282  26.725  22.650  1.00  0.00    -0.237 OA
ATOM     60  O   UNL A   1      50.895  26.765  22.041  1.00  0.00    -0.237 OA
ATOM     61  O   UNL A   1      52.155  28.864  22.107  1.00  0.00    -0.744 OA
ENDBRANCH  55  58
ENDBRANCH  27  51
BRANCH  39  62
ATOM     62  C   UNL A   1      46.571  33.134  29.153  1.00  0.00     0.023 A 
ATOM     63  C   UNL A   1      47.109  33.329  30.440  1.00  0.00     0.012 A 
ATOM     64  C   UNL A   1      46.492  34.224  28.263  1.00  0.00     0.148 A 
ATOM     65  C   UNL A   1      47.531  34.593  30.849  1.00  0.00     0.002 A 
ATOM     66  C   UNL A   1      46.954  35.472  28.663  1.00  0.00     0.091 A 
ATOM     67  F   UNL A   1      45.954  34.023  27.050  1.00  0.00    -0.205 F 
ATOM     68  C   UNL A   1      47.464  35.661  29.957  1.00  0.00     0.022 A 
BRANCH  66  69
ATOM     69  S   UNL A   1      46.980  36.881  27.548  1.00  0.00     0.127 S 
ATOM     70  O   UNL A   1      47.810  36.380  26.455  1.00  0.00    -0.237 OA
ATOM     71  O   UNL A   1      45.564  37.043  27.213  1.00  0.00    -0.237 OA
ATOM     72  O   UNL A   1      47.544  37.982  28.316  1.00  0.00    -0.744 OA
ENDBRANCH  66  69
ENDBRANCH  39  62
ENDBRANCH  13  14
ENDBRANCH   6   8
ENDBRANCH   3   4
ENDBRANCH   2   3
ENDBRANCH   1   2
BRANCH   1  73
ATOM     73  C   UNL A   1      39.832  22.967  26.254  1.00  0.00     0.002 C 
BRANCH  73  74
ATOM     74  C   UNL A   1      38.809  23.937  26.857  1.00  0.00     0.021 C 
BRANCH  74  75
ATOM     75  C   UNL A   1      37.437  23.905  26.190  1.00  0.00     0.116 C 
BRANCH  75  76
ATOM     76  N   UNL A   1      37.544  23.600  24.774  1.00  0.00    -0.356 N 
ATOM     77  C   UNL A   1      36.593  23.197  23.888  1.00  0.00     0.225 C 
ATOM     78  H   UNL A   1      38.446  23.702  24.396  1.00  0.00     0.163 HD
ATOM     79  O   UNL A   1      36.923  23.050  22.710  1.00  0.00    -0.275 OA
BRANCH  77  80
ATOM     80  C   UNL A   1      35.173  22.972  24.354  1.00  0.00     0.107 C 
ATOM     81  C   UNL A   1      34.895  21.480  24.425  1.00  0.00     0.133 C 
ATOM     82  C   UNL A   1      34.116  23.495  23.350  1.00  0.00     0.053 C 
ATOM     83  N   UNL A   1      33.450  21.427  24.365  1.00  0.00    -0.336 N 
ATOM     84  C   UNL A   1      32.939  22.504  23.533  1.00  0.00     0.129 C 
BRANCH  82  85
ATOM     85  C   UNL A   1      33.844  24.984  23.541  1.00  0.00    -0.038 A 
ATOM     86  C   UNL A   1      33.551  25.769  22.393  1.00  0.00     0.008 A 
ATOM     87  C   UNL A   1      33.892  25.630  24.787  1.00  0.00     0.054 A 
ATOM     88  C   UNL A   1      33.360  27.154  22.470  1.00  0.00     0.051 A 
ATOM     89  C   UNL A   1      33.675  26.995  24.838  1.00  0.00     0.166 A 
ATOM     90  C   UNL A   1      33.428  27.738  23.712  1.00  0.00     0.165 A 
ATOM     91  O   UNL A   1      33.685  27.754  25.968  1.00  0.00    -0.454 OA
ATOM     92  O   UNL A   1      33.263  29.058  23.983  1.00  0.00    -0.454 OA
ATOM     93  C   UNL A   1      33.428  29.064  25.417  1.00  0.00     0.468 C 
ENDBRANCH  82  85
BRANCH  83  94
ATOM     94  C   UNL A   1      32.620  20.524  24.991  1.00  0.00     0.277 C 
ATOM     95  O   UNL A   1      31.462  20.810  25.304  1.00  0.00    -0.268 OA
BRANCH  94  96
ATOM     96  C   UNL A   1      33.198  19.141  25.330  1.00  0.00     0.363 C 
BRANCH  96  97
ATOM     97  N   UNL A   1      32.363  18.064  24.756  1.00  0.00    -0.323 N 
ATOM     98  C   UNL A   1      32.502  16.800  25.519  1.00  0.00     0.291 C 
ATOM     99  C   UNL A   1      32.719  17.799  23.346  1.00  0.00     0.291 C 
ATOM    100  H   UNL A   1      31.399  18.389  24.812  1.00  0.00     0.348 HD
ATOM    101  C   UNL A   1      33.842  16.075  25.294  1.00  0.00     0.221 C 
ATOM    102  C   UNL A   1      34.056  17.063  23.163  1.00  0.00     0.221 C 
ATOM    103  O   UNL A   1      34.078  15.835  23.901  1.00  0.00    -0.370 OA
ENDBRANCH  96  97
ENDBRANCH  94  96
ENDBRANCH  83  94
ENDBRANCH  77  80
ENDBRANCH  75  76
ENDBRANCH  74  75
ENDBRANCH  73  74
ENDBRANCH   1  73
TORSDOF 20
ENDMDL
MODEL 2
REMARK VINA RESULT:     -11.6      2.200      8.392
REMARK SMILES O=C(NCCCCCCNC(=O)[C@@H]1CN(C(=O)C[NH+]2CCOCC2)C[C@H]1c1ccc2c(c1)OCO2)c1ccc(-c2c3nc(c(-c4cccc(S(=O)(=O)[O-])c4F)c4ccc([nH]4)c(-c4cccc(S(=O)(=O)[O-])c4F)c4nc(c(-c5cccc(S(=O)(=O)[O-])c5F)c5ccc2[nH]5)C=C4)C=C3)cc1
REMARK SMILES IDX 6 1 5 2 4 3 3 4 1 5 2 6 36 8 37 9 98 10 38 11 97 12 39 13
REMARK SMILES IDX 40 14 41 15 91 16 42 17 96 18 90 19 92 20 43 21 95 22 89 23
REMARK SMILES IDX 88 24 44 26 76 27 56 28 75 29 57 30 60 31 74 32 93 33 58 34
REMARK SMILES IDX 59 35 73 37 94 38 61 39 45 40 46 41 54 42 47 43 49 44 55 45
REMARK SMILES IDX 48 46 50 47 51 48 52 49 53 50 77 51 78 52 86 53 79 54 81 55
REMARK SMILES IDX 87 56 80 57 82 58 83 59 84 60 85 61 62 62 63 63 71 64 64 65
REMARK SMILES IDX 66 66 72 67 65 68 67 69 68 70 69 71 70 72 7 73 8 74 9 75
REMARK SMILES IDX 10 76 11 77 12 79 13 80 14 81 26 82 15 83 25 84 27 85 28 86
REMARK SMILES IDX 32 87 29 88 31 89 30 90 33 91 35 92 34 93 16 94 17 95 18 96
REMARK SMILES IDX 19 97 20 98 24 99 21 101 23 102 22 103
REMARK H PARENT 3 7 92 25 60 36 10 78 19 100
REMARK Flexibility Score: inf
ROOT
ATOM      1  C   UNL A   1      37.386  19.974  24.332  1.00  0.00     0.002 C 
ENDROOT
BRANCH   1   2
ATOM      2  C   UNL A   1      38.200  19.252  25.406  1.00  0.00     0.021 C 
BRANCH   2   3
ATOM      3  C   UNL A   1      39.409  20.022  25.920  1.00  0.00     0.116 C 
BRANCH   3   4
ATOM      4  N   UNL A   1      40.609  19.205  25.967  1.00  0.00    -0.352 N 
ATOM      5  O   UNL A   1      42.824  18.795  26.015  1.00  0.00    -0.269 OA
ATOM      6  C   UNL A   1      41.909  19.598  26.173  1.00  0.00     0.251 C 
ATOM      7  H   UNL A   1      40.472  18.239  25.833  1.00  0.00     0.163 HD
BRANCH   6   8
ATOM      8  C   UNL A   1      42.197  20.997  26.560  1.00  0.00     0.039 A 
ATOM      9  C   UNL A   1      42.350  21.987  25.586  1.00  0.00     0.014 A 
ATOM     10  C   UNL A   1      42.318  21.322  27.914  1.00  0.00     0.014 A 
ATOM     11  C   UNL A   1      42.752  23.266  25.956  1.00  0.00     0.010 A 
ATOM     12  C   UNL A   1      42.643  22.629  28.290  1.00  0.00     0.010 A 
ATOM     13  C   UNL A   1      42.890  23.605  27.313  1.00  0.00    -0.014 A 
BRANCH  13  14
ATOM     14  C   UNL A   1      43.216  25.007  27.679  1.00  0.00     0.031 A 
ATOM     15  C   UNL A   1      44.610  25.554  27.538  1.00  0.00     0.074 A 
ATOM     16  C   UNL A   1      42.223  25.796  28.136  1.00  0.00     0.049 A 
ATOM     17  N   UNL A   1      45.042  26.766  27.775  1.00  0.00    -0.248 NA
ATOM     18  C   UNL A   1      45.655  24.626  27.079  1.00  0.00     0.031 C 
ATOM     19  C   UNL A   1      40.842  25.360  28.364  1.00  0.00     0.029 A 
ATOM     20  N   UNL A   1      42.214  27.121  28.489  1.00  0.00    -0.354 N 
ATOM     21  C   UNL A   1      46.409  26.743  27.521  1.00  0.00     0.074 A 
ATOM     22  C   UNL A   1      46.739  25.391  27.125  1.00  0.00     0.031 C 
ATOM     23  C   UNL A   1      40.116  26.402  28.792  1.00  0.00     0.029 A 
ATOM     24  C   UNL A   1      40.984  27.567  28.912  1.00  0.00     0.049 A 
ATOM     25  H   UNL A   1      43.011  27.697  28.442  1.00  0.00     0.167 HD
ATOM     26  C   UNL A   1      47.302  27.761  27.591  1.00  0.00     0.034 A 
ATOM     27  C   UNL A   1      40.597  28.778  29.357  1.00  0.00     0.034 A 
ATOM     28  C   UNL A   1      46.962  29.110  27.959  1.00  0.00     0.049 A 
ATOM     29  C   UNL A   1      41.601  29.893  29.393  1.00  0.00     0.074 A 
ATOM     30  C   UNL A   1      47.788  30.220  28.023  1.00  0.00     0.029 A 
ATOM     31  N   UNL A   1      45.695  29.538  28.325  1.00  0.00    -0.354 N 
ATOM     32  N   UNL A   1      42.861  29.877  29.031  1.00  0.00    -0.248 NA
ATOM     33  C   UNL A   1      41.127  31.199  29.869  1.00  0.00     0.031 C 
ATOM     34  C   UNL A   1      47.021  31.316  28.435  1.00  0.00     0.029 A 
ATOM     35  C   UNL A   1      45.715  30.893  28.614  1.00  0.00     0.049 A 
ATOM     36  H   UNL A   1      44.897  28.963  28.372  1.00  0.00     0.167 HD
ATOM     37  C   UNL A   1      43.325  31.173  29.215  1.00  0.00     0.074 A 
ATOM     38  C   UNL A   1      42.201  31.956  29.688  1.00  0.00     0.031 C 
ATOM     39  C   UNL A   1      44.575  31.666  29.035  1.00  0.00     0.034 A 
BRANCH  26  40
ATOM     40  C   UNL A   1      48.729  27.472  27.204  1.00  0.00     0.023 A 
ATOM     41  C   UNL A   1      49.602  26.920  28.163  1.00  0.00     0.012 A 
ATOM     42  C   UNL A   1      49.187  27.668  25.887  1.00  0.00     0.148 A 
ATOM     43  C   UNL A   1      50.914  26.589  27.825  1.00  0.00     0.002 A 
ATOM     44  C   UNL A   1      50.486  27.302  25.547  1.00  0.00     0.091 A 
ATOM     45  F   UNL A   1      48.350  28.213  24.992  1.00  0.00    -0.205 F 
ATOM     46  C   UNL A   1      51.351  26.770  26.517  1.00  0.00     0.022 A 
BRANCH  44  47
ATOM     47  S   UNL A   1      51.124  27.430  23.872  1.00  0.00     0.127 S 
ATOM     48  O   UNL A   1      51.246  28.878  23.713  1.00  0.00    -0.237 OA
ATOM     49  O   UNL A   1      52.399  26.718  23.971  1.00  0.00    -0.237 OA
ATOM     50  O   UNL A   1      50.136  26.786  23.018  1.00  0.00    -0.744 OA
ENDBRANCH  44  47
ENDBRANCH  26  40
BRANCH  27  51
ATOM     51  C   UNL A   1      39.177  29.000  29.750  1.00  0.00     0.023 A 
ATOM     52  C   UNL A   1      38.765  28.704  31.064  1.00  0.00     0.012 A 
ATOM     53  C   UNL A   1      38.247  29.551  28.848  1.00  0.00     0.148 A 
ATOM     54  C   UNL A   1      37.448  28.929  31.463  1.00  0.00     0.002 A 
ATOM     55  C   UNL A   1      36.953  29.830  29.271  1.00  0.00     0.091 A 
ATOM     56  F   UNL A   1      38.649  29.808  27.594  1.00  0.00    -0.205 F 
ATOM     57  C   UNL A   1      36.546  29.505  30.572  1.00  0.00     0.022 A 
BRANCH  55  58
ATOM     58  S   UNL A   1      35.791  30.711  28.222  1.00  0.00     0.127 S 
ATOM     59  O   UNL A   1      34.730  31.049  29.166  1.00  0.00    -0.237 OA
ATOM     60  O   UNL A   1      36.590  31.848  27.760  1.00  0.00    -0.237 OA
ATOM     61  O   UNL A   1      35.440  29.768  27.168  1.00  0.00    -0.744 OA
ENDBRANCH  55  58
ENDBRANCH  27  51
BRANCH  39  62
ATOM     62  C   UNL A   1      44.788  33.125  29.337  1.00  0.00     0.023 A 
ATOM     63  C   UNL A   1      45.304  33.506  30.591  1.00  0.00     0.012 A 
ATOM     64  C   UNL A   1      44.527  34.111  28.366  1.00  0.00     0.148 A 
ATOM     65  C   UNL A   1      45.527  34.850  30.887  1.00  0.00     0.002 A 
ATOM     66  C   UNL A   1      44.790  35.445  28.653  1.00  0.00     0.091 A 
ATOM     67  F   UNL A   1      44.013  33.730  27.186  1.00  0.00    -0.205 F 
ATOM     68  C   UNL A   1      45.280  35.817  29.915  1.00  0.00     0.022 A 
BRANCH  66  69
ATOM     69  S   UNL A   1      44.581  36.745  27.430  1.00  0.00     0.127 S 
ATOM     70  O   UNL A   1      44.473  37.933  28.273  1.00  0.00    -0.237 OA
ATOM     71  O   UNL A   1      45.823  36.654  26.660  1.00  0.00    -0.237 OA
ATOM     72  O   UNL A   1      43.384  36.392  26.680  1.00  0.00    -0.744 OA
ENDBRANCH  66  69
ENDBRANCH  39  62
ENDBRANCH  13  14
ENDBRANCH   6   8
ENDBRANCH   3   4
ENDBRANCH   2   3
ENDBRANCH   1   2
BRANCH   1  73
ATOM     73  C   UNL A   1      36.459  21.083  24.843  1.00  0.00     0.002 C 
BRANCH  73  74
ATOM     74  C   UNL A   1      36.873  22.512  24.472  1.00  0.00     0.021 C 
BRANCH  74  75
ATOM     75  C   UNL A   1      36.328  23.590  25.403  1.00  0.00     0.116 C 
BRANCH  75  76
ATOM     76  N   UNL A   1      35.718  23.010  26.586  1.00  0.00    -0.356 N 
ATOM     77  C   UNL A   1      34.408  22.799  26.886  1.00  0.00     0.225 C 
ATOM     78  H   UNL A   1      36.354  22.724  27.282  1.00  0.00     0.163 HD
ATOM     79  O   UNL A   1      34.139  22.235  27.948  1.00  0.00    -0.275 OA
BRANCH  77  80
ATOM     80  C   UNL A   1      33.333  23.226  25.914  1.00  0.00     0.107 C 
ATOM     81  C   UNL A   1      32.744  24.552  26.363  1.00  0.00     0.133 C 
ATOM     82  C   UNL A   1      32.114  22.269  25.900  1.00  0.00     0.053 C 
ATOM     83  N   UNL A   1      31.460  24.568  25.696  1.00  0.00    -0.336 N 
ATOM     84  C   UNL A   1      30.928  23.218  25.592  1.00  0.00     0.129 C 
BRANCH  82  85
ATOM     85  C   UNL A   1      32.344  21.077  24.977  1.00  0.00    -0.038 A 
ATOM     86  C   UNL A   1      32.063  21.232  23.592  1.00  0.00     0.008 A 
ATOM     87  C   UNL A   1      32.794  19.823  25.422  1.00  0.00     0.054 A 
ATOM     88  C   UNL A   1      32.179  20.169  22.688  1.00  0.00     0.051 A 
ATOM     89  C   UNL A   1      32.923  18.798  24.503  1.00  0.00     0.166 A 
ATOM     90  C   UNL A   1      32.613  18.961  23.177  1.00  0.00     0.165 A 
ATOM     91  O   UNL A   1      33.349  17.536  24.784  1.00  0.00    -0.454 OA
ATOM     92  O   UNL A   1      32.792  17.825  22.455  1.00  0.00    -0.454 OA
ATOM     93  C   UNL A   1      33.259  16.922  23.480  1.00  0.00     0.468 C 
ENDBRANCH  82  85
BRANCH  83  94
ATOM     94  C   UNL A   1      30.789  25.662  25.196  1.00  0.00     0.277 C 
ATOM     95  O   UNL A   1      29.559  25.741  25.222  1.00  0.00    -0.268 OA
BRANCH  94  96
ATOM     96  C   UNL A   1      31.628  26.781  24.559  1.00  0.00     0.363 C 
BRANCH  96  97
ATOM     97  N   UNL A   1      31.332  26.906  23.115  1.00  0.00    -0.323 N 
ATOM     98  C   UNL A   1      31.563  25.629  22.398  1.00  0.00     0.291 C 
ATOM     99  C   UNL A   1      32.163  27.953  22.484  1.00  0.00     0.291 C 
ATOM    100  H   UNL A   1      30.348  27.161  23.046  1.00  0.00     0.348 HD
ATOM    101  C   UNL A   1      33.049  25.276  22.207  1.00  0.00     0.221 C 
ATOM    102  C   UNL A   1      33.638  27.558  22.300  1.00  0.00     0.221 C 
ATOM    103  O   UNL A   1      33.760  26.338  21.559  1.00  0.00    -0.370 OA
ENDBRANCH  96  97
ENDBRANCH  94  96
ENDBRANCH  83  94
ENDBRANCH  77  80
ENDBRANCH  75  76
ENDBRANCH  74  75
ENDBRANCH  73  74
ENDBRANCH   1  73
TORSDOF 20
ENDMDL
MODEL 3
REMARK VINA RESULT:     -11.5      1.170      7.312
REMARK SMILES O=C(NCCCCCCNC(=O)[C@@H]1CN(C(=O)C[NH+]2CCOCC2)C[C@H]1c1ccc2c(c1)OCO2)c1ccc(-c2c3nc(c(-c4cccc(S(=O)(=O)[O-])c4F)c4ccc([nH]4)c(-c4cccc(S(=O)(=O)[O-])c4F)c4nc(c(-c5cccc(S(=O)(=O)[O-])c5F)c5ccc2[nH]5)C=C4)C=C3)cc1
REMARK SMILES IDX 6 1 5 2 4 3 3 4 1 5 2 6 36 8 37 9 98 10 38 11 97 12 39 13
REMARK SMILES IDX 40 14 41 15 91 16 42 17 96 18 90 19 92 20 43 21 95 22 89 23
REMARK SMILES IDX 88 24 44 26 76 27 56 28 75 29 57 30 60 31 74 32 93 33 58 34
REMARK SMILES IDX 59 35 73 37 94 38 61 39 45 40 46 41 54 42 47 43 49 44 55 45
REMARK SMILES IDX 48 46 50 47 51 48 52 49 53 50 77 51 78 52 86 53 79 54 81 55
REMARK SMILES IDX 87 56 80 57 82 58 83 59 84 60 85 61 62 62 63 63 71 64 64 65
REMARK SMILES IDX 66 66 72 67 65 68 67 69 68 70 69 71 70 72 7 73 8 74 9 75
REMARK SMILES IDX 10 76 11 77 12 79 13 80 14 81 26 82 15 83 25 84 27 85 28 86
REMARK SMILES IDX 32 87 29 88 31 89 30 90 33 91 35 92 34 93 16 94 17 95 18 96
REMARK SMILES IDX 19 97 20 98 24 99 21 101 23 102 22 103
REMARK H PARENT 3 7 92 25 60 36 10 78 19 100
REMARK Flexibility Score: inf
ROOT
ATOM      1  C   UNL A   1      40.015  22.093  27.122  1.00  0.00     0.002 C 
ENDROOT
BRANCH   1   2
ATOM      2  C   UNL A   1      40.140  20.800  26.315  1.00  0.00     0.021 C 
BRANCH   2   3
ATOM      3  C   UNL A   1      41.027  19.734  26.944  1.00  0.00     0.116 C 
BRANCH   3   4
ATOM      4  N   UNL A   1      41.997  19.195  26.007  1.00  0.00    -0.352 N 
ATOM      5  O   UNL A   1      43.667  19.269  24.495  1.00  0.00    -0.269 OA
ATOM      6  C   UNL A   1      43.044  19.836  25.390  1.00  0.00     0.251 C 
ATOM      7  H   UNL A   1      41.889  18.242  25.784  1.00  0.00     0.163 HD
BRANCH   6   8
ATOM      8  C   UNL A   1      43.396  21.215  25.792  1.00  0.00     0.039 A 
ATOM      9  C   UNL A   1      43.805  21.492  27.099  1.00  0.00     0.014 A 
ATOM     10  C   UNL A   1      43.313  22.245  24.851  1.00  0.00     0.014 A 
ATOM     11  C   UNL A   1      44.002  22.810  27.498  1.00  0.00     0.010 A 
ATOM     12  C   UNL A   1      43.591  23.561  25.233  1.00  0.00     0.010 A 
ATOM     13  C   UNL A   1      43.911  23.858  26.567  1.00  0.00    -0.014 A 
BRANCH  13  14
ATOM     14  C   UNL A   1      44.233  25.242  27.000  1.00  0.00     0.031 A 
ATOM     15  C   UNL A   1      45.590  25.845  26.763  1.00  0.00     0.074 A 
ATOM     16  C   UNL A   1      43.269  25.962  27.608  1.00  0.00     0.049 A 
ATOM     17  N   UNL A   1      46.010  27.053  27.044  1.00  0.00    -0.248 NA
ATOM     18  C   UNL A   1      46.610  24.989  26.138  1.00  0.00     0.031 C 
ATOM     19  C   UNL A   1      41.930  25.462  27.937  1.00  0.00     0.029 A 
ATOM     20  N   UNL A   1      43.257  27.258  28.054  1.00  0.00    -0.354 N 
ATOM     21  C   UNL A   1      47.344  27.096  26.657  1.00  0.00     0.074 A 
ATOM     22  C   UNL A   1      47.670  25.786  26.134  1.00  0.00     0.031 C 
ATOM     23  C   UNL A   1      41.222  26.446  28.509  1.00  0.00     0.029 A 
ATOM     24  C   UNL A   1      42.064  27.630  28.627  1.00  0.00     0.049 A 
ATOM     25  H   UNL A   1      44.030  27.863  27.972  1.00  0.00     0.167 HD
ATOM     26  C   UNL A   1      48.210  28.137  26.712  1.00  0.00     0.034 A 
ATOM     27  C   UNL A   1      41.689  28.793  29.194  1.00  0.00     0.034 A 
ATOM     28  C   UNL A   1      47.871  29.445  27.208  1.00  0.00     0.049 A 
ATOM     29  C   UNL A   1      42.660  29.938  29.211  1.00  0.00     0.074 A 
ATOM     30  C   UNL A   1      48.668  30.576  27.271  1.00  0.00     0.029 A 
ATOM     31  N   UNL A   1      46.635  29.802  27.727  1.00  0.00    -0.354 N 
ATOM     32  N   UNL A   1      43.878  29.991  28.728  1.00  0.00    -0.248 NA
ATOM     33  C   UNL A   1      42.199  31.190  29.825  1.00  0.00     0.031 C 
ATOM     34  C   UNL A   1      47.915  31.613  27.834  1.00  0.00     0.029 A 
ATOM     35  C   UNL A   1      46.646  31.133  28.109  1.00  0.00     0.049 A 
ATOM     36  H   UNL A   1      45.862  29.197  27.810  1.00  0.00     0.167 HD
ATOM     37  C   UNL A   1      44.321  31.287  28.959  1.00  0.00     0.074 A 
ATOM     38  C   UNL A   1      43.228  31.995  29.595  1.00  0.00     0.031 C 
ATOM     39  C   UNL A   1      45.532  31.835  28.694  1.00  0.00     0.034 A 
BRANCH  26  40
ATOM     40  C   UNL A   1      49.599  27.927  26.168  1.00  0.00     0.023 A 
ATOM     41  C   UNL A   1      50.659  27.683  27.066  1.00  0.00     0.012 A 
ATOM     42  C   UNL A   1      49.847  27.889  24.782  1.00  0.00     0.148 A 
ATOM     43  C   UNL A   1      51.946  27.429  26.595  1.00  0.00     0.002 A 
ATOM     44  C   UNL A   1      51.127  27.599  24.318  1.00  0.00     0.091 A 
ATOM     45  F   UNL A   1      48.833  28.142  23.943  1.00  0.00    -0.205 F 
ATOM     46  C   UNL A   1      52.178  27.377  25.224  1.00  0.00     0.022 A 
BRANCH  44  47
ATOM     47  S   UNL A   1      51.513  27.439  22.571  1.00  0.00     0.127 S 
ATOM     48  O   UNL A   1      52.668  26.544  22.605  1.00  0.00    -0.237 OA
ATOM     49  O   UNL A   1      50.291  26.836  22.037  1.00  0.00    -0.237 OA
ATOM     50  O   UNL A   1      51.780  28.789  22.096  1.00  0.00    -0.744 OA
ENDBRANCH  44  47
ENDBRANCH  26  40
BRANCH  27  51
ATOM     51  C   UNL A   1      40.310  28.937  29.739  1.00  0.00     0.023 A 
ATOM     52  C   UNL A   1      40.035  28.516  31.054  1.00  0.00     0.012 A 
ATOM     53  C   UNL A   1      39.285  29.536  28.982  1.00  0.00     0.148 A 
ATOM     54  C   UNL A   1      38.759  28.666  31.595  1.00  0.00     0.002 A 
ATOM     55  C   UNL A   1      38.033  29.738  29.549  1.00  0.00     0.091 A 
ATOM     56  F   UNL A   1      39.557  29.912  27.724  1.00  0.00    -0.205 F 
ATOM     57  C   UNL A   1      37.762  29.289  30.849  1.00  0.00     0.022 A 
BRANCH  55  58
ATOM     58  S   UNL A   1      36.755  30.671  28.699  1.00  0.00     0.127 S 
ATOM     59  O   UNL A   1      36.505  29.839  27.526  1.00  0.00    -0.237 OA
ATOM     60  O   UNL A   1      35.673  30.686  29.685  1.00  0.00    -0.237 OA
ATOM     61  O   UNL A   1      37.344  31.980  28.448  1.00  0.00    -0.744 OA
ENDBRANCH  55  58
ENDBRANCH  27  51
BRANCH  39  62
ATOM     62  C   UNL A   1      45.733  33.276  29.078  1.00  0.00     0.023 A 
ATOM     63  C   UNL A   1      46.257  33.590  30.347  1.00  0.00     0.012 A 
ATOM     64  C   UNL A   1      45.452  34.314  28.168  1.00  0.00     0.148 A 
ATOM     65  C   UNL A   1      46.469  34.916  30.719  1.00  0.00     0.002 A 
ATOM     66  C   UNL A   1      45.704  35.632  28.531  1.00  0.00     0.091 A 
ATOM     67  F   UNL A   1      44.929  33.997  26.974  1.00  0.00    -0.205 F 
ATOM     68  C   UNL A   1      46.203  35.935  29.807  1.00  0.00     0.022 A 
BRANCH  66  69
ATOM     69  S   UNL A   1      45.468  36.998  27.387  1.00  0.00     0.127 S 
ATOM     70  O   UNL A   1      46.361  36.627  26.292  1.00  0.00    -0.237 OA
ATOM     71  O   UNL A   1      44.042  36.900  27.071  1.00  0.00    -0.237 OA
ATOM     72  O   UNL A   1      45.838  38.198  28.124  1.00  0.00    -0.744 OA
ENDBRANCH  66  69
ENDBRANCH  39  62
ENDBRANCH  13  14
ENDBRANCH   6   8
ENDBRANCH   3   4
ENDBRANCH   2   3
ENDBRANCH   1   2
BRANCH   1  73
ATOM     73  C   UNL A   1      39.932  23.380  26.296  1.00  0.00     0.002 C 
BRANCH  73  74
ATOM     74  C   UNL A   1      38.717  24.271  26.582  1.00  0.00     0.021 C 
BRANCH  74  75
ATOM     75  C   UNL A   1      37.397  23.737  26.036  1.00  0.00     0.116 C 
BRANCH  75  76
ATOM     76  N   UNL A   1      37.475  23.493  24.606  1.00  0.00    -0.356 N 
ATOM     77  C   UNL A   1      36.503  23.146  23.719  1.00  0.00     0.225 C 
ATOM     78  H   UNL A   1      38.374  23.593  24.218  1.00  0.00     0.163 HD
ATOM     79  O   UNL A   1      36.812  23.045  22.531  1.00  0.00    -0.275 OA
BRANCH  77  80
ATOM     80  C   UNL A   1      35.086  22.929  24.198  1.00  0.00     0.107 C 
ATOM     81  C   UNL A   1      34.841  21.442  24.392  1.00  0.00     0.133 C 
ATOM     82  C   UNL A   1      34.023  23.344  23.151  1.00  0.00     0.053 C 
ATOM     83  N   UNL A   1      33.398  21.352  24.332  1.00  0.00    -0.336 N 
ATOM     84  C   UNL A   1      32.867  22.344  23.412  1.00  0.00     0.129 C 
BRANCH  82  85
ATOM     85  C   UNL A   1      33.717  24.837  23.218  1.00  0.00    -0.038 A 
ATOM     86  C   UNL A   1      33.292  25.492  22.030  1.00  0.00     0.008 A 
ATOM     87  C   UNL A   1      33.857  25.608  24.382  1.00  0.00     0.054 A 
ATOM     88  C   UNL A   1      33.060  26.872  21.986  1.00  0.00     0.051 A 
ATOM     89  C   UNL A   1      33.597  26.965  24.317  1.00  0.00     0.166 A 
ATOM     90  C   UNL A   1      33.221  27.582  23.151  1.00  0.00     0.165 A 
ATOM     91  O   UNL A   1      33.684  27.836  25.359  1.00  0.00    -0.454 OA
ATOM     92  O   UNL A   1      33.036  28.918  23.304  1.00  0.00    -0.454 OA
ATOM     93  C   UNL A   1      33.331  29.076  24.708  1.00  0.00     0.468 C 
ENDBRANCH  82  85
BRANCH  83  94
ATOM     94  C   UNL A   1      32.585  20.485  25.028  1.00  0.00     0.277 C 
ATOM     95  O   UNL A   1      31.438  20.792  25.362  1.00  0.00    -0.268 OA
BRANCH  94  96
ATOM     96  C   UNL A   1      33.170  19.119  25.419  1.00  0.00     0.363 C 
BRANCH  96  97
ATOM     97  N   UNL A   1      32.383  18.017  24.825  1.00  0.00    -0.323 N 
ATOM     98  C   UNL A   1      32.579  16.747  25.562  1.00  0.00     0.291 C 
ATOM     99  C   UNL A   1      32.747  17.797  23.410  1.00  0.00     0.291 C 
ATOM    100  H   UNL A   1      31.404  18.299  24.888  1.00  0.00     0.348 HD
ATOM    101  C   UNL A   1      33.949  16.086  25.321  1.00  0.00     0.221 C 
ATOM    102  C   UNL A   1      34.115  17.125  23.210  1.00  0.00     0.221 C 
ATOM    103  O   UNL A   1      34.193  15.885  23.923  1.00  0.00    -0.370 OA
ENDBRANCH  96  97
ENDBRANCH  94  96
ENDBRANCH  83  94
ENDBRANCH  77  80
ENDBRANCH  75  76
ENDBRANCH  74  75
ENDBRANCH  73  74
ENDBRANCH   1  73
TORSDOF 20
ENDMDL
