MODEL 1
REMARK VINA RESULT:     -11.8      0.000      0.000
REMARK SMILES O=C(NCCCCCCNC(=O)[C@@]1(Cc2cn3ccccc3n2)CCC[NH2+]C1)c1ccc(-c2c3nc(c(-c4cccc(S(=O)(=O)[O-])c4F)c4ccc([nH]4)c(-c4cccc(S(=O)(=O)[O-])c4F)c4nc(c(-c5cccc(S(=O)(=O)[O-])c5F)c5ccc2[nH]5)C=C4)C=C3)cc1
REMARK SMILES IDX 6 1 5 2 4 3 3 4 1 5 2 6 29 8 30 9 91 10 31 11 90 12 32 13
REMARK SMILES IDX 33 14 34 15 84 16 35 17 89 18 83 19 85 20 36 21 88 22 82 23
REMARK SMILES IDX 81 24 37 26 69 27 49 28 68 29 50 30 53 31 67 32 86 33 51 34
REMARK SMILES IDX 52 35 66 37 87 38 54 39 38 40 39 41 47 42 40 43 42 44 48 45
REMARK SMILES IDX 41 46 43 47 44 48 45 49 46 50 70 51 71 52 79 53 72 54 74 55
REMARK SMILES IDX 80 56 73 57 75 58 76 59 77 60 78 61 55 62 56 63 64 64 57 65
REMARK SMILES IDX 59 66 65 67 58 68 60 69 61 70 62 71 63 72 7 73 8 74 9 75
REMARK SMILES IDX 10 76 11 77 12 79 13 80 24 81 28 82 25 83 27 84 26 85 14 88
REMARK SMILES IDX 15 89 16 90 23 91 17 92 22 93 18 94 21 95 19 96 20 97
REMARK H PARENT 3 7 85 25 53 36 10 78 27 86 27 87
REMARK Flexibility Score: inf
ROOT
ATOM      1  C   UNL A   1      37.295  20.680  24.601  1.00  0.00     0.002 C 
ENDROOT
BRANCH   1   2
ATOM      2  C   UNL A   1      38.304  19.592  24.975  1.00  0.00     0.021 C 
BRANCH   2   3
ATOM      3  C   UNL A   1      39.205  19.982  26.137  1.00  0.00     0.116 C 
BRANCH   3   4
ATOM      4  N   UNL A   1      40.426  19.194  26.131  1.00  0.00    -0.352 N 
ATOM      5  O   UNL A   1      42.622  18.867  25.751  1.00  0.00    -0.269 OA
ATOM      6  C   UNL A   1      41.724  19.635  26.072  1.00  0.00     0.251 C 
ATOM      7  H   UNL A   1      40.307  18.218  26.177  1.00  0.00     0.163 HD
BRANCH   6   8
ATOM      8  C   UNL A   1      42.010  21.045  26.402  1.00  0.00     0.039 A 
ATOM      9  C   UNL A   1      42.291  21.402  27.725  1.00  0.00     0.014 A 
ATOM     10  C   UNL A   1      42.013  22.007  25.392  1.00  0.00     0.014 A 
ATOM     11  C   UNL A   1      42.462  22.736  28.058  1.00  0.00     0.010 A 
ATOM     12  C   UNL A   1      42.281  23.338  25.715  1.00  0.00     0.010 A 
ATOM     13  C   UNL A   1      42.498  23.712  27.051  1.00  0.00    -0.014 A 
BRANCH  13  14
ATOM     14  C   UNL A   1      42.893  25.096  27.406  1.00  0.00     0.031 A 
ATOM     15  C   UNL A   1      41.931  26.041  28.060  1.00  0.00     0.074 A 
ATOM     16  C   UNL A   1      44.143  25.493  27.093  1.00  0.00     0.049 A 
ATOM     17  N   UNL A   1      42.119  27.287  28.407  1.00  0.00    -0.248 NA
ATOM     18  C   UNL A   1      40.584  25.531  28.360  1.00  0.00     0.031 C 
ATOM     19  C   UNL A   1      45.145  24.663  26.416  1.00  0.00     0.029 A 
ATOM     20  N   UNL A   1      44.782  26.690  27.285  1.00  0.00    -0.354 N 
ATOM     21  C   UNL A   1      40.907  27.728  28.921  1.00  0.00     0.074 A 
ATOM     22  C   UNL A   1      39.987  26.613  28.846  1.00  0.00     0.031 C 
ATOM     23  C   UNL A   1      46.272  25.369  26.259  1.00  0.00     0.029 A 
ATOM     24  C   UNL A   1      46.053  26.720  26.759  1.00  0.00     0.049 A 
ATOM     25  H   UNL A   1      44.373  27.453  27.754  1.00  0.00     0.167 HD
ATOM     26  C   UNL A   1      40.597  28.951  29.413  1.00  0.00     0.034 A 
ATOM     27  C   UNL A   1      46.931  27.733  26.651  1.00  0.00     0.034 A 
ATOM     28  C   UNL A   1      41.531  30.043  29.501  1.00  0.00     0.049 A 
ATOM     29  C   UNL A   1      46.556  29.075  27.205  1.00  0.00     0.074 A 
ATOM     30  C   UNL A   1      41.337  31.294  30.060  1.00  0.00     0.029 A 
ATOM     31  N   UNL A   1      42.823  30.026  28.997  1.00  0.00    -0.354 N 
ATOM     32  N   UNL A   1      45.453  29.431  27.820  1.00  0.00    -0.248 NA
ATOM     33  C   UNL A   1      47.548  30.148  27.074  1.00  0.00     0.031 C 
ATOM     34  C   UNL A   1      42.497  32.048  29.853  1.00  0.00     0.029 A 
ATOM     35  C   UNL A   1      43.429  31.253  29.206  1.00  0.00     0.049 A 
ATOM     36  H   UNL A   1      43.247  29.254  28.556  1.00  0.00     0.167 HD
ATOM     37  C   UNL A   1      45.630  30.762  28.172  1.00  0.00     0.074 A 
ATOM     38  C   UNL A   1      46.956  31.139  27.727  1.00  0.00     0.031 C 
ATOM     39  C   UNL A   1      44.766  31.600  28.794  1.00  0.00     0.034 A 
BRANCH  26  40
ATOM     40  C   UNL A   1      39.193  29.182  29.910  1.00  0.00     0.023 A 
ATOM     41  C   UNL A   1      38.849  28.844  31.233  1.00  0.00     0.012 A 
ATOM     42  C   UNL A   1      38.237  29.814  29.087  1.00  0.00     0.148 A 
ATOM     43  C   UNL A   1      37.569  29.105  31.724  1.00  0.00     0.002 A 
ATOM     44  C   UNL A   1      36.979  30.111  29.597  1.00  0.00     0.091 A 
ATOM     45  F   UNL A   1      38.578  30.111  27.825  1.00  0.00    -0.205 F 
ATOM     46  C   UNL A   1      36.640  29.748  30.910  1.00  0.00     0.022 A 
BRANCH  44  47
ATOM     47  S   UNL A   1      35.740  31.011  28.657  1.00  0.00     0.127 S 
ATOM     48  O   UNL A   1      35.154  29.943  27.847  1.00  0.00    -0.237 OA
ATOM     49  O   UNL A   1      34.867  31.523  29.713  1.00  0.00    -0.237 OA
ATOM     50  O   UNL A   1      36.460  32.034  27.913  1.00  0.00    -0.744 OA
ENDBRANCH  44  47
ENDBRANCH  26  40
BRANCH  27  51
ATOM     51  C   UNL A   1      48.249  27.503  25.996  1.00  0.00     0.023 A 
ATOM     52  C   UNL A   1      49.361  27.135  26.776  1.00  0.00     0.012 A 
ATOM     53  C   UNL A   1      48.396  27.616  24.599  1.00  0.00     0.148 A 
ATOM     54  C   UNL A   1      50.603  26.915  26.180  1.00  0.00     0.002 A 
ATOM     55  C   UNL A   1      49.619  27.337  24.006  1.00  0.00     0.091 A 
ATOM     56  F   UNL A   1      47.326  27.978  23.875  1.00  0.00    -0.205 F 
ATOM     57  C   UNL A   1      50.730  27.005  24.797  1.00  0.00     0.022 A 
BRANCH  55  58
ATOM     58  S   UNL A   1      49.836  27.291  22.224  1.00  0.00     0.127 S 
ATOM     59  O   UNL A   1      48.820  26.322  21.825  1.00  0.00    -0.237 OA
ATOM     60  O   UNL A   1      49.549  28.677  21.849  1.00  0.00    -0.237 OA
ATOM     61  O   UNL A   1      51.219  26.887  22.007  1.00  0.00    -0.744 OA
ENDBRANCH  55  58
ENDBRANCH  27  51
BRANCH  39  62
ATOM     62  C   UNL A   1      45.237  33.004  29.064  1.00  0.00     0.023 A 
ATOM     63  C   UNL A   1      45.911  33.301  30.265  1.00  0.00     0.012 A 
ATOM     64  C   UNL A   1      45.070  34.012  28.094  1.00  0.00     0.148 A 
ATOM     65  C   UNL A   1      46.387  34.589  30.509  1.00  0.00     0.002 A 
ATOM     66  C   UNL A   1      45.594  35.279  28.321  1.00  0.00     0.091 A 
ATOM     67  F   UNL A   1      44.409  33.712  26.967  1.00  0.00    -0.205 F 
ATOM     68  C   UNL A   1      46.241  35.573  29.533  1.00  0.00     0.022 A 
BRANCH  66  69
ATOM     69  S   UNL A   1      45.541  36.581  27.086  1.00  0.00     0.127 S 
ATOM     70  O   UNL A   1      46.314  37.638  27.735  1.00  0.00    -0.237 OA
ATOM     71  O   UNL A   1      46.206  35.950  25.945  1.00  0.00    -0.237 OA
ATOM     72  O   UNL A   1      44.131  36.883  26.877  1.00  0.00    -0.744 OA
ENDBRANCH  66  69
ENDBRANCH  39  62
ENDBRANCH  13  14
ENDBRANCH   6   8
ENDBRANCH   3   4
ENDBRANCH   2   3
ENDBRANCH   1   2
BRANCH   1  73
ATOM     73  C   UNL A   1      37.088  21.755  25.677  1.00  0.00     0.002 C 
BRANCH  73  74
ATOM     74  C   UNL A   1      37.234  23.195  25.174  1.00  0.00     0.021 C 
BRANCH  74  75
ATOM     75  C   UNL A   1      35.908  23.954  25.162  1.00  0.00     0.116 C 
BRANCH  75  76
ATOM     76  N   UNL A   1      35.242  23.813  23.881  1.00  0.00    -0.355 N 
ATOM     77  C   UNL A   1      33.968  23.650  23.458  1.00  0.00     0.232 C 
ATOM     78  H   UNL A   1      35.878  23.844  23.130  1.00  0.00     0.163 HD
ATOM     79  O   UNL A   1      33.882  23.408  22.242  1.00  0.00    -0.274 OA
BRANCH  77  80
ATOM     80  C   UNL A   1      32.671  23.792  24.305  1.00  0.00     0.104 C 
ATOM     81  C   UNL A   1      32.842  25.118  25.097  1.00  0.00     0.029 C 
ATOM     82  C   UNL A   1      31.531  23.994  23.270  1.00  0.00     0.277 C 
ATOM     83  C   UNL A   1      31.531  25.691  25.626  1.00  0.00     0.063 C 
ATOM     84  N   UNL A   1      30.269  24.480  23.831  1.00  0.00    -0.345 N 
ATOM     85  C   UNL A   1      30.436  25.735  24.562  1.00  0.00     0.260 C 
ATOM     86  H   UNL A   1      29.607  24.630  23.069  1.00  0.00     0.346 HD
ATOM     87  H   UNL A   1      29.927  23.778  24.487  1.00  0.00     0.346 HD
BRANCH  80  88
ATOM     88  C   UNL A   1      32.421  22.593  25.238  1.00  0.00     0.080 C 
BRANCH  88  89
ATOM     89  C   UNL A   1      32.782  21.207  24.839  1.00  0.00     0.061 A 
ATOM     90  C   UNL A   1      33.693  20.335  25.395  1.00  0.00     0.116 A 
ATOM     91  N   UNL A   1      32.092  20.591  23.815  1.00  0.00    -0.234 NA
ATOM     92  N   UNL A   1      33.693  19.237  24.578  1.00  0.00    -0.307 N 
ATOM     93  C   UNL A   1      32.651  19.410  23.676  1.00  0.00     0.136 A 
ATOM     94  C   UNL A   1      34.549  18.141  24.566  1.00  0.00     0.093 A 
ATOM     95  C   UNL A   1      32.402  18.349  22.761  1.00  0.00     0.048 A 
ATOM     96  C   UNL A   1      34.355  17.171  23.655  1.00  0.00     0.018 A 
ATOM     97  C   UNL A   1      33.222  17.279  22.745  1.00  0.00     0.005 A 
ENDBRANCH  88  89
ENDBRANCH  80  88
ENDBRANCH  77  80
ENDBRANCH  75  76
ENDBRANCH  74  75
ENDBRANCH  73  74
ENDBRANCH   1  73
TORSDOF 18
ENDMDL
MODEL 2
REMARK VINA RESULT:     -11.8      6.322     11.606
REMARK SMILES O=C(NCCCCCCNC(=O)[C@@]1(Cc2cn3ccccc3n2)CCC[NH2+]C1)c1ccc(-c2c3nc(c(-c4cccc(S(=O)(=O)[O-])c4F)c4ccc([nH]4)c(-c4cccc(S(=O)(=O)[O-])c4F)c4nc(c(-c5cccc(S(=O)(=O)[O-])c5F)c5ccc2[nH]5)C=C4)C=C3)cc1
REMARK SMILES IDX 6 1 5 2 4 3 3 4 1 5 2 6 29 8 30 9 91 10 31 11 90 12 32 13
REMARK SMILES IDX 33 14 34 15 84 16 35 17 89 18 83 19 85 20 36 21 88 22 82 23
REMARK SMILES IDX 81 24 37 26 69 27 49 28 68 29 50 30 53 31 67 32 86 33 51 34
REMARK SMILES IDX 52 35 66 37 87 38 54 39 38 40 39 41 47 42 40 43 42 44 48 45
REMARK SMILES IDX 41 46 43 47 44 48 45 49 46 50 70 51 71 52 79 53 72 54 74 55
REMARK SMILES IDX 80 56 73 57 75 58 76 59 77 60 78 61 55 62 56 63 64 64 57 65
REMARK SMILES IDX 59 66 65 67 58 68 60 69 61 70 62 71 63 72 7 73 8 74 9 75
REMARK SMILES IDX 10 76 11 77 12 79 13 80 24 81 28 82 25 83 27 84 26 85 14 88
REMARK SMILES IDX 15 89 16 90 23 91 17 92 22 93 18 94 21 95 19 96 20 97
REMARK H PARENT 3 7 85 25 53 36 10 78 27 86 27 87
REMARK Flexibility Score: inf
ROOT
ATOM      1  C   UNL A   1      31.709  30.457  26.189  1.00  0.00     0.002 C 
ENDROOT
BRANCH   1   2
ATOM      2  C   UNL A   1      31.553  31.931  26.569  1.00  0.00     0.021 C 
BRANCH   2   3
ATOM      3  C   UNL A   1      32.772  32.502  27.276  1.00  0.00     0.116 C 
BRANCH   3   4
ATOM      4  N   UNL A   1      32.573  33.904  27.600  1.00  0.00    -0.352 N 
ATOM      5  O   UNL A   1      32.615  35.692  28.971  1.00  0.00    -0.269 OA
ATOM      6  C   UNL A   1      33.115  34.626  28.634  1.00  0.00     0.251 C 
ATOM      7  H   UNL A   1      31.971  34.402  27.000  1.00  0.00     0.163 HD
BRANCH   6   8
ATOM      8  C   UNL A   1      34.306  34.093  29.323  1.00  0.00     0.039 A 
ATOM      9  C   UNL A   1      34.148  33.307  30.470  1.00  0.00     0.014 A 
ATOM     10  C   UNL A   1      35.577  34.361  28.816  1.00  0.00     0.014 A 
ATOM     11  C   UNL A   1      35.264  32.886  31.176  1.00  0.00     0.010 A 
ATOM     12  C   UNL A   1      36.699  33.855  29.477  1.00  0.00     0.010 A 
ATOM     13  C   UNL A   1      36.548  33.122  30.665  1.00  0.00    -0.014 A 
BRANCH  13  14
ATOM     14  C   UNL A   1      37.712  32.481  31.323  1.00  0.00     0.031 A 
ATOM     15  C   UNL A   1      38.445  31.343  30.680  1.00  0.00     0.074 A 
ATOM     16  C   UNL A   1      38.076  32.936  32.539  1.00  0.00     0.049 A 
ATOM     17  N   UNL A   1      39.463  30.663  31.141  1.00  0.00    -0.248 NA
ATOM     18  C   UNL A   1      37.978  30.902  29.356  1.00  0.00     0.031 C 
ATOM     19  C   UNL A   1      37.402  34.013  33.271  1.00  0.00     0.029 A 
ATOM     20  N   UNL A   1      39.086  32.548  33.379  1.00  0.00    -0.354 N 
ATOM     21  C   UNL A   1      39.730  29.685  30.192  1.00  0.00     0.074 A 
ATOM     22  C   UNL A   1      38.769  29.862  29.123  1.00  0.00     0.031 C 
ATOM     23  C   UNL A   1      38.021  34.206  34.443  1.00  0.00     0.029 A 
ATOM     24  C   UNL A   1      39.089  33.224  34.577  1.00  0.00     0.049 A 
ATOM     25  H   UNL A   1      39.745  31.853  33.150  1.00  0.00     0.167 HD
ATOM     26  C   UNL A   1      40.693  28.733  30.213  1.00  0.00     0.034 A 
ATOM     27  C   UNL A   1      39.838  33.048  35.680  1.00  0.00     0.034 A 
ATOM     28  C   UNL A   1      41.655  28.586  31.274  1.00  0.00     0.049 A 
ATOM     29  C   UNL A   1      40.895  31.984  35.671  1.00  0.00     0.074 A 
ATOM     30  C   UNL A   1      42.721  27.707  31.349  1.00  0.00     0.029 A 
ATOM     31  N   UNL A   1      41.656  29.317  32.454  1.00  0.00    -0.354 N 
ATOM     32  N   UNL A   1      41.227  31.164  34.703  1.00  0.00    -0.248 NA
ATOM     33  C   UNL A   1      41.696  31.834  36.892  1.00  0.00     0.031 C 
ATOM     34  C   UNL A   1      43.338  27.875  32.594  1.00  0.00     0.029 A 
ATOM     35  C   UNL A   1      42.684  28.889  33.275  1.00  0.00     0.049 A 
ATOM     36  H   UNL A   1      41.018  30.033  32.674  1.00  0.00     0.167 HD
ATOM     37  C   UNL A   1      42.292  30.418  35.189  1.00  0.00     0.074 A 
ATOM     38  C   UNL A   1      42.567  30.904  36.526  1.00  0.00     0.031 C 
ATOM     39  C   UNL A   1      42.971  29.412  34.587  1.00  0.00     0.034 A 
BRANCH  26  40
ATOM     40  C   UNL A   1      40.771  27.776  29.052  1.00  0.00     0.023 A 
ATOM     41  C   UNL A   1      39.884  26.684  28.978  1.00  0.00     0.012 A 
ATOM     42  C   UNL A   1      41.668  28.011  27.990  1.00  0.00     0.148 A 
ATOM     43  C   UNL A   1      39.906  25.824  27.879  1.00  0.00     0.002 A 
ATOM     44  C   UNL A   1      41.653  27.176  26.879  1.00  0.00     0.091 A 
ATOM     45  F   UNL A   1      42.516  29.045  28.087  1.00  0.00    -0.205 F 
ATOM     46  C   UNL A   1      40.782  26.077  26.827  1.00  0.00     0.022 A 
BRANCH  44  47
ATOM     47  S   UNL A   1      42.684  27.464  25.435  1.00  0.00     0.127 S 
ATOM     48  O   UNL A   1      42.021  28.617  24.827  1.00  0.00    -0.237 OA
ATOM     49  O   UNL A   1      43.983  27.757  26.041  1.00  0.00    -0.237 OA
ATOM     50  O   UNL A   1      42.639  26.236  24.654  1.00  0.00    -0.744 OA
ENDBRANCH  44  47
ENDBRANCH  26  40
BRANCH  27  51
ATOM     51  C   UNL A   1      39.611  33.908  36.875  1.00  0.00     0.023 A 
ATOM     52  C   UNL A   1      39.932  35.278  36.819  1.00  0.00     0.012 A 
ATOM     53  C   UNL A   1      39.048  33.381  38.054  1.00  0.00     0.148 A 
ATOM     54  C   UNL A   1      39.726  36.099  37.927  1.00  0.00     0.002 A 
ATOM     55  C   UNL A   1      38.789  34.216  39.131  1.00  0.00     0.091 A 
ATOM     56  F   UNL A   1      38.759  32.072  38.089  1.00  0.00    -0.205 F 
ATOM     57  C   UNL A   1      39.145  35.572  39.078  1.00  0.00     0.022 A 
BRANCH  55  58
ATOM     58  S   UNL A   1      37.917  33.653  40.597  1.00  0.00     0.127 S 
ATOM     59  O   UNL A   1      36.651  33.194  40.033  1.00  0.00    -0.237 OA
ATOM     60  O   UNL A   1      38.798  32.590  41.083  1.00  0.00    -0.237 OA
ATOM     61  O   UNL A   1      37.837  34.812  41.476  1.00  0.00    -0.744 OA
ENDBRANCH  55  58
ENDBRANCH  27  51
BRANCH  39  62
ATOM     62  C   UNL A   1      44.104  28.785  35.355  1.00  0.00     0.023 A 
ATOM     63  C   UNL A   1      45.413  29.287  35.214  1.00  0.00     0.012 A 
ATOM     64  C   UNL A   1      43.857  27.742  36.270  1.00  0.00     0.148 A 
ATOM     65  C   UNL A   1      46.464  28.741  35.949  1.00  0.00     0.002 A 
ATOM     66  C   UNL A   1      44.899  27.239  37.039  1.00  0.00     0.091 A 
ATOM     67  F   UNL A   1      42.607  27.267  36.375  1.00  0.00    -0.205 F 
ATOM     68  C   UNL A   1      46.205  27.728  36.870  1.00  0.00     0.022 A 
BRANCH  66  69
ATOM     69  S   UNL A   1      44.646  26.005  38.318  1.00  0.00     0.127 S 
ATOM     70  O   UNL A   1      44.110  24.884  37.548  1.00  0.00    -0.237 OA
ATOM     71  O   UNL A   1      46.004  25.804  38.824  1.00  0.00    -0.237 OA
ATOM     72  O   UNL A   1      43.722  26.598  39.276  1.00  0.00    -0.744 OA
ENDBRANCH  66  69
ENDBRANCH  39  62
ENDBRANCH  13  14
ENDBRANCH   6   8
ENDBRANCH   3   4
ENDBRANCH   2   3
ENDBRANCH   1   2
BRANCH   1  73
ATOM     73  C   UNL A   1      32.478  29.612  27.215  1.00  0.00     0.002 C 
BRANCH  73  74
ATOM     74  C   UNL A   1      31.793  28.296  27.597  1.00  0.00     0.021 C 
BRANCH  74  75
ATOM     75  C   UNL A   1      31.685  27.324  26.424  1.00  0.00     0.116 C 
BRANCH  75  76
ATOM     76  N   UNL A   1      31.188  26.034  26.864  1.00  0.00    -0.355 N 
ATOM     77  C   UNL A   1      31.063  24.801  26.323  1.00  0.00     0.232 C 
ATOM     78  H   UNL A   1      30.860  26.064  27.792  1.00  0.00     0.163 HD
ATOM     79  O   UNL A   1      30.416  24.016  27.036  1.00  0.00    -0.274 OA
BRANCH  77  80
ATOM     80  C   UNL A   1      31.679  24.295  24.987  1.00  0.00     0.104 C 
ATOM     81  C   UNL A   1      33.052  25.013  24.870  1.00  0.00     0.029 C 
ATOM     82  C   UNL A   1      31.945  22.782  25.212  1.00  0.00     0.277 C 
ATOM     83  C   UNL A   1      34.017  24.337  23.902  1.00  0.00     0.063 C 
ATOM     84  N   UNL A   1      32.823  22.157  24.220  1.00  0.00    -0.345 N 
ATOM     85  C   UNL A   1      34.117  22.830  24.126  1.00  0.00     0.260 C 
ATOM     86  H   UNL A   1      32.977  21.184  24.484  1.00  0.00     0.346 HD
ATOM     87  H   UNL A   1      32.367  22.227  23.310  1.00  0.00     0.346 HD
BRANCH  80  88
ATOM     88  C   UNL A   1      30.782  24.565  23.765  1.00  0.00     0.080 C 
BRANCH  88  89
ATOM     89  C   UNL A   1      30.189  25.905  23.514  1.00  0.00     0.061 A 
ATOM     90  C   UNL A   1      28.954  26.407  23.866  1.00  0.00     0.116 A 
ATOM     91  N   UNL A   1      30.953  26.886  22.915  1.00  0.00    -0.234 NA
ATOM     92  N   UNL A   1      28.893  27.653  23.304  1.00  0.00    -0.307 N 
ATOM     93  C   UNL A   1      30.159  27.927  22.800  1.00  0.00     0.136 A 
ATOM     94  C   UNL A   1      27.813  28.522  23.190  1.00  0.00     0.093 A 
ATOM     95  C   UNL A   1      30.364  29.213  22.227  1.00  0.00     0.048 A 
ATOM     96  C   UNL A   1      27.993  29.710  22.586  1.00  0.00     0.018 A 
ATOM     97  C   UNL A   1      29.326  30.066  22.117  1.00  0.00     0.005 A 
ENDBRANCH  88  89
ENDBRANCH  80  88
ENDBRANCH  77  80
ENDBRANCH  75  76
ENDBRANCH  74  75
ENDBRANCH  73  74
ENDBRANCH   1  73
TORSDOF 18
ENDMDL
MODEL 3
REMARK VINA RESULT:     -11.7      5.099      8.292
REMARK SMILES O=C(NCCCCCCNC(=O)[C@@]1(Cc2cn3ccccc3n2)CCC[NH2+]C1)c1ccc(-c2c3nc(c(-c4cccc(S(=O)(=O)[O-])c4F)c4ccc([nH]4)c(-c4cccc(S(=O)(=O)[O-])c4F)c4nc(c(-c5cccc(S(=O)(=O)[O-])c5F)c5ccc2[nH]5)C=C4)C=C3)cc1
REMARK SMILES IDX 6 1 5 2 4 3 3 4 1 5 2 6 29 8 30 9 91 10 31 11 90 12 32 13
REMARK SMILES IDX 33 14 34 15 84 16 35 17 89 18 83 19 85 20 36 21 88 22 82 23
REMARK SMILES IDX 81 24 37 26 69 27 49 28 68 29 50 30 53 31 67 32 86 33 51 34
REMARK SMILES IDX 52 35 66 37 87 38 54 39 38 40 39 41 47 42 40 43 42 44 48 45
REMARK SMILES IDX 41 46 43 47 44 48 45 49 46 50 70 51 71 52 79 53 72 54 74 55
REMARK SMILES IDX 80 56 73 57 75 58 76 59 77 60 78 61 55 62 56 63 64 64 57 65
REMARK SMILES IDX 59 66 65 67 58 68 60 69 61 70 62 71 63 72 7 73 8 74 9 75
REMARK SMILES IDX 10 76 11 77 12 79 13 80 24 81 28 82 25 83 27 84 26 85 14 88
REMARK SMILES IDX 15 89 16 90 23 91 17 92 22 93 18 94 21 95 19 96 20 97
REMARK H PARENT 3 7 85 25 53 36 10 78 27 86 27 87
REMARK Flexibility Score: inf
ROOT
ATOM      1  C   UNL A   1      31.664  28.237  26.404  1.00  0.00     0.002 C 
ENDROOT
BRANCH   1   2
ATOM      2  C   UNL A   1      33.053  28.118  27.037  1.00  0.00     0.021 C 
BRANCH   2   3
ATOM      3  C   UNL A   1      34.101  28.983  26.354  1.00  0.00     0.116 C 
BRANCH   3   4
ATOM      4  N   UNL A   1      33.980  30.369  26.771  1.00  0.00    -0.352 N 
ATOM      5  O   UNL A   1      34.250  32.082  28.209  1.00  0.00    -0.269 OA
ATOM      6  C   UNL A   1      34.675  31.028  27.754  1.00  0.00     0.251 C 
ATOM      7  H   UNL A   1      33.312  30.907  26.285  1.00  0.00     0.163 HD
BRANCH   6   8
ATOM      8  C   UNL A   1      35.938  30.441  28.243  1.00  0.00     0.039 A 
ATOM      9  C   UNL A   1      37.131  30.700  27.561  1.00  0.00     0.014 A 
ATOM     10  C   UNL A   1      35.934  29.647  29.390  1.00  0.00     0.014 A 
ATOM     11  C   UNL A   1      38.301  30.072  27.956  1.00  0.00     0.010 A 
ATOM     12  C   UNL A   1      37.133  29.093  29.843  1.00  0.00     0.010 A 
ATOM     13  C   UNL A   1      38.322  29.296  29.124  1.00  0.00    -0.014 A 
BRANCH  13  14
ATOM     14  C   UNL A   1      39.624  28.812  29.643  1.00  0.00     0.031 A 
ATOM     15  C   UNL A   1      40.331  29.517  30.761  1.00  0.00     0.074 A 
ATOM     16  C   UNL A   1      40.172  27.730  29.055  1.00  0.00     0.049 A 
ATOM     17  N   UNL A   1      41.484  29.231  31.306  1.00  0.00    -0.248 NA
ATOM     18  C   UNL A   1      39.667  30.696  31.341  1.00  0.00     0.031 C 
ATOM     19  C   UNL A   1      39.585  26.995  27.930  1.00  0.00     0.029 A 
ATOM     20  N   UNL A   1      41.345  27.066  29.306  1.00  0.00    -0.354 N 
ATOM     21  C   UNL A   1      41.711  30.217  32.258  1.00  0.00     0.074 A 
ATOM     22  C   UNL A   1      40.572  31.108  32.221  1.00  0.00     0.031 C 
ATOM     23  C   UNL A   1      40.392  25.980  27.595  1.00  0.00     0.029 A 
ATOM     24  C   UNL A   1      41.583  26.032  28.432  1.00  0.00     0.049 A 
ATOM     25  H   UNL A   1      41.956  27.307  30.039  1.00  0.00     0.167 HD
ATOM     26  C   UNL A   1      42.773  30.357  33.087  1.00  0.00     0.034 A 
ATOM     27  C   UNL A   1      42.659  25.237  28.289  1.00  0.00     0.034 A 
ATOM     28  C   UNL A   1      43.889  29.447  33.125  1.00  0.00     0.049 A 
ATOM     29  C   UNL A   1      43.818  25.420  29.222  1.00  0.00     0.074 A 
ATOM     30  C   UNL A   1      44.973  29.455  33.986  1.00  0.00     0.029 A 
ATOM     31  N   UNL A   1      44.078  28.384  32.254  1.00  0.00    -0.354 N 
ATOM     32  N   UNL A   1      43.950  26.268  30.214  1.00  0.00    -0.248 NA
ATOM     33  C   UNL A   1      44.967  24.524  29.037  1.00  0.00     0.031 C 
ATOM     34  C   UNL A   1      45.839  28.425  33.605  1.00  0.00     0.029 A 
ATOM     35  C   UNL A   1      45.274  27.747  32.537  1.00  0.00     0.049 A 
ATOM     36  H   UNL A   1      43.453  28.121  31.540  1.00  0.00     0.167 HD
ATOM     37  C   UNL A   1      45.184  25.992  30.787  1.00  0.00     0.074 A 
ATOM     38  C   UNL A   1      45.747  24.880  30.049  1.00  0.00     0.031 C 
ATOM     39  C   UNL A   1      45.801  26.614  31.820  1.00  0.00     0.034 A 
BRANCH  26  40
ATOM     40  C   UNL A   1      42.785  31.528  34.034  1.00  0.00     0.023 A 
ATOM     41  C   UNL A   1      43.306  32.768  33.616  1.00  0.00     0.012 A 
ATOM     42  C   UNL A   1      42.197  31.421  35.312  1.00  0.00     0.148 A 
ATOM     43  C   UNL A   1      43.270  33.877  34.462  1.00  0.00     0.002 A 
ATOM     44  C   UNL A   1      42.124  32.541  36.132  1.00  0.00     0.091 A 
ATOM     45  F   UNL A   1      41.722  30.229  35.698  1.00  0.00    -0.205 F 
ATOM     46  C   UNL A   1      42.669  33.765  35.714  1.00  0.00     0.022 A 
BRANCH  44  47
ATOM     47  S   UNL A   1      41.298  32.523  37.727  1.00  0.00     0.127 S 
ATOM     48  O   UNL A   1      41.310  33.942  38.080  1.00  0.00    -0.237 OA
ATOM     49  O   UNL A   1      39.980  31.991  37.383  1.00  0.00    -0.237 OA
ATOM     50  O   UNL A   1      42.097  31.661  38.586  1.00  0.00    -0.744 OA
ENDBRANCH  44  47
ENDBRANCH  26  40
BRANCH  27  51
ATOM     51  C   UNL A   1      42.676  24.198  27.222  1.00  0.00     0.023 A 
ATOM     52  C   UNL A   1      43.326  24.462  26.002  1.00  0.00     0.012 A 
ATOM     53  C   UNL A   1      42.081  22.937  27.425  1.00  0.00     0.148 A 
ATOM     54  C   UNL A   1      43.354  23.502  24.991  1.00  0.00     0.002 A 
ATOM     55  C   UNL A   1      42.165  21.965  26.439  1.00  0.00     0.091 A 
ATOM     56  F   UNL A   1      41.459  22.710  28.592  1.00  0.00    -0.205 F 
ATOM     57  C   UNL A   1      42.783  22.251  25.213  1.00  0.00     0.022 A 
BRANCH  55  58
ATOM     58  S   UNL A   1      41.583  20.285  26.693  1.00  0.00     0.127 S 
ATOM     59  O   UNL A   1      40.154  20.493  26.908  1.00  0.00    -0.237 OA
ATOM     60  O   UNL A   1      41.930  19.649  25.421  1.00  0.00    -0.237 OA
ATOM     61  O   UNL A   1      42.330  19.780  27.837  1.00  0.00    -0.744 OA
ENDBRANCH  55  58
ENDBRANCH  27  51
BRANCH  39  62
ATOM     62  C   UNL A   1      47.147  26.086  32.242  1.00  0.00     0.023 A 
ATOM     63  C   UNL A   1      48.319  26.594  31.649  1.00  0.00     0.012 A 
ATOM     64  C   UNL A   1      47.249  25.134  33.276  1.00  0.00     0.148 A 
ATOM     65  C   UNL A   1      49.573  26.142  32.059  1.00  0.00     0.002 A 
ATOM     66  C   UNL A   1      48.502  24.728  33.716  1.00  0.00     0.091 A 
ATOM     67  F   UNL A   1      46.119  24.651  33.813  1.00  0.00    -0.205 F 
ATOM     68  C   UNL A   1      49.664  25.220  33.100  1.00  0.00     0.022 A 
BRANCH  66  69
ATOM     69  S   UNL A   1      48.723  23.622  35.113  1.00  0.00     0.127 S 
ATOM     70  O   UNL A   1      48.102  22.394  34.621  1.00  0.00    -0.237 OA
ATOM     71  O   UNL A   1      50.179  23.565  35.233  1.00  0.00    -0.237 OA
ATOM     72  O   UNL A   1      48.044  24.251  36.239  1.00  0.00    -0.744 OA
ENDBRANCH  66  69
ENDBRANCH  39  62
ENDBRANCH  13  14
ENDBRANCH   6   8
ENDBRANCH   3   4
ENDBRANCH   2   3
ENDBRANCH   1   2
BRANCH   1  73
ATOM     73  C   UNL A   1      31.534  27.577  25.024  1.00  0.00     0.002 C 
BRANCH  73  74
ATOM     74  C   UNL A   1      30.288  26.701  24.853  1.00  0.00     0.021 C 
BRANCH  74  75
ATOM     75  C   UNL A   1      30.626  25.222  24.676  1.00  0.00     0.116 C 
BRANCH  75  76
ATOM     76  N   UNL A   1      30.739  24.559  25.962  1.00  0.00    -0.355 N 
ATOM     77  C   UNL A   1      31.556  23.632  26.512  1.00  0.00     0.232 C 
ATOM     78  H   UNL A   1      30.047  24.861  26.593  1.00  0.00     0.163 HD
ATOM     79  O   UNL A   1      31.169  23.235  27.623  1.00  0.00    -0.274 OA
BRANCH  77  80
ATOM     80  C   UNL A   1      32.896  23.097  25.929  1.00  0.00     0.104 C 
ATOM     81  C   UNL A   1      33.719  24.364  25.564  1.00  0.00     0.029 C 
ATOM     82  C   UNL A   1      33.601  22.392  27.119  1.00  0.00     0.277 C 
ATOM     83  C   UNL A   1      35.214  24.102  25.415  1.00  0.00     0.063 C 
ATOM     84  N   UNL A   1      35.020  22.098  26.907  1.00  0.00    -0.345 N 
ATOM     85  C   UNL A   1      35.790  23.296  26.578  1.00  0.00     0.260 C 
ATOM     86  H   UNL A   1      35.402  21.687  27.760  1.00  0.00     0.346 HD
ATOM     87  H   UNL A   1      35.093  21.453  26.120  1.00  0.00     0.346 HD
BRANCH  80  88
ATOM     88  C   UNL A   1      32.703  22.167  24.718  1.00  0.00     0.080 C 
BRANCH  88  89
ATOM     89  C   UNL A   1      33.082  20.729  24.770  1.00  0.00     0.061 A 
ATOM     90  C   UNL A   1      34.290  20.122  24.502  1.00  0.00     0.116 A 
ATOM     91  N   UNL A   1      32.168  19.801  25.226  1.00  0.00    -0.234 NA
ATOM     92  N   UNL A   1      34.054  18.779  24.612  1.00  0.00    -0.307 N 
ATOM     93  C   UNL A   1      32.771  18.638  25.126  1.00  0.00     0.136 A 
ATOM     94  C   UNL A   1      34.871  17.705  24.271  1.00  0.00     0.093 A 
ATOM     95  C   UNL A   1      32.325  17.316  25.402  1.00  0.00     0.048 A 
ATOM     96  C   UNL A   1      34.420  16.454  24.469  1.00  0.00     0.018 A 
ATOM     97  C   UNL A   1      33.110  16.268  25.081  1.00  0.00     0.005 A 
ENDBRANCH  88  89
ENDBRANCH  80  88
ENDBRANCH  77  80
ENDBRANCH  75  76
ENDBRANCH  74  75
ENDBRANCH  73  74
ENDBRANCH   1  73
TORSDOF 18
ENDMDL
