MODEL 1
REMARK VINA RESULT:     -12.2      0.000      0.000
REMARK SMILES O=C(NCCCCCCNC(=O)c1cc(-c2ccc(C(F)(F)F)cc2)cc([N+](=O)[O-])c1)c1ccc(-c2c3nc(c(-c4cccc(S(=O)(=O)[O-])c4F)c4ccc([nH]4)c(-c4cccc(S(=O)(=O)[O-])c4F)c4nc(c(-c5cccc(S(=O)(=O)[O-])c5F)c5ccc2[nH]5)C=C4)C=C3)cc1
REMARK SMILES IDX 6 1 5 2 4 3 3 4 1 5 2 6 32 8 33 9 94 10 34 11 93 12 35 13
REMARK SMILES IDX 36 14 37 15 87 16 38 17 92 18 86 19 88 20 39 21 91 22 85 23
REMARK SMILES IDX 84 24 40 26 72 27 52 28 71 29 53 30 56 31 70 32 89 33 54 34
REMARK SMILES IDX 55 35 69 37 90 38 57 39 41 40 42 41 50 42 43 43 45 44 51 45
REMARK SMILES IDX 44 46 46 47 47 48 48 49 49 50 73 51 74 52 82 53 75 54 77 55
REMARK SMILES IDX 83 56 76 57 78 58 79 59 80 60 81 61 58 62 59 63 67 64 60 65
REMARK SMILES IDX 62 66 68 67 61 68 63 69 64 70 65 71 66 72 7 73 8 74 9 75
REMARK SMILES IDX 10 76 11 77 12 79 13 80 14 81 31 82 15 83 27 84 26 85 16 86
REMARK SMILES IDX 17 87 25 88 18 89 24 90 19 91 20 92 21 93 22 94 23 95 28 96
REMARK SMILES IDX 29 97 30 98
REMARK H PARENT 3 7 88 25 56 36 10 78
REMARK Flexibility Score: inf
ROOT
ATOM      1  C   UNL A   1      34.288  24.414  25.758  1.00  0.00     0.002 C 
ENDROOT
BRANCH   1   2
ATOM      2  C   UNL A   1      35.511  23.568  25.406  1.00  0.00     0.021 C 
BRANCH   2   3
ATOM      3  C   UNL A   1      36.025  22.674  26.526  1.00  0.00     0.116 C 
BRANCH   3   4
ATOM      4  N   UNL A   1      36.980  21.682  26.061  1.00  0.00    -0.352 N 
ATOM      5  O   UNL A   1      38.986  20.902  25.388  1.00  0.00    -0.269 OA
ATOM      6  C   UNL A   1      38.344  21.793  25.947  1.00  0.00     0.251 C 
ATOM      7  H   UNL A   1      36.598  20.815  25.794  1.00  0.00     0.163 HD
BRANCH   6   8
ATOM      8  C   UNL A   1      39.029  22.995  26.469  1.00  0.00     0.039 A 
ATOM      9  C   UNL A   1      38.717  24.261  25.967  1.00  0.00     0.014 A 
ATOM     10  C   UNL A   1      40.003  22.855  27.462  1.00  0.00     0.014 A 
ATOM     11  C   UNL A   1      39.475  25.361  26.350  1.00  0.00     0.010 A 
ATOM     12  C   UNL A   1      40.703  23.979  27.912  1.00  0.00     0.010 A 
ATOM     13  C   UNL A   1      40.467  25.237  27.338  1.00  0.00    -0.014 A 
BRANCH  13  14
ATOM     14  C   UNL A   1      41.181  26.454  27.802  1.00  0.00     0.031 A 
ATOM     15  C   UNL A   1      42.623  26.704  27.457  1.00  0.00     0.074 A 
ATOM     16  C   UNL A   1      40.497  27.354  28.539  1.00  0.00     0.049 A 
ATOM     17  N   UNL A   1      43.370  27.737  27.755  1.00  0.00    -0.248 NA
ATOM     18  C   UNL A   1      43.323  25.664  26.686  1.00  0.00     0.031 C 
ATOM     19  C   UNL A   1      39.108  27.195  28.980  1.00  0.00     0.029 A 
ATOM     20  N   UNL A   1      40.866  28.573  29.044  1.00  0.00    -0.354 N 
ATOM     21  C   UNL A   1      44.630  27.464  27.235  1.00  0.00     0.074 A 
ATOM     22  C   UNL A   1      44.552  26.158  26.615  1.00  0.00     0.031 C 
ATOM     23  C   UNL A   1      38.734  28.284  29.664  1.00  0.00     0.029 A 
ATOM     24  C   UNL A   1      39.868  29.196  29.756  1.00  0.00     0.049 A 
ATOM     25  H   UNL A   1      41.759  28.965  28.910  1.00  0.00     0.167 HD
ATOM     26  C   UNL A   1      45.742  28.239  27.253  1.00  0.00     0.034 A 
ATOM     27  C   UNL A   1      39.865  30.366  30.424  1.00  0.00     0.034 A 
ATOM     28  C   UNL A   1      45.806  29.549  27.850  1.00  0.00     0.049 A 
ATOM     29  C   UNL A   1      41.105  31.213  30.404  1.00  0.00     0.074 A 
ATOM     30  C   UNL A   1      46.876  30.426  27.889  1.00  0.00     0.029 A 
ATOM     31  N   UNL A   1      44.758  30.170  28.514  1.00  0.00    -0.354 N 
ATOM     32  N   UNL A   1      42.247  30.987  29.802  1.00  0.00    -0.248 NA
ATOM     33  C   UNL A   1      41.046  32.489  31.128  1.00  0.00     0.031 C 
ATOM     34  C   UNL A   1      46.478  31.573  28.586  1.00  0.00     0.029 A 
ATOM     35  C   UNL A   1      45.155  31.418  28.965  1.00  0.00     0.049 A 
ATOM     36  H   UNL A   1      43.864  29.780  28.645  1.00  0.00     0.167 HD
ATOM     37  C   UNL A   1      43.036  32.102  30.055  1.00  0.00     0.074 A 
ATOM     38  C   UNL A   1      42.227  33.017  30.836  1.00  0.00     0.031 C 
ATOM     39  C   UNL A   1      44.322  32.337  29.697  1.00  0.00     0.034 A 
BRANCH  26  40
ATOM     40  C   UNL A   1      46.976  27.719  26.559  1.00  0.00     0.023 A 
ATOM     41  C   UNL A   1      47.897  26.937  27.286  1.00  0.00     0.012 A 
ATOM     42  C   UNL A   1      47.187  27.932  25.182  1.00  0.00     0.148 A 
ATOM     43  C   UNL A   1      49.020  26.395  26.660  1.00  0.00     0.002 A 
ATOM     44  C   UNL A   1      48.289  27.357  24.557  1.00  0.00     0.091 A 
ATOM     45  F   UNL A   1      46.311  28.693  24.511  1.00  0.00    -0.205 F 
ATOM     46  C   UNL A   1      49.210  26.596  25.296  1.00  0.00     0.022 A 
BRANCH  44  47
ATOM     47  S   UNL A   1      48.585  27.492  22.789  1.00  0.00     0.127 S 
ATOM     48  O   UNL A   1      49.886  28.159  22.760  1.00  0.00    -0.237 OA
ATOM     49  O   UNL A   1      48.610  26.090  22.372  1.00  0.00    -0.237 OA
ATOM     50  O   UNL A   1      47.473  28.266  22.255  1.00  0.00    -0.744 OA
ENDBRANCH  44  47
ENDBRANCH  26  40
BRANCH  27  51
ATOM     51  C   UNL A   1      38.631  30.814  31.125  1.00  0.00     0.023 A 
ATOM     52  C   UNL A   1      38.518  30.638  32.517  1.00  0.00     0.012 A 
ATOM     53  C   UNL A   1      37.587  31.453  30.428  1.00  0.00     0.148 A 
ATOM     54  C   UNL A   1      37.376  31.064  33.198  1.00  0.00     0.002 A 
ATOM     55  C   UNL A   1      36.481  31.930  31.120  1.00  0.00     0.091 A 
ATOM     56  F   UNL A   1      37.703  31.595  29.100  1.00  0.00    -0.205 F 
ATOM     57  C   UNL A   1      36.365  31.722  32.501  1.00  0.00     0.022 A 
BRANCH  55  58
ATOM     58  S   UNL A   1      35.217  32.919  30.314  1.00  0.00     0.127 S 
ATOM     59  O   UNL A   1      34.610  31.950  29.408  1.00  0.00    -0.237 OA
ATOM     60  O   UNL A   1      34.374  33.321  31.442  1.00  0.00    -0.237 OA
ATOM     61  O   UNL A   1      35.934  34.023  29.689  1.00  0.00    -0.744 OA
ENDBRANCH  55  58
ENDBRANCH  27  51
BRANCH  39  62
ATOM     62  C   UNL A   1      44.926  33.647  30.127  1.00  0.00     0.023 A 
ATOM     63  C   UNL A   1      45.638  33.721  31.341  1.00  0.00     0.012 A 
ATOM     64  C   UNL A   1      44.831  34.790  29.310  1.00  0.00     0.148 A 
ATOM     65  C   UNL A   1      46.213  34.921  31.754  1.00  0.00     0.002 A 
ATOM     66  C   UNL A   1      45.446  35.971  29.705  1.00  0.00     0.091 A 
ATOM     67  F   UNL A   1      44.130  34.705  28.169  1.00  0.00    -0.205 F 
ATOM     68  C   UNL A   1      46.126  36.043  30.931  1.00  0.00     0.022 A 
BRANCH  66  69
ATOM     69  S   UNL A   1      45.459  37.439  28.669  1.00  0.00     0.127 S 
ATOM     70  O   UNL A   1      44.030  37.716  28.527  1.00  0.00    -0.237 OA
ATOM     71  O   UNL A   1      46.188  38.399  29.497  1.00  0.00    -0.237 OA
ATOM     72  O   UNL A   1      46.149  37.054  27.444  1.00  0.00    -0.744 OA
ENDBRANCH  66  69
ENDBRANCH  39  62
ENDBRANCH  13  14
ENDBRANCH   6   8
ENDBRANCH   3   4
ENDBRANCH   2   3
ENDBRANCH   1   2
BRANCH   1  73
ATOM     73  C   UNL A   1      34.403  25.907  25.440  1.00  0.00     0.002 C 
BRANCH  73  74
ATOM     74  C   UNL A   1      33.607  26.846  26.352  1.00  0.00     0.021 C 
BRANCH  74  75
ATOM     75  C   UNL A   1      32.202  27.191  25.869  1.00  0.00     0.116 C 
BRANCH  75  76
ATOM     76  N   UNL A   1      31.192  26.338  26.473  1.00  0.00    -0.352 N 
ATOM     77  C   UNL A   1      30.611  25.201  25.986  1.00  0.00     0.251 C 
ATOM     78  H   UNL A   1      30.883  26.621  27.364  1.00  0.00     0.163 HD
ATOM     79  O   UNL A   1      29.644  24.702  26.565  1.00  0.00    -0.269 OA
BRANCH  77  80
ATOM     80  C   UNL A   1      31.128  24.556  24.762  1.00  0.00     0.047 A 
ATOM     81  C   UNL A   1      31.439  23.190  24.806  1.00  0.00     0.023 A 
ATOM     82  C   UNL A   1      31.399  25.304  23.613  1.00  0.00     0.099 A 
ATOM     83  C   UNL A   1      31.995  22.544  23.691  1.00  0.00    -0.011 A 
ATOM     84  C   UNL A   1      31.904  24.657  22.484  1.00  0.00     0.270 A 
ATOM     85  C   UNL A   1      32.193  23.286  22.515  1.00  0.00     0.094 A 
BRANCH  83  86
ATOM     86  C   UNL A   1      32.457  21.154  23.780  1.00  0.00    -0.018 A 
ATOM     87  C   UNL A   1      33.322  20.716  24.791  1.00  0.00     0.009 A 
ATOM     88  C   UNL A   1      32.046  20.227  22.807  1.00  0.00     0.009 A 
ATOM     89  C   UNL A   1      33.762  19.387  24.827  1.00  0.00     0.014 A 
ATOM     90  C   UNL A   1      32.485  18.903  22.839  1.00  0.00     0.014 A 
ATOM     91  C   UNL A   1      33.350  18.468  23.848  1.00  0.00     0.056 A 
BRANCH  91  92
ATOM     92  C   UNL A   1      33.839  17.042  23.885  1.00  0.00     0.416 C 
ATOM     93  F   UNL A   1      32.855  16.160  24.219  1.00  0.00    -0.166 F 
ATOM     94  F   UNL A   1      34.325  16.622  22.685  1.00  0.00    -0.166 F 
ATOM     95  F   UNL A   1      34.843  16.833  24.784  1.00  0.00    -0.166 F 
ENDBRANCH  91  92
ENDBRANCH  83  86
BRANCH  84  96
ATOM     96  N   UNL A   1      32.167  25.429  21.265  1.00  0.00     0.062 N 
ATOM     97  O   UNL A   1      33.197  25.165  20.628  1.00  0.00    -0.258 OA
ATOM     98  O   UNL A   1      31.345  26.299  20.951  1.00  0.00    -0.258 OA
ENDBRANCH  84  96
ENDBRANCH  77  80
ENDBRANCH  75  76
ENDBRANCH  74  75
ENDBRANCH  73  74
ENDBRANCH   1  73
TORSDOF 19
ENDMDL
MODEL 2
REMARK VINA RESULT:     -12.2      5.339      9.903
REMARK SMILES O=C(NCCCCCCNC(=O)c1cc(-c2ccc(C(F)(F)F)cc2)cc([N+](=O)[O-])c1)c1ccc(-c2c3nc(c(-c4cccc(S(=O)(=O)[O-])c4F)c4ccc([nH]4)c(-c4cccc(S(=O)(=O)[O-])c4F)c4nc(c(-c5cccc(S(=O)(=O)[O-])c5F)c5ccc2[nH]5)C=C4)C=C3)cc1
REMARK SMILES IDX 6 1 5 2 4 3 3 4 1 5 2 6 32 8 33 9 94 10 34 11 93 12 35 13
REMARK SMILES IDX 36 14 37 15 87 16 38 17 92 18 86 19 88 20 39 21 91 22 85 23
REMARK SMILES IDX 84 24 40 26 72 27 52 28 71 29 53 30 56 31 70 32 89 33 54 34
REMARK SMILES IDX 55 35 69 37 90 38 57 39 41 40 42 41 50 42 43 43 45 44 51 45
REMARK SMILES IDX 44 46 46 47 47 48 48 49 49 50 73 51 74 52 82 53 75 54 77 55
REMARK SMILES IDX 83 56 76 57 78 58 79 59 80 60 81 61 58 62 59 63 67 64 60 65
REMARK SMILES IDX 62 66 68 67 61 68 63 69 64 70 65 71 66 72 7 73 8 74 9 75
REMARK SMILES IDX 10 76 11 77 12 79 13 80 14 81 31 82 15 83 27 84 26 85 16 86
REMARK SMILES IDX 17 87 25 88 18 89 24 90 19 91 20 92 21 93 22 94 23 95 28 96
REMARK SMILES IDX 29 97 30 98
REMARK H PARENT 3 7 88 25 56 36 10 78
REMARK Flexibility Score: inf
ROOT
ATOM      1  C   UNL A   1      33.229  26.748  25.842  1.00  0.00     0.002 C 
ENDROOT
BRANCH   1   2
ATOM      2  C   UNL A   1      33.536  27.903  26.794  1.00  0.00     0.021 C 
BRANCH   2   3
ATOM      3  C   UNL A   1      34.282  29.075  26.172  1.00  0.00     0.116 C 
BRANCH   3   4
ATOM      4  N   UNL A   1      33.892  30.355  26.738  1.00  0.00    -0.352 N 
ATOM      5  O   UNL A   1      33.923  32.055  28.220  1.00  0.00    -0.269 OA
ATOM      6  C   UNL A   1      34.479  31.054  27.765  1.00  0.00     0.251 C 
ATOM      7  H   UNL A   1      33.102  30.778  26.331  1.00  0.00     0.163 HD
BRANCH   6   8
ATOM      8  C   UNL A   1      35.758  30.581  28.336  1.00  0.00     0.039 A 
ATOM      9  C   UNL A   1      36.975  31.042  27.825  1.00  0.00     0.014 A 
ATOM     10  C   UNL A   1      35.743  29.658  29.385  1.00  0.00     0.014 A 
ATOM     11  C   UNL A   1      38.166  30.474  28.262  1.00  0.00     0.010 A 
ATOM     12  C   UNL A   1      36.948  29.155  29.885  1.00  0.00     0.010 A 
ATOM     13  C   UNL A   1      38.169  29.535  29.307  1.00  0.00    -0.014 A 
BRANCH  13  14
ATOM     14  C   UNL A   1      39.468  29.032  29.823  1.00  0.00     0.031 A 
ATOM     15  C   UNL A   1      40.107  29.613  31.055  1.00  0.00     0.074 A 
ATOM     16  C   UNL A   1      40.068  28.019  29.166  1.00  0.00     0.049 A 
ATOM     17  N   UNL A   1      41.216  29.255  31.650  1.00  0.00    -0.248 NA
ATOM     18  C   UNL A   1      39.421  30.744  31.701  1.00  0.00     0.031 C 
ATOM     19  C   UNL A   1      39.569  27.409  27.930  1.00  0.00     0.029 A 
ATOM     20  N   UNL A   1      41.216  27.321  29.437  1.00  0.00    -0.354 N 
ATOM     21  C   UNL A   1      41.378  30.126  32.721  1.00  0.00     0.074 A 
ATOM     22  C   UNL A   1      40.260  31.044  32.685  1.00  0.00     0.031 C 
ATOM     23  C   UNL A   1      40.389  26.414  27.566  1.00  0.00     0.029 A 
ATOM     24  C   UNL A   1      41.497  26.346  28.510  1.00  0.00     0.049 A 
ATOM     25  H   UNL A   1      41.784  27.501  30.222  1.00  0.00     0.167 HD
ATOM     26  C   UNL A   1      42.356  30.145  33.660  1.00  0.00     0.034 A 
ATOM     27  C   UNL A   1      42.539  25.497  28.417  1.00  0.00     0.034 A 
ATOM     28  C   UNL A   1      43.453  29.212  33.703  1.00  0.00     0.049 A 
ATOM     29  C   UNL A   1      43.593  25.527  29.485  1.00  0.00     0.074 A 
ATOM     30  C   UNL A   1      44.474  29.128  34.634  1.00  0.00     0.029 A 
ATOM     31  N   UNL A   1      43.674  28.203  32.778  1.00  0.00    -0.354 N 
ATOM     32  N   UNL A   1      43.660  26.281  30.555  1.00  0.00    -0.248 NA
ATOM     33  C   UNL A   1      44.698  24.569  29.352  1.00  0.00     0.031 C 
ATOM     34  C   UNL A   1      45.318  28.074  34.265  1.00  0.00     0.029 A 
ATOM     35  C   UNL A   1      44.813  27.490  33.115  1.00  0.00     0.049 A 
ATOM     36  H   UNL A   1      43.105  28.020  31.997  1.00  0.00     0.167 HD
ATOM     37  C   UNL A   1      44.802  25.874  31.235  1.00  0.00     0.074 A 
ATOM     38  C   UNL A   1      45.374  24.782  30.473  1.00  0.00     0.031 C 
ATOM     39  C   UNL A   1      45.341  26.375  32.373  1.00  0.00     0.034 A 
BRANCH  26  40
ATOM     40  C   UNL A   1      42.262  31.176  34.757  1.00  0.00     0.023 A 
ATOM     41  C   UNL A   1      41.636  30.832  35.972  1.00  0.00     0.012 A 
ATOM     42  C   UNL A   1      42.856  32.447  34.621  1.00  0.00     0.148 A 
ATOM     43  C   UNL A   1      41.581  31.744  37.027  1.00  0.00     0.002 A 
ATOM     44  C   UNL A   1      42.830  33.336  35.690  1.00  0.00     0.091 A 
ATOM     45  F   UNL A   1      43.431  32.762  33.452  1.00  0.00    -0.205 F 
ATOM     46  C   UNL A   1      42.186  32.989  36.890  1.00  0.00     0.022 A 
BRANCH  44  47
ATOM     47  S   UNL A   1      43.645  34.937  35.642  1.00  0.00     0.127 S 
ATOM     48  O   UNL A   1      42.929  35.599  34.552  1.00  0.00    -0.237 OA
ATOM     49  O   UNL A   1      43.355  35.472  36.974  1.00  0.00    -0.237 OA
ATOM     50  O   UNL A   1      45.053  34.664  35.391  1.00  0.00    -0.744 OA
ENDBRANCH  44  47
ENDBRANCH  26  40
BRANCH  27  51
ATOM     51  C   UNL A   1      42.603  24.525  27.291  1.00  0.00     0.023 A 
ATOM     52  C   UNL A   1      43.273  24.877  26.104  1.00  0.00     0.012 A 
ATOM     53  C   UNL A   1      42.042  23.239  27.407  1.00  0.00     0.148 A 
ATOM     54  C   UNL A   1      43.357  23.975  25.041  1.00  0.00     0.002 A 
ATOM     55  C   UNL A   1      42.183  22.324  26.370  1.00  0.00     0.091 A 
ATOM     56  F   UNL A   1      41.391  22.927  28.537  1.00  0.00    -0.205 F 
ATOM     57  C   UNL A   1      42.825  22.696  25.180  1.00  0.00     0.022 A 
BRANCH  55  58
ATOM     58  S   UNL A   1      41.659  20.615  26.538  1.00  0.00     0.127 S 
ATOM     59  O   UNL A   1      40.207  20.750  26.579  1.00  0.00    -0.237 OA
ATOM     60  O   UNL A   1      42.189  20.008  25.316  1.00  0.00    -0.237 OA
ATOM     61  O   UNL A   1      42.295  20.138  27.760  1.00  0.00    -0.744 OA
ENDBRANCH  55  58
ENDBRANCH  27  51
BRANCH  39  62
ATOM     62  C   UNL A   1      46.606  25.729  32.875  1.00  0.00     0.023 A 
ATOM     63  C   UNL A   1      47.856  26.255  32.494  1.00  0.00     0.012 A 
ATOM     64  C   UNL A   1      46.556  24.635  33.760  1.00  0.00     0.148 A 
ATOM     65  C   UNL A   1      49.038  25.678  32.954  1.00  0.00     0.002 A 
ATOM     66  C   UNL A   1      47.737  24.094  34.252  1.00  0.00     0.091 A 
ATOM     67  F   UNL A   1      45.356  24.134  34.094  1.00  0.00    -0.205 F 
ATOM     68  C   UNL A   1      48.978  24.606  33.841  1.00  0.00     0.022 A 
BRANCH  66  69
ATOM     69  S   UNL A   1      47.753  22.768  35.465  1.00  0.00     0.127 S 
ATOM     70  O   UNL A   1      46.717  23.206  36.399  1.00  0.00    -0.237 OA
ATOM     71  O   UNL A   1      47.393  21.602  34.658  1.00  0.00    -0.237 OA
ATOM     72  O   UNL A   1      49.108  22.735  35.999  1.00  0.00    -0.744 OA
ENDBRANCH  66  69
ENDBRANCH  39  62
ENDBRANCH  13  14
ENDBRANCH   6   8
ENDBRANCH   3   4
ENDBRANCH   2   3
ENDBRANCH   1   2
BRANCH   1  73
ATOM     73  C   UNL A   1      34.297  25.655  25.760  1.00  0.00     0.002 C 
BRANCH  73  74
ATOM     74  C   UNL A   1      34.688  25.209  24.347  1.00  0.00     0.021 C 
BRANCH  74  75
ATOM     75  C   UNL A   1      34.927  23.712  24.176  1.00  0.00     0.116 C 
BRANCH  75  76
ATOM     76  N   UNL A   1      34.253  23.182  23.003  1.00  0.00    -0.352 N 
ATOM     77  C   UNL A   1      32.916  23.059  22.751  1.00  0.00     0.251 C 
ATOM     78  H   UNL A   1      34.847  22.867  22.285  1.00  0.00     0.163 HD
ATOM     79  O   UNL A   1      32.525  22.425  21.768  1.00  0.00    -0.269 OA
BRANCH  77  80
ATOM     80  C   UNL A   1      31.920  23.679  23.649  1.00  0.00     0.047 A 
ATOM     81  C   UNL A   1      31.302  24.870  23.243  1.00  0.00     0.023 A 
ATOM     82  C   UNL A   1      31.669  23.151  24.918  1.00  0.00     0.099 A 
ATOM     83  C   UNL A   1      30.398  25.534  24.087  1.00  0.00    -0.011 A 
ATOM     84  C   UNL A   1      30.732  23.779  25.743  1.00  0.00     0.270 A 
ATOM     85  C   UNL A   1      30.093  24.956  25.331  1.00  0.00     0.094 A 
BRANCH  83  86
ATOM     86  C   UNL A   1      29.864  26.853  23.729  1.00  0.00    -0.018 A 
ATOM     87  C   UNL A   1      30.689  27.970  23.546  1.00  0.00     0.009 A 
ATOM     88  C   UNL A   1      28.476  27.019  23.586  1.00  0.00     0.009 A 
ATOM     89  C   UNL A   1      30.139  29.219  23.230  1.00  0.00     0.014 A 
ATOM     90  C   UNL A   1      27.925  28.262  23.274  1.00  0.00     0.014 A 
ATOM     91  C   UNL A   1      28.750  29.377  23.094  1.00  0.00     0.056 A 
BRANCH  91  92
ATOM     92  C   UNL A   1      28.163  30.727  22.767  1.00  0.00     0.416 C 
ATOM     93  F   UNL A   1      27.605  30.768  21.525  1.00  0.00    -0.166 F 
ATOM     94  F   UNL A   1      27.178  31.095  23.632  1.00  0.00    -0.166 F 
ATOM     95  F   UNL A   1      29.077  31.739  22.794  1.00  0.00    -0.166 F 
ENDBRANCH  91  92
ENDBRANCH  83  86
BRANCH  84  96
ATOM     96  N   UNL A   1      30.442  23.219  27.066  1.00  0.00     0.062 N 
ATOM     97  O   UNL A   1      31.356  22.621  27.651  1.00  0.00    -0.258 OA
ATOM     98  O   UNL A   1      29.299  23.374  27.515  1.00  0.00    -0.258 OA
ENDBRANCH  84  96
ENDBRANCH  77  80
ENDBRANCH  75  76
ENDBRANCH  74  75
ENDBRANCH  73  74
ENDBRANCH   1  73
TORSDOF 19
ENDMDL
MODEL 3
REMARK VINA RESULT:     -12.1      5.433     10.182
REMARK SMILES O=C(NCCCCCCNC(=O)c1cc(-c2ccc(C(F)(F)F)cc2)cc([N+](=O)[O-])c1)c1ccc(-c2c3nc(c(-c4cccc(S(=O)(=O)[O-])c4F)c4ccc([nH]4)c(-c4cccc(S(=O)(=O)[O-])c4F)c4nc(c(-c5cccc(S(=O)(=O)[O-])c5F)c5ccc2[nH]5)C=C4)C=C3)cc1
REMARK SMILES IDX 6 1 5 2 4 3 3 4 1 5 2 6 32 8 33 9 94 10 34 11 93 12 35 13
REMARK SMILES IDX 36 14 37 15 87 16 38 17 92 18 86 19 88 20 39 21 91 22 85 23
REMARK SMILES IDX 84 24 40 26 72 27 52 28 71 29 53 30 56 31 70 32 89 33 54 34
REMARK SMILES IDX 55 35 69 37 90 38 57 39 41 40 42 41 50 42 43 43 45 44 51 45
REMARK SMILES IDX 44 46 46 47 47 48 48 49 49 50 73 51 74 52 82 53 75 54 77 55
REMARK SMILES IDX 83 56 76 57 78 58 79 59 80 60 81 61 58 62 59 63 67 64 60 65
REMARK SMILES IDX 62 66 68 67 61 68 63 69 64 70 65 71 66 72 7 73 8 74 9 75
REMARK SMILES IDX 10 76 11 77 12 79 13 80 14 81 31 82 15 83 27 84 26 85 16 86
REMARK SMILES IDX 17 87 25 88 18 89 24 90 19 91 20 92 21 93 22 94 23 95 28 96
REMARK SMILES IDX 29 97 30 98
REMARK H PARENT 3 7 88 25 56 36 10 78
REMARK Flexibility Score: inf
ROOT
ATOM      1  C   UNL A   1      33.498  26.534  25.440  1.00  0.00     0.002 C 
ENDROOT
BRANCH   1   2
ATOM      2  C   UNL A   1      33.610  27.776  26.324  1.00  0.00     0.021 C 
BRANCH   2   3
ATOM      3  C   UNL A   1      34.124  29.025  25.624  1.00  0.00     0.116 C 
BRANCH   3   4
ATOM      4  N   UNL A   1      33.535  30.247  26.147  1.00  0.00    -0.352 N 
ATOM      5  O   UNL A   1      33.210  31.913  27.632  1.00  0.00    -0.269 OA
ATOM      6  C   UNL A   1      33.919  30.985  27.240  1.00  0.00     0.251 C 
ATOM      7  H   UNL A   1      32.757  30.591  25.652  1.00  0.00     0.163 HD
BRANCH   6   8
ATOM      8  C   UNL A   1      35.166  30.640  27.956  1.00  0.00     0.039 A 
ATOM      9  C   UNL A   1      36.376  31.243  27.602  1.00  0.00     0.014 A 
ATOM     10  C   UNL A   1      35.129  29.695  28.985  1.00  0.00     0.014 A 
ATOM     11  C   UNL A   1      37.562  30.797  28.173  1.00  0.00     0.010 A 
ATOM     12  C   UNL A   1      36.314  29.313  29.621  1.00  0.00     0.010 A 
ATOM     13  C   UNL A   1      37.545  29.838  29.199  1.00  0.00    -0.014 A 
BRANCH  13  14
ATOM     14  C   UNL A   1      38.822  29.467  29.864  1.00  0.00     0.031 A 
ATOM     15  C   UNL A   1      39.219  30.049  31.192  1.00  0.00     0.074 A 
ATOM     16  C   UNL A   1      39.624  28.572  29.251  1.00  0.00     0.049 A 
ATOM     17  N   UNL A   1      40.280  29.793  31.914  1.00  0.00    -0.248 NA
ATOM     18  C   UNL A   1      38.320  31.050  31.786  1.00  0.00     0.031 C 
ATOM     19  C   UNL A   1      39.367  27.977  27.935  1.00  0.00     0.029 A 
ATOM     20  N   UNL A   1      40.807  28.003  29.645  1.00  0.00    -0.354 N 
ATOM     21  C   UNL A   1      40.193  30.615  33.032  1.00  0.00     0.074 A 
ATOM     22  C   UNL A   1      38.981  31.393  32.885  1.00  0.00     0.031 C 
ATOM     23  C   UNL A   1      40.346  27.111  27.644  1.00  0.00     0.029 A 
ATOM     24  C   UNL A   1      41.325  27.123  28.724  1.00  0.00     0.049 A 
ATOM     25  H   UNL A   1      41.243  28.205  30.504  1.00  0.00     0.167 HD
ATOM     26  C   UNL A   1      41.034  30.699  34.092  1.00  0.00     0.034 A 
ATOM     27  C   UNL A   1      42.469  26.413  28.736  1.00  0.00     0.034 A 
ATOM     28  C   UNL A   1      42.225  29.904  34.244  1.00  0.00     0.049 A 
ATOM     29  C   UNL A   1      43.367  26.509  29.936  1.00  0.00     0.074 A 
ATOM     30  C   UNL A   1      43.123  29.890  35.298  1.00  0.00     0.029 A 
ATOM     31  N   UNL A   1      42.688  28.983  33.316  1.00  0.00    -0.354 N 
ATOM     32  N   UNL A   1      43.201  27.203  31.035  1.00  0.00    -0.248 NA
ATOM     33  C   UNL A   1      44.592  25.699  29.912  1.00  0.00     0.031 C 
ATOM     34  C   UNL A   1      44.133  28.968  35.002  1.00  0.00     0.029 A 
ATOM     35  C   UNL A   1      43.857  28.395  33.772  1.00  0.00     0.049 A 
ATOM     36  H   UNL A   1      42.251  28.777  32.459  1.00  0.00     0.167 HD
ATOM     37  C   UNL A   1      44.289  26.898  31.843  1.00  0.00     0.074 A 
ATOM     38  C   UNL A   1      45.088  25.929  31.120  1.00  0.00     0.031 C 
ATOM     39  C   UNL A   1      44.612  27.395  33.063  1.00  0.00     0.034 A 
BRANCH  26  40
ATOM     40  C   UNL A   1      40.671  31.647  35.208  1.00  0.00     0.023 A 
ATOM     41  C   UNL A   1      41.379  32.858  35.340  1.00  0.00     0.012 A 
ATOM     42  C   UNL A   1      39.587  31.383  36.070  1.00  0.00     0.148 A 
ATOM     43  C   UNL A   1      41.032  33.782  36.326  1.00  0.00     0.002 A 
ATOM     44  C   UNL A   1      39.224  32.325  37.026  1.00  0.00     0.091 A 
ATOM     45  F   UNL A   1      38.937  30.219  35.942  1.00  0.00    -0.205 F 
ATOM     46  C   UNL A   1      39.950  33.521  37.161  1.00  0.00     0.022 A 
BRANCH  44  47
ATOM     47  S   UNL A   1      37.799  32.119  38.102  1.00  0.00     0.127 S 
ATOM     48  O   UNL A   1      36.855  33.077  37.527  1.00  0.00    -0.237 OA
ATOM     49  O   UNL A   1      37.449  30.714  37.885  1.00  0.00    -0.237 OA
ATOM     50  O   UNL A   1      38.263  32.429  39.447  1.00  0.00    -0.744 OA
ENDBRANCH  44  47
ENDBRANCH  26  40
BRANCH  27  51
ATOM     51  C   UNL A   1      42.799  25.521  27.590  1.00  0.00     0.023 A 
ATOM     52  C   UNL A   1      43.734  25.942  26.626  1.00  0.00     0.012 A 
ATOM     53  C   UNL A   1      42.224  24.241  27.474  1.00  0.00     0.148 A 
ATOM     54  C   UNL A   1      44.068  25.117  25.551  1.00  0.00     0.002 A 
ATOM     55  C   UNL A   1      42.607  23.399  26.437  1.00  0.00     0.091 A 
ATOM     56  F   UNL A   1      41.320  23.864  28.391  1.00  0.00    -0.205 F 
ATOM     57  C   UNL A   1      43.516  23.841  25.465  1.00  0.00     0.022 A 
BRANCH  55  58
ATOM     58  S   UNL A   1      42.054  21.693  26.351  1.00  0.00     0.127 S 
ATOM     59  O   UNL A   1      42.905  21.156  25.295  1.00  0.00    -0.237 OA
ATOM     60  O   UNL A   1      42.357  21.202  27.697  1.00  0.00    -0.237 OA
ATOM     61  O   UNL A   1      40.629  21.767  26.054  1.00  0.00    -0.744 OA
ENDBRANCH  55  58
ENDBRANCH  27  51
BRANCH  39  62
ATOM     62  C   UNL A   1      45.874  26.879  33.702  1.00  0.00     0.023 A 
ATOM     63  C   UNL A   1      47.086  27.571  33.510  1.00  0.00     0.012 A 
ATOM     64  C   UNL A   1      45.851  25.739  34.529  1.00  0.00     0.148 A 
ATOM     65  C   UNL A   1      48.264  27.115  34.100  1.00  0.00     0.002 A 
ATOM     66  C   UNL A   1      47.019  25.318  35.152  1.00  0.00     0.091 A 
ATOM     67  F   UNL A   1      44.691  25.081  34.682  1.00  0.00    -0.205 F 
ATOM     68  C   UNL A   1      48.228  25.996  34.929  1.00  0.00     0.022 A 
BRANCH  66  69
ATOM     69  S   UNL A   1      47.048  23.939  36.303  1.00  0.00     0.127 S 
ATOM     70  O   UNL A   1      46.731  22.812  35.428  1.00  0.00    -0.237 OA
ATOM     71  O   UNL A   1      48.428  23.966  36.789  1.00  0.00    -0.237 OA
ATOM     72  O   UNL A   1      46.047  24.248  37.318  1.00  0.00    -0.744 OA
ENDBRANCH  66  69
ENDBRANCH  39  62
ENDBRANCH  13  14
ENDBRANCH   6   8
ENDBRANCH   3   4
ENDBRANCH   2   3
ENDBRANCH   1   2
BRANCH   1  73
ATOM     73  C   UNL A   1      34.454  25.388  25.784  1.00  0.00     0.002 C 
BRANCH  73  74
ATOM     74  C   UNL A   1      35.158  24.727  24.595  1.00  0.00     0.021 C 
BRANCH  74  75
ATOM     75  C   UNL A   1      34.863  23.242  24.404  1.00  0.00     0.116 C 
BRANCH  75  76
ATOM     76  N   UNL A   1      34.225  22.972  23.127  1.00  0.00    -0.352 N 
ATOM     77  C   UNL A   1      32.907  23.066  22.777  1.00  0.00     0.251 C 
ATOM     78  H   UNL A   1      34.831  22.679  22.409  1.00  0.00     0.163 HD
ATOM     79  O   UNL A   1      32.521  22.629  21.691  1.00  0.00    -0.269 OA
BRANCH  77  80
ATOM     80  C   UNL A   1      31.927  23.687  23.692  1.00  0.00     0.047 A 
ATOM     81  C   UNL A   1      31.303  24.877  23.295  1.00  0.00     0.023 A 
ATOM     82  C   UNL A   1      31.699  23.160  24.966  1.00  0.00     0.099 A 
ATOM     83  C   UNL A   1      30.414  25.542  24.154  1.00  0.00    -0.011 A 
ATOM     84  C   UNL A   1      30.777  23.789  25.806  1.00  0.00     0.270 A 
ATOM     85  C   UNL A   1      30.130  24.966  25.404  1.00  0.00     0.094 A 
BRANCH  83  86
ATOM     86  C   UNL A   1      29.874  26.861  23.804  1.00  0.00    -0.018 A 
ATOM     87  C   UNL A   1      30.680  28.004  23.730  1.00  0.00     0.009 A 
ATOM     88  C   UNL A   1      28.497  26.998  23.558  1.00  0.00     0.009 A 
ATOM     89  C   UNL A   1      30.122  29.251  23.417  1.00  0.00     0.014 A 
ATOM     90  C   UNL A   1      27.939  28.239  23.250  1.00  0.00     0.014 A 
ATOM     91  C   UNL A   1      28.744  29.380  23.177  1.00  0.00     0.056 A 
BRANCH  91  92
ATOM     92  C   UNL A   1      28.149  30.728  22.856  1.00  0.00     0.416 C 
ATOM     93  F   UNL A   1      27.189  31.101  23.749  1.00  0.00    -0.166 F 
ATOM     94  F   UNL A   1      29.074  31.726  22.862  1.00  0.00    -0.166 F 
ATOM     95  F   UNL A   1      27.553  30.782  21.631  1.00  0.00    -0.166 F 
ENDBRANCH  91  92
ENDBRANCH  83  86
BRANCH  84  96
ATOM     96  N   UNL A   1      30.510  23.230  27.135  1.00  0.00     0.062 N 
ATOM     97  O   UNL A   1      31.470  22.771  27.769  1.00  0.00    -0.258 OA
ATOM     98  O   UNL A   1      29.340  23.247  27.538  1.00  0.00    -0.258 OA
ENDBRANCH  84  96
ENDBRANCH  77  80
ENDBRANCH  75  76
ENDBRANCH  74  75
ENDBRANCH  73  74
ENDBRANCH   1  73
TORSDOF 19
ENDMDL
