MODEL 1
REMARK VINA RESULT:     -12.5      0.000      0.000
REMARK SMILES Cc1cc(Cl)cc2c1O[C@H](C(F)(F)F)C(C(=O)NCCCCCCNC(=O)c1ccc(-c3c4nc(c(-c5cccc(S(=O)(=O)[O-])c5F)c5ccc([nH]5)c(-c5cccc(S(=O)(=O)[O-])c5F)c5nc(c(-c6cccc(S(=O)(=O)[O-])c6F)c6ccc3[nH]6)C=C5)C=C4)cc1)=C2
REMARK SMILES IDX 22 1 21 2 20 3 19 4 18 5 16 6 17 7 15 9 1 10 2 11 3 12 8 13
REMARK SMILES IDX 4 14 7 15 9 16 5 17 6 18 91 19 10 20 11 21 12 22 13 23 14 24
REMARK SMILES IDX 23 25 24 26 25 27 26 28 27 30 28 31 29 32 90 33 30 34 89 35
REMARK SMILES IDX 31 36 32 37 33 38 83 39 34 40 88 41 82 42 84 43 35 44 87 45
REMARK SMILES IDX 81 46 80 47 36 49 68 50 48 51 67 52 49 53 52 54 66 55 85 56
REMARK SMILES IDX 50 57 51 58 65 60 86 61 53 62 37 63 38 64 46 65 39 66 41 67
REMARK SMILES IDX 47 68 40 69 42 70 43 71 44 72 45 73 69 74 70 75 78 76 71 77
REMARK SMILES IDX 73 78 79 79 72 80 74 81 75 82 76 83 77 84 54 85 55 86 63 87
REMARK SMILES IDX 56 88 58 89 64 90 57 91 59 92 60 93 61 94 62 95
REMARK H PARENT 18 8 25 29 84 48 52 59
REMARK Flexibility Score: inf
ROOT
ATOM      1  C   UNL A   1      35.193  22.564  23.749  1.00  0.00     0.002 C 
ENDROOT
BRANCH   1   2
ATOM      2  C   UNL A   1      34.329  21.713  24.689  1.00  0.00     0.002 C 
BRANCH   2   3
ATOM      3  C   UNL A   1      32.959  21.306  24.138  1.00  0.00     0.021 C 
BRANCH   3   4
ATOM      4  C   UNL A   1      31.938  22.440  24.112  1.00  0.00     0.116 C 
BRANCH   4   5
ATOM      5  N   UNL A   1      31.294  22.610  25.403  1.00  0.00    -0.352 N 
ATOM      6  C   UNL A   1      30.900  23.640  26.187  1.00  0.00     0.251 C 
ATOM      7  O   UNL A   1      30.358  23.311  27.248  1.00  0.00    -0.270 OA
ATOM      8  H   UNL A   1      31.088  21.742  25.820  1.00  0.00     0.163 HD
BRANCH   6   9
ATOM      9  C   UNL A   1      31.071  25.090  25.867  1.00  0.00     0.067 C 
ATOM     10  C   UNL A   1      32.260  30.086  25.653  1.00  0.00     0.048 C 
ATOM     11  C   UNL A   1      31.277  29.196  24.944  1.00  0.00    -0.007 A 
ATOM     12  C   UNL A   1      30.473  29.703  23.916  1.00  0.00     0.027 A 
ATOM     13  C   UNL A   1      31.177  27.835  25.271  1.00  0.00     0.131 A 
ATOM     14  C   UNL A   1      29.575  28.867  23.253  1.00  0.00     0.042 A 
ATOM     15  C   UNL A   1      30.274  26.998  24.611  1.00  0.00     0.019 A 
ATOM     16  O   UNL A   1      31.964  27.386  26.292  1.00  0.00    -0.475 OA
ATOM     17  Cl  UNL A   1      28.582  29.507  22.000  1.00  0.00    -0.084 Cl
ATOM     18  C   UNL A   1      29.468  27.520  23.596  1.00  0.00     0.032 A 
ATOM     19  C   UNL A   1      30.164  25.601  25.013  1.00  0.00     0.025 C 
ATOM     20  C   UNL A   1      32.186  25.955  26.385  1.00  0.00     0.314 C 
BRANCH  20  21
ATOM     21  C   UNL A   1      33.547  25.615  25.750  1.00  0.00     0.429 C 
ATOM     22  F   UNL A   1      34.405  26.655  25.878  1.00  0.00    -0.167 F 
ATOM     23  F   UNL A   1      34.140  24.551  26.338  1.00  0.00    -0.167 F 
ATOM     24  F   UNL A   1      33.441  25.329  24.432  1.00  0.00    -0.167 F 
ENDBRANCH  20  21
ENDBRANCH   6   9
ENDBRANCH   4   5
ENDBRANCH   3   4
ENDBRANCH   2   3
ENDBRANCH   1   2
BRANCH   1  25
ATOM     25  C   UNL A   1      36.665  22.704  24.147  1.00  0.00     0.021 C 
BRANCH  25  26
ATOM     26  C   UNL A   1      36.952  22.461  25.625  1.00  0.00     0.116 C 
BRANCH  26  27
ATOM     27  N   UNL A   1      37.945  21.419  25.823  1.00  0.00    -0.352 N 
ATOM     28  C   UNL A   1      39.258  21.539  26.201  1.00  0.00     0.251 C 
ATOM     29  H   UNL A   1      37.632  20.499  25.665  1.00  0.00     0.163 HD
ATOM     30  O   UNL A   1      40.011  20.571  26.131  1.00  0.00    -0.269 OA
BRANCH  28  31
ATOM     31  C   UNL A   1      39.765  22.843  26.677  1.00  0.00     0.039 A 
ATOM     32  C   UNL A   1      40.654  22.872  27.751  1.00  0.00     0.014 A 
ATOM     33  C   UNL A   1      39.358  24.032  26.062  1.00  0.00     0.014 A 
ATOM     34  C   UNL A   1      41.171  24.095  28.184  1.00  0.00     0.010 A 
ATOM     35  C   UNL A   1      39.927  25.241  26.448  1.00  0.00     0.010 A 
ATOM     36  C   UNL A   1      40.826  25.286  27.524  1.00  0.00    -0.014 A 
BRANCH  36  37
ATOM     37  C   UNL A   1      41.379  26.588  27.974  1.00  0.00     0.031 A 
ATOM     38  C   UNL A   1      42.820  26.926  27.709  1.00  0.00     0.074 A 
ATOM     39  C   UNL A   1      40.593  27.450  28.648  1.00  0.00     0.049 A 
ATOM     40  N   UNL A   1      43.469  28.029  27.982  1.00  0.00    -0.248 NA
ATOM     41  C   UNL A   1      43.649  25.888  27.072  1.00  0.00     0.031 C 
ATOM     42  C   UNL A   1      39.201  27.200  29.031  1.00  0.00     0.029 A 
ATOM     43  N   UNL A   1      40.851  28.707  29.134  1.00  0.00    -0.354 N 
ATOM     44  C   UNL A   1      44.776  27.813  27.564  1.00  0.00     0.074 A 
ATOM     45  C   UNL A   1      44.846  26.456  27.069  1.00  0.00     0.031 C 
ATOM     46  C   UNL A   1      38.720  28.282  29.667  1.00  0.00     0.029 A 
ATOM     47  C   UNL A   1      39.769  29.294  29.750  1.00  0.00     0.049 A 
ATOM     48  H   UNL A   1      41.727  29.148  29.050  1.00  0.00     0.167 HD
ATOM     49  C   UNL A   1      45.812  28.682  27.544  1.00  0.00     0.034 A 
ATOM     50  C   UNL A   1      39.635  30.518  30.300  1.00  0.00     0.034 A 
ATOM     51  C   UNL A   1      45.721  30.046  27.984  1.00  0.00     0.049 A 
ATOM     52  C   UNL A   1      40.798  31.472  30.251  1.00  0.00     0.074 A 
ATOM     53  C   UNL A   1      46.689  31.032  27.924  1.00  0.00     0.029 A 
ATOM     54  N   UNL A   1      44.599  30.616  28.564  1.00  0.00    -0.354 N 
ATOM     55  N   UNL A   1      41.975  31.308  29.697  1.00  0.00    -0.248 NA
ATOM     56  C   UNL A   1      40.609  32.792  30.873  1.00  0.00     0.031 C 
ATOM     57  C   UNL A   1      46.156  32.197  28.480  1.00  0.00     0.029 A 
ATOM     58  C   UNL A   1      44.854  31.939  28.879  1.00  0.00     0.049 A 
ATOM     59  H   UNL A   1      43.749  30.150  28.728  1.00  0.00     0.167 HD
ATOM     60  C   UNL A   1      42.657  32.505  29.882  1.00  0.00     0.074 A 
ATOM     61  C   UNL A   1      41.753  33.397  30.578  1.00  0.00     0.031 C 
ATOM     62  C   UNL A   1      43.924  32.830  29.526  1.00  0.00     0.034 A 
BRANCH  49  63
ATOM     63  C   UNL A   1      47.110  28.216  26.941  1.00  0.00     0.023 A 
ATOM     64  C   UNL A   1      48.182  27.892  27.797  1.00  0.00     0.012 A 
ATOM     65  C   UNL A   1      47.248  28.021  25.553  1.00  0.00     0.148 A 
ATOM     66  C   UNL A   1      49.382  27.405  27.282  1.00  0.00     0.002 A 
ATOM     67  C   UNL A   1      48.433  27.497  25.050  1.00  0.00     0.091 A 
ATOM     68  F   UNL A   1      46.223  28.353  24.755  1.00  0.00    -0.205 F 
ATOM     69  C   UNL A   1      49.503  27.197  25.911  1.00  0.00     0.022 A 
BRANCH  67  70
ATOM     70  S   UNL A   1      48.671  27.123  23.309  1.00  0.00     0.127 S 
ATOM     71  O   UNL A   1      50.129  27.127  23.203  1.00  0.00    -0.237 OA
ATOM     72  O   UNL A   1      48.053  25.803  23.190  1.00  0.00    -0.237 OA
ATOM     73  O   UNL A   1      47.992  28.182  22.574  1.00  0.00    -0.744 OA
ENDBRANCH  67  70
ENDBRANCH  49  63
BRANCH  50  74
ATOM     74  C   UNL A   1      38.314  30.944  30.846  1.00  0.00     0.023 A 
ATOM     75  C   UNL A   1      38.051  30.760  32.217  1.00  0.00     0.012 A 
ATOM     76  C   UNL A   1      37.345  31.573  30.041  1.00  0.00     0.148 A 
ATOM     77  C   UNL A   1      36.840  31.175  32.773  1.00  0.00     0.002 A 
ATOM     78  C   UNL A   1      36.162  32.031  30.611  1.00  0.00     0.091 A 
ATOM     79  F   UNL A   1      37.606  31.726  28.735  1.00  0.00    -0.205 F 
ATOM     80  C   UNL A   1      35.901  31.820  31.973  1.00  0.00     0.022 A 
BRANCH  78  81
ATOM     81  S   UNL A   1      34.954  32.988  29.686  1.00  0.00     0.127 S 
ATOM     82  O   UNL A   1      34.422  31.988  28.763  1.00  0.00    -0.237 OA
ATOM     83  O   UNL A   1      34.029  33.410  30.739  1.00  0.00    -0.237 OA
ATOM     84  O   UNL A   1      35.704  34.079  29.077  1.00  0.00    -0.744 OA
ENDBRANCH  78  81
ENDBRANCH  50  74
BRANCH  62  85
ATOM     85  C   UNL A   1      44.435  34.200  29.881  1.00  0.00     0.023 A 
ATOM     86  C   UNL A   1      45.166  34.370  31.073  1.00  0.00     0.012 A 
ATOM     87  C   UNL A   1      44.327  35.272  28.973  1.00  0.00     0.148 A 
ATOM     88  C   UNL A   1      45.777  35.589  31.360  1.00  0.00     0.002 A 
ATOM     89  C   UNL A   1      44.976  36.470  29.245  1.00  0.00     0.091 A 
ATOM     90  F   UNL A   1      43.616  35.087  27.851  1.00  0.00    -0.205 F 
ATOM     91  C   UNL A   1      45.696  36.633  30.440  1.00  0.00     0.022 A 
BRANCH  89  92
ATOM     92  S   UNL A   1      45.020  37.836  28.078  1.00  0.00     0.127 S 
ATOM     93  O   UNL A   1      45.555  38.917  28.905  1.00  0.00    -0.237 OA
ATOM     94  O   UNL A   1      45.939  37.337  27.054  1.00  0.00    -0.237 OA
ATOM     95  O   UNL A   1      43.649  38.025  27.624  1.00  0.00    -0.744 OA
ENDBRANCH  89  92
ENDBRANCH  62  85
ENDBRANCH  36  37
ENDBRANCH  28  31
ENDBRANCH  26  27
ENDBRANCH  25  26
ENDBRANCH   1  25
TORSDOF 17
ENDMDL
MODEL 2
REMARK VINA RESULT:     -12.3      5.150      9.974
REMARK SMILES Cc1cc(Cl)cc2c1O[C@H](C(F)(F)F)C(C(=O)NCCCCCCNC(=O)c1ccc(-c3c4nc(c(-c5cccc(S(=O)(=O)[O-])c5F)c5ccc([nH]5)c(-c5cccc(S(=O)(=O)[O-])c5F)c5nc(c(-c6cccc(S(=O)(=O)[O-])c6F)c6ccc3[nH]6)C=C5)C=C4)cc1)=C2
REMARK SMILES IDX 22 1 21 2 20 3 19 4 18 5 16 6 17 7 15 9 1 10 2 11 3 12 8 13
REMARK SMILES IDX 4 14 7 15 9 16 5 17 6 18 91 19 10 20 11 21 12 22 13 23 14 24
REMARK SMILES IDX 23 25 24 26 25 27 26 28 27 30 28 31 29 32 90 33 30 34 89 35
REMARK SMILES IDX 31 36 32 37 33 38 83 39 34 40 88 41 82 42 84 43 35 44 87 45
REMARK SMILES IDX 81 46 80 47 36 49 68 50 48 51 67 52 49 53 52 54 66 55 85 56
REMARK SMILES IDX 50 57 51 58 65 60 86 61 53 62 37 63 38 64 46 65 39 66 41 67
REMARK SMILES IDX 47 68 40 69 42 70 43 71 44 72 45 73 69 74 70 75 78 76 71 77
REMARK SMILES IDX 73 78 79 79 72 80 74 81 75 82 76 83 77 84 54 85 55 86 63 87
REMARK SMILES IDX 56 88 58 89 64 90 57 91 59 92 60 93 61 94 62 95
REMARK H PARENT 18 8 25 29 84 48 52 59
REMARK Flexibility Score: inf
ROOT
ATOM      1  C   UNL A   1      30.994  29.284  23.871  1.00  0.00     0.002 C 
ENDROOT
BRANCH   1   2
ATOM      2  C   UNL A   1      30.278  28.218  23.030  1.00  0.00     0.002 C 
BRANCH   2   3
ATOM      3  C   UNL A   1      29.721  27.024  23.814  1.00  0.00     0.021 C 
BRANCH   3   4
ATOM      4  C   UNL A   1      30.529  25.740  23.648  1.00  0.00     0.116 C 
BRANCH   4   5
ATOM      5  N   UNL A   1      31.455  25.831  22.532  1.00  0.00    -0.352 N 
ATOM      6  C   UNL A   1      32.583  25.205  22.127  1.00  0.00     0.251 C 
ATOM      7  O   UNL A   1      33.055  25.616  21.061  1.00  0.00    -0.270 OA
ATOM      8  H   UNL A   1      31.190  26.539  21.901  1.00  0.00     0.163 HD
BRANCH   6   9
ATOM      9  C   UNL A   1      33.270  24.093  22.854  1.00  0.00     0.067 C 
ATOM     10  C   UNL A   1      36.485  20.915  25.297  1.00  0.00     0.048 C 
ATOM     11  C   UNL A   1      35.107  20.788  24.711  1.00  0.00    -0.007 A 
ATOM     12  C   UNL A   1      34.387  19.594  24.841  1.00  0.00     0.027 A 
ATOM     13  C   UNL A   1      34.503  21.873  24.059  1.00  0.00     0.131 A 
ATOM     14  C   UNL A   1      33.102  19.490  24.309  1.00  0.00     0.042 A 
ATOM     15  C   UNL A   1      33.218  21.768  23.520  1.00  0.00     0.019 A 
ATOM     16  O   UNL A   1      35.246  23.010  23.936  1.00  0.00    -0.475 OA
ATOM     17  Cl  UNL A   1      32.233  18.011  24.465  1.00  0.00    -0.084 Cl
ATOM     18  C   UNL A   1      32.515  20.567  23.645  1.00  0.00     0.032 A 
ATOM     19  C   UNL A   1      32.644  22.902  22.806  1.00  0.00     0.025 C 
ATOM     20  C   UNL A   1      34.539  24.245  23.646  1.00  0.00     0.314 C 
BRANCH  20  21
ATOM     21  C   UNL A   1      34.334  25.026  24.956  1.00  0.00     0.429 C 
ATOM     22  F   UNL A   1      34.340  26.360  24.722  1.00  0.00    -0.167 F 
ATOM     23  F   UNL A   1      33.150  24.743  25.547  1.00  0.00    -0.167 F 
ATOM     24  F   UNL A   1      35.300  24.764  25.865  1.00  0.00    -0.167 F 
ENDBRANCH  20  21
ENDBRANCH   6   9
ENDBRANCH   4   5
ENDBRANCH   3   4
ENDBRANCH   2   3
ENDBRANCH   1   2
BRANCH   1  25
ATOM     25  C   UNL A   1      32.502  29.087  24.045  1.00  0.00     0.021 C 
BRANCH  25  26
ATOM     26  C   UNL A   1      33.028  29.387  25.445  1.00  0.00     0.116 C 
BRANCH  26  27
ATOM     27  N   UNL A   1      32.567  30.674  25.936  1.00  0.00    -0.352 N 
ATOM     28  C   UNL A   1      33.049  31.423  26.979  1.00  0.00     0.251 C 
ATOM     29  H   UNL A   1      31.802  31.064  25.453  1.00  0.00     0.163 HD
ATOM     30  O   UNL A   1      32.419  32.396  27.383  1.00  0.00    -0.269 OA
BRANCH  28  31
ATOM     31  C   UNL A   1      34.323  31.042  27.622  1.00  0.00     0.039 A 
ATOM     32  C   UNL A   1      35.376  31.958  27.633  1.00  0.00     0.014 A 
ATOM     33  C   UNL A   1      34.476  29.782  28.211  1.00  0.00     0.014 A 
ATOM     34  C   UNL A   1      36.571  31.625  28.273  1.00  0.00     0.010 A 
ATOM     35  C   UNL A   1      35.640  29.480  28.908  1.00  0.00     0.010 A 
ATOM     36  C   UNL A   1      36.706  30.391  28.932  1.00  0.00    -0.014 A 
BRANCH  36  37
ATOM     37  C   UNL A   1      37.971  30.036  29.622  1.00  0.00     0.031 A 
ATOM     38  C   UNL A   1      38.259  30.578  30.995  1.00  0.00     0.074 A 
ATOM     39  C   UNL A   1      38.873  29.252  28.999  1.00  0.00     0.049 A 
ATOM     40  N   UNL A   1      39.283  30.342  31.773  1.00  0.00    -0.248 NA
ATOM     41  C   UNL A   1      37.281  31.523  31.564  1.00  0.00     0.031 C 
ATOM     42  C   UNL A   1      38.740  28.729  27.638  1.00  0.00     0.029 A 
ATOM     43  N   UNL A   1      40.082  28.761  29.427  1.00  0.00    -0.354 N 
ATOM     44  C   UNL A   1      39.080  31.114  32.910  1.00  0.00     0.074 A 
ATOM     45  C   UNL A   1      37.865  31.868  32.702  1.00  0.00     0.031 C 
ATOM     46  C   UNL A   1      39.810  27.968  27.353  1.00  0.00     0.029 A 
ATOM     47  C   UNL A   1      40.710  27.959  28.503  1.00  0.00     0.049 A 
ATOM     48  H   UNL A   1      40.463  28.964  30.311  1.00  0.00     0.167 HD
ATOM     49  C   UNL A   1      39.810  31.151  34.048  1.00  0.00     0.034 A 
ATOM     50  C   UNL A   1      41.871  27.277  28.583  1.00  0.00     0.034 A 
ATOM     51  C   UNL A   1      40.985  30.356  34.272  1.00  0.00     0.049 A 
ATOM     52  C   UNL A   1      42.657  27.323  29.866  1.00  0.00     0.074 A 
ATOM     53  C   UNL A   1      41.746  30.256  35.422  1.00  0.00     0.029 A 
ATOM     54  N   UNL A   1      41.569  29.526  33.329  1.00  0.00    -0.354 N 
ATOM     55  N   UNL A   1      42.359  27.924  30.993  1.00  0.00    -0.248 NA
ATOM     56  C   UNL A   1      43.922  26.574  29.903  1.00  0.00     0.031 C 
ATOM     57  C   UNL A   1      42.799  29.374  35.171  1.00  0.00     0.029 A 
ATOM     58  C   UNL A   1      42.689  28.918  33.866  1.00  0.00     0.049 A 
ATOM     59  H   UNL A   1      41.236  29.389  32.413  1.00  0.00     0.167 HD
ATOM     60  C   UNL A   1      43.384  27.608  31.878  1.00  0.00     0.074 A 
ATOM     61  C   UNL A   1      44.299  26.742  31.165  1.00  0.00     0.031 C 
ATOM     62  C   UNL A   1      43.562  28.015  33.159  1.00  0.00     0.034 A 
BRANCH  49  63
ATOM     63  C   UNL A   1      39.308  32.009  35.178  1.00  0.00     0.023 A 
ATOM     64  C   UNL A   1      38.397  31.455  36.101  1.00  0.00     0.012 A 
ATOM     65  C   UNL A   1      39.786  33.317  35.378  1.00  0.00     0.148 A 
ATOM     66  C   UNL A   1      37.949  32.198  37.192  1.00  0.00     0.002 A 
ATOM     67  C   UNL A   1      39.367  34.039  36.490  1.00  0.00     0.091 A 
ATOM     68  F   UNL A   1      40.638  33.832  34.478  1.00  0.00    -0.205 F 
ATOM     69  C   UNL A   1      38.443  33.484  37.393  1.00  0.00     0.022 A 
BRANCH  67  70
ATOM     70  S   UNL A   1      39.993  35.676  36.882  1.00  0.00     0.127 S 
ATOM     71  O   UNL A   1      41.432  35.429  36.967  1.00  0.00    -0.237 OA
ATOM     72  O   UNL A   1      39.575  36.453  35.716  1.00  0.00    -0.237 OA
ATOM     73  O   UNL A   1      39.354  36.061  38.133  1.00  0.00    -0.744 OA
ENDBRANCH  67  70
ENDBRANCH  49  63
BRANCH  50  74
ATOM     74  C   UNL A   1      42.301  26.409  27.449  1.00  0.00     0.023 A 
ATOM     75  C   UNL A   1      43.129  26.953  26.448  1.00  0.00     0.012 A 
ATOM     76  C   UNL A   1      41.945  25.048  27.379  1.00  0.00     0.148 A 
ATOM     77  C   UNL A   1      43.579  26.164  25.388  1.00  0.00     0.002 A 
ATOM     78  C   UNL A   1      42.438  24.255  26.349  1.00  0.00     0.091 A 
ATOM     79  F   UNL A   1      41.144  24.551  28.332  1.00  0.00    -0.205 F 
ATOM     80  C   UNL A   1      43.243  24.813  25.345  1.00  0.00     0.022 A 
BRANCH  78  81
ATOM     81  S   UNL A   1      42.167  22.479  26.286  1.00  0.00     0.127 S 
ATOM     82  O   UNL A   1      42.726  22.045  27.563  1.00  0.00    -0.237 OA
ATOM     83  O   UNL A   1      40.708  22.398  26.191  1.00  0.00    -0.237 OA
ATOM     84  O   UNL A   1      42.869  22.019  25.095  1.00  0.00    -0.744 OA
ENDBRANCH  78  81
ENDBRANCH  50  74
BRANCH  62  85
ATOM     85  C   UNL A   1      44.791  27.549  33.891  1.00  0.00     0.023 A 
ATOM     86  C   UNL A   1      45.933  28.371  33.904  1.00  0.00     0.012 A 
ATOM     87  C   UNL A   1      44.763  26.384  34.684  1.00  0.00     0.148 A 
ATOM     88  C   UNL A   1      47.035  28.040  34.691  1.00  0.00     0.002 A 
ATOM     89  C   UNL A   1      45.848  26.084  35.500  1.00  0.00     0.091 A 
ATOM     90  F   UNL A   1      43.668  25.612  34.645  1.00  0.00    -0.205 F 
ATOM     91  C   UNL A   1      46.986  26.907  35.500  1.00  0.00     0.022 A 
BRANCH  89  92
ATOM     92  S   UNL A   1      45.841  24.707  36.655  1.00  0.00     0.127 S 
ATOM     93  O   UNL A   1      45.748  23.562  35.752  1.00  0.00    -0.237 OA
ATOM     94  O   UNL A   1      47.134  24.858  37.322  1.00  0.00    -0.237 OA
ATOM     95  O   UNL A   1      44.685  24.910  37.518  1.00  0.00    -0.744 OA
ENDBRANCH  89  92
ENDBRANCH  62  85
ENDBRANCH  36  37
ENDBRANCH  28  31
ENDBRANCH  26  27
ENDBRANCH  25  26
ENDBRANCH   1  25
TORSDOF 17
ENDMDL
MODEL 3
REMARK VINA RESULT:     -12.1      5.362      7.727
REMARK SMILES Cc1cc(Cl)cc2c1O[C@H](C(F)(F)F)C(C(=O)NCCCCCCNC(=O)c1ccc(-c3c4nc(c(-c5cccc(S(=O)(=O)[O-])c5F)c5ccc([nH]5)c(-c5cccc(S(=O)(=O)[O-])c5F)c5nc(c(-c6cccc(S(=O)(=O)[O-])c6F)c6ccc3[nH]6)C=C5)C=C4)cc1)=C2
REMARK SMILES IDX 22 1 21 2 20 3 19 4 18 5 16 6 17 7 15 9 1 10 2 11 3 12 8 13
REMARK SMILES IDX 4 14 7 15 9 16 5 17 6 18 91 19 10 20 11 21 12 22 13 23 14 24
REMARK SMILES IDX 23 25 24 26 25 27 26 28 27 30 28 31 29 32 90 33 30 34 89 35
REMARK SMILES IDX 31 36 32 37 33 38 83 39 34 40 88 41 82 42 84 43 35 44 87 45
REMARK SMILES IDX 81 46 80 47 36 49 68 50 48 51 67 52 49 53 52 54 66 55 85 56
REMARK SMILES IDX 50 57 51 58 65 60 86 61 53 62 37 63 38 64 46 65 39 66 41 67
REMARK SMILES IDX 47 68 40 69 42 70 43 71 44 72 45 73 69 74 70 75 78 76 71 77
REMARK SMILES IDX 73 78 79 79 72 80 74 81 75 82 76 83 77 84 54 85 55 86 63 87
REMARK SMILES IDX 56 88 58 89 64 90 57 91 59 92 60 93 61 94 62 95
REMARK H PARENT 18 8 25 29 84 48 52 59
REMARK Flexibility Score: inf
ROOT
ATOM      1  C   UNL A   1      31.455  27.223  25.969  1.00  0.00     0.002 C 
ENDROOT
BRANCH   1   2
ATOM      2  C   UNL A   1      30.310  26.255  25.644  1.00  0.00     0.002 C 
BRANCH   2   3
ATOM      3  C   UNL A   1      30.711  24.991  24.876  1.00  0.00     0.021 C 
BRANCH   3   4
ATOM      4  C   UNL A   1      30.354  25.026  23.392  1.00  0.00     0.116 C 
BRANCH   4   5
ATOM      5  N   UNL A   1      31.476  25.464  22.581  1.00  0.00    -0.352 N 
ATOM      6  C   UNL A   1      32.755  25.081  22.367  1.00  0.00     0.251 C 
ATOM      7  O   UNL A   1      33.376  25.764  21.545  1.00  0.00    -0.270 OA
ATOM      8  H   UNL A   1      31.242  26.253  22.039  1.00  0.00     0.163 HD
BRANCH   6   9
ATOM      9  C   UNL A   1      33.440  23.931  23.034  1.00  0.00     0.067 C 
ATOM     10  C   UNL A   1      36.670  20.596  25.238  1.00  0.00     0.048 C 
ATOM     11  C   UNL A   1      35.260  20.526  24.722  1.00  0.00    -0.007 A 
ATOM     12  C   UNL A   1      34.508  19.354  24.864  1.00  0.00     0.027 A 
ATOM     13  C   UNL A   1      34.659  21.646  24.126  1.00  0.00     0.131 A 
ATOM     14  C   UNL A   1      33.194  19.303  24.397  1.00  0.00     0.042 A 
ATOM     15  C   UNL A   1      33.346  21.595  23.652  1.00  0.00     0.019 A 
ATOM     16  O   UNL A   1      35.433  22.761  23.988  1.00  0.00    -0.475 OA
ATOM     17  Cl  UNL A   1      32.286  17.850  24.567  1.00  0.00    -0.084 Cl
ATOM     18  C   UNL A   1      32.611  20.414  23.788  1.00  0.00     0.032 A 
ATOM     19  C   UNL A   1      32.774  22.762  22.993  1.00  0.00     0.025 C 
ATOM     20  C   UNL A   1      34.753  24.023  23.761  1.00  0.00     0.314 C 
BRANCH  20  21
ATOM     21  C   UNL A   1      34.642  24.781  25.097  1.00  0.00     0.429 C 
ATOM     22  F   UNL A   1      33.624  24.288  25.842  1.00  0.00    -0.167 F 
ATOM     23  F   UNL A   1      35.761  24.669  25.849  1.00  0.00    -0.167 F 
ATOM     24  F   UNL A   1      34.418  26.103  24.919  1.00  0.00    -0.167 F 
ENDBRANCH  20  21
ENDBRANCH   6   9
ENDBRANCH   4   5
ENDBRANCH   3   4
ENDBRANCH   2   3
ENDBRANCH   1   2
BRANCH   1  25
ATOM     25  C   UNL A   1      31.685  28.343  24.950  1.00  0.00     0.021 C 
BRANCH  25  26
ATOM     26  C   UNL A   1      32.811  29.308  25.305  1.00  0.00     0.116 C 
BRANCH  26  27
ATOM     27  N   UNL A   1      32.305  30.597  25.746  1.00  0.00    -0.352 N 
ATOM     28  C   UNL A   1      32.715  31.370  26.801  1.00  0.00     0.251 C 
ATOM     29  H   UNL A   1      31.565  30.967  25.212  1.00  0.00     0.163 HD
ATOM     30  O   UNL A   1      32.050  32.341  27.150  1.00  0.00    -0.269 OA
BRANCH  28  31
ATOM     31  C   UNL A   1      33.955  31.019  27.524  1.00  0.00     0.039 A 
ATOM     32  C   UNL A   1      34.771  32.043  28.006  1.00  0.00     0.014 A 
ATOM     33  C   UNL A   1      34.308  29.680  27.723  1.00  0.00     0.014 A 
ATOM     34  C   UNL A   1      35.923  31.723  28.726  1.00  0.00     0.010 A 
ATOM     35  C   UNL A   1      35.418  29.364  28.500  1.00  0.00     0.010 A 
ATOM     36  C   UNL A   1      36.246  30.382  28.994  1.00  0.00    -0.014 A 
BRANCH  36  37
ATOM     37  C   UNL A   1      37.465  30.037  29.767  1.00  0.00     0.031 A 
ATOM     38  C   UNL A   1      38.513  29.143  29.163  1.00  0.00     0.074 A 
ATOM     39  C   UNL A   1      37.613  30.502  31.023  1.00  0.00     0.049 A 
ATOM     40  N   UNL A   1      39.662  28.770  29.663  1.00  0.00    -0.248 NA
ATOM     41  C   UNL A   1      38.228  28.577  27.832  1.00  0.00     0.031 C 
ATOM     42  C   UNL A   1      36.630  31.314  31.744  1.00  0.00     0.029 A 
ATOM     43  N   UNL A   1      38.643  30.356  31.918  1.00  0.00    -0.354 N 
ATOM     44  C   UNL A   1      40.228  27.922  28.720  1.00  0.00     0.074 A 
ATOM     45  C   UNL A   1      39.275  27.788  27.641  1.00  0.00     0.031 C 
ATOM     46  C   UNL A   1      37.117  31.618  32.958  1.00  0.00     0.029 A 
ATOM     47  C   UNL A   1      38.438  31.014  33.109  1.00  0.00     0.049 A 
ATOM     48  H   UNL A   1      39.453  29.832  31.726  1.00  0.00     0.167 HD
ATOM     49  C   UNL A   1      41.453  27.348  28.725  1.00  0.00     0.034 A 
ATOM     50  C   UNL A   1      39.233  31.132  34.191  1.00  0.00     0.034 A 
ATOM     51  C   UNL A   1      42.417  27.530  29.773  1.00  0.00     0.049 A 
ATOM     52  C   UNL A   1      40.598  30.497  34.166  1.00  0.00     0.074 A 
ATOM     53  C   UNL A   1      43.718  27.062  29.832  1.00  0.00     0.029 A 
ATOM     54  N   UNL A   1      42.189  28.234  30.944  1.00  0.00    -0.354 N 
ATOM     55  N   UNL A   1      41.183  29.840  33.193  1.00  0.00    -0.248 NA
ATOM     56  C   UNL A   1      41.427  30.642  35.373  1.00  0.00     0.031 C 
ATOM     57  C   UNL A   1      44.272  27.474  31.046  1.00  0.00     0.029 A 
ATOM     58  C   UNL A   1      43.320  28.205  31.739  1.00  0.00     0.049 A 
ATOM     59  H   UNL A   1      41.347  28.688  31.176  1.00  0.00     0.167 HD
ATOM     60  C   UNL A   1      42.453  29.516  33.658  1.00  0.00     0.074 A 
ATOM     61  C   UNL A   1      42.562  30.068  34.992  1.00  0.00     0.031 C 
ATOM     62  C   UNL A   1      43.431  28.806  33.045  1.00  0.00     0.034 A 
BRANCH  49  63
ATOM     63  C   UNL A   1      41.859  26.545  27.518  1.00  0.00     0.023 A 
ATOM     64  C   UNL A   1      42.499  27.202  26.447  1.00  0.00     0.012 A 
ATOM     65  C   UNL A   1      41.686  25.149  27.470  1.00  0.00     0.148 A 
ATOM     66  C   UNL A   1      42.940  26.487  25.335  1.00  0.00     0.002 A 
ATOM     67  C   UNL A   1      42.164  24.436  26.377  1.00  0.00     0.091 A 
ATOM     68  F   UNL A   1      41.059  24.547  28.491  1.00  0.00    -0.205 F 
ATOM     69  C   UNL A   1      42.783  25.104  25.305  1.00  0.00     0.022 A 
BRANCH  67  70
ATOM     70  S   UNL A   1      42.078  22.645  26.267  1.00  0.00     0.127 S 
ATOM     71  O   UNL A   1      40.633  22.422  26.234  1.00  0.00    -0.237 OA
ATOM     72  O   UNL A   1      42.766  22.381  25.004  1.00  0.00    -0.237 OA
ATOM     73  O   UNL A   1      42.758  22.138  27.450  1.00  0.00    -0.744 OA
ENDBRANCH  67  70
ENDBRANCH  49  63
BRANCH  50  74
ATOM     74  C   UNL A   1      38.799  31.974  35.343  1.00  0.00     0.023 A 
ATOM     75  C   UNL A   1      38.913  33.374  35.246  1.00  0.00     0.012 A 
ATOM     76  C   UNL A   1      38.231  31.410  36.503  1.00  0.00     0.148 A 
ATOM     77  C   UNL A   1      38.487  34.198  36.290  1.00  0.00     0.002 A 
ATOM     78  C   UNL A   1      37.763  32.238  37.517  1.00  0.00     0.091 A 
ATOM     79  F   UNL A   1      38.146  30.075  36.583  1.00  0.00    -0.205 F 
ATOM     80  C   UNL A   1      37.902  33.631  37.419  1.00  0.00     0.022 A 
BRANCH  78  81
ATOM     81  S   UNL A   1      36.877  31.604  38.946  1.00  0.00     0.127 S 
ATOM     82  O   UNL A   1      37.879  31.732  40.001  1.00  0.00    -0.237 OA
ATOM     83  O   UNL A   1      35.753  32.536  39.046  1.00  0.00    -0.237 OA
ATOM     84  O   UNL A   1      36.494  30.242  38.596  1.00  0.00    -0.744 OA
ENDBRANCH  78  81
ENDBRANCH  50  74
BRANCH  62  85
ATOM     85  C   UNL A   1      44.713  28.565  33.794  1.00  0.00     0.023 A 
ATOM     86  C   UNL A   1      45.740  29.526  33.719  1.00  0.00     0.012 A 
ATOM     87  C   UNL A   1      44.841  27.478  34.682  1.00  0.00     0.148 A 
ATOM     88  C   UNL A   1      46.879  29.407  34.514  1.00  0.00     0.002 A 
ATOM     89  C   UNL A   1      45.959  27.391  35.503  1.00  0.00     0.091 A 
ATOM     90  F   UNL A   1      43.854  26.572  34.727  1.00  0.00    -0.205 F 
ATOM     91  C   UNL A   1      46.981  28.350  35.416  1.00  0.00     0.022 A 
BRANCH  89  92
ATOM     92  S   UNL A   1      46.136  26.129  36.770  1.00  0.00     0.127 S 
ATOM     93  O   UNL A   1      44.944  26.357  37.586  1.00  0.00    -0.237 OA
ATOM     94  O   UNL A   1      46.111  24.897  35.983  1.00  0.00    -0.237 OA
ATOM     95  O   UNL A   1      47.403  26.400  37.436  1.00  0.00    -0.744 OA
ENDBRANCH  89  92
ENDBRANCH  62  85
ENDBRANCH  36  37
ENDBRANCH  28  31
ENDBRANCH  26  27
ENDBRANCH  25  26
ENDBRANCH   1  25
TORSDOF 17
ENDMDL
