MODEL 1
REMARK VINA RESULT:     -10.5      0.000      0.000
REMARK SMILES CC(C)N(c1cc2c(cc1Cl)C=C(C(=O)NCCCCCCNC(=O)c1ccc(-c3c4nc(c(-c5cccc(S(=O)(=O)[O-])c5F)c5ccc([nH]5)c(-c5cccc(S(=O)(=O)[O-])c5F)c5nc(c(-c6cccc(S(=O)(=O)[O-])c6F)c6ccc3[nH]6)C=C5)C=C4)cc1)[C@@H](C(F)(F)F)O2)C(C)C
REMARK SMILES IDX 20 1 19 2 18 3 17 4 16 5 14 6 15 7 13 9 5 10 6 11 10 12 7 13
REMARK SMILES IDX 9 14 11 15 8 16 94 17 12 18 89 19 4 20 2 21 1 22 3 23 95 24
REMARK SMILES IDX 96 25 97 26 90 27 91 28 92 29 93 30 21 31 22 32 23 33 24 34
REMARK SMILES IDX 25 36 26 37 27 38 88 39 28 40 87 41 29 42 30 43 31 44 81 45
REMARK SMILES IDX 32 46 86 47 80 48 82 49 33 50 85 51 79 52 78 53 34 55 66 56
REMARK SMILES IDX 46 57 65 58 47 59 50 60 64 61 83 62 48 63 49 64 63 66 84 67
REMARK SMILES IDX 51 68 35 69 36 70 44 71 37 72 39 73 45 74 38 75 40 76 41 77
REMARK SMILES IDX 42 78 43 79 67 80 68 81 76 82 69 83 71 84 77 85 70 86 72 87
REMARK SMILES IDX 73 88 74 89 75 90 52 91 53 92 61 93 54 94 56 95 62 96 55 97
REMARK SMILES IDX 57 98 58 99 59 100 60 101
REMARK H PARENT 16 8 23 35 82 54 50 65
REMARK Flexibility Score: inf
ROOT
ATOM      1  C   UNL A   1      40.923  20.885  26.686  1.00  0.00     0.002 C 
ENDROOT
BRANCH   1   2
ATOM      2  C   UNL A   1      39.663  21.595  26.172  1.00  0.00     0.002 C 
BRANCH   2   3
ATOM      3  C   UNL A   1      38.539  20.680  25.674  1.00  0.00     0.021 C 
BRANCH   3   4
ATOM      4  C   UNL A   1      37.292  21.419  25.196  1.00  0.00     0.116 C 
BRANCH   4   5
ATOM      5  N   UNL A   1      36.183  20.510  24.963  1.00  0.00    -0.352 N 
ATOM      6  C   UNL A   1      34.836  20.588  24.860  1.00  0.00     0.251 C 
ATOM      7  O   UNL A   1      34.269  19.516  24.624  1.00  0.00    -0.270 OA
ATOM      8  H   UNL A   1      36.496  19.584  24.848  1.00  0.00     0.163 HD
BRANCH   6   9
ATOM      9  C   UNL A   1      34.021  21.832  25.010  1.00  0.00     0.067 C 
ATOM     10  C   UNL A   1      31.949  26.421  24.343  1.00  0.00     0.060 A 
ATOM     11  C   UNL A   1      31.647  25.284  25.113  1.00  0.00     0.074 A 
ATOM     12  C   UNL A   1      33.065  26.322  23.479  1.00  0.00     0.065 A 
ATOM     13  C   UNL A   1      32.418  24.124  25.044  1.00  0.00     0.130 A 
ATOM     14  C   UNL A   1      33.812  25.135  23.378  1.00  0.00     0.034 A 
ATOM     15  Cl  UNL A   1      33.644  27.665  22.546  1.00  0.00    -0.082 Cl
ATOM     16  C   UNL A   1      33.490  24.033  24.165  1.00  0.00     0.019 A 
ATOM     17  O   UNL A   1      32.038  23.092  25.850  1.00  0.00    -0.475 OA
ATOM     18  C   UNL A   1      34.227  22.778  24.073  1.00  0.00     0.025 C 
ATOM     19  C   UNL A   1      33.055  22.092  26.133  1.00  0.00     0.314 C 
BRANCH  10  20
ATOM     20  N   UNL A   1      31.148  27.573  24.474  1.00  0.00    -0.365 N 
BRANCH  20  21
ATOM     21  C   UNL A   1      31.507  28.500  25.570  1.00  0.00     0.076 C 
ATOM     22  C   UNL A   1      31.402  27.861  26.954  1.00  0.00     0.030 C 
ATOM     23  C   UNL A   1      32.869  29.160  25.375  1.00  0.00     0.030 C 
ENDBRANCH  20  21
BRANCH  20  24
ATOM     24  C   UNL A   1      30.206  27.849  23.364  1.00  0.00     0.076 C 
ATOM     25  C   UNL A   1      28.896  27.078  23.500  1.00  0.00     0.030 C 
ATOM     26  C   UNL A   1      29.948  29.334  23.124  1.00  0.00     0.030 C 
ENDBRANCH  20  24
ENDBRANCH  10  20
BRANCH  19  27
ATOM     27  C   UNL A   1      33.772  22.443  27.451  1.00  0.00     0.429 C 
ATOM     28  F   UNL A   1      34.396  21.355  27.962  1.00  0.00    -0.167 F 
ATOM     29  F   UNL A   1      34.725  23.389  27.282  1.00  0.00    -0.167 F 
ATOM     30  F   UNL A   1      32.921  22.907  28.395  1.00  0.00    -0.167 F 
ENDBRANCH  19  27
ENDBRANCH   6   9
ENDBRANCH   4   5
ENDBRANCH   3   4
ENDBRANCH   2   3
ENDBRANCH   1   2
BRANCH   1  31
ATOM     31  C   UNL A   1      41.159  19.473  26.148  1.00  0.00     0.021 C 
BRANCH  31  32
ATOM     32  C   UNL A   1      42.542  18.899  26.429  1.00  0.00     0.116 C 
BRANCH  32  33
ATOM     33  N   UNL A   1      43.366  18.809  25.235  1.00  0.00    -0.352 N 
ATOM     34  C   UNL A   1      44.049  19.812  24.588  1.00  0.00     0.251 C 
ATOM     35  H   UNL A   1      43.444  17.912  24.836  1.00  0.00     0.163 HD
ATOM     36  O   UNL A   1      44.590  19.594  23.507  1.00  0.00    -0.269 OA
BRANCH  34  37
ATOM     37  C   UNL A   1      44.092  21.160  25.193  1.00  0.00     0.039 A 
ATOM     38  C   UNL A   1      43.503  22.246  24.538  1.00  0.00     0.014 A 
ATOM     39  C   UNL A   1      44.778  21.347  26.395  1.00  0.00     0.014 A 
ATOM     40  C   UNL A   1      43.731  23.535  25.006  1.00  0.00     0.010 A 
ATOM     41  C   UNL A   1      44.946  22.639  26.900  1.00  0.00     0.010 A 
ATOM     42  C   UNL A   1      44.465  23.748  26.185  1.00  0.00    -0.014 A 
BRANCH  42  43
ATOM     43  C   UNL A   1      44.719  25.135  26.655  1.00  0.00     0.031 A 
ATOM     44  C   UNL A   1      46.051  25.798  26.424  1.00  0.00     0.074 A 
ATOM     45  C   UNL A   1      43.731  25.806  27.278  1.00  0.00     0.049 A 
ATOM     46  N   UNL A   1      46.441  26.995  26.779  1.00  0.00    -0.248 NA
ATOM     47  C   UNL A   1      47.079  25.025  25.707  1.00  0.00     0.031 C 
ATOM     48  C   UNL A   1      42.407  25.263  27.584  1.00  0.00     0.029 A 
ATOM     49  N   UNL A   1      43.686  27.088  27.765  1.00  0.00    -0.354 N 
ATOM     50  C   UNL A   1      47.767  27.102  26.376  1.00  0.00     0.074 A 
ATOM     51  C   UNL A   1      48.117  25.852  25.738  1.00  0.00     0.031 C 
ATOM     52  C   UNL A   1      41.672  26.209  28.188  1.00  0.00     0.029 A 
ATOM     53  C   UNL A   1      42.484  27.410  28.351  1.00  0.00     0.049 A 
ATOM     54  H   UNL A   1      44.441  27.716  27.702  1.00  0.00     0.167 HD
ATOM     55  C   UNL A   1      48.609  28.152  26.512  1.00  0.00     0.034 A 
ATOM     56  C   UNL A   1      42.081  28.540  28.964  1.00  0.00     0.034 A 
ATOM     57  C   UNL A   1      48.244  29.418  27.086  1.00  0.00     0.049 A 
ATOM     58  C   UNL A   1      43.020  29.707  29.051  1.00  0.00     0.074 A 
ATOM     59  C   UNL A   1      49.024  30.554  27.220  1.00  0.00     0.029 A 
ATOM     60  N   UNL A   1      46.998  29.721  27.611  1.00  0.00    -0.354 N 
ATOM     61  N   UNL A   1      44.242  29.811  28.588  1.00  0.00    -0.248 NA
ATOM     62  C   UNL A   1      42.524  30.917  29.721  1.00  0.00     0.031 C 
ATOM     63  C   UNL A   1      48.247  31.548  27.820  1.00  0.00     0.029 A 
ATOM     64  C   UNL A   1      46.985  31.030  28.060  1.00  0.00     0.049 A 
ATOM     65  H   UNL A   1      46.237  29.099  27.657  1.00  0.00     0.167 HD
ATOM     66  C   UNL A   1      44.656  31.099  28.899  1.00  0.00     0.074 A 
ATOM     67  C   UNL A   1      43.548  31.748  29.570  1.00  0.00     0.031 C 
ATOM     68  C   UNL A   1      45.857  31.681  28.669  1.00  0.00     0.034 A 
BRANCH  55  69
ATOM     69  C   UNL A   1      50.009  28.023  25.981  1.00  0.00     0.023 A 
ATOM     70  C   UNL A   1      50.277  28.410  24.654  1.00  0.00     0.012 A 
ATOM     71  C   UNL A   1      51.073  27.661  26.831  1.00  0.00     0.148 A 
ATOM     72  C   UNL A   1      51.588  28.444  24.179  1.00  0.00     0.002 A 
ATOM     73  C   UNL A   1      52.378  27.721  26.358  1.00  0.00     0.091 A 
ATOM     74  F   UNL A   1      50.787  27.293  28.088  1.00  0.00    -0.205 F 
ATOM     75  C   UNL A   1      52.637  28.110  25.032  1.00  0.00     0.022 A 
BRANCH  73  76
ATOM     76  S   UNL A   1      53.808  27.368  27.387  1.00  0.00     0.127 S 
ATOM     77  O   UNL A   1      53.763  25.908  27.463  1.00  0.00    -0.237 OA
ATOM     78  O   UNL A   1      54.904  27.902  26.580  1.00  0.00    -0.237 OA
ATOM     79  O   UNL A   1      53.578  28.055  28.650  1.00  0.00    -0.744 OA
ENDBRANCH  73  76
ENDBRANCH  55  69
BRANCH  56  80
ATOM     80  C   UNL A   1      40.696  28.619  29.500  1.00  0.00     0.023 A 
ATOM     81  C   UNL A   1      40.428  28.141  30.796  1.00  0.00     0.012 A 
ATOM     82  C   UNL A   1      39.668  29.237  28.764  1.00  0.00     0.148 A 
ATOM     83  C   UNL A   1      39.154  28.272  31.349  1.00  0.00     0.002 A 
ATOM     84  C   UNL A   1      38.415  29.408  29.339  1.00  0.00     0.091 A 
ATOM     85  F   UNL A   1      39.945  29.669  27.526  1.00  0.00    -0.205 F 
ATOM     86  C   UNL A   1      38.152  28.917  30.627  1.00  0.00     0.022 A 
BRANCH  84  87
ATOM     87  S   UNL A   1      37.110  30.342  28.531  1.00  0.00     0.127 S 
ATOM     88  O   UNL A   1      37.644  31.700  28.576  1.00  0.00    -0.237 OA
ATOM     89  O   UNL A   1      37.079  29.734  27.200  1.00  0.00    -0.237 OA
ATOM     90  O   UNL A   1      35.911  30.104  29.324  1.00  0.00    -0.744 OA
ENDBRANCH  84  87
ENDBRANCH  56  80
BRANCH  68  91
ATOM     91  C   UNL A   1      46.052  33.099  29.126  1.00  0.00     0.023 A 
ATOM     92  C   UNL A   1      46.603  33.341  30.397  1.00  0.00     0.012 A 
ATOM     93  C   UNL A   1      45.806  34.175  28.253  1.00  0.00     0.148 A 
ATOM     94  C   UNL A   1      46.903  34.642  30.799  1.00  0.00     0.002 A 
ATOM     95  C   UNL A   1      46.135  35.466  28.648  1.00  0.00     0.091 A 
ATOM     96  F   UNL A   1      45.266  33.915  27.054  1.00  0.00    -0.205 F 
ATOM     97  C   UNL A   1      46.680  35.701  29.921  1.00  0.00     0.022 A 
BRANCH  95  98
ATOM     98  S   UNL A   1      45.953  36.883  27.559  1.00  0.00     0.127 S 
ATOM     99  O   UNL A   1      46.407  37.977  28.417  1.00  0.00    -0.237 OA
ATOM    100  O   UNL A   1      46.861  36.550  26.461  1.00  0.00    -0.237 OA
ATOM    101  O   UNL A   1      44.546  36.925  27.186  1.00  0.00    -0.744 OA
ENDBRANCH  95  98
ENDBRANCH  68  91
ENDBRANCH  42  43
ENDBRANCH  34  37
ENDBRANCH  32  33
ENDBRANCH  31  32
ENDBRANCH   1  31
TORSDOF 20
ENDMDL
MODEL 2
REMARK VINA RESULT:     -10.4      1.580      7.360
REMARK SMILES CC(C)N(c1cc2c(cc1Cl)C=C(C(=O)NCCCCCCNC(=O)c1ccc(-c3c4nc(c(-c5cccc(S(=O)(=O)[O-])c5F)c5ccc([nH]5)c(-c5cccc(S(=O)(=O)[O-])c5F)c5nc(c(-c6cccc(S(=O)(=O)[O-])c6F)c6ccc3[nH]6)C=C5)C=C4)cc1)[C@@H](C(F)(F)F)O2)C(C)C
REMARK SMILES IDX 20 1 19 2 18 3 17 4 16 5 14 6 15 7 13 9 5 10 6 11 10 12 7 13
REMARK SMILES IDX 9 14 11 15 8 16 94 17 12 18 89 19 4 20 2 21 1 22 3 23 95 24
REMARK SMILES IDX 96 25 97 26 90 27 91 28 92 29 93 30 21 31 22 32 23 33 24 34
REMARK SMILES IDX 25 36 26 37 27 38 88 39 28 40 87 41 29 42 30 43 31 44 81 45
REMARK SMILES IDX 32 46 86 47 80 48 82 49 33 50 85 51 79 52 78 53 34 55 66 56
REMARK SMILES IDX 46 57 65 58 47 59 50 60 64 61 83 62 48 63 49 64 63 66 84 67
REMARK SMILES IDX 51 68 35 69 36 70 44 71 37 72 39 73 45 74 38 75 40 76 41 77
REMARK SMILES IDX 42 78 43 79 67 80 68 81 76 82 69 83 71 84 77 85 70 86 72 87
REMARK SMILES IDX 73 88 74 89 75 90 52 91 53 92 61 93 54 94 56 95 62 96 55 97
REMARK SMILES IDX 57 98 58 99 59 100 60 101
REMARK H PARENT 16 8 23 35 82 54 50 65
REMARK Flexibility Score: inf
ROOT
ATOM      1  C   UNL A   1      41.145  21.138  26.297  1.00  0.00     0.002 C 
ENDROOT
BRANCH   1   2
ATOM      2  C   UNL A   1      39.663  21.519  26.413  1.00  0.00     0.002 C 
BRANCH   2   3
ATOM      3  C   UNL A   1      38.698  20.714  25.537  1.00  0.00     0.021 C 
BRANCH   3   4
ATOM      4  C   UNL A   1      37.428  21.466  25.146  1.00  0.00     0.116 C 
BRANCH   4   5
ATOM      5  N   UNL A   1      36.321  20.560  24.893  1.00  0.00    -0.352 N 
ATOM      6  C   UNL A   1      34.974  20.635  24.799  1.00  0.00     0.251 C 
ATOM      7  O   UNL A   1      34.409  19.568  24.534  1.00  0.00    -0.270 OA
ATOM      8  H   UNL A   1      36.638  19.639  24.749  1.00  0.00     0.163 HD
BRANCH   6   9
ATOM      9  C   UNL A   1      34.154  21.870  24.989  1.00  0.00     0.067 C 
ATOM     10  C   UNL A   1      32.075  26.476  24.478  1.00  0.00     0.060 A 
ATOM     11  C   UNL A   1      31.770  25.311  25.203  1.00  0.00     0.074 A 
ATOM     12  C   UNL A   1      33.197  26.412  23.619  1.00  0.00     0.065 A 
ATOM     13  C   UNL A   1      32.544  24.156  25.097  1.00  0.00     0.130 A 
ATOM     14  C   UNL A   1      33.947  25.232  23.479  1.00  0.00     0.034 A 
ATOM     15  Cl  UNL A   1      33.779  27.790  22.741  1.00  0.00    -0.082 Cl
ATOM     16  C   UNL A   1      33.623  24.099  24.222  1.00  0.00     0.019 A 
ATOM     17  O   UNL A   1      32.162  23.094  25.861  1.00  0.00    -0.475 OA
ATOM     18  C   UNL A   1      34.364  22.851  24.089  1.00  0.00     0.025 C 
ATOM     19  C   UNL A   1      33.179  22.087  26.114  1.00  0.00     0.314 C 
BRANCH  10  20
ATOM     20  N   UNL A   1      31.269  27.621  24.646  1.00  0.00    -0.365 N 
BRANCH  20  21
ATOM     21  C   UNL A   1      30.031  27.676  23.838  1.00  0.00     0.076 C 
ATOM     22  C   UNL A   1      30.291  27.975  22.363  1.00  0.00     0.030 C 
ATOM     23  C   UNL A   1      29.155  26.436  23.998  1.00  0.00     0.030 C 
ENDBRANCH  20  21
BRANCH  20  24
ATOM     24  C   UNL A   1      31.619  28.510  25.779  1.00  0.00     0.076 C 
ATOM     25  C   UNL A   1      31.654  27.771  27.114  1.00  0.00     0.030 C 
ATOM     26  C   UNL A   1      32.895  29.317  25.562  1.00  0.00     0.030 C 
ENDBRANCH  20  24
ENDBRANCH  10  20
BRANCH  19  27
ATOM     27  C   UNL A   1      33.886  22.389  27.449  1.00  0.00     0.429 C 
ATOM     28  F   UNL A   1      32.983  22.691  28.413  1.00  0.00    -0.167 F 
ATOM     29  F   UNL A   1      34.597  21.331  27.906  1.00  0.00    -0.167 F 
ATOM     30  F   UNL A   1      34.746  23.429  27.355  1.00  0.00    -0.167 F 
ENDBRANCH  19  27
ENDBRANCH   6   9
ENDBRANCH   4   5
ENDBRANCH   3   4
ENDBRANCH   2   3
ENDBRANCH   1   2
BRANCH   1  31
ATOM     31  C   UNL A   1      41.432  19.713  25.822  1.00  0.00     0.021 C 
BRANCH  31  32
ATOM     32  C   UNL A   1      42.754  19.127  26.300  1.00  0.00     0.116 C 
BRANCH  32  33
ATOM     33  N   UNL A   1      43.687  18.884  25.211  1.00  0.00    -0.352 N 
ATOM     34  C   UNL A   1      44.483  19.788  24.547  1.00  0.00     0.251 C 
ATOM     35  H   UNL A   1      43.756  17.950  24.909  1.00  0.00     0.163 HD
ATOM     36  O   UNL A   1      45.116  19.441  23.554  1.00  0.00    -0.269 OA
BRANCH  34  37
ATOM     37  C   UNL A   1      44.536  21.186  25.024  1.00  0.00     0.039 A 
ATOM     38  C   UNL A   1      44.243  22.240  24.153  1.00  0.00     0.014 A 
ATOM     39  C   UNL A   1      44.940  21.445  26.336  1.00  0.00     0.014 A 
ATOM     40  C   UNL A   1      44.502  23.548  24.548  1.00  0.00     0.010 A 
ATOM     41  C   UNL A   1      45.132  22.766  26.751  1.00  0.00     0.010 A 
ATOM     42  C   UNL A   1      44.960  23.825  25.846  1.00  0.00    -0.014 A 
BRANCH  42  43
ATOM     43  C   UNL A   1      45.253  25.228  26.240  1.00  0.00     0.031 A 
ATOM     44  C   UNL A   1      44.164  26.130  26.757  1.00  0.00     0.074 A 
ATOM     45  C   UNL A   1      46.517  25.684  26.147  1.00  0.00     0.049 A 
ATOM     46  N   UNL A   1      44.246  27.381  27.132  1.00  0.00    -0.248 NA
ATOM     47  C   UNL A   1      42.809  25.563  26.868  1.00  0.00     0.031 C 
ATOM     48  C   UNL A   1      47.654  24.916  25.636  1.00  0.00     0.029 A 
ATOM     49  N   UNL A   1      47.059  26.901  26.478  1.00  0.00    -0.354 N 
ATOM     50  C   UNL A   1      42.954  27.764  27.474  1.00  0.00     0.074 A 
ATOM     51  C   UNL A   1      42.104  26.612  27.274  1.00  0.00     0.031 C 
ATOM     52  C   UNL A   1      48.761  25.671  25.706  1.00  0.00     0.029 A 
ATOM     53  C   UNL A   1      48.408  26.988  26.225  1.00  0.00     0.049 A 
ATOM     54  H   UNL A   1      46.533  27.640  26.859  1.00  0.00     0.167 HD
ATOM     55  C   UNL A   1      42.522  28.964  27.928  1.00  0.00     0.034 A 
ATOM     56  C   UNL A   1      49.266  28.015  26.379  1.00  0.00     0.034 A 
ATOM     57  C   UNL A   1      43.376  30.090  28.190  1.00  0.00     0.049 A 
ATOM     58  C   UNL A   1      48.767  29.315  26.936  1.00  0.00     0.074 A 
ATOM     59  C   UNL A   1      43.025  31.329  28.696  1.00  0.00     0.029 A 
ATOM     60  N   UNL A   1      44.745  30.113  27.978  1.00  0.00    -0.354 N 
ATOM     61  N   UNL A   1      47.556  29.626  27.329  1.00  0.00    -0.248 NA
ATOM     62  C   UNL A   1      49.748  30.398  27.093  1.00  0.00     0.031 C 
ATOM     63  C   UNL A   1      44.185  32.102  28.798  1.00  0.00     0.029 A 
ATOM     64  C   UNL A   1      45.255  31.343  28.354  1.00  0.00     0.049 A 
ATOM     65  H   UNL A   1      45.274  29.368  27.615  1.00  0.00     0.167 HD
ATOM     66  C   UNL A   1      47.632  30.934  27.791  1.00  0.00     0.074 A 
ATOM     67  C   UNL A   1      49.012  31.351  27.651  1.00  0.00     0.031 C 
ATOM     68  C   UNL A   1      46.639  31.723  28.266  1.00  0.00     0.034 A 
BRANCH  55  69
ATOM     69  C   UNL A   1      41.061  29.129  28.238  1.00  0.00     0.023 A 
ATOM     70  C   UNL A   1      40.155  29.336  27.179  1.00  0.00     0.012 A 
ATOM     71  C   UNL A   1      40.573  28.934  29.545  1.00  0.00     0.148 A 
ATOM     72  C   UNL A   1      38.781  29.343  27.416  1.00  0.00     0.002 A 
ATOM     73  C   UNL A   1      39.202  28.917  29.769  1.00  0.00     0.091 A 
ATOM     74  F   UNL A   1      41.459  28.743  30.533  1.00  0.00    -0.205 F 
ATOM     75  C   UNL A   1      38.305  29.124  28.707  1.00  0.00     0.022 A 
BRANCH  73  76
ATOM     76  S   UNL A   1      38.479  28.588  31.380  1.00  0.00     0.127 S 
ATOM     77  O   UNL A   1      37.085  28.974  31.163  1.00  0.00    -0.237 OA
ATOM     78  O   UNL A   1      38.697  27.149  31.524  1.00  0.00    -0.237 OA
ATOM     79  O   UNL A   1      39.205  29.421  32.328  1.00  0.00    -0.744 OA
ENDBRANCH  73  76
ENDBRANCH  55  69
BRANCH  56  80
ATOM     80  C   UNL A   1      50.700  27.819  26.036  1.00  0.00     0.023 A 
ATOM     81  C   UNL A   1      51.613  27.478  27.051  1.00  0.00     0.012 A 
ATOM     82  C   UNL A   1      51.142  27.889  24.702  1.00  0.00     0.148 A 
ATOM     83  C   UNL A   1      52.948  27.217  26.742  1.00  0.00     0.002 A 
ATOM     84  C   UNL A   1      52.461  27.581  24.395  1.00  0.00     0.091 A 
ATOM     85  F   UNL A   1      50.256  28.232  23.756  1.00  0.00    -0.205 F 
ATOM     86  C   UNL A   1      53.369  27.254  25.415  1.00  0.00     0.022 A 
BRANCH  84  87
ATOM     87  S   UNL A   1      53.053  27.476  22.701  1.00  0.00     0.127 S 
ATOM     88  O   UNL A   1      54.322  28.193  22.785  1.00  0.00    -0.237 OA
ATOM     89  O   UNL A   1      53.171  26.030  22.509  1.00  0.00    -0.237 OA
ATOM     90  O   UNL A   1      52.020  28.104  21.889  1.00  0.00    -0.744 OA
ENDBRANCH  84  87
ENDBRANCH  56  80
BRANCH  68  91
ATOM     91  C   UNL A   1      46.992  33.120  28.691  1.00  0.00     0.023 A 
ATOM     92  C   UNL A   1      47.398  33.351  30.018  1.00  0.00     0.012 A 
ATOM     93  C   UNL A   1      47.039  34.167  27.752  1.00  0.00     0.148 A 
ATOM     94  C   UNL A   1      47.843  34.614  30.408  1.00  0.00     0.002 A 
ATOM     95  C   UNL A   1      47.512  35.415  28.140  1.00  0.00     0.091 A 
ATOM     96  F   UNL A   1      46.633  33.920  26.498  1.00  0.00    -0.205 F 
ATOM     97  C   UNL A   1      47.911  35.640  29.468  1.00  0.00     0.022 A 
BRANCH  95  98
ATOM     98  S   UNL A   1      47.705  36.775  26.983  1.00  0.00     0.127 S 
ATOM     99  O   UNL A   1      46.319  37.032  26.594  1.00  0.00    -0.237 OA
ATOM    100  O   UNL A   1      48.308  37.813  27.820  1.00  0.00    -0.237 OA
ATOM    101  O   UNL A   1      48.569  36.279  25.920  1.00  0.00    -0.744 OA
ENDBRANCH  95  98
ENDBRANCH  68  91
ENDBRANCH  42  43
ENDBRANCH  34  37
ENDBRANCH  32  33
ENDBRANCH  31  32
ENDBRANCH   1  31
TORSDOF 20
ENDMDL
MODEL 3
REMARK VINA RESULT:     -10.3      1.728      7.563
REMARK SMILES CC(C)N(c1cc2c(cc1Cl)C=C(C(=O)NCCCCCCNC(=O)c1ccc(-c3c4nc(c(-c5cccc(S(=O)(=O)[O-])c5F)c5ccc([nH]5)c(-c5cccc(S(=O)(=O)[O-])c5F)c5nc(c(-c6cccc(S(=O)(=O)[O-])c6F)c6ccc3[nH]6)C=C5)C=C4)cc1)[C@@H](C(F)(F)F)O2)C(C)C
REMARK SMILES IDX 20 1 19 2 18 3 17 4 16 5 14 6 15 7 13 9 5 10 6 11 10 12 7 13
REMARK SMILES IDX 9 14 11 15 8 16 94 17 12 18 89 19 4 20 2 21 1 22 3 23 95 24
REMARK SMILES IDX 96 25 97 26 90 27 91 28 92 29 93 30 21 31 22 32 23 33 24 34
REMARK SMILES IDX 25 36 26 37 27 38 88 39 28 40 87 41 29 42 30 43 31 44 81 45
REMARK SMILES IDX 32 46 86 47 80 48 82 49 33 50 85 51 79 52 78 53 34 55 66 56
REMARK SMILES IDX 46 57 65 58 47 59 50 60 64 61 83 62 48 63 49 64 63 66 84 67
REMARK SMILES IDX 51 68 35 69 36 70 44 71 37 72 39 73 45 74 38 75 40 76 41 77
REMARK SMILES IDX 42 78 43 79 67 80 68 81 76 82 69 83 71 84 77 85 70 86 72 87
REMARK SMILES IDX 73 88 74 89 75 90 52 91 53 92 61 93 54 94 56 95 62 96 55 97
REMARK SMILES IDX 57 98 58 99 59 100 60 101
REMARK H PARENT 16 8 23 35 82 54 50 65
REMARK Flexibility Score: inf
ROOT
ATOM      1  C   UNL A   1      40.716  21.808  27.360  1.00  0.00     0.002 C 
ENDROOT
BRANCH   1   2
ATOM      2  C   UNL A   1      39.556  22.378  26.532  1.00  0.00     0.002 C 
BRANCH   2   3
ATOM      3  C   UNL A   1      38.770  21.361  25.698  1.00  0.00     0.021 C 
BRANCH   3   4
ATOM      4  C   UNL A   1      37.638  21.966  24.872  1.00  0.00     0.116 C 
BRANCH   4   5
ATOM      5  N   UNL A   1      36.391  21.243  25.054  1.00  0.00    -0.352 N 
ATOM      6  C   UNL A   1      35.067  21.504  24.967  1.00  0.00     0.251 C 
ATOM      7  O   UNL A   1      34.330  20.538  25.194  1.00  0.00    -0.270 OA
ATOM      8  H   UNL A   1      36.555  20.306  25.309  1.00  0.00     0.163 HD
BRANCH   6   9
ATOM      9  C   UNL A   1      34.459  22.827  24.631  1.00  0.00     0.067 C 
ATOM     10  C   UNL A   1      32.309  27.421  24.897  1.00  0.00     0.060 A 
ATOM     11  C   UNL A   1      32.964  26.674  23.902  1.00  0.00     0.074 A 
ATOM     12  C   UNL A   1      32.232  26.834  26.182  1.00  0.00     0.065 A 
ATOM     13  C   UNL A   1      33.494  25.411  24.162  1.00  0.00     0.130 A 
ATOM     14  C   UNL A   1      32.809  25.581  26.451  1.00  0.00     0.034 A 
ATOM     15  Cl  UNL A   1      31.361  27.567  27.491  1.00  0.00    -0.082 Cl
ATOM     16  C   UNL A   1      33.440  24.864  25.438  1.00  0.00     0.019 A 
ATOM     17  O   UNL A   1      34.092  24.774  23.115  1.00  0.00    -0.475 OA
ATOM     18  C   UNL A   1      34.069  23.572  25.684  1.00  0.00     0.025 C 
ATOM     19  C   UNL A   1      34.225  23.332  23.234  1.00  0.00     0.314 C 
BRANCH  10  20
ATOM     20  N   UNL A   1      31.771  28.682  24.568  1.00  0.00    -0.365 N 
BRANCH  20  21
ATOM     21  C   UNL A   1      30.438  28.678  23.926  1.00  0.00     0.076 C 
ATOM     22  C   UNL A   1      30.439  29.315  22.538  1.00  0.00     0.030 C 
ATOM     23  C   UNL A   1      29.793  27.295  23.892  1.00  0.00     0.030 C 
ENDBRANCH  20  21
BRANCH  20  24
ATOM     24  C   UNL A   1      32.477  29.862  25.118  1.00  0.00     0.076 C 
ATOM     25  C   UNL A   1      31.589  30.705  26.029  1.00  0.00     0.030 C 
ATOM     26  C   UNL A   1      33.803  29.531  25.796  1.00  0.00     0.030 C 
ENDBRANCH  20  24
ENDBRANCH  10  20
BRANCH  19  27
ATOM     27  C   UNL A   1      33.024  22.644  22.557  1.00  0.00     0.429 C 
ATOM     28  F   UNL A   1      33.059  22.826  21.215  1.00  0.00    -0.167 F 
ATOM     29  F   UNL A   1      33.015  21.305  22.762  1.00  0.00    -0.167 F 
ATOM     30  F   UNL A   1      31.838  23.117  23.004  1.00  0.00    -0.167 F 
ENDBRANCH  19  27
ENDBRANCH   6   9
ENDBRANCH   4   5
ENDBRANCH   3   4
ENDBRANCH   2   3
ENDBRANCH   1   2
BRANCH   1  31
ATOM     31  C   UNL A   1      40.862  20.285  27.344  1.00  0.00     0.021 C 
BRANCH  31  32
ATOM     32  C   UNL A   1      42.286  19.772  27.512  1.00  0.00     0.116 C 
BRANCH  32  33
ATOM     33  N   UNL A   1      42.829  19.212  26.285  1.00  0.00    -0.352 N 
ATOM     34  C   UNL A   1      43.553  19.844  25.302  1.00  0.00     0.251 C 
ATOM     35  H   UNL A   1      42.655  18.254  26.139  1.00  0.00     0.163 HD
ATOM     36  O   UNL A   1      43.822  19.257  24.258  1.00  0.00    -0.269 OA
BRANCH  34  37
ATOM     37  C   UNL A   1      43.970  21.248  25.506  1.00  0.00     0.039 A 
ATOM     38  C   UNL A   1      45.065  21.547  26.324  1.00  0.00     0.014 A 
ATOM     39  C   UNL A   1      43.224  22.274  24.922  1.00  0.00     0.014 A 
ATOM     40  C   UNL A   1      45.316  22.868  26.678  1.00  0.00     0.010 A 
ATOM     41  C   UNL A   1      43.524  23.605  25.225  1.00  0.00     0.010 A 
ATOM     42  C   UNL A   1      44.541  23.911  26.143  1.00  0.00    -0.014 A 
BRANCH  42  43
ATOM     43  C   UNL A   1      44.811  25.313  26.553  1.00  0.00     0.031 A 
ATOM     44  C   UNL A   1      43.725  26.165  27.155  1.00  0.00     0.074 A 
ATOM     45  C   UNL A   1      46.052  25.815  26.397  1.00  0.00     0.049 A 
ATOM     46  N   UNL A   1      43.788  27.409  27.555  1.00  0.00    -0.248 NA
ATOM     47  C   UNL A   1      42.399  25.550  27.331  1.00  0.00     0.031 C 
ATOM     48  C   UNL A   1      47.181  25.098  25.800  1.00  0.00     0.029 A 
ATOM     49  N   UNL A   1      46.572  27.041  26.724  1.00  0.00    -0.354 N 
ATOM     50  C   UNL A   1      42.507  27.741  27.982  1.00  0.00     0.074 A 
ATOM     51  C   UNL A   1      41.685  26.564  27.804  1.00  0.00     0.031 C 
ATOM     52  C   UNL A   1      48.264  25.888  25.823  1.00  0.00     0.029 A 
ATOM     53  C   UNL A   1      47.899  27.180  26.394  1.00  0.00     0.049 A 
ATOM     54  H   UNL A   1      46.045  27.753  27.153  1.00  0.00     0.167 HD
ATOM     55  C   UNL A   1      42.064  28.914  28.490  1.00  0.00     0.034 A 
ATOM     56  C   UNL A   1      48.731  28.232  26.523  1.00  0.00     0.034 A 
ATOM     57  C   UNL A   1      42.895  30.062  28.728  1.00  0.00     0.049 A 
ATOM     58  C   UNL A   1      48.223  29.502  27.140  1.00  0.00     0.074 A 
ATOM     59  C   UNL A   1      42.534  31.277  29.285  1.00  0.00     0.029 A 
ATOM     60  N   UNL A   1      44.247  30.138  28.437  1.00  0.00    -0.354 N 
ATOM     61  N   UNL A   1      47.029  29.762  27.612  1.00  0.00    -0.248 NA
ATOM     62  C   UNL A   1      49.176  30.614  27.265  1.00  0.00     0.031 C 
ATOM     63  C   UNL A   1      43.672  32.087  29.337  1.00  0.00     0.029 A 
ATOM     64  C   UNL A   1      44.738  31.375  28.812  1.00  0.00     0.049 A 
ATOM     65  H   UNL A   1      44.777  29.419  28.025  1.00  0.00     0.167 HD
ATOM     66  C   UNL A   1      47.089  31.061  28.100  1.00  0.00     0.074 A 
ATOM     67  C   UNL A   1      48.444  31.528  27.889  1.00  0.00     0.031 C 
ATOM     68  C   UNL A   1      46.101  31.804  28.652  1.00  0.00     0.034 A 
BRANCH  55  69
ATOM     69  C   UNL A   1      40.619  29.022  28.889  1.00  0.00     0.023 A 
ATOM     70  C   UNL A   1      39.633  29.070  27.886  1.00  0.00     0.012 A 
ATOM     71  C   UNL A   1      40.235  28.928  30.241  1.00  0.00     0.148 A 
ATOM     72  C   UNL A   1      38.280  29.019  28.221  1.00  0.00     0.002 A 
ATOM     73  C   UNL A   1      38.886  28.852  30.566  1.00  0.00     0.091 A 
ATOM     74  F   UNL A   1      41.196  28.888  31.175  1.00  0.00    -0.205 F 
ATOM     75  C   UNL A   1      37.908  28.900  29.558  1.00  0.00     0.022 A 
BRANCH  73  76
ATOM     76  S   UNL A   1      38.296  28.640  32.249  1.00  0.00     0.127 S 
ATOM     77  O   UNL A   1      39.139  29.588  32.979  1.00  0.00    -0.237 OA
ATOM     78  O   UNL A   1      36.893  29.036  32.134  1.00  0.00    -0.237 OA
ATOM     79  O   UNL A   1      38.518  27.240  32.584  1.00  0.00    -0.744 OA
ENDBRANCH  73  76
ENDBRANCH  55  69
BRANCH  56  80
ATOM     80  C   UNL A   1      50.148  28.094  26.091  1.00  0.00     0.023 A 
ATOM     81  C   UNL A   1      50.488  28.342  24.748  1.00  0.00     0.012 A 
ATOM     82  C   UNL A   1      51.163  27.798  27.019  1.00  0.00     0.148 A 
ATOM     83  C   UNL A   1      51.819  28.292  24.336  1.00  0.00     0.002 A 
ATOM     84  C   UNL A   1      52.491  27.797  26.612  1.00  0.00     0.091 A 
ATOM     85  F   UNL A   1      50.810  27.549  28.288  1.00  0.00    -0.205 F 
ATOM     86  C   UNL A   1      52.821  28.033  25.269  1.00  0.00     0.022 A 
BRANCH  84  87
ATOM     87  S   UNL A   1      53.849  27.604  27.773  1.00  0.00     0.127 S 
ATOM     88  O   UNL A   1      53.639  26.241  28.252  1.00  0.00    -0.237 OA
ATOM     89  O   UNL A   1      55.016  27.783  26.908  1.00  0.00    -0.237 OA
ATOM     90  O   UNL A   1      53.671  28.660  28.760  1.00  0.00    -0.744 OA
ENDBRANCH  84  87
ENDBRANCH  56  80
BRANCH  68  91
ATOM     91  C   UNL A   1      46.433  33.203  29.089  1.00  0.00     0.023 A 
ATOM     92  C   UNL A   1      46.977  33.410  30.370  1.00  0.00     0.012 A 
ATOM     93  C   UNL A   1      46.321  34.282  28.193  1.00  0.00     0.148 A 
ATOM     94  C   UNL A   1      47.402  34.680  30.758  1.00  0.00     0.002 A 
ATOM     95  C   UNL A   1      46.775  35.539  28.575  1.00  0.00     0.091 A 
ATOM     96  F   UNL A   1      45.786  34.057  26.985  1.00  0.00    -0.205 F 
ATOM     97  C   UNL A   1      47.312  35.740  29.857  1.00  0.00     0.022 A 
BRANCH  95  98
ATOM     98  S   UNL A   1      46.767  36.946  27.458  1.00  0.00     0.127 S 
ATOM     99  O   UNL A   1      45.481  37.567  27.771  1.00  0.00    -0.237 OA
ATOM    100  O   UNL A   1      47.937  37.704  27.905  1.00  0.00    -0.237 OA
ATOM    101  O   UNL A   1      46.884  36.394  26.115  1.00  0.00    -0.744 OA
ENDBRANCH  95  98
ENDBRANCH  68  91
ENDBRANCH  42  43
ENDBRANCH  34  37
ENDBRANCH  32  33
ENDBRANCH  31  32
ENDBRANCH   1  31
TORSDOF 20
ENDMDL
