MODEL 1
REMARK VINA RESULT:     -11.2      0.000      0.000
REMARK SMILES [NH3+]C[C@@H]1CC[C@H](C(=O)N[C@@H](Cc2ccccc2)C(=O)NCCCCCCNC(=O)c2ccc(-c3c4nc(c(-c5cccc(S(=O)(=O)[O-])c5F)c5ccc([nH]5)c(-c5cccc(S(=O)(=O)[O-])c5F)c5nc(c(-c6cccc(S(=O)(=O)[O-])c6F)c6ccc3[nH]6)C=C5)C=C4)cc2)O1
REMARK SMILES IDX 23 1 22 2 21 3 20 4 18 5 19 6 10 8 9 9 7 10 8 11 6 13 3 14
REMARK SMILES IDX 4 15 93 16 5 17 2 18 1 19 11 23 12 24 13 25 17 26 14 27
REMARK SMILES IDX 16 28 15 29 24 30 25 31 26 32 27 33 28 34 29 36 30 37 31 38
REMARK SMILES IDX 92 39 32 40 91 41 33 42 34 43 35 44 85 45 36 46 90 47 84 48
REMARK SMILES IDX 86 49 37 50 89 51 83 52 82 53 38 55 70 56 50 57 69 58 51 59
REMARK SMILES IDX 54 60 68 61 87 62 52 63 53 64 67 66 88 67 55 68 39 69 40 70
REMARK SMILES IDX 48 71 41 72 43 73 49 74 42 75 44 76 45 77 46 78 47 79 71 80
REMARK SMILES IDX 72 81 80 82 73 83 75 84 81 85 74 86 76 87 77 88 78 89 79 90
REMARK SMILES IDX 56 91 57 92 65 93 58 94 60 95 66 96 59 97 61 98 62 99 63 100
REMARK SMILES IDX 64 101
REMARK H PARENT 20 7 9 12 1 20 1 21 1 22 27 35 86 54 54 65
REMARK Flexibility Score: inf
ROOT
ATOM      1  C   UNL A   1      31.746  29.047  26.914  1.00  0.00     0.002 C 
ENDROOT
BRANCH   1   2
ATOM      2  C   UNL A   1      32.872  28.014  27.033  1.00  0.00     0.021 C 
BRANCH   2   3
ATOM      3  C   UNL A   1      32.602  26.678  26.357  1.00  0.00     0.116 C 
BRANCH   3   4
ATOM      4  N   UNL A   1      31.290  26.143  26.644  1.00  0.00    -0.354 N 
ATOM      5  C   UNL A   1      30.665  25.059  26.114  1.00  0.00     0.242 C 
ATOM      6  O   UNL A   1      29.811  24.516  26.828  1.00  0.00    -0.273 OA
ATOM      7  H   UNL A   1      30.774  26.638  27.322  1.00  0.00     0.163 HD
BRANCH   5   8
ATOM      8  C   UNL A   1      31.059  24.410  24.768  1.00  0.00     0.175 C 
BRANCH   8   9
ATOM      9  N   UNL A   1      31.186  22.954  24.722  1.00  0.00    -0.342 N 
ATOM     10  C   UNL A   1      32.094  22.138  25.326  1.00  0.00     0.249 C 
ATOM     11  O   UNL A   1      31.951  20.920  25.184  1.00  0.00    -0.272 OA
ATOM     12  H   UNL A   1      30.513  22.493  24.172  1.00  0.00     0.164 HD
BRANCH  10  13
ATOM     13  C   UNL A   1      33.309  22.696  26.092  1.00  0.00     0.207 C 
ATOM     14  C   UNL A   1      35.557  23.167  25.766  1.00  0.00     0.174 C 
ATOM     15  C   UNL A   1      35.517  21.747  26.304  1.00  0.00     0.041 C 
ATOM     16  O   UNL A   1      34.227  23.441  25.291  1.00  0.00    -0.359 OA
ATOM     17  C   UNL A   1      34.103  21.619  26.829  1.00  0.00     0.045 C 
BRANCH  14  18
ATOM     18  C   UNL A   1      36.568  23.369  24.627  1.00  0.00     0.291 C 
BRANCH  18  19
ATOM     19  N   UNL A   1      36.076  22.808  23.362  1.00  0.00    -0.355 N 
ATOM     20  H   UNL A   1      36.110  21.791  23.404  1.00  0.00     0.344 HD
ATOM     21  H   UNL A   1      36.661  23.137  22.594  1.00  0.00     0.344 HD
ATOM     22  H   UNL A   1      35.114  23.110  23.209  1.00  0.00     0.344 HD
ENDBRANCH  18  19
ENDBRANCH  14  18
ENDBRANCH  10  13
ENDBRANCH   8   9
BRANCH   8  23
ATOM     23  C   UNL A   1      30.294  24.984  23.563  1.00  0.00     0.070 C 
BRANCH  23  24
ATOM     24  C   UNL A   1      30.444  26.463  23.325  1.00  0.00    -0.045 A 
ATOM     25  C   UNL A   1      29.331  27.308  23.456  1.00  0.00     0.004 A 
ATOM     26  C   UNL A   1      31.679  27.016  22.963  1.00  0.00     0.004 A 
ATOM     27  C   UNL A   1      29.447  28.675  23.207  1.00  0.00     0.000 A 
ATOM     28  C   UNL A   1      31.791  28.384  22.708  1.00  0.00     0.000 A 
ATOM     29  C   UNL A   1      30.676  29.211  22.828  1.00  0.00     0.000 A 
ENDBRANCH  23  24
ENDBRANCH   8  23
ENDBRANCH   5   8
ENDBRANCH   3   4
ENDBRANCH   2   3
ENDBRANCH   1   2
BRANCH   1  30
ATOM     30  C   UNL A   1      32.064  30.312  26.110  1.00  0.00     0.002 C 
BRANCH  30  31
ATOM     31  C   UNL A   1      31.772  31.644  26.801  1.00  0.00     0.021 C 
BRANCH  31  32
ATOM     32  C   UNL A   1      32.994  32.468  27.175  1.00  0.00     0.116 C 
BRANCH  32  33
ATOM     33  N   UNL A   1      32.657  33.819  27.588  1.00  0.00    -0.352 N 
ATOM     34  C   UNL A   1      33.201  34.562  28.610  1.00  0.00     0.251 C 
ATOM     35  H   UNL A   1      31.946  34.261  27.068  1.00  0.00     0.163 HD
ATOM     36  O   UNL A   1      32.718  35.638  28.918  1.00  0.00    -0.269 OA
BRANCH  34  37
ATOM     37  C   UNL A   1      34.366  34.022  29.349  1.00  0.00     0.039 A 
ATOM     38  C   UNL A   1      34.147  33.110  30.385  1.00  0.00     0.014 A 
ATOM     39  C   UNL A   1      35.666  34.402  29.007  1.00  0.00     0.014 A 
ATOM     40  C   UNL A   1      35.238  32.544  31.050  1.00  0.00     0.010 A 
ATOM     41  C   UNL A   1      36.749  33.778  29.615  1.00  0.00     0.010 A 
ATOM     42  C   UNL A   1      36.547  32.858  30.655  1.00  0.00    -0.014 A 
BRANCH  42  43
ATOM     43  C   UNL A   1      37.731  32.273  31.331  1.00  0.00     0.031 A 
ATOM     44  C   UNL A   1      38.478  31.147  30.670  1.00  0.00     0.074 A 
ATOM     45  C   UNL A   1      38.065  32.671  32.574  1.00  0.00     0.049 A 
ATOM     46  N   UNL A   1      39.443  30.403  31.143  1.00  0.00    -0.248 NA
ATOM     47  C   UNL A   1      38.056  30.785  29.305  1.00  0.00     0.031 C 
ATOM     48  C   UNL A   1      37.376  33.705  33.346  1.00  0.00     0.029 A 
ATOM     49  N   UNL A   1      39.047  32.220  33.422  1.00  0.00    -0.354 N 
ATOM     50  C   UNL A   1      39.707  29.456  30.160  1.00  0.00     0.074 A 
ATOM     51  C   UNL A   1      38.777  29.698  29.079  1.00  0.00     0.031 C 
ATOM     52  C   UNL A   1      37.948  33.804  34.558  1.00  0.00     0.029 A 
ATOM     53  C   UNL A   1      39.021  32.818  34.660  1.00  0.00     0.049 A 
ATOM     54  H   UNL A   1      39.706  31.535  33.168  1.00  0.00     0.167 HD
ATOM     55  C   UNL A   1      40.655  28.490  30.145  1.00  0.00     0.034 A 
ATOM     56  C   UNL A   1      39.766  32.586  35.760  1.00  0.00     0.034 A 
ATOM     57  C   UNL A   1      41.611  28.290  31.199  1.00  0.00     0.049 A 
ATOM     58  C   UNL A   1      40.850  31.544  35.701  1.00  0.00     0.074 A 
ATOM     59  C   UNL A   1      42.667  27.400  31.247  1.00  0.00     0.029 A 
ATOM     60  N   UNL A   1      41.625  28.994  32.394  1.00  0.00    -0.354 N 
ATOM     61  N   UNL A   1      41.177  30.750  34.710  1.00  0.00    -0.248 NA
ATOM     62  C   UNL A   1      41.693  31.391  36.896  1.00  0.00     0.031 C 
ATOM     63  C   UNL A   1      43.311  27.554  32.479  1.00  0.00     0.029 A 
ATOM     64  C   UNL A   1      42.672  28.560  33.187  1.00  0.00     0.049 A 
ATOM     65  H   UNL A   1      40.986  29.701  32.641  1.00  0.00     0.167 HD
ATOM     66  C   UNL A   1      42.286  30.034  35.144  1.00  0.00     0.074 A 
ATOM     67  C   UNL A   1      42.582  30.496  36.485  1.00  0.00     0.031 C 
ATOM     68  C   UNL A   1      42.991  29.075  34.493  1.00  0.00     0.034 A 
BRANCH  55  69
ATOM     69  C   UNL A   1      40.732  27.610  28.924  1.00  0.00     0.023 A 
ATOM     70  C   UNL A   1      39.809  26.554  28.767  1.00  0.00     0.012 A 
ATOM     71  C   UNL A   1      41.692  27.840  27.921  1.00  0.00     0.148 A 
ATOM     72  C   UNL A   1      39.872  25.714  27.657  1.00  0.00     0.002 A 
ATOM     73  C   UNL A   1      41.717  27.029  26.792  1.00  0.00     0.091 A 
ATOM     74  F   UNL A   1      42.577  28.833  28.095  1.00  0.00    -0.205 F 
ATOM     75  C   UNL A   1      40.819  25.957  26.666  1.00  0.00     0.022 A 
BRANCH  73  76
ATOM     76  S   UNL A   1      42.845  27.315  25.423  1.00  0.00     0.127 S 
ATOM     77  O   UNL A   1      42.196  28.426  24.732  1.00  0.00    -0.237 OA
ATOM     78  O   UNL A   1      44.087  27.668  26.115  1.00  0.00    -0.237 OA
ATOM     79  O   UNL A   1      42.901  26.061  24.685  1.00  0.00    -0.744 OA
ENDBRANCH  73  76
ENDBRANCH  55  69
BRANCH  56  80
ATOM     80  C   UNL A   1      39.550  33.408  36.983  1.00  0.00     0.023 A 
ATOM     81  C   UNL A   1      40.079  34.712  37.043  1.00  0.00     0.012 A 
ATOM     82  C   UNL A   1      38.782  32.928  38.062  1.00  0.00     0.148 A 
ATOM     83  C   UNL A   1      39.870  35.514  38.165  1.00  0.00     0.002 A 
ATOM     84  C   UNL A   1      38.532  33.751  39.154  1.00  0.00     0.091 A 
ATOM     85  F   UNL A   1      38.293  31.682  37.989  1.00  0.00    -0.205 F 
ATOM     86  C   UNL A   1      39.089  35.039  39.215  1.00  0.00     0.022 A 
BRANCH  84  87
ATOM     87  S   UNL A   1      37.429  33.277  40.490  1.00  0.00     0.127 S 
ATOM     88  O   UNL A   1      38.156  32.167  41.099  1.00  0.00    -0.237 OA
ATOM     89  O   UNL A   1      37.384  34.500  41.292  1.00  0.00    -0.237 OA
ATOM     90  O   UNL A   1      36.165  32.930  39.853  1.00  0.00    -0.744 OA
ENDBRANCH  84  87
ENDBRANCH  56  80
BRANCH  68  91
ATOM     91  C   UNL A   1      44.190  28.487  35.190  1.00  0.00     0.023 A 
ATOM     92  C   UNL A   1      45.475  29.004  34.938  1.00  0.00     0.012 A 
ATOM     93  C   UNL A   1      44.023  27.491  36.173  1.00  0.00     0.148 A 
ATOM     94  C   UNL A   1      46.580  28.523  35.638  1.00  0.00     0.002 A 
ATOM     95  C   UNL A   1      45.120  27.052  36.901  1.00  0.00     0.091 A 
ATOM     96  F   UNL A   1      42.793  27.000  36.383  1.00  0.00    -0.205 F 
ATOM     97  C   UNL A   1      46.401  27.558  36.629  1.00  0.00     0.022 A 
BRANCH  95  98
ATOM     98  S   UNL A   1      44.969  25.888  38.261  1.00  0.00     0.127 S 
ATOM     99  O   UNL A   1      44.013  26.569  39.131  1.00  0.00    -0.237 OA
ATOM    100  O   UNL A   1      44.444  24.696  37.593  1.00  0.00    -0.237 OA
ATOM    101  O   UNL A   1      46.310  25.732  38.808  1.00  0.00    -0.744 OA
ENDBRANCH  95  98
ENDBRANCH  68  91
ENDBRANCH  42  43
ENDBRANCH  34  37
ENDBRANCH  32  33
ENDBRANCH  31  32
ENDBRANCH  30  31
ENDBRANCH   1  30
TORSDOF 22
ENDMDL
MODEL 2
REMARK VINA RESULT:     -10.6      5.591     11.470
REMARK SMILES [NH3+]C[C@@H]1CC[C@H](C(=O)N[C@@H](Cc2ccccc2)C(=O)NCCCCCCNC(=O)c2ccc(-c3c4nc(c(-c5cccc(S(=O)(=O)[O-])c5F)c5ccc([nH]5)c(-c5cccc(S(=O)(=O)[O-])c5F)c5nc(c(-c6cccc(S(=O)(=O)[O-])c6F)c6ccc3[nH]6)C=C5)C=C4)cc2)O1
REMARK SMILES IDX 23 1 22 2 21 3 20 4 18 5 19 6 10 8 9 9 7 10 8 11 6 13 3 14
REMARK SMILES IDX 4 15 93 16 5 17 2 18 1 19 11 23 12 24 13 25 17 26 14 27
REMARK SMILES IDX 16 28 15 29 24 30 25 31 26 32 27 33 28 34 29 36 30 37 31 38
REMARK SMILES IDX 92 39 32 40 91 41 33 42 34 43 35 44 85 45 36 46 90 47 84 48
REMARK SMILES IDX 86 49 37 50 89 51 83 52 82 53 38 55 70 56 50 57 69 58 51 59
REMARK SMILES IDX 54 60 68 61 87 62 52 63 53 64 67 66 88 67 55 68 39 69 40 70
REMARK SMILES IDX 48 71 41 72 43 73 49 74 42 75 44 76 45 77 46 78 47 79 71 80
REMARK SMILES IDX 72 81 80 82 73 83 75 84 81 85 74 86 76 87 77 88 78 89 79 90
REMARK SMILES IDX 56 91 57 92 65 93 58 94 60 95 66 96 59 97 61 98 62 99 63 100
REMARK SMILES IDX 64 101
REMARK H PARENT 20 7 9 12 1 20 1 21 1 22 27 35 86 54 54 65
REMARK Flexibility Score: inf
ROOT
ATOM      1  C   UNL A   1      36.546  21.043  24.966  1.00  0.00     0.002 C 
ENDROOT
BRANCH   1   2
ATOM      2  C   UNL A   1      36.529  22.382  24.220  1.00  0.00     0.021 C 
BRANCH   2   3
ATOM      3  C   UNL A   1      35.871  23.533  24.966  1.00  0.00     0.116 C 
BRANCH   3   4
ATOM      4  N   UNL A   1      35.382  23.165  26.276  1.00  0.00    -0.354 N 
ATOM      5  C   UNL A   1      34.145  23.327  26.812  1.00  0.00     0.242 C 
ATOM      6  O   UNL A   1      33.824  22.527  27.701  1.00  0.00    -0.273 OA
ATOM      7  H   UNL A   1      36.044  22.735  26.864  1.00  0.00     0.163 HD
BRANCH   5   8
ATOM      8  C   UNL A   1      33.102  24.338  26.283  1.00  0.00     0.175 C 
BRANCH   8   9
ATOM      9  N   UNL A   1      31.757  24.295  26.856  1.00  0.00    -0.342 N 
ATOM     10  C   UNL A   1      30.719  23.455  26.585  1.00  0.00     0.249 C 
ATOM     11  O   UNL A   1      29.691  23.582  27.257  1.00  0.00    -0.272 OA
ATOM     12  H   UNL A   1      31.573  24.977  27.541  1.00  0.00     0.164 HD
BRANCH  10  13
ATOM     13  C   UNL A   1      30.776  22.436  25.431  1.00  0.00     0.207 C 
ATOM     14  C   UNL A   1      32.145  20.755  24.606  1.00  0.00     0.174 C 
ATOM     15  C   UNL A   1      32.578  22.019  23.883  1.00  0.00     0.041 C 
ATOM     16  O   UNL A   1      31.410  21.199  25.760  1.00  0.00    -0.359 OA
ATOM     17  C   UNL A   1      31.450  22.985  24.175  1.00  0.00     0.045 C 
BRANCH  14  18
ATOM     18  C   UNL A   1      33.315  19.863  25.047  1.00  0.00     0.291 C 
BRANCH  18  19
ATOM     19  N   UNL A   1      33.276  19.594  26.490  1.00  0.00    -0.355 N 
ATOM     20  H   UNL A   1      33.969  20.172  26.963  1.00  0.00     0.344 HD
ATOM     21  H   UNL A   1      33.483  18.609  26.658  1.00  0.00     0.344 HD
ATOM     22  H   UNL A   1      32.348  19.812  26.850  1.00  0.00     0.344 HD
ENDBRANCH  18  19
ENDBRANCH  14  18
ENDBRANCH  10  13
ENDBRANCH   8   9
BRANCH   8  23
ATOM     23  C   UNL A   1      33.650  25.768  26.142  1.00  0.00     0.070 C 
BRANCH  23  24
ATOM     24  C   UNL A   1      33.091  26.585  25.008  1.00  0.00    -0.045 A 
ATOM     25  C   UNL A   1      31.946  27.371  25.210  1.00  0.00     0.004 A 
ATOM     26  C   UNL A   1      33.691  26.569  23.742  1.00  0.00     0.004 A 
ATOM     27  C   UNL A   1      31.399  28.107  24.160  1.00  0.00     0.000 A 
ATOM     28  C   UNL A   1      33.137  27.302  22.691  1.00  0.00     0.000 A 
ATOM     29  C   UNL A   1      31.991  28.068  22.900  1.00  0.00     0.000 A 
ENDBRANCH  23  24
ENDBRANCH   8  23
ENDBRANCH   5   8
ENDBRANCH   3   4
ENDBRANCH   2   3
ENDBRANCH   1   2
BRANCH   1  30
ATOM     30  C   UNL A   1      37.818  20.201  24.825  1.00  0.00     0.002 C 
BRANCH  30  31
ATOM     31  C   UNL A   1      39.092  20.795  25.427  1.00  0.00     0.021 C 
BRANCH  31  32
ATOM     32  C   UNL A   1      39.717  19.993  26.556  1.00  0.00     0.116 C 
BRANCH  32  33
ATOM     33  N   UNL A   1      40.837  19.180  26.118  1.00  0.00    -0.352 N 
ATOM     34  C   UNL A   1      42.140  19.565  25.898  1.00  0.00     0.251 C 
ATOM     35  H   UNL A   1      40.638  18.229  25.956  1.00  0.00     0.163 HD
ATOM     36  O   UNL A   1      42.939  18.789  25.401  1.00  0.00    -0.269 OA
BRANCH  34  37
ATOM     37  C   UNL A   1      42.550  20.945  26.250  1.00  0.00     0.039 A 
ATOM     38  C   UNL A   1      42.884  21.233  27.576  1.00  0.00     0.014 A 
ATOM     39  C   UNL A   1      42.619  21.939  25.272  1.00  0.00     0.014 A 
ATOM     40  C   UNL A   1      43.333  22.513  27.912  1.00  0.00     0.010 A 
ATOM     41  C   UNL A   1      43.141  23.186  25.593  1.00  0.00     0.010 A 
ATOM     42  C   UNL A   1      43.486  23.492  26.919  1.00  0.00    -0.014 A 
BRANCH  42  43
ATOM     43  C   UNL A   1      43.965  24.861  27.234  1.00  0.00     0.031 A 
ATOM     44  C   UNL A   1      42.995  25.878  27.768  1.00  0.00     0.074 A 
ATOM     45  C   UNL A   1      45.229  25.220  26.937  1.00  0.00     0.049 A 
ATOM     46  N   UNL A   1      43.166  27.158  27.974  1.00  0.00    -0.248 NA
ATOM     47  C   UNL A   1      41.636  25.398  28.078  1.00  0.00     0.031 C 
ATOM     48  C   UNL A   1      46.244  24.342  26.352  1.00  0.00     0.029 A 
ATOM     49  N   UNL A   1      45.863  26.433  27.051  1.00  0.00    -0.354 N 
ATOM     50  C   UNL A   1      41.930  27.643  28.384  1.00  0.00     0.074 A 
ATOM     51  C   UNL A   1      41.009  26.528  28.366  1.00  0.00     0.031 C 
ATOM     52  C   UNL A   1      47.369  25.046  26.148  1.00  0.00     0.029 A 
ATOM     53  C   UNL A   1      47.145  26.431  26.555  1.00  0.00     0.049 A 
ATOM     54  H   UNL A   1      45.439  27.227  27.449  1.00  0.00     0.167 HD
ATOM     55  C   UNL A   1      41.596  28.898  28.770  1.00  0.00     0.034 A 
ATOM     56  C   UNL A   1      48.036  27.436  26.428  1.00  0.00     0.034 A 
ATOM     57  C   UNL A   1      42.528  29.988  28.838  1.00  0.00     0.049 A 
ATOM     58  C   UNL A   1      47.661  28.810  26.913  1.00  0.00     0.074 A 
ATOM     59  C   UNL A   1      42.316  31.276  29.297  1.00  0.00     0.029 A 
ATOM     60  N   UNL A   1      43.853  29.919  28.435  1.00  0.00    -0.354 N 
ATOM     61  N   UNL A   1      46.528  29.220  27.430  1.00  0.00    -0.248 NA
ATOM     62  C   UNL A   1      48.696  29.851  26.835  1.00  0.00     0.031 C 
ATOM     63  C   UNL A   1      43.510  31.990  29.155  1.00  0.00     0.029 A 
ATOM     64  C   UNL A   1      44.473  31.140  28.634  1.00  0.00     0.049 A 
ATOM     65  H   UNL A   1      44.290  29.119  28.063  1.00  0.00     0.167 HD
ATOM     66  C   UNL A   1      46.725  30.552  27.776  1.00  0.00     0.074 A 
ATOM     67  C   UNL A   1      48.091  30.877  27.419  1.00  0.00     0.031 C 
ATOM     68  C   UNL A   1      45.852  31.428  28.332  1.00  0.00     0.034 A 
BRANCH  55  69
ATOM     69  C   UNL A   1      40.170  29.138  29.195  1.00  0.00     0.023 A 
ATOM     70  C   UNL A   1      39.181  29.368  28.216  1.00  0.00     0.012 A 
ATOM     71  C   UNL A   1      39.801  29.109  30.553  1.00  0.00     0.148 A 
ATOM     72  C   UNL A   1      37.859  29.613  28.584  1.00  0.00     0.002 A 
ATOM     73  C   UNL A   1      38.472  29.304  30.910  1.00  0.00     0.091 A 
ATOM     74  F   UNL A   1      40.757  28.912  31.473  1.00  0.00    -0.205 F 
ATOM     75  C   UNL A   1      37.503  29.572  29.929  1.00  0.00     0.022 A 
BRANCH  73  76
ATOM     76  S   UNL A   1      37.903  29.187  32.610  1.00  0.00     0.127 S 
ATOM     77  O   UNL A   1      38.992  29.839  33.333  1.00  0.00    -0.237 OA
ATOM     78  O   UNL A   1      36.653  29.950  32.571  1.00  0.00    -0.237 OA
ATOM     79  O   UNL A   1      37.733  27.766  32.876  1.00  0.00    -0.744 OA
ENDBRANCH  73  76
ENDBRANCH  55  69
BRANCH  56  80
ATOM     80  C   UNL A   1      49.391  27.155  25.876  1.00  0.00     0.023 A 
ATOM     81  C   UNL A   1      50.359  26.546  26.697  1.00  0.00     0.012 A 
ATOM     82  C   UNL A   1      49.708  27.438  24.533  1.00  0.00     0.148 A 
ATOM     83  C   UNL A   1      51.628  26.247  26.199  1.00  0.00     0.002 A 
ATOM     84  C   UNL A   1      50.955  27.089  24.028  1.00  0.00     0.091 A 
ATOM     85  F   UNL A   1      48.774  28.025  23.770  1.00  0.00    -0.205 F 
ATOM     86  C   UNL A   1      51.922  26.508  24.863  1.00  0.00     0.022 A 
BRANCH  84  87
ATOM     87  S   UNL A   1      51.378  27.264  22.291  1.00  0.00     0.127 S 
ATOM     88  O   UNL A   1      51.518  28.711  22.160  1.00  0.00    -0.237 OA
ATOM     89  O   UNL A   1      52.631  26.512  22.210  1.00  0.00    -0.237 OA
ATOM     90  O   UNL A   1      50.271  26.667  21.555  1.00  0.00    -0.744 OA
ENDBRANCH  84  87
ENDBRANCH  56  80
BRANCH  68  91
ATOM     91  C   UNL A   1      46.348  32.815  28.645  1.00  0.00     0.023 A 
ATOM     92  C   UNL A   1      46.927  33.090  29.899  1.00  0.00     0.012 A 
ATOM     93  C   UNL A   1      46.333  33.816  27.653  1.00  0.00     0.148 A 
ATOM     94  C   UNL A   1      47.464  34.347  30.169  1.00  0.00     0.002 A 
ATOM     95  C   UNL A   1      46.913  35.050  27.912  1.00  0.00     0.091 A 
ATOM     96  F   UNL A   1      45.759  33.538  26.473  1.00  0.00    -0.205 F 
ATOM     97  C   UNL A   1      47.470  35.322  29.172  1.00  0.00     0.022 A 
BRANCH  95  98
ATOM     98  S   UNL A   1      47.056  36.328  26.658  1.00  0.00     0.127 S 
ATOM     99  O   UNL A   1      45.676  36.799  26.553  1.00  0.00    -0.237 OA
ATOM    100  O   UNL A   1      47.976  37.278  27.286  1.00  0.00    -0.237 OA
ATOM    101  O   UNL A   1      47.584  35.670  25.471  1.00  0.00    -0.744 OA
ENDBRANCH  95  98
ENDBRANCH  68  91
ENDBRANCH  42  43
ENDBRANCH  34  37
ENDBRANCH  32  33
ENDBRANCH  31  32
ENDBRANCH  30  31
ENDBRANCH   1  30
TORSDOF 22
ENDMDL
MODEL 3
REMARK VINA RESULT:     -10.5      6.033     11.223
REMARK SMILES [NH3+]C[C@@H]1CC[C@H](C(=O)N[C@@H](Cc2ccccc2)C(=O)NCCCCCCNC(=O)c2ccc(-c3c4nc(c(-c5cccc(S(=O)(=O)[O-])c5F)c5ccc([nH]5)c(-c5cccc(S(=O)(=O)[O-])c5F)c5nc(c(-c6cccc(S(=O)(=O)[O-])c6F)c6ccc3[nH]6)C=C5)C=C4)cc2)O1
REMARK SMILES IDX 23 1 22 2 21 3 20 4 18 5 19 6 10 8 9 9 7 10 8 11 6 13 3 14
REMARK SMILES IDX 4 15 93 16 5 17 2 18 1 19 11 23 12 24 13 25 17 26 14 27
REMARK SMILES IDX 16 28 15 29 24 30 25 31 26 32 27 33 28 34 29 36 30 37 31 38
REMARK SMILES IDX 92 39 32 40 91 41 33 42 34 43 35 44 85 45 36 46 90 47 84 48
REMARK SMILES IDX 86 49 37 50 89 51 83 52 82 53 38 55 70 56 50 57 69 58 51 59
REMARK SMILES IDX 54 60 68 61 87 62 52 63 53 64 67 66 88 67 55 68 39 69 40 70
REMARK SMILES IDX 48 71 41 72 43 73 49 74 42 75 44 76 45 77 46 78 47 79 71 80
REMARK SMILES IDX 72 81 80 82 73 83 75 84 81 85 74 86 76 87 77 88 78 89 79 90
REMARK SMILES IDX 56 91 57 92 65 93 58 94 60 95 66 96 59 97 61 98 62 99 63 100
REMARK SMILES IDX 64 101
REMARK H PARENT 20 7 9 12 1 20 1 21 1 22 27 35 86 54 54 65
REMARK Flexibility Score: inf
ROOT
ATOM      1  C   UNL A   1      36.528  22.703  24.076  1.00  0.00     0.002 C 
ENDROOT
BRANCH   1   2
ATOM      2  C   UNL A   1      36.228  23.929  24.944  1.00  0.00     0.021 C 
BRANCH   2   3
ATOM      3  C   UNL A   1      34.846  24.538  24.752  1.00  0.00     0.116 C 
BRANCH   3   4
ATOM      4  N   UNL A   1      34.250  24.219  23.474  1.00  0.00    -0.354 N 
ATOM      5  C   UNL A   1      32.970  24.388  23.052  1.00  0.00     0.242 C 
ATOM      6  O   UNL A   1      32.808  24.518  21.832  1.00  0.00    -0.273 OA
ATOM      7  H   UNL A   1      34.862  23.820  22.814  1.00  0.00     0.163 HD
BRANCH   5   8
ATOM      8  C   UNL A   1      31.766  24.565  24.006  1.00  0.00     0.175 C 
BRANCH   8   9
ATOM      9  N   UNL A   1      30.684  25.455  23.583  1.00  0.00    -0.342 N 
ATOM     10  C   UNL A   1      30.647  26.815  23.522  1.00  0.00     0.249 C 
ATOM     11  O   UNL A   1      29.627  27.339  23.064  1.00  0.00    -0.272 OA
ATOM     12  H   UNL A   1      29.858  25.002  23.299  1.00  0.00     0.164 HD
BRANCH  10  13
ATOM     13  C   UNL A   1      31.789  27.687  24.077  1.00  0.00     0.207 C 
ATOM     14  C   UNL A   1      32.521  28.601  26.080  1.00  0.00     0.174 C 
ATOM     15  C   UNL A   1      31.638  29.664  25.451  1.00  0.00     0.041 C 
ATOM     16  O   UNL A   1      32.185  27.372  25.412  1.00  0.00    -0.359 OA
ATOM     17  C   UNL A   1      31.484  29.183  24.024  1.00  0.00     0.045 C 
BRANCH  14  18
ATOM     18  C   UNL A   1      32.317  28.442  27.594  1.00  0.00     0.291 C 
BRANCH  18  19
ATOM     19  N   UNL A   1      30.982  27.915  27.907  1.00  0.00    -0.355 N 
ATOM     20  H   UNL A   1      30.297  28.667  27.850  1.00  0.00     0.344 HD
ATOM     21  H   UNL A   1      30.984  27.527  28.851  1.00  0.00     0.344 HD
ATOM     22  H   UNL A   1      30.742  27.184  27.239  1.00  0.00     0.344 HD
ENDBRANCH  18  19
ENDBRANCH  14  18
ENDBRANCH  10  13
ENDBRANCH   8   9
BRANCH   8  23
ATOM     23  C   UNL A   1      31.256  23.242  24.602  1.00  0.00     0.070 C 
BRANCH  23  24
ATOM     24  C   UNL A   1      32.148  22.587  25.623  1.00  0.00    -0.045 A 
ATOM     25  C   UNL A   1      32.695  21.321  25.362  1.00  0.00     0.004 A 
ATOM     26  C   UNL A   1      32.437  23.217  26.841  1.00  0.00     0.004 A 
ATOM     27  C   UNL A   1      33.497  20.688  26.312  1.00  0.00     0.000 A 
ATOM     28  C   UNL A   1      33.235  22.578  27.792  1.00  0.00     0.000 A 
ATOM     29  C   UNL A   1      33.761  21.314  27.528  1.00  0.00     0.000 A 
ENDBRANCH  23  24
ENDBRANCH   8  23
ENDBRANCH   5   8
ENDBRANCH   3   4
ENDBRANCH   2   3
ENDBRANCH   1   2
BRANCH   1  30
ATOM     30  C   UNL A   1      36.400  21.338  24.760  1.00  0.00     0.002 C 
BRANCH  30  31
ATOM     31  C   UNL A   1      37.635  20.437  24.707  1.00  0.00     0.021 C 
BRANCH  31  32
ATOM     32  C   UNL A   1      38.773  20.834  25.633  1.00  0.00     0.116 C 
BRANCH  32  33
ATOM     33  N   UNL A   1      39.735  19.764  25.833  1.00  0.00    -0.352 N 
ATOM     34  C   UNL A   1      41.063  19.861  26.179  1.00  0.00     0.251 C 
ATOM     35  H   UNL A   1      39.391  18.850  25.704  1.00  0.00     0.163 HD
ATOM     36  O   UNL A   1      41.776  18.872  26.181  1.00  0.00    -0.269 OA
BRANCH  34  37
ATOM     37  C   UNL A   1      41.620  21.190  26.525  1.00  0.00     0.039 A 
ATOM     38  C   UNL A   1      41.970  22.065  25.493  1.00  0.00     0.014 A 
ATOM     39  C   UNL A   1      41.777  21.573  27.859  1.00  0.00     0.014 A 
ATOM     40  C   UNL A   1      42.437  23.345  25.802  1.00  0.00     0.010 A 
ATOM     41  C   UNL A   1      42.166  22.872  28.162  1.00  0.00     0.010 A 
ATOM     42  C   UNL A   1      42.518  23.765  27.138  1.00  0.00    -0.014 A 
BRANCH  42  43
ATOM     43  C   UNL A   1      43.003  25.118  27.507  1.00  0.00     0.031 A 
ATOM     44  C   UNL A   1      42.046  26.103  28.121  1.00  0.00     0.074 A 
ATOM     45  C   UNL A   1      44.257  25.497  27.192  1.00  0.00     0.049 A 
ATOM     46  N   UNL A   1      42.220  27.372  28.385  1.00  0.00    -0.248 NA
ATOM     47  C   UNL A   1      40.699  25.603  28.446  1.00  0.00     0.031 C 
ATOM     48  C   UNL A   1      45.255  24.653  26.534  1.00  0.00     0.029 A 
ATOM     49  N   UNL A   1      44.890  26.705  27.348  1.00  0.00    -0.354 N 
ATOM     50  C   UNL A   1      40.995  27.831  28.856  1.00  0.00     0.074 A 
ATOM     51  C   UNL A   1      40.078  26.715  28.809  1.00  0.00     0.031 C 
ATOM     52  C   UNL A   1      46.373  25.371  26.332  1.00  0.00     0.029 A 
ATOM     53  C   UNL A   1      46.158  26.734  26.815  1.00  0.00     0.049 A 
ATOM     54  H   UNL A   1      44.477  27.477  27.798  1.00  0.00     0.167 HD
ATOM     55  C   UNL A   1      40.670  29.063  29.314  1.00  0.00     0.034 A 
ATOM     56  C   UNL A   1      47.041  27.747  26.712  1.00  0.00     0.034 A 
ATOM     57  C   UNL A   1      41.601  30.153  29.409  1.00  0.00     0.049 A 
ATOM     58  C   UNL A   1      46.677  29.094  27.277  1.00  0.00     0.074 A 
ATOM     59  C   UNL A   1      41.400  31.415  29.938  1.00  0.00     0.029 A 
ATOM     60  N   UNL A   1      42.914  30.110  28.964  1.00  0.00    -0.354 N 
ATOM     61  N   UNL A   1      45.559  29.472  27.847  1.00  0.00    -0.248 NA
ATOM     62  C   UNL A   1      47.707  30.141  27.220  1.00  0.00     0.031 C 
ATOM     63  C   UNL A   1      42.587  32.140  29.797  1.00  0.00     0.029 A 
ATOM     64  C   UNL A   1      43.536  31.321  29.205  1.00  0.00     0.049 A 
ATOM     65  H   UNL A   1      43.341  29.330  28.540  1.00  0.00     0.167 HD
ATOM     66  C   UNL A   1      45.763  30.786  28.253  1.00  0.00     0.074 A 
ATOM     67  C   UNL A   1      47.117  31.134  27.873  1.00  0.00     0.031 C 
ATOM     68  C   UNL A   1      44.904  31.630  28.878  1.00  0.00     0.034 A 
BRANCH  55  69
ATOM     69  C   UNL A   1      39.257  29.277  29.793  1.00  0.00     0.023 A 
ATOM     70  C   UNL A   1      38.890  28.858  31.089  1.00  0.00     0.012 A 
ATOM     71  C   UNL A   1      38.302  29.913  28.979  1.00  0.00     0.148 A 
ATOM     72  C   UNL A   1      37.585  29.026  31.548  1.00  0.00     0.002 A 
ATOM     73  C   UNL A   1      37.015  30.122  29.462  1.00  0.00     0.091 A 
ATOM     74  F   UNL A   1      38.659  30.284  27.740  1.00  0.00    -0.205 F 
ATOM     75  C   UNL A   1      36.651  29.666  30.739  1.00  0.00     0.022 A 
BRANCH  73  76
ATOM     76  S   UNL A   1      35.766  31.010  28.525  1.00  0.00     0.127 S 
ATOM     77  O   UNL A   1      35.356  30.004  27.549  1.00  0.00    -0.237 OA
ATOM     78  O   UNL A   1      34.764  31.309  29.550  1.00  0.00    -0.237 OA
ATOM     79  O   UNL A   1      36.436  32.181  27.978  1.00  0.00    -0.744 OA
ENDBRANCH  73  76
ENDBRANCH  55  69
BRANCH  56  80
ATOM     80  C   UNL A   1      48.380  27.499  26.107  1.00  0.00     0.023 A 
ATOM     81  C   UNL A   1      49.441  27.070  26.927  1.00  0.00     0.012 A 
ATOM     82  C   UNL A   1      48.594  27.635  24.721  1.00  0.00     0.148 A 
ATOM     83  C   UNL A   1      50.698  26.806  26.383  1.00  0.00     0.002 A 
ATOM     84  C   UNL A   1      49.833  27.318  24.178  1.00  0.00     0.091 A 
ATOM     85  F   UNL A   1      47.572  28.051  23.958  1.00  0.00    -0.205 F 
ATOM     86  C   UNL A   1      50.892  26.919  25.009  1.00  0.00     0.022 A 
BRANCH  84  87
ATOM     87  S   UNL A   1      50.138  27.304  22.408  1.00  0.00     0.127 S 
ATOM     88  O   UNL A   1      51.386  26.552  22.324  1.00  0.00    -0.237 OA
ATOM     89  O   UNL A   1      48.958  26.601  21.905  1.00  0.00    -0.237 OA
ATOM     90  O   UNL A   1      50.217  28.704  22.011  1.00  0.00    -0.744 OA
ENDBRANCH  84  87
ENDBRANCH  56  80
BRANCH  68  91
ATOM     91  C   UNL A   1      45.406  33.001  29.246  1.00  0.00     0.023 A 
ATOM     92  C   UNL A   1      46.073  33.203  30.470  1.00  0.00     0.012 A 
ATOM     93  C   UNL A   1      45.307  34.064  28.326  1.00  0.00     0.148 A 
ATOM     94  C   UNL A   1      46.614  34.449  30.783  1.00  0.00     0.002 A 
ATOM     95  C   UNL A   1      45.890  35.288  28.624  1.00  0.00     0.091 A 
ATOM     96  F   UNL A   1      44.651  33.855  27.175  1.00  0.00    -0.205 F 
ATOM     97  C   UNL A   1      46.536  35.487  29.855  1.00  0.00     0.022 A 
BRANCH  95  98
ATOM     98  S   UNL A   1      45.926  36.648  27.450  1.00  0.00     0.127 S 
ATOM     99  O   UNL A   1      46.585  36.031  26.299  1.00  0.00    -0.237 OA
ATOM    100  O   UNL A   1      44.503  36.930  27.257  1.00  0.00    -0.237 OA
ATOM    101  O   UNL A   1      46.672  37.719  28.097  1.00  0.00    -0.744 OA
ENDBRANCH  95  98
ENDBRANCH  68  91
ENDBRANCH  42  43
ENDBRANCH  34  37
ENDBRANCH  32  33
ENDBRANCH  31  32
ENDBRANCH  30  31
ENDBRANCH   1  30
TORSDOF 22
ENDMDL
