MODEL 1
REMARK VINA RESULT:      -9.5      0.000      0.000
REMARK SMILES O=C(CCCNc1ccccc1SC(F)F)NCCCCCCNC(=O)c1ccc(-c2c3nc(c(-c4cccc(S(=O)(=O)[O-])c4F)c4ccc([nH]4)c(-c4cccc(S(=O)(=O)[O-])c4F)c4nc(c(-c5cccc(S(=O)(=O)[O-])c5F)c5ccc2[nH]5)C=C4)C=C3)cc1
REMARK SMILES IDX 19 1 18 2 17 3 1 4 2 5 3 7 4 8 5 9 6 10 7 12 8 13 12 14 9 15
REMARK SMILES IDX 11 16 10 17 13 18 14 19 15 20 16 21 20 22 21 23 22 24 23 25
REMARK SMILES IDX 24 26 25 27 26 29 27 30 28 31 89 32 29 33 88 34 30 35 31 36
REMARK SMILES IDX 32 37 82 38 33 39 87 40 81 41 83 42 34 43 86 44 80 45 79 46
REMARK SMILES IDX 35 48 67 49 47 50 66 51 48 52 51 53 65 54 84 55 49 56 50 57
REMARK SMILES IDX 64 59 85 60 52 61 36 62 37 63 45 64 38 65 40 66 46 67 39 68
REMARK SMILES IDX 41 69 42 70 43 71 44 72 68 73 69 74 77 75 70 76 72 77 78 78
REMARK SMILES IDX 71 79 73 80 74 81 75 82 76 83 53 84 54 85 62 86 55 87 57 88
REMARK SMILES IDX 63 89 56 90 58 91 59 92 60 93 61 94
REMARK H PARENT 17 6 6 11 24 28 83 47 51 58
REMARK Flexibility Score: inf
ROOT
ATOM      1  C   UNL A   1      33.477  28.411  27.058  1.00  0.00     0.021 C 
ENDROOT
BRANCH   1   2
ATOM      2  C   UNL A   1      32.840  27.285  26.239  1.00  0.00     0.116 C 
BRANCH   2   3
ATOM      3  N   UNL A   1      33.122  27.428  24.823  1.00  0.00    -0.356 N 
ATOM      4  O   UNL A   1      30.940  27.702  24.152  1.00  0.00    -0.275 OA
ATOM      5  C   UNL A   1      32.131  27.589  23.883  1.00  0.00     0.220 C 
ATOM      6  H   UNL A   1      34.060  27.409  24.522  1.00  0.00     0.163 HD
BRANCH   5   7
ATOM      7  C   UNL A   1      32.621  27.559  22.450  1.00  0.00     0.102 C 
BRANCH   7   8
ATOM      8  C   UNL A   1      33.393  26.298  22.058  1.00  0.00     0.031 C 
BRANCH   8   9
ATOM      9  C   UNL A   1      32.578  25.004  21.985  1.00  0.00     0.113 C 
BRANCH   9  10
ATOM     10  N   UNL A   1      33.134  23.992  22.862  1.00  0.00    -0.384 N 
ATOM     11  H   UNL A   1      33.729  23.323  22.454  1.00  0.00     0.160 HD
BRANCH  10  12
ATOM     12  C   UNL A   1      32.898  23.884  24.227  1.00  0.00     0.048 A 
ATOM     13  C   UNL A   1      31.538  24.046  24.592  1.00  0.00     0.027 A 
ATOM     14  C   UNL A   1      33.814  23.557  25.251  1.00  0.00     0.036 A 
ATOM     15  C   UNL A   1      31.081  23.904  25.902  1.00  0.00     0.002 A 
ATOM     16  C   UNL A   1      33.336  23.463  26.583  1.00  0.00     0.017 A 
ATOM     17  C   UNL A   1      31.988  23.628  26.906  1.00  0.00     0.001 A 
BRANCH  14  18
ATOM     18  S   UNL A   1      35.547  23.097  25.127  1.00  0.00    -0.053 SA
BRANCH  18  19
ATOM     19  C   UNL A   1      35.623  21.324  25.421  1.00  0.00     0.405 C 
ATOM     20  F   UNL A   1      34.645  20.713  24.698  1.00  0.00    -0.198 F 
ATOM     21  F   UNL A   1      36.797  20.763  25.055  1.00  0.00    -0.198 F 
ENDBRANCH  18  19
ENDBRANCH  14  18
ENDBRANCH  10  12
ENDBRANCH   9  10
ENDBRANCH   8   9
ENDBRANCH   7   8
ENDBRANCH   5   7
ENDBRANCH   2   3
ENDBRANCH   1   2
BRANCH   1  22
ATOM     22  C   UNL A   1      33.184  29.823  26.537  1.00  0.00     0.002 C 
BRANCH  22  23
ATOM     23  C   UNL A   1      31.781  30.347  26.853  1.00  0.00     0.002 C 
BRANCH  23  24
ATOM     24  C   UNL A   1      31.606  31.859  26.788  1.00  0.00     0.021 C 
BRANCH  24  25
ATOM     25  C   UNL A   1      32.876  32.659  27.034  1.00  0.00     0.116 C 
BRANCH  25  26
ATOM     26  N   UNL A   1      32.610  33.950  27.652  1.00  0.00    -0.352 N 
ATOM     27  C   UNL A   1      33.210  34.526  28.749  1.00  0.00     0.251 C 
ATOM     28  H   UNL A   1      31.902  34.486  27.228  1.00  0.00     0.163 HD
ATOM     29  O   UNL A   1      32.744  35.547  29.237  1.00  0.00    -0.269 OA
BRANCH  27  30
ATOM     30  C   UNL A   1      34.407  33.890  29.345  1.00  0.00     0.039 A 
ATOM     31  C   UNL A   1      34.238  32.940  30.355  1.00  0.00     0.014 A 
ATOM     32  C   UNL A   1      35.691  34.221  28.905  1.00  0.00     0.014 A 
ATOM     33  C   UNL A   1      35.354  32.289  30.885  1.00  0.00     0.010 A 
ATOM     34  C   UNL A   1      36.789  33.503  29.364  1.00  0.00     0.010 A 
ATOM     35  C   UNL A   1      36.638  32.543  30.375  1.00  0.00    -0.014 A 
BRANCH  35  36
ATOM     36  C   UNL A   1      37.834  31.839  30.906  1.00  0.00     0.031 A 
ATOM     37  C   UNL A   1      38.425  32.252  32.230  1.00  0.00     0.074 A 
ATOM     38  C   UNL A   1      38.425  30.873  30.174  1.00  0.00     0.049 A 
ATOM     39  N   UNL A   1      39.490  31.795  32.836  1.00  0.00    -0.248 NA
ATOM     40  C   UNL A   1      37.745  33.337  32.958  1.00  0.00     0.031 C 
ATOM     41  C   UNL A   1      38.001  30.437  28.842  1.00  0.00     0.029 A 
ATOM     42  N   UNL A   1      39.529  30.100  30.438  1.00  0.00    -0.354 N 
ATOM     43  C   UNL A   1      39.620  32.548  33.997  1.00  0.00     0.074 A 
ATOM     44  C   UNL A   1      38.558  33.529  33.986  1.00  0.00     0.031 C 
ATOM     45  C   UNL A   1      38.829  29.474  28.409  1.00  0.00     0.029 A 
ATOM     46  C   UNL A   1      39.862  29.244  29.414  1.00  0.00     0.049 A 
ATOM     47  H   UNL A   1      40.034  30.153  31.281  1.00  0.00     0.167 HD
ATOM     48  C   UNL A   1      40.515  32.412  35.006  1.00  0.00     0.034 A 
ATOM     49  C   UNL A   1      40.889  28.379  29.294  1.00  0.00     0.034 A 
ATOM     50  C   UNL A   1      41.551  31.417  35.032  1.00  0.00     0.049 A 
ATOM     51  C   UNL A   1      41.853  28.230  30.441  1.00  0.00     0.074 A 
ATOM     52  C   UNL A   1      42.479  31.166  36.026  1.00  0.00     0.029 A 
ATOM     53  N   UNL A   1      41.797  30.506  34.017  1.00  0.00    -0.354 N 
ATOM     54  N   UNL A   1      41.878  28.864  31.589  1.00  0.00    -0.248 NA
ATOM     55  C   UNL A   1      42.904  27.214  30.296  1.00  0.00     0.031 C 
ATOM     56  C   UNL A   1      43.298  30.114  35.605  1.00  0.00     0.029 A 
ATOM     57  C   UNL A   1      42.856  29.685  34.364  1.00  0.00     0.049 A 
ATOM     58  H   UNL A   1      41.293  30.450  33.172  1.00  0.00     0.167 HD
ATOM     59  C   UNL A   1      42.912  28.290  32.319  1.00  0.00     0.074 A 
ATOM     60  C   UNL A   1      43.476  27.244  31.492  1.00  0.00     0.031 C 
ATOM     61  C   UNL A   1      43.364  28.607  33.557  1.00  0.00     0.034 A 
BRANCH  48  62
ATOM     62  C   UNL A   1      40.367  33.323  36.198  1.00  0.00     0.023 A 
ATOM     63  C   UNL A   1      40.941  34.611  36.159  1.00  0.00     0.012 A 
ATOM     64  C   UNL A   1      39.614  32.938  37.324  1.00  0.00     0.148 A 
ATOM     65  C   UNL A   1      40.802  35.487  37.234  1.00  0.00     0.002 A 
ATOM     66  C   UNL A   1      39.437  33.834  38.372  1.00  0.00     0.091 A 
ATOM     67  F   UNL A   1      39.090  31.705  37.351  1.00  0.00    -0.205 F 
ATOM     68  C   UNL A   1      40.041  35.102  38.335  1.00  0.00     0.022 A 
BRANCH  66  69
ATOM     69  S   UNL A   1      38.409  33.472  39.800  1.00  0.00     0.127 S 
ATOM     70  O   UNL A   1      39.123  32.343  40.398  1.00  0.00    -0.237 OA
ATOM     71  O   UNL A   1      38.494  34.718  40.561  1.00  0.00    -0.237 OA
ATOM     72  O   UNL A   1      37.087  33.161  39.277  1.00  0.00    -0.744 OA
ENDBRANCH  66  69
ENDBRANCH  48  62
BRANCH  49  73
ATOM     73  C   UNL A   1      41.039  27.550  28.063  1.00  0.00     0.023 A 
ATOM     74  C   UNL A   1      41.571  28.126  26.892  1.00  0.00     0.012 A 
ATOM     75  C   UNL A   1      40.644  26.199  28.044  1.00  0.00     0.148 A 
ATOM     76  C   UNL A   1      41.657  27.387  25.711  1.00  0.00     0.002 A 
ATOM     77  C   UNL A   1      40.790  25.451  26.881  1.00  0.00     0.091 A 
ATOM     78  F   UNL A   1      40.133  25.670  29.163  1.00  0.00    -0.205 F 
ATOM     79  C   UNL A   1      41.274  26.049  25.707  1.00  0.00     0.022 A 
BRANCH  77  80
ATOM     80  S   UNL A   1      40.446  23.690  26.824  1.00  0.00     0.127 S 
ATOM     81  O   UNL A   1      39.049  23.671  26.400  1.00  0.00    -0.237 OA
ATOM     82  O   UNL A   1      41.403  23.227  25.819  1.00  0.00    -0.237 OA
ATOM     83  O   UNL A   1      40.708  23.197  28.170  1.00  0.00    -0.744 OA
ENDBRANCH  77  80
ENDBRANCH  49  73
BRANCH  61  84
ATOM     84  C   UNL A   1      44.476  27.767  34.131  1.00  0.00     0.023 A 
ATOM     85  C   UNL A   1      45.821  28.135  33.931  1.00  0.00     0.012 A 
ATOM     86  C   UNL A   1      44.177  26.637  34.919  1.00  0.00     0.148 A 
ATOM     87  C   UNL A   1      46.853  27.365  34.466  1.00  0.00     0.002 A 
ATOM     88  C   UNL A   1      45.209  25.907  35.495  1.00  0.00     0.091 A 
ATOM     89  F   UNL A   1      42.892  26.293  35.083  1.00  0.00    -0.205 F 
ATOM     90  C   UNL A   1      46.547  26.259  35.257  1.00  0.00     0.022 A 
BRANCH  88  91
ATOM     91  S   UNL A   1      44.906  24.531  36.610  1.00  0.00     0.127 S 
ATOM     92  O   UNL A   1      46.250  24.253  37.111  1.00  0.00    -0.237 OA
ATOM     93  O   UNL A   1      43.998  25.124  37.593  1.00  0.00    -0.237 OA
ATOM     94  O   UNL A   1      44.310  23.479  35.797  1.00  0.00    -0.744 OA
ENDBRANCH  88  91
ENDBRANCH  61  84
ENDBRANCH  35  36
ENDBRANCH  27  30
ENDBRANCH  25  26
ENDBRANCH  24  25
ENDBRANCH  23  24
ENDBRANCH  22  23
ENDBRANCH   1  22
TORSDOF 22
ENDMDL
MODEL 2
REMARK VINA RESULT:      -9.2      2.089      8.009
REMARK SMILES O=C(CCCNc1ccccc1SC(F)F)NCCCCCCNC(=O)c1ccc(-c2c3nc(c(-c4cccc(S(=O)(=O)[O-])c4F)c4ccc([nH]4)c(-c4cccc(S(=O)(=O)[O-])c4F)c4nc(c(-c5cccc(S(=O)(=O)[O-])c5F)c5ccc2[nH]5)C=C4)C=C3)cc1
REMARK SMILES IDX 19 1 18 2 17 3 1 4 2 5 3 7 4 8 5 9 6 10 7 12 8 13 12 14 9 15
REMARK SMILES IDX 11 16 10 17 13 18 14 19 15 20 16 21 20 22 21 23 22 24 23 25
REMARK SMILES IDX 24 26 25 27 26 29 27 30 28 31 89 32 29 33 88 34 30 35 31 36
REMARK SMILES IDX 32 37 82 38 33 39 87 40 81 41 83 42 34 43 86 44 80 45 79 46
REMARK SMILES IDX 35 48 67 49 47 50 66 51 48 52 51 53 65 54 84 55 49 56 50 57
REMARK SMILES IDX 64 59 85 60 52 61 36 62 37 63 45 64 38 65 40 66 46 67 39 68
REMARK SMILES IDX 41 69 42 70 43 71 44 72 68 73 69 74 77 75 70 76 72 77 78 78
REMARK SMILES IDX 71 79 73 80 74 81 75 82 76 83 53 84 54 85 62 86 55 87 57 88
REMARK SMILES IDX 63 89 56 90 58 91 59 92 60 93 61 94
REMARK H PARENT 17 6 6 11 24 28 83 47 51 58
REMARK Flexibility Score: inf
ROOT
ATOM      1  C   UNL A   1      32.914  26.159  26.131  1.00  0.00     0.021 C 
ENDROOT
BRANCH   1   2
ATOM      2  C   UNL A   1      34.265  25.815  25.499  1.00  0.00     0.116 C 
BRANCH   2   3
ATOM      3  N   UNL A   1      34.158  24.693  24.586  1.00  0.00    -0.356 N 
ATOM      4  O   UNL A   1      34.382  23.046  26.175  1.00  0.00    -0.275 OA
ATOM      5  C   UNL A   1      34.265  23.387  25.003  1.00  0.00     0.220 C 
ATOM      6  H   UNL A   1      34.003  24.873  23.630  1.00  0.00     0.163 HD
BRANCH   5   7
ATOM      7  C   UNL A   1      34.285  22.373  23.877  1.00  0.00     0.102 C 
BRANCH   7   8
ATOM      8  C   UNL A   1      33.059  22.400  22.963  1.00  0.00     0.031 C 
BRANCH   8   9
ATOM      9  C   UNL A   1      31.754  22.883  23.600  1.00  0.00     0.113 C 
BRANCH   9  10
ATOM     10  N   UNL A   1      31.074  23.828  22.735  1.00  0.00    -0.384 N 
ATOM     11  H   UNL A   1      30.722  23.483  21.883  1.00  0.00     0.160 HD
BRANCH  10  12
ATOM     12  C   UNL A   1      30.877  25.176  23.004  1.00  0.00     0.048 A 
ATOM     13  C   UNL A   1      29.817  25.436  23.909  1.00  0.00     0.027 A 
ATOM     14  C   UNL A   1      31.641  26.278  22.561  1.00  0.00     0.036 A 
ATOM     15  C   UNL A   1      29.503  26.716  24.363  1.00  0.00     0.002 A 
ATOM     16  C   UNL A   1      31.275  27.577  22.999  1.00  0.00     0.017 A 
ATOM     17  C   UNL A   1      30.225  27.795  23.892  1.00  0.00     0.001 A 
BRANCH  14  18
ATOM     18  S   UNL A   1      33.149  26.302  21.584  1.00  0.00    -0.053 SA
BRANCH  18  19
ATOM     19  C   UNL A   1      32.748  25.531  20.010  1.00  0.00     0.405 C 
ATOM     20  F   UNL A   1      32.968  24.192  20.104  1.00  0.00    -0.198 F 
ATOM     21  F   UNL A   1      31.460  25.696  19.637  1.00  0.00    -0.198 F 
ENDBRANCH  18  19
ENDBRANCH  14  18
ENDBRANCH  10  12
ENDBRANCH   9  10
ENDBRANCH   8   9
ENDBRANCH   7   8
ENDBRANCH   5   7
ENDBRANCH   2   3
ENDBRANCH   1   2
BRANCH   1  22
ATOM     22  C   UNL A   1      32.773  27.619  26.581  1.00  0.00     0.002 C 
BRANCH  22  23
ATOM     23  C   UNL A   1      33.508  28.636  25.704  1.00  0.00     0.002 C 
BRANCH  23  24
ATOM     24  C   UNL A   1      32.880  30.022  25.626  1.00  0.00     0.021 C 
BRANCH  24  25
ATOM     25  C   UNL A   1      32.215  30.494  26.909  1.00  0.00     0.116 C 
BRANCH  25  26
ATOM     26  N   UNL A   1      32.024  31.937  26.940  1.00  0.00    -0.352 N 
ATOM     27  C   UNL A   1      32.817  32.904  27.514  1.00  0.00     0.251 C 
ATOM     28  H   UNL A   1      31.214  32.267  26.489  1.00  0.00     0.163 HD
ATOM     29  O   UNL A   1      32.417  34.058  27.593  1.00  0.00    -0.269 OA
BRANCH  27  30
ATOM     30  C   UNL A   1      34.146  32.534  28.053  1.00  0.00     0.039 A 
ATOM     31  C   UNL A   1      35.205  33.436  27.922  1.00  0.00     0.014 A 
ATOM     32  C   UNL A   1      34.346  31.308  28.691  1.00  0.00     0.014 A 
ATOM     33  C   UNL A   1      36.448  33.126  28.477  1.00  0.00     0.010 A 
ATOM     34  C   UNL A   1      35.556  31.045  29.326  1.00  0.00     0.010 A 
ATOM     35  C   UNL A   1      36.628  31.940  29.209  1.00  0.00    -0.014 A 
BRANCH  35  36
ATOM     36  C   UNL A   1      37.935  31.608  29.832  1.00  0.00     0.031 A 
ATOM     37  C   UNL A   1      38.814  30.546  29.219  1.00  0.00     0.074 A 
ATOM     38  C   UNL A   1      38.307  32.212  30.979  1.00  0.00     0.049 A 
ATOM     39  N   UNL A   1      39.961  30.080  29.640  1.00  0.00    -0.248 NA
ATOM     40  C   UNL A   1      38.327  29.905  27.985  1.00  0.00     0.031 C 
ATOM     41  C   UNL A   1      37.512  33.196  31.716  1.00  0.00     0.029 A 
ATOM     42  N   UNL A   1      39.441  32.067  31.740  1.00  0.00    -0.354 N 
ATOM     43  C   UNL A   1      40.320  29.083  28.741  1.00  0.00     0.074 A 
ATOM     44  C   UNL A   1      39.243  28.970  27.783  1.00  0.00     0.031 C 
ATOM     45  C   UNL A   1      38.183  33.569  32.818  1.00  0.00     0.029 A 
ATOM     46  C   UNL A   1      39.440  32.829  32.885  1.00  0.00     0.049 A 
ATOM     47  H   UNL A   1      40.185  31.473  31.490  1.00  0.00     0.167 HD
ATOM     48  C   UNL A   1      41.460  28.352  28.688  1.00  0.00     0.034 A 
ATOM     49  C   UNL A   1      40.343  32.915  33.882  1.00  0.00     0.034 A 
ATOM     50  C   UNL A   1      42.544  28.486  29.623  1.00  0.00     0.049 A 
ATOM     51  C   UNL A   1      41.613  32.111  33.784  1.00  0.00     0.074 A 
ATOM     52  C   UNL A   1      43.759  27.827  29.631  1.00  0.00     0.029 A 
ATOM     53  N   UNL A   1      42.543  29.338  30.716  1.00  0.00    -0.354 N 
ATOM     54  N   UNL A   1      41.989  31.269  32.852  1.00  0.00    -0.248 NA
ATOM     55  C   UNL A   1      42.604  32.305  34.852  1.00  0.00     0.031 C 
ATOM     56  C   UNL A   1      44.488  28.267  30.741  1.00  0.00     0.029 A 
ATOM     57  C   UNL A   1      43.740  29.229  31.401  1.00  0.00     0.049 A 
ATOM     58  H   UNL A   1      41.801  29.933  30.969  1.00  0.00     0.167 HD
ATOM     59  C   UNL A   1      43.276  30.872  33.195  1.00  0.00     0.074 A 
ATOM     60  C   UNL A   1      43.623  31.582  34.409  1.00  0.00     0.031 C 
ATOM     61  C   UNL A   1      44.095  29.990  32.571  1.00  0.00     0.034 A 
BRANCH  48  62
ATOM     62  C   UNL A   1      41.620  27.389  27.540  1.00  0.00     0.023 A 
ATOM     63  C   UNL A   1      42.144  27.854  26.316  1.00  0.00     0.012 A 
ATOM     64  C   UNL A   1      41.317  26.021  27.684  1.00  0.00     0.148 A 
ATOM     65  C   UNL A   1      42.330  26.985  25.243  1.00  0.00     0.002 A 
ATOM     66  C   UNL A   1      41.551  25.150  26.627  1.00  0.00     0.091 A 
ATOM     67  F   UNL A   1      40.805  25.600  28.849  1.00  0.00    -0.205 F 
ATOM     68  C   UNL A   1      42.043  25.632  25.402  1.00  0.00     0.022 A 
BRANCH  66  69
ATOM     69  S   UNL A   1      41.294  23.377  26.751  1.00  0.00     0.127 S 
ATOM     70  O   UNL A   1      42.052  22.888  25.599  1.00  0.00    -0.237 OA
ATOM     71  O   UNL A   1      41.894  23.071  28.049  1.00  0.00    -0.237 OA
ATOM     72  O   UNL A   1      39.855  23.171  26.677  1.00  0.00    -0.744 OA
ENDBRANCH  66  69
ENDBRANCH  48  62
BRANCH  49  73
ATOM     73  C   UNL A   1      40.109  33.828  35.037  1.00  0.00     0.023 A 
ATOM     74  C   UNL A   1      40.347  35.210  34.897  1.00  0.00     0.012 A 
ATOM     75  C   UNL A   1      39.664  33.332  36.277  1.00  0.00     0.148 A 
ATOM     76  C   UNL A   1      40.199  36.072  35.984  1.00  0.00     0.002 A 
ATOM     77  C   UNL A   1      39.459  34.206  37.339  1.00  0.00     0.091 A 
ATOM     78  F   UNL A   1      39.450  32.015  36.396  1.00  0.00    -0.205 F 
ATOM     79  C   UNL A   1      39.749  35.572  37.202  1.00  0.00     0.022 A 
BRANCH  77  80
ATOM     80  S   UNL A   1      38.755  33.667  38.901  1.00  0.00     0.127 S 
ATOM     81  O   UNL A   1      39.764  32.723  39.374  1.00  0.00    -0.237 OA
ATOM     82  O   UNL A   1      38.685  34.922  39.649  1.00  0.00    -0.237 OA
ATOM     83  O   UNL A   1      37.456  33.097  38.568  1.00  0.00    -0.744 OA
ENDBRANCH  77  80
ENDBRANCH  49  73
BRANCH  61  84
ATOM     84  C   UNL A   1      45.477  29.795  33.141  1.00  0.00     0.023 A 
ATOM     85  C   UNL A   1      46.541  30.617  32.723  1.00  0.00     0.012 A 
ATOM     86  C   UNL A   1      45.702  28.823  34.136  1.00  0.00     0.148 A 
ATOM     87  C   UNL A   1      47.819  30.445  33.253  1.00  0.00     0.002 A 
ATOM     88  C   UNL A   1      46.966  28.695  34.700  1.00  0.00     0.091 A 
ATOM     89  F   UNL A   1      44.681  28.038  34.508  1.00  0.00    -0.205 F 
ATOM     90  C   UNL A   1      48.028  29.492  34.249  1.00  0.00     0.022 A 
BRANCH  88  91
ATOM     91  S   UNL A   1      47.301  27.566  36.057  1.00  0.00     0.127 S 
ATOM     92  O   UNL A   1      48.710  27.843  36.331  1.00  0.00    -0.237 OA
ATOM     93  O   UNL A   1      46.375  28.037  37.087  1.00  0.00    -0.237 OA
ATOM     94  O   UNL A   1      47.012  26.231  35.551  1.00  0.00    -0.744 OA
ENDBRANCH  88  91
ENDBRANCH  61  84
ENDBRANCH  35  36
ENDBRANCH  27  30
ENDBRANCH  25  26
ENDBRANCH  24  25
ENDBRANCH  23  24
ENDBRANCH  22  23
ENDBRANCH   1  22
TORSDOF 22
ENDMDL
MODEL 3
REMARK VINA RESULT:      -9.2      1.421      7.707
REMARK SMILES O=C(CCCNc1ccccc1SC(F)F)NCCCCCCNC(=O)c1ccc(-c2c3nc(c(-c4cccc(S(=O)(=O)[O-])c4F)c4ccc([nH]4)c(-c4cccc(S(=O)(=O)[O-])c4F)c4nc(c(-c5cccc(S(=O)(=O)[O-])c5F)c5ccc2[nH]5)C=C4)C=C3)cc1
REMARK SMILES IDX 19 1 18 2 17 3 1 4 2 5 3 7 4 8 5 9 6 10 7 12 8 13 12 14 9 15
REMARK SMILES IDX 11 16 10 17 13 18 14 19 15 20 16 21 20 22 21 23 22 24 23 25
REMARK SMILES IDX 24 26 25 27 26 29 27 30 28 31 89 32 29 33 88 34 30 35 31 36
REMARK SMILES IDX 32 37 82 38 33 39 87 40 81 41 83 42 34 43 86 44 80 45 79 46
REMARK SMILES IDX 35 48 67 49 47 50 66 51 48 52 51 53 65 54 84 55 49 56 50 57
REMARK SMILES IDX 64 59 85 60 52 61 36 62 37 63 45 64 38 65 40 66 46 67 39 68
REMARK SMILES IDX 41 69 42 70 43 71 44 72 68 73 69 74 77 75 70 76 72 77 78 78
REMARK SMILES IDX 71 79 73 80 74 81 75 82 76 83 53 84 54 85 62 86 55 87 57 88
REMARK SMILES IDX 63 89 56 90 58 91 59 92 60 93 61 94
REMARK H PARENT 17 6 6 11 24 28 83 47 51 58
REMARK Flexibility Score: inf
ROOT
ATOM      1  C   UNL A   1      33.718  27.818  26.478  1.00  0.00     0.021 C 
ENDROOT
BRANCH   1   2
ATOM      2  C   UNL A   1      32.910  28.062  25.201  1.00  0.00     0.116 C 
BRANCH   2   3
ATOM      3  N   UNL A   1      33.166  27.040  24.203  1.00  0.00    -0.356 N 
ATOM      4  O   UNL A   1      33.136  28.444  22.383  1.00  0.00    -0.275 OA
ATOM      5  C   UNL A   1      33.220  27.317  22.857  1.00  0.00     0.220 C 
ATOM      6  H   UNL A   1      33.305  26.111  24.501  1.00  0.00     0.163 HD
BRANCH   5   7
ATOM      7  C   UNL A   1      33.337  26.092  21.974  1.00  0.00     0.102 C 
BRANCH   7   8
ATOM      8  C   UNL A   1      32.603  24.853  22.488  1.00  0.00     0.031 C 
BRANCH   8   9
ATOM      9  C   UNL A   1      33.070  23.509  21.922  1.00  0.00     0.113 C 
BRANCH   9  10
ATOM     10  N   UNL A   1      33.344  22.566  22.989  1.00  0.00    -0.384 N 
ATOM     11  H   UNL A   1      32.915  21.682  22.927  1.00  0.00     0.160 HD
BRANCH  10  12
ATOM     12  C   UNL A   1      34.159  22.801  24.089  1.00  0.00     0.048 A 
ATOM     13  C   UNL A   1      35.490  23.159  23.756  1.00  0.00     0.027 A 
ATOM     14  C   UNL A   1      33.804  22.807  25.456  1.00  0.00     0.036 A 
ATOM     15  C   UNL A   1      36.445  23.505  24.711  1.00  0.00     0.002 A 
ATOM     16  C   UNL A   1      34.804  23.116  26.414  1.00  0.00     0.017 A 
ATOM     17  C   UNL A   1      36.105  23.466  26.049  1.00  0.00     0.001 A 
BRANCH  14  18
ATOM     18  S   UNL A   1      32.190  22.600  26.217  1.00  0.00    -0.053 SA
BRANCH  18  19
ATOM     19  C   UNL A   1      31.353  24.185  26.075  1.00  0.00     0.405 C 
ATOM     20  F   UNL A   1      30.062  24.043  26.480  1.00  0.00    -0.198 F 
ATOM     21  F   UNL A   1      31.902  25.159  26.833  1.00  0.00    -0.198 F 
ENDBRANCH  18  19
ENDBRANCH  14  18
ENDBRANCH  10  12
ENDBRANCH   9  10
ENDBRANCH   8   9
ENDBRANCH   7   8
ENDBRANCH   5   7
ENDBRANCH   2   3
ENDBRANCH   1   2
BRANCH   1  22
ATOM     22  C   UNL A   1      34.754  28.904  26.795  1.00  0.00     0.002 C 
BRANCH  22  23
ATOM     23  C   UNL A   1      34.206  30.110  27.562  1.00  0.00     0.002 C 
BRANCH  23  24
ATOM     24  C   UNL A   1      33.484  31.159  26.725  1.00  0.00     0.021 C 
BRANCH  24  25
ATOM     25  C   UNL A   1      32.236  31.741  27.370  1.00  0.00     0.116 C 
BRANCH  25  26
ATOM     26  N   UNL A   1      32.233  33.197  27.362  1.00  0.00    -0.352 N 
ATOM     27  C   UNL A   1      33.051  34.069  28.043  1.00  0.00     0.251 C 
ATOM     28  H   UNL A   1      31.550  33.617  26.792  1.00  0.00     0.163 HD
ATOM     29  O   UNL A   1      32.798  35.266  28.053  1.00  0.00    -0.269 OA
BRANCH  27  30
ATOM     30  C   UNL A   1      34.226  33.546  28.778  1.00  0.00     0.039 A 
ATOM     31  C   UNL A   1      34.025  32.876  29.988  1.00  0.00     0.014 A 
ATOM     32  C   UNL A   1      35.519  33.708  28.275  1.00  0.00     0.014 A 
ATOM     33  C   UNL A   1      35.116  32.326  30.662  1.00  0.00     0.010 A 
ATOM     34  C   UNL A   1      36.590  33.076  28.898  1.00  0.00     0.010 A 
ATOM     35  C   UNL A   1      36.407  32.396  30.110  1.00  0.00    -0.014 A 
BRANCH  35  36
ATOM     36  C   UNL A   1      37.576  31.791  30.799  1.00  0.00     0.031 A 
ATOM     37  C   UNL A   1      38.404  30.744  30.098  1.00  0.00     0.074 A 
ATOM     38  C   UNL A   1      37.859  32.134  32.071  1.00  0.00     0.049 A 
ATOM     39  N   UNL A   1      39.428  30.065  30.547  1.00  0.00    -0.248 NA
ATOM     40  C   UNL A   1      38.016  30.395  28.720  1.00  0.00     0.031 C 
ATOM     41  C   UNL A   1      37.087  33.074  32.889  1.00  0.00     0.029 A 
ATOM     42  N   UNL A   1      38.859  31.712  32.911  1.00  0.00    -0.354 N 
ATOM     43  C   UNL A   1      39.790  29.199  29.521  1.00  0.00     0.074 A 
ATOM     44  C   UNL A   1      38.842  29.396  28.447  1.00  0.00     0.031 C 
ATOM     45  C   UNL A   1      37.645  33.159  34.107  1.00  0.00     0.029 A 
ATOM     46  C   UNL A   1      38.792  32.259  34.171  1.00  0.00     0.049 A 
ATOM     47  H   UNL A   1      39.560  31.077  32.637  1.00  0.00     0.167 HD
ATOM     48  C   UNL A   1      40.839  28.344  29.458  1.00  0.00     0.034 A 
ATOM     49  C   UNL A   1      39.561  32.052  35.259  1.00  0.00     0.034 A 
ATOM     50  C   UNL A   1      41.799  28.171  30.514  1.00  0.00     0.049 A 
ATOM     51  C   UNL A   1      40.737  31.116  35.152  1.00  0.00     0.074 A 
ATOM     52  C   UNL A   1      42.923  27.365  30.531  1.00  0.00     0.029 A 
ATOM     53  N   UNL A   1      41.749  28.814  31.740  1.00  0.00    -0.354 N 
ATOM     54  N   UNL A   1      41.136  30.405  34.126  1.00  0.00    -0.248 NA
ATOM     55  C   UNL A   1      41.594  30.991  36.339  1.00  0.00     0.031 C 
ATOM     56  C   UNL A   1      43.544  27.508  31.776  1.00  0.00     0.029 A 
ATOM     57  C   UNL A   1      42.827  28.431  32.519  1.00  0.00     0.049 A 
ATOM     58  H   UNL A   1      41.050  29.450  32.017  1.00  0.00     0.167 HD
ATOM     59  C   UNL A   1      42.316  29.788  34.527  1.00  0.00     0.074 A 
ATOM     60  C   UNL A   1      42.576  30.226  35.883  1.00  0.00     0.031 C 
ATOM     61  C   UNL A   1      43.107  28.926  33.842  1.00  0.00     0.034 A 
BRANCH  48  62
ATOM     62  C   UNL A   1      41.041  27.580  28.174  1.00  0.00     0.023 A 
ATOM     63  C   UNL A   1      41.503  28.263  27.029  1.00  0.00     0.012 A 
ATOM     64  C   UNL A   1      40.840  26.188  28.112  1.00  0.00     0.148 A 
ATOM     65  C   UNL A   1      41.725  27.581  25.834  1.00  0.00     0.002 A 
ATOM     66  C   UNL A   1      41.111  25.506  26.931  1.00  0.00     0.091 A 
ATOM     67  F   UNL A   1      40.386  25.558  29.204  1.00  0.00    -0.205 F 
ATOM     68  C   UNL A   1      41.540  26.203  25.788  1.00  0.00     0.022 A 
BRANCH  66  69
ATOM     69  S   UNL A   1      40.984  23.720  26.786  1.00  0.00     0.127 S 
ATOM     70  O   UNL A   1      39.560  23.549  26.494  1.00  0.00    -0.237 OA
ATOM     71  O   UNL A   1      41.874  23.441  25.660  1.00  0.00    -0.237 OA
ATOM     72  O   UNL A   1      41.424  23.179  28.064  1.00  0.00    -0.744 OA
ENDBRANCH  66  69
ENDBRANCH  48  62
BRANCH  49  73
ATOM     73  C   UNL A   1      39.279  32.775  36.532  1.00  0.00     0.023 A 
ATOM     74  C   UNL A   1      39.913  34.007  36.792  1.00  0.00     0.012 A 
ATOM     75  C   UNL A   1      38.398  32.242  37.492  1.00  0.00     0.148 A 
ATOM     76  C   UNL A   1      39.715  34.668  38.006  1.00  0.00     0.002 A 
ATOM     77  C   UNL A   1      38.158  32.936  38.673  1.00  0.00     0.091 A 
ATOM     78  F   UNL A   1      37.811  31.067  37.232  1.00  0.00    -0.205 F 
ATOM     79  C   UNL A   1      38.833  34.136  38.942  1.00  0.00     0.022 A 
BRANCH  77  80
ATOM     80  S   UNL A   1      36.939  32.391  39.873  1.00  0.00     0.127 S 
ATOM     81  O   UNL A   1      37.493  31.109  40.301  1.00  0.00    -0.237 OA
ATOM     82  O   UNL A   1      37.004  33.456  40.874  1.00  0.00    -0.237 OA
ATOM     83  O   UNL A   1      35.677  32.329  39.148  1.00  0.00    -0.744 OA
ENDBRANCH  77  80
ENDBRANCH  49  73
BRANCH  61  84
ATOM     84  C   UNL A   1      44.372  28.455  34.512  1.00  0.00     0.023 A 
ATOM     85  C   UNL A   1      45.551  29.220  34.425  1.00  0.00     0.012 A 
ATOM     86  C   UNL A   1      44.370  27.271  35.278  1.00  0.00     0.148 A 
ATOM     87  C   UNL A   1      46.721  28.792  35.050  1.00  0.00     0.002 A 
ATOM     88  C   UNL A   1      45.525  26.880  35.944  1.00  0.00     0.091 A 
ATOM     89  F   UNL A   1      43.243  26.547  35.335  1.00  0.00    -0.205 F 
ATOM     90  C   UNL A   1      46.705  27.629  35.818  1.00  0.00     0.022 A 
BRANCH  88  91
ATOM     91  S   UNL A   1      45.567  25.454  37.036  1.00  0.00     0.127 S 
ATOM     92  O   UNL A   1      46.881  25.596  37.659  1.00  0.00    -0.237 OA
ATOM     93  O   UNL A   1      44.437  25.715  37.929  1.00  0.00    -0.237 OA
ATOM     94  O   UNL A   1      45.402  24.287  36.179  1.00  0.00    -0.744 OA
ENDBRANCH  88  91
ENDBRANCH  61  84
ENDBRANCH  35  36
ENDBRANCH  27  30
ENDBRANCH  25  26
ENDBRANCH  24  25
ENDBRANCH  23  24
ENDBRANCH  22  23
ENDBRANCH   1  22
TORSDOF 22
ENDMDL
