MODEL 1
REMARK VINA RESULT:     -11.5      0.000      0.000
REMARK SMILES Cc1ccc(NC(=O)Cn2c(CCC(=O)NCCCCCCNC(=O)c3ccc(-c4c5nc(c(-c6cccc(S(=O)(=O)[O-])c6F)c6ccc([nH]6)c(-c6cccc(S(=O)(=O)[O-])c6F)c6nc(c(-c7cccc(S(=O)(=O)[O-])c7F)c7ccc4[nH]7)C=C6)C=C5)cc3)ccc2-c2ccccc2)cc1
REMARK SMILES IDX 18 1 17 2 16 3 14 4 15 5 13 7 12 8 11 9 10 10 91 11 89 12
REMARK SMILES IDX 90 13 9 14 7 15 6 16 8 18 5 19 1 20 2 21 3 22 99 23 4 24
REMARK SMILES IDX 98 25 92 26 93 27 97 28 94 29 96 30 95 31 19 32 20 33 21 34
REMARK SMILES IDX 22 35 23 36 24 37 25 39 26 40 27 41 88 42 28 43 87 44 29 45
REMARK SMILES IDX 30 46 31 47 81 48 32 49 86 50 80 51 82 52 33 53 85 54 79 55
REMARK SMILES IDX 78 56 34 58 66 59 46 60 65 61 47 62 50 63 64 64 83 65 48 66
REMARK SMILES IDX 49 67 63 69 84 70 51 71 35 72 36 73 44 74 37 75 39 76 45 77
REMARK SMILES IDX 38 78 40 79 41 80 42 81 43 82 67 83 68 84 76 85 69 86 71 87
REMARK SMILES IDX 77 88 70 89 72 90 73 91 74 92 75 93 52 94 53 95 61 96 54 97
REMARK SMILES IDX 56 98 62 99 55 100 57 101 58 102 59 103 60 104
REMARK H PARENT 16 6 6 17 23 38 82 57 50 68
REMARK Flexibility Score: inf
ROOT
ATOM      1  C   UNL A   1      34.766  32.689  28.289  1.00  0.00     0.021 C 
ENDROOT
BRANCH   1   2
ATOM      2  C   UNL A   1      34.545  31.278  27.680  1.00  0.00     0.116 C 
BRANCH   2   3
ATOM      3  N   UNL A   1      33.279  30.603  27.962  1.00  0.00    -0.356 N 
ATOM      4  C   UNL A   1      32.556  29.772  27.147  1.00  0.00     0.220 C 
ATOM      5  O   UNL A   1      31.820  28.916  27.648  1.00  0.00    -0.275 OA
ATOM      6  H   UNL A   1      32.897  30.766  28.855  1.00  0.00     0.163 HD
BRANCH   4   7
ATOM      7  C   UNL A   1      32.619  29.906  25.643  1.00  0.00     0.106 C 
BRANCH   7   8
ATOM      8  C   UNL A   1      31.315  29.454  24.997  1.00  0.00     0.064 C 
BRANCH   8   9
ATOM      9  C   UNL A   1      31.453  28.326  24.024  1.00  0.00     0.019 A 
ATOM     10  N   UNL A   1      31.969  27.057  24.255  1.00  0.00    -0.335 N 
ATOM     11  C   UNL A   1      31.871  26.321  23.058  1.00  0.00     0.049 A 
ATOM     12  C   UNL A   1      31.125  28.399  22.676  1.00  0.00     0.024 A 
ATOM     13  C   UNL A   1      31.394  27.159  22.075  1.00  0.00     0.029 A 
BRANCH  10  14
ATOM     14  C   UNL A   1      32.402  26.384  25.503  1.00  0.00     0.222 C 
BRANCH  14  15
ATOM     15  C   UNL A   1      31.453  25.639  26.409  1.00  0.00     0.244 C 
ATOM     16  N   UNL A   1      31.690  24.383  26.888  1.00  0.00    -0.325 N 
ATOM     17  H   UNL A   1      31.023  24.035  27.523  1.00  0.00     0.169 HD
ATOM     18  O   UNL A   1      30.373  26.162  26.719  1.00  0.00    -0.273 OA
BRANCH  16  19
ATOM     19  C   UNL A   1      32.754  23.523  26.597  1.00  0.00     0.041 A 
ATOM     20  C   UNL A   1      35.806  21.086  24.849  1.00  0.00     0.044 C 
ATOM     21  C   UNL A   1      34.808  21.932  25.577  1.00  0.00    -0.051 A 
ATOM     22  C   UNL A   1      33.615  21.351  26.018  1.00  0.00     0.005 A 
ATOM     23  C   UNL A   1      35.003  23.308  25.744  1.00  0.00     0.005 A 
ATOM     24  C   UNL A   1      32.599  22.144  26.541  1.00  0.00     0.026 A 
ATOM     25  C   UNL A   1      33.989  24.099  26.285  1.00  0.00     0.026 A 
ENDBRANCH  16  19
ENDBRANCH  14  15
ENDBRANCH  10  14
BRANCH  11  26
ATOM     26  C   UNL A   1      32.026  24.871  22.986  1.00  0.00    -0.002 A 
ATOM     27  C   UNL A   1      31.042  23.954  23.289  1.00  0.00     0.010 A 
ATOM     28  C   UNL A   1      33.266  24.393  22.568  1.00  0.00     0.010 A 
ATOM     29  C   UNL A   1      31.326  22.600  23.119  1.00  0.00     0.001 A 
ATOM     30  C   UNL A   1      33.539  23.070  22.319  1.00  0.00     0.001 A 
ATOM     31  C   UNL A   1      32.556  22.169  22.620  1.00  0.00     0.000 A 
ENDBRANCH  11  26
ENDBRANCH   8   9
ENDBRANCH   7   8
ENDBRANCH   4   7
ENDBRANCH   2   3
ENDBRANCH   1   2
BRANCH   1  32
ATOM     32  C   UNL A   1      35.369  32.752  29.718  1.00  0.00     0.002 C 
BRANCH  32  33
ATOM     33  C   UNL A   1      36.619  31.852  30.174  1.00  0.00     0.002 C 
BRANCH  33  34
ATOM     34  C   UNL A   1      36.737  30.586  31.130  1.00  0.00     0.021 C 
BRANCH  34  35
ATOM     35  C   UNL A   1      37.127  30.318  32.677  1.00  0.00     0.116 C 
BRANCH  35  36
ATOM     36  N   UNL A   1      38.309  29.584  33.270  1.00  0.00    -0.352 N 
ATOM     37  C   UNL A   1      38.975  28.471  32.671  1.00  0.00     0.251 C 
ATOM     38  H   UNL A   1      38.647  29.899  34.140  1.00  0.00     0.163 HD
ATOM     39  O   UNL A   1      38.332  27.587  32.100  1.00  0.00    -0.269 OA
BRANCH  37  40
ATOM     40  C   UNL A   1      40.550  28.348  32.656  1.00  0.00     0.039 A 
ATOM     41  C   UNL A   1      41.297  27.718  33.694  1.00  0.00     0.014 A 
ATOM     42  C   UNL A   1      41.306  28.609  31.522  1.00  0.00     0.014 A 
ATOM     43  C   UNL A   1      42.704  27.304  33.578  1.00  0.00     0.010 A 
ATOM     44  C   UNL A   1      42.699  28.239  31.425  1.00  0.00     0.010 A 
ATOM     45  C   UNL A   1      43.446  27.510  32.407  1.00  0.00    -0.014 A 
BRANCH  45  46
ATOM     46  C   UNL A   1      44.712  26.722  31.905  1.00  0.00     0.031 A 
ATOM     47  C   UNL A   1      44.296  25.665  30.987  1.00  0.00     0.074 A 
ATOM     48  C   UNL A   1      46.076  26.862  31.672  1.00  0.00     0.049 A 
ATOM     49  N   UNL A   1      44.097  26.030  29.776  1.00  0.00    -0.248 NA
ATOM     50  C   UNL A   1      44.139  24.253  31.252  1.00  0.00     0.031 C 
ATOM     51  C   UNL A   1      47.001  27.840  32.220  1.00  0.00     0.029 A 
ATOM     52  N   UNL A   1      46.912  26.174  30.677  1.00  0.00    -0.354 N 
ATOM     53  C   UNL A   1      43.854  24.926  29.043  1.00  0.00     0.074 A 
ATOM     54  C   UNL A   1      43.896  23.824  30.000  1.00  0.00     0.031 C 
ATOM     55  C   UNL A   1      48.182  27.779  31.556  1.00  0.00     0.029 A 
ATOM     56  C   UNL A   1      48.141  26.822  30.404  1.00  0.00     0.049 A 
ATOM     57  H   UNL A   1      46.641  25.336  30.237  1.00  0.00     0.167 HD
ATOM     58  C   UNL A   1      43.738  25.104  27.703  1.00  0.00     0.034 A 
ATOM     59  C   UNL A   1      48.773  27.141  29.200  1.00  0.00     0.034 A 
ATOM     60  C   UNL A   1      43.759  26.524  27.240  1.00  0.00     0.049 A 
ATOM     61  C   UNL A   1      48.074  28.413  28.925  1.00  0.00     0.074 A 
ATOM     62  C   UNL A   1      43.038  27.286  26.339  1.00  0.00     0.029 A 
ATOM     63  N   UNL A   1      44.613  27.460  27.833  1.00  0.00    -0.354 N 
ATOM     64  N   UNL A   1      46.844  28.371  28.543  1.00  0.00    -0.248 NA
ATOM     65  C   UNL A   1      48.616  29.724  29.215  1.00  0.00     0.031 C 
ATOM     66  C   UNL A   1      43.373  28.679  26.531  1.00  0.00     0.029 A 
ATOM     67  C   UNL A   1      44.347  28.791  27.510  1.00  0.00     0.049 A 
ATOM     68  H   UNL A   1      45.349  27.198  28.433  1.00  0.00     0.167 HD
ATOM     69  C   UNL A   1      46.381  29.641  28.556  1.00  0.00     0.074 A 
ATOM     70  C   UNL A   1      47.484  30.429  29.111  1.00  0.00     0.031 C 
ATOM     71  C   UNL A   1      45.112  29.905  28.142  1.00  0.00     0.034 A 
BRANCH  58  72
ATOM     72  C   UNL A   1      43.792  23.884  26.837  1.00  0.00     0.023 A 
ATOM     73  C   UNL A   1      45.028  23.572  26.248  1.00  0.00     0.012 A 
ATOM     74  C   UNL A   1      42.744  22.937  26.719  1.00  0.00     0.148 A 
ATOM     75  C   UNL A   1      45.240  22.341  25.620  1.00  0.00     0.002 A 
ATOM     76  C   UNL A   1      42.984  21.678  26.169  1.00  0.00     0.091 A 
ATOM     77  F   UNL A   1      41.517  23.263  27.155  1.00  0.00    -0.205 F 
ATOM     78  C   UNL A   1      44.232  21.380  25.611  1.00  0.00     0.022 A 
BRANCH  76  79
ATOM     79  S   UNL A   1      41.785  20.337  26.316  1.00  0.00     0.127 S 
ATOM     80  O   UNL A   1      40.523  21.008  26.017  1.00  0.00    -0.237 OA
ATOM     81  O   UNL A   1      42.231  19.389  25.292  1.00  0.00    -0.237 OA
ATOM     82  O   UNL A   1      41.933  19.836  27.679  1.00  0.00    -0.744 OA
ENDBRANCH  76  79
ENDBRANCH  58  72
BRANCH  59  83
ATOM     83  C   UNL A   1      49.228  26.531  27.838  1.00  0.00     0.023 A 
ATOM     84  C   UNL A   1      50.599  26.618  27.519  1.00  0.00     0.012 A 
ATOM     85  C   UNL A   1      48.364  26.237  26.715  1.00  0.00     0.148 A 
ATOM     86  C   UNL A   1      51.079  26.445  26.196  1.00  0.00     0.002 A 
ATOM     87  C   UNL A   1      48.845  26.091  25.400  1.00  0.00     0.091 A 
ATOM     88  F   UNL A   1      47.048  26.112  26.893  1.00  0.00    -0.205 F 
ATOM     89  C   UNL A   1      50.208  26.197  25.139  1.00  0.00     0.022 A 
BRANCH  87  90
ATOM     90  S   UNL A   1      47.753  25.901  23.957  1.00  0.00     0.127 S 
ATOM     91  O   UNL A   1      47.474  24.461  23.963  1.00  0.00    -0.237 OA
ATOM     92  O   UNL A   1      46.612  26.735  24.326  1.00  0.00    -0.237 OA
ATOM     93  O   UNL A   1      48.530  26.338  22.806  1.00  0.00    -0.744 OA
ENDBRANCH  87  90
ENDBRANCH  59  83
BRANCH  71  94
ATOM     94  C   UNL A   1      44.595  31.286  28.450  1.00  0.00     0.023 A 
ATOM     95  C   UNL A   1      44.023  31.602  29.705  1.00  0.00     0.012 A 
ATOM     96  C   UNL A   1      44.529  32.279  27.467  1.00  0.00     0.148 A 
ATOM     97  C   UNL A   1      43.229  32.734  29.904  1.00  0.00     0.002 A 
ATOM     98  C   UNL A   1      43.875  33.487  27.734  1.00  0.00     0.091 A 
ATOM     99  F   UNL A   1      45.029  32.026  26.253  1.00  0.00    -0.205 F 
ATOM    100  C   UNL A   1      43.153  33.685  28.908  1.00  0.00     0.022 A 
BRANCH  98 101
ATOM    101  S   UNL A   1      44.096  34.896  26.670  1.00  0.00     0.127 S 
ATOM    102  O   UNL A   1      45.550  34.942  26.517  1.00  0.00    -0.237 OA
ATOM    103  O   UNL A   1      43.385  34.541  25.443  1.00  0.00    -0.237 OA
ATOM    104  O   UNL A   1      43.452  35.960  27.423  1.00  0.00    -0.744 OA
ENDBRANCH  98 101
ENDBRANCH  71  94
ENDBRANCH  45  46
ENDBRANCH  37  40
ENDBRANCH  35  36
ENDBRANCH  34  35
ENDBRANCH  33  34
ENDBRANCH  32  33
ENDBRANCH   1  32
TORSDOF 22
ENDMDL
MODEL 2
REMARK VINA RESULT:     -11.3      1.142      2.622
REMARK SMILES Cc1ccc(NC(=O)Cn2c(CCC(=O)NCCCCCCNC(=O)c3ccc(-c4c5nc(c(-c6cccc(S(=O)(=O)[O-])c6F)c6ccc([nH]6)c(-c6cccc(S(=O)(=O)[O-])c6F)c6nc(c(-c7cccc(S(=O)(=O)[O-])c7F)c7ccc4[nH]7)C=C6)C=C5)cc3)ccc2-c2ccccc2)cc1
REMARK SMILES IDX 18 1 17 2 16 3 14 4 15 5 13 7 12 8 11 9 10 10 91 11 89 12
REMARK SMILES IDX 90 13 9 14 7 15 6 16 8 18 5 19 1 20 2 21 3 22 99 23 4 24
REMARK SMILES IDX 98 25 92 26 93 27 97 28 94 29 96 30 95 31 19 32 20 33 21 34
REMARK SMILES IDX 22 35 23 36 24 37 25 39 26 40 27 41 88 42 28 43 87 44 29 45
REMARK SMILES IDX 30 46 31 47 81 48 32 49 86 50 80 51 82 52 33 53 85 54 79 55
REMARK SMILES IDX 78 56 34 58 66 59 46 60 65 61 47 62 50 63 64 64 83 65 48 66
REMARK SMILES IDX 49 67 63 69 84 70 51 71 35 72 36 73 44 74 37 75 39 76 45 77
REMARK SMILES IDX 38 78 40 79 41 80 42 81 43 82 67 83 68 84 76 85 69 86 71 87
REMARK SMILES IDX 77 88 70 89 72 90 73 91 74 92 75 93 52 94 53 95 61 96 54 97
REMARK SMILES IDX 56 98 62 99 55 100 57 101 58 102 59 103 60 104
REMARK H PARENT 16 6 6 17 23 38 82 57 50 68
REMARK Flexibility Score: inf
ROOT
ATOM      1  C   UNL A   1      36.479  29.758  29.272  1.00  0.00     0.021 C 
ENDROOT
BRANCH   1   2
ATOM      2  C   UNL A   1      36.187  29.552  27.762  1.00  0.00     0.116 C 
BRANCH   2   3
ATOM      3  N   UNL A   1      35.078  30.300  27.171  1.00  0.00    -0.356 N 
ATOM      4  C   UNL A   1      33.738  30.022  27.224  1.00  0.00     0.220 C 
ATOM      5  O   UNL A   1      32.920  30.943  27.131  1.00  0.00    -0.275 OA
ATOM      6  H   UNL A   1      35.328  31.110  26.670  1.00  0.00     0.163 HD
BRANCH   4   7
ATOM      7  C   UNL A   1      33.240  28.602  27.364  1.00  0.00     0.106 C 
BRANCH   7   8
ATOM      8  C   UNL A   1      33.348  27.851  26.043  1.00  0.00     0.064 C 
BRANCH   8   9
ATOM      9  C   UNL A   1      32.661  26.521  26.017  1.00  0.00     0.019 A 
ATOM     10  N   UNL A   1      33.073  25.361  25.374  1.00  0.00    -0.335 N 
ATOM     11  C   UNL A   1      32.130  24.351  25.651  1.00  0.00     0.049 A 
ATOM     12  C   UNL A   1      31.433  26.254  26.608  1.00  0.00     0.024 A 
ATOM     13  C   UNL A   1      31.099  24.911  26.372  1.00  0.00     0.029 A 
BRANCH  10  14
ATOM     14  C   UNL A   1      34.325  25.025  24.657  1.00  0.00     0.222 C 
BRANCH  14  15
ATOM     15  C   UNL A   1      34.362  24.628  23.202  1.00  0.00     0.244 C 
ATOM     16  N   UNL A   1      33.667  25.275  22.221  1.00  0.00    -0.325 N 
ATOM     17  H   UNL A   1      33.829  24.958  21.303  1.00  0.00     0.169 HD
ATOM     18  O   UNL A   1      35.022  23.636  22.860  1.00  0.00    -0.273 OA
BRANCH  16  19
ATOM     19  C   UNL A   1      32.758  26.330  22.344  1.00  0.00     0.041 A 
ATOM     20  C   UNL A   1      30.222  29.543  23.592  1.00  0.00     0.044 C 
ATOM     21  C   UNL A   1      31.093  28.463  23.028  1.00  0.00    -0.051 A 
ATOM     22  C   UNL A   1      30.567  27.178  22.871  1.00  0.00     0.005 A 
ATOM     23  C   UNL A   1      32.444  28.691  22.743  1.00  0.00     0.005 A 
ATOM     24  C   UNL A   1      31.395  26.119  22.514  1.00  0.00     0.026 A 
ATOM     25  C   UNL A   1      33.270  27.630  22.369  1.00  0.00     0.026 A 
ENDBRANCH  16  19
ENDBRANCH  14  15
ENDBRANCH  10  14
BRANCH  11  26
ATOM     26  C   UNL A   1      32.372  22.932  25.407  1.00  0.00    -0.002 A 
ATOM     27  C   UNL A   1      31.970  22.242  24.282  1.00  0.00     0.010 A 
ATOM     28  C   UNL A   1      33.073  22.238  26.389  1.00  0.00     0.010 A 
ATOM     29  C   UNL A   1      32.324  20.900  24.169  1.00  0.00     0.001 A 
ATOM     30  C   UNL A   1      33.499  20.938  26.260  1.00  0.00     0.001 A 
ATOM     31  C   UNL A   1      33.097  20.264  25.141  1.00  0.00     0.000 A 
ENDBRANCH  11  26
ENDBRANCH   8   9
ENDBRANCH   7   8
ENDBRANCH   4   7
ENDBRANCH   2   3
ENDBRANCH   1   2
BRANCH   1  32
ATOM     32  C   UNL A   1      36.273  31.189  29.839  1.00  0.00     0.002 C 
BRANCH  32  33
ATOM     33  C   UNL A   1      37.359  31.918  30.771  1.00  0.00     0.002 C 
BRANCH  33  34
ATOM     34  C   UNL A   1      37.624  31.884  32.339  1.00  0.00     0.021 C 
BRANCH  34  35
ATOM     35  C   UNL A   1      37.656  30.755  33.498  1.00  0.00     0.116 C 
BRANCH  35  36
ATOM     36  N   UNL A   1      38.659  29.652  33.754  1.00  0.00    -0.352 N 
ATOM     37  C   UNL A   1      39.348  28.911  32.745  1.00  0.00     0.251 C 
ATOM     38  H   UNL A   1      38.854  29.427  34.693  1.00  0.00     0.163 HD
ATOM     39  O   UNL A   1      38.763  28.548  31.722  1.00  0.00    -0.269 OA
BRANCH  37  40
ATOM     40  C   UNL A   1      40.888  28.576  32.858  1.00  0.00     0.039 A 
ATOM     41  C   UNL A   1      41.412  27.591  33.746  1.00  0.00     0.014 A 
ATOM     42  C   UNL A   1      41.817  29.022  31.930  1.00  0.00     0.014 A 
ATOM     43  C   UNL A   1      42.769  27.028  33.663  1.00  0.00     0.010 A 
ATOM     44  C   UNL A   1      43.163  28.499  31.876  1.00  0.00     0.010 A 
ATOM     45  C   UNL A   1      43.685  27.435  32.682  1.00  0.00    -0.014 A 
BRANCH  45  46
ATOM     46  C   UNL A   1      44.916  26.640  32.110  1.00  0.00     0.031 A 
ATOM     47  C   UNL A   1      44.445  25.600  31.199  1.00  0.00     0.074 A 
ATOM     48  C   UNL A   1      46.269  26.770  31.814  1.00  0.00     0.049 A 
ATOM     49  N   UNL A   1      44.192  25.984  30.004  1.00  0.00    -0.248 NA
ATOM     50  C   UNL A   1      44.286  24.187  31.453  1.00  0.00     0.031 C 
ATOM     51  C   UNL A   1      47.230  27.730  32.330  1.00  0.00     0.029 A 
ATOM     52  N   UNL A   1      47.049  26.087  30.771  1.00  0.00    -0.354 N 
ATOM     53  C   UNL A   1      43.904  24.893  29.269  1.00  0.00     0.074 A 
ATOM     54  C   UNL A   1      43.979  23.778  30.208  1.00  0.00     0.031 C 
ATOM     55  C   UNL A   1      48.377  27.666  31.609  1.00  0.00     0.029 A 
ATOM     56  C   UNL A   1      48.271  26.726  30.449  1.00  0.00     0.049 A 
ATOM     57  H   UNL A   1      46.748  25.258  30.334  1.00  0.00     0.167 HD
ATOM     58  C   UNL A   1      43.726  25.089  27.939  1.00  0.00     0.034 A 
ATOM     59  C   UNL A   1      48.848  27.054  29.220  1.00  0.00     0.034 A 
ATOM     60  C   UNL A   1      43.740  26.515  27.493  1.00  0.00     0.049 A 
ATOM     61  C   UNL A   1      48.151  28.337  28.995  1.00  0.00     0.074 A 
ATOM     62  C   UNL A   1      42.985  27.297  26.638  1.00  0.00     0.029 A 
ATOM     63  N   UNL A   1      44.632  27.434  28.057  1.00  0.00    -0.354 N 
ATOM     64  N   UNL A   1      46.904  28.312  28.672  1.00  0.00    -0.248 NA
ATOM     65  C   UNL A   1      48.721  29.638  29.276  1.00  0.00     0.031 C 
ATOM     66  C   UNL A   1      43.345  28.684  26.832  1.00  0.00     0.029 A 
ATOM     67  C   UNL A   1      44.365  28.772  27.765  1.00  0.00     0.049 A 
ATOM     68  H   UNL A   1      45.392  27.157  28.618  1.00  0.00     0.167 HD
ATOM     69  C   UNL A   1      46.456  29.587  28.723  1.00  0.00     0.074 A 
ATOM     70  C   UNL A   1      47.592  30.356  29.235  1.00  0.00     0.031 C 
ATOM     71  C   UNL A   1      45.172  29.869  28.374  1.00  0.00     0.034 A 
BRANCH  58  72
ATOM     72  C   UNL A   1      43.724  23.880  27.055  1.00  0.00     0.023 A 
ATOM     73  C   UNL A   1      44.960  23.477  26.524  1.00  0.00     0.012 A 
ATOM     74  C   UNL A   1      42.611  23.024  26.870  1.00  0.00     0.148 A 
ATOM     75  C   UNL A   1      45.103  22.241  25.886  1.00  0.00     0.002 A 
ATOM     76  C   UNL A   1      42.776  21.757  26.311  1.00  0.00     0.091 A 
ATOM     77  F   UNL A   1      41.394  23.443  27.249  1.00  0.00    -0.205 F 
ATOM     78  C   UNL A   1      44.023  21.366  25.810  1.00  0.00     0.022 A 
BRANCH  76  79
ATOM     79  S   UNL A   1      41.468  20.516  26.375  1.00  0.00     0.127 S 
ATOM     80  O   UNL A   1      41.968  19.483  25.473  1.00  0.00    -0.237 OA
ATOM     81  O   UNL A   1      41.449  20.136  27.789  1.00  0.00    -0.237 OA
ATOM     82  O   UNL A   1      40.258  21.209  25.942  1.00  0.00    -0.744 OA
ENDBRANCH  76  79
ENDBRANCH  58  72
BRANCH  59  83
ATOM     83  C   UNL A   1      49.231  26.457  27.830  1.00  0.00     0.023 A 
ATOM     84  C   UNL A   1      50.575  26.583  27.423  1.00  0.00     0.012 A 
ATOM     85  C   UNL A   1      48.305  26.140  26.764  1.00  0.00     0.148 A 
ATOM     86  C   UNL A   1      50.973  26.424  26.072  1.00  0.00     0.002 A 
ATOM     87  C   UNL A   1      48.704  26.008  25.421  1.00  0.00     0.091 A 
ATOM     88  F   UNL A   1      47.008  25.978  27.027  1.00  0.00    -0.205 F 
ATOM     89  C   UNL A   1      50.043  26.152  25.073  1.00  0.00     0.022 A 
BRANCH  87  90
ATOM     90  S   UNL A   1      47.526  25.789  24.051  1.00  0.00     0.127 S 
ATOM     91  O   UNL A   1      47.220  24.356  24.128  1.00  0.00    -0.237 OA
ATOM     92  O   UNL A   1      46.425  26.660  24.452  1.00  0.00    -0.237 OA
ATOM     93  O   UNL A   1      48.244  26.165  22.842  1.00  0.00    -0.744 OA
ENDBRANCH  87  90
ENDBRANCH  59  83
BRANCH  71  94
ATOM     94  C   UNL A   1      44.685  31.251  28.724  1.00  0.00     0.023 A 
ATOM     95  C   UNL A   1      44.226  31.570  30.023  1.00  0.00     0.012 A 
ATOM     96  C   UNL A   1      44.533  32.243  27.749  1.00  0.00     0.148 A 
ATOM     97  C   UNL A   1      43.454  32.704  30.290  1.00  0.00     0.002 A 
ATOM     98  C   UNL A   1      43.907  33.452  28.070  1.00  0.00     0.091 A 
ATOM     99  F   UNL A   1      44.924  31.988  26.495  1.00  0.00    -0.205 F 
ATOM    100  C   UNL A   1      43.292  33.652  29.303  1.00  0.00     0.022 A 
BRANCH  98 101
ATOM    101  S   UNL A   1      44.035  34.859  26.988  1.00  0.00     0.127 S 
ATOM    102  O   UNL A   1      43.463  34.345  25.744  1.00  0.00    -0.237 OA
ATOM    103  O   UNL A   1      43.219  35.888  27.631  1.00  0.00    -0.237 OA
ATOM    104  O   UNL A   1      45.460  35.149  27.020  1.00  0.00    -0.744 OA
ENDBRANCH  98 101
ENDBRANCH  71  94
ENDBRANCH  45  46
ENDBRANCH  37  40
ENDBRANCH  35  36
ENDBRANCH  34  35
ENDBRANCH  33  34
ENDBRANCH  32  33
ENDBRANCH   1  32
TORSDOF 22
ENDMDL
MODEL 3
REMARK VINA RESULT:     -11.1      4.476     10.406
REMARK SMILES Cc1ccc(NC(=O)Cn2c(CCC(=O)NCCCCCCNC(=O)c3ccc(-c4c5nc(c(-c6cccc(S(=O)(=O)[O-])c6F)c6ccc([nH]6)c(-c6cccc(S(=O)(=O)[O-])c6F)c6nc(c(-c7cccc(S(=O)(=O)[O-])c7F)c7ccc4[nH]7)C=C6)C=C5)cc3)ccc2-c2ccccc2)cc1
REMARK SMILES IDX 18 1 17 2 16 3 14 4 15 5 13 7 12 8 11 9 10 10 91 11 89 12
REMARK SMILES IDX 90 13 9 14 7 15 6 16 8 18 5 19 1 20 2 21 3 22 99 23 4 24
REMARK SMILES IDX 98 25 92 26 93 27 97 28 94 29 96 30 95 31 19 32 20 33 21 34
REMARK SMILES IDX 22 35 23 36 24 37 25 39 26 40 27 41 88 42 28 43 87 44 29 45
REMARK SMILES IDX 30 46 31 47 81 48 32 49 86 50 80 51 82 52 33 53 85 54 79 55
REMARK SMILES IDX 78 56 34 58 66 59 46 60 65 61 47 62 50 63 64 64 83 65 48 66
REMARK SMILES IDX 49 67 63 69 84 70 51 71 35 72 36 73 44 74 37 75 39 76 45 77
REMARK SMILES IDX 38 78 40 79 41 80 42 81 43 82 67 83 68 84 76 85 69 86 71 87
REMARK SMILES IDX 77 88 70 89 72 90 73 91 74 92 75 93 52 94 53 95 61 96 54 97
REMARK SMILES IDX 56 98 62 99 55 100 57 101 58 102 59 103 60 104
REMARK H PARENT 16 6 6 17 23 38 82 57 50 68
REMARK Flexibility Score: inf
ROOT
ATOM      1  C   UNL A   1      39.295  22.064  26.503  1.00  0.00     0.021 C 
ENDROOT
BRANCH   1   2
ATOM      2  C   UNL A   1      37.925  22.569  25.975  1.00  0.00     0.116 C 
BRANCH   2   3
ATOM      3  N   UNL A   1      37.787  22.789  24.535  1.00  0.00    -0.356 N 
ATOM      4  C   UNL A   1      36.680  22.611  23.748  1.00  0.00     0.220 C 
ATOM      5  O   UNL A   1      36.554  23.275  22.715  1.00  0.00    -0.275 OA
ATOM      6  H   UNL A   1      38.596  23.107  24.072  1.00  0.00     0.163 HD
BRANCH   4   7
ATOM      7  C   UNL A   1      35.623  21.592  24.106  1.00  0.00     0.106 C 
BRANCH   7   8
ATOM      8  C   UNL A   1      34.432  22.253  24.788  1.00  0.00     0.064 C 
BRANCH   8   9
ATOM      9  C   UNL A   1      33.693  23.242  23.943  1.00  0.00     0.019 A 
ATOM     10  N   UNL A   1      33.106  24.436  24.343  1.00  0.00    -0.335 N 
ATOM     11  C   UNL A   1      32.550  25.052  23.204  1.00  0.00     0.049 A 
ATOM     12  C   UNL A   1      33.424  23.082  22.589  1.00  0.00     0.024 A 
ATOM     13  C   UNL A   1      32.706  24.199  22.134  1.00  0.00     0.029 A 
BRANCH  10  14
ATOM     14  C   UNL A   1      33.132  25.160  25.635  1.00  0.00     0.222 C 
BRANCH  14  15
ATOM     15  C   UNL A   1      31.900  25.397  26.474  1.00  0.00     0.244 C 
ATOM     16  N   UNL A   1      31.528  26.622  26.947  1.00  0.00    -0.325 N 
ATOM     17  H   UNL A   1      30.667  26.651  27.425  1.00  0.00     0.169 HD
ATOM     18  O   UNL A   1      31.192  24.432  26.797  1.00  0.00    -0.273 OA
BRANCH  16  19
ATOM     19  C   UNL A   1      32.203  27.841  26.842  1.00  0.00     0.041 A 
ATOM     20  C   UNL A   1      34.313  31.519  27.422  1.00  0.00     0.044 C 
ATOM     21  C   UNL A   1      33.615  30.236  27.090  1.00  0.00    -0.051 A 
ATOM     22  C   UNL A   1      32.233  30.248  26.881  1.00  0.00     0.005 A 
ATOM     23  C   UNL A   1      34.300  29.017  27.074  1.00  0.00     0.005 A 
ATOM     24  C   UNL A   1      31.533  29.055  26.741  1.00  0.00     0.026 A 
ATOM     25  C   UNL A   1      33.599  27.820  26.917  1.00  0.00     0.026 A 
ENDBRANCH  16  19
ENDBRANCH  14  15
ENDBRANCH  10  14
BRANCH  11  26
ATOM     26  C   UNL A   1      32.122  26.447  23.169  1.00  0.00    -0.002 A 
ATOM     27  C   UNL A   1      32.967  27.537  23.218  1.00  0.00     0.010 A 
ATOM     28  C   UNL A   1      30.752  26.680  23.066  1.00  0.00     0.010 A 
ATOM     29  C   UNL A   1      32.409  28.810  23.120  1.00  0.00     0.001 A 
ATOM     30  C   UNL A   1      30.192  27.922  22.888  1.00  0.00     0.001 A 
ATOM     31  C   UNL A   1      31.038  28.994  22.937  1.00  0.00     0.000 A 
ENDBRANCH  11  26
ENDBRANCH   8   9
ENDBRANCH   7   8
ENDBRANCH   4   7
ENDBRANCH   2   3
ENDBRANCH   1   2
BRANCH   1  32
ATOM     32  C   UNL A   1      40.201  23.105  27.215  1.00  0.00     0.002 C 
BRANCH  32  33
ATOM     33  C   UNL A   1      40.141  24.676  26.889  1.00  0.00     0.002 C 
BRANCH  33  34
ATOM     34  C   UNL A   1      41.040  25.619  25.976  1.00  0.00     0.021 C 
BRANCH  34  35
ATOM     35  C   UNL A   1      41.615  27.129  26.059  1.00  0.00     0.116 C 
BRANCH  35  36
ATOM     36  N   UNL A   1      42.617  27.737  27.016  1.00  0.00    -0.352 N 
ATOM     37  C   UNL A   1      43.641  28.667  26.658  1.00  0.00     0.251 C 
ATOM     38  H   UNL A   1      42.557  27.472  27.962  1.00  0.00     0.163 HD
ATOM     39  O   UNL A   1      44.277  28.529  25.610  1.00  0.00    -0.269 OA
BRANCH  37  40
ATOM     40  C   UNL A   1      43.966  29.935  27.542  1.00  0.00     0.039 A 
ATOM     41  C   UNL A   1      44.031  31.259  27.017  1.00  0.00     0.014 A 
ATOM     42  C   UNL A   1      43.957  29.898  28.929  1.00  0.00     0.014 A 
ATOM     43  C   UNL A   1      44.014  32.484  27.833  1.00  0.00     0.010 A 
ATOM     44  C   UNL A   1      43.982  31.101  29.730  1.00  0.00     0.010 A 
ATOM     45  C   UNL A   1      43.939  32.444  29.233  1.00  0.00    -0.014 A 
BRANCH  45  46
ATOM     46  C   UNL A   1      43.403  33.553  30.211  1.00  0.00     0.031 A 
ATOM     47  C   UNL A   1      42.005  33.842  29.902  1.00  0.00     0.074 A 
ATOM     48  C   UNL A   1      43.591  34.084  31.483  1.00  0.00     0.049 A 
ATOM     49  N   UNL A   1      41.148  33.039  30.412  1.00  0.00    -0.248 NA
ATOM     50  C   UNL A   1      41.460  34.948  29.149  1.00  0.00     0.031 C 
ATOM     51  C   UNL A   1      44.757  33.999  32.346  1.00  0.00     0.029 A 
ATOM     52  N   UNL A   1      42.602  34.720  32.366  1.00  0.00    -0.354 N 
ATOM     53  C   UNL A   1      39.918  33.519  30.146  1.00  0.00     0.074 A 
ATOM     54  C   UNL A   1      40.149  34.725  29.357  1.00  0.00     0.031 C 
ATOM     55  C   UNL A   1      44.443  34.442  33.588  1.00  0.00     0.029 A 
ATOM     56  C   UNL A   1      42.989  34.771  33.727  1.00  0.00     0.049 A 
ATOM     57  H   UNL A   1      41.745  35.078  32.040  1.00  0.00     0.167 HD
ATOM     58  C   UNL A   1      38.876  32.862  30.714  1.00  0.00     0.034 A 
ATOM     59  C   UNL A   1      42.301  34.445  34.899  1.00  0.00     0.034 A 
ATOM     60  C   UNL A   1      39.231  31.610  31.449  1.00  0.00     0.049 A 
ATOM     61  C   UNL A   1      42.572  32.993  34.906  1.00  0.00     0.074 A 
ATOM     62  C   UNL A   1      38.718  30.329  31.534  1.00  0.00     0.029 A 
ATOM     63  N   UNL A   1      40.397  31.536  32.218  1.00  0.00    -0.354 N 
ATOM     64  N   UNL A   1      41.957  32.247  34.054  1.00  0.00    -0.248 NA
ATOM     65  C   UNL A   1      43.611  32.359  35.690  1.00  0.00     0.031 C 
ATOM     66  C   UNL A   1      39.671  29.488  32.223  1.00  0.00     0.029 A 
ATOM     67  C   UNL A   1      40.757  30.249  32.623  1.00  0.00     0.049 A 
ATOM     68  H   UNL A   1      40.924  32.332  32.458  1.00  0.00     0.167 HD
ATOM     69  C   UNL A   1      42.519  31.019  34.125  1.00  0.00     0.074 A 
ATOM     70  C   UNL A   1      43.633  31.177  35.062  1.00  0.00     0.031 C 
ATOM     71  C   UNL A   1      42.027  30.003  33.366  1.00  0.00     0.034 A 
BRANCH  58  72
ATOM     72  C   UNL A   1      37.543  33.543  30.708  1.00  0.00     0.023 A 
ATOM     73  C   UNL A   1      36.866  33.609  29.480  1.00  0.00     0.012 A 
ATOM     74  C   UNL A   1      36.848  33.957  31.871  1.00  0.00     0.148 A 
ATOM     75  C   UNL A   1      35.528  34.010  29.412  1.00  0.00     0.002 A 
ATOM     76  C   UNL A   1      35.491  34.273  31.812  1.00  0.00     0.091 A 
ATOM     77  F   UNL A   1      37.510  34.031  33.036  1.00  0.00    -0.205 F 
ATOM     78  C   UNL A   1      34.830  34.307  30.579  1.00  0.00     0.022 A 
BRANCH  76  79
ATOM     79  S   UNL A   1      34.498  34.464  33.306  1.00  0.00     0.127 S 
ATOM     80  O   UNL A   1      35.018  35.704  33.875  1.00  0.00    -0.237 OA
ATOM     81  O   UNL A   1      33.134  34.559  32.780  1.00  0.00    -0.237 OA
ATOM     82  O   UNL A   1      34.739  33.255  34.087  1.00  0.00    -0.744 OA
ENDBRANCH  76  79
ENDBRANCH  58  72
BRANCH  59  83
ATOM     83  C   UNL A   1      40.963  34.695  35.662  1.00  0.00     0.023 A 
ATOM     84  C   UNL A   1      40.971  35.679  36.672  1.00  0.00     0.012 A 
ATOM     85  C   UNL A   1      39.841  33.783  35.718  1.00  0.00     0.148 A 
ATOM     86  C   UNL A   1      39.963  35.751  37.665  1.00  0.00     0.002 A 
ATOM     87  C   UNL A   1      38.857  33.844  36.722  1.00  0.00     0.091 A 
ATOM     88  F   UNL A   1      39.712  32.819  34.806  1.00  0.00    -0.205 F 
ATOM     89  C   UNL A   1      38.919  34.831  37.701  1.00  0.00     0.022 A 
BRANCH  87  90
ATOM     90  S   UNL A   1      37.545  32.597  36.907  1.00  0.00     0.127 S 
ATOM     91  O   UNL A   1      38.088  31.724  37.954  1.00  0.00    -0.237 OA
ATOM     92  O   UNL A   1      36.409  33.410  37.333  1.00  0.00    -0.237 OA
ATOM     93  O   UNL A   1      37.426  31.945  35.611  1.00  0.00    -0.744 OA
ENDBRANCH  87  90
ENDBRANCH  59  83
BRANCH  71  94
ATOM     94  C   UNL A   1      42.877  28.761  33.300  1.00  0.00     0.023 A 
ATOM     95  C   UNL A   1      43.902  28.613  32.336  1.00  0.00     0.012 A 
ATOM     96  C   UNL A   1      42.604  27.643  34.095  1.00  0.00     0.148 A 
ATOM     97  C   UNL A   1      44.459  27.372  32.017  1.00  0.00     0.002 A 
ATOM     98  C   UNL A   1      43.292  26.445  33.880  1.00  0.00     0.091 A 
ATOM     99  F   UNL A   1      41.626  27.716  35.005  1.00  0.00    -0.205 F 
ATOM    100  C   UNL A   1      44.150  26.278  32.796  1.00  0.00     0.022 A 
BRANCH  98 101
ATOM    101  S   UNL A   1      43.252  25.142  35.092  1.00  0.00     0.127 S 
ATOM    102  O   UNL A   1      41.817  24.898  35.235  1.00  0.00    -0.237 OA
ATOM    103  O   UNL A   1      43.979  24.039  34.465  1.00  0.00    -0.237 OA
ATOM    104  O   UNL A   1      43.962  25.737  36.213  1.00  0.00    -0.744 OA
ENDBRANCH  98 101
ENDBRANCH  71  94
ENDBRANCH  45  46
ENDBRANCH  37  40
ENDBRANCH  35  36
ENDBRANCH  34  35
ENDBRANCH  33  34
ENDBRANCH  32  33
ENDBRANCH   1  32
TORSDOF 22
ENDMDL
