MODEL 1
REMARK VINA RESULT:     -12.5      0.000      0.000
REMARK SMILES Cc1nc(NC(=O)[C@@H]2CCC[C@@H](C(=O)NCCCCCCNC(=O)c3ccc(-c4c5nc(c(-c6cccc(S(=O)(=O)[O-])c6F)c6ccc([nH]6)c(-c6cccc(S(=O)(=O)[O-])c6F)c6nc(c(-c7cccc(S(=O)(=O)[O-])c7F)c7ccc4[nH]7)C=C6)C=C5)cc3)C2)ccc1Br
REMARK SMILES IDX 19 1 18 2 17 3 16 4 15 5 13 6 14 7 12 9 8 10 9 11 88 12
REMARK SMILES IDX 10 13 11 14 6 15 5 16 7 18 4 19 1 20 2 21 3 22 91 23 90 24
REMARK SMILES IDX 92 25 89 26 20 27 21 28 22 29 23 30 24 32 25 33 26 34 87 35
REMARK SMILES IDX 27 36 86 37 28 38 29 39 30 40 80 41 31 42 85 43 79 44 81 45
REMARK SMILES IDX 32 46 84 47 78 48 77 49 33 51 65 52 45 53 64 54 46 55 49 56
REMARK SMILES IDX 63 57 82 58 47 59 48 60 62 62 83 63 50 64 34 65 35 66 43 67
REMARK SMILES IDX 36 68 38 69 44 70 37 71 39 72 40 73 41 74 42 75 66 76 67 77
REMARK SMILES IDX 75 78 68 79 70 80 76 81 69 82 71 83 72 84 73 85 74 86 51 87
REMARK SMILES IDX 52 88 60 89 53 90 55 91 61 92 54 93 56 94 57 95 58 96 59 97
REMARK H PARENT 15 8 5 17 22 31 81 50 49 61
REMARK Flexibility Score: inf
ROOT
ATOM      1  C   UNL A   1      31.773  29.335  24.086  1.00  0.00     0.002 C 
ENDROOT
BRANCH   1   2
ATOM      2  C   UNL A   1      33.185  28.737  24.145  1.00  0.00     0.002 C 
BRANCH   2   3
ATOM      3  C   UNL A   1      33.785  28.299  22.802  1.00  0.00     0.021 C 
BRANCH   3   4
ATOM      4  C   UNL A   1      33.011  27.200  22.077  1.00  0.00     0.116 C 
BRANCH   4   5
ATOM      5  N   UNL A   1      33.371  25.893  22.578  1.00  0.00    -0.356 N 
ATOM      6  C   UNL A   1      32.704  24.857  23.115  1.00  0.00     0.223 C 
ATOM      7  O   UNL A   1      33.439  23.926  23.485  1.00  0.00    -0.275 OA
ATOM      8  H   UNL A   1      34.338  25.720  22.510  1.00  0.00     0.163 HD
BRANCH   6   9
ATOM      9  C   UNL A   1      31.182  24.704  23.288  1.00  0.00     0.079 C 
ATOM     10  C   UNL A   1      31.037  24.289  25.792  1.00  0.00     0.079 C 
ATOM     11  C   UNL A   1      29.966  25.373  25.946  1.00  0.00     0.013 C 
ATOM     12  C   UNL A   1      30.929  23.658  24.398  1.00  0.00     0.027 C 
ATOM     13  C   UNL A   1      30.181  26.458  24.889  1.00  0.00     0.002 C 
ATOM     14  C   UNL A   1      30.217  25.878  23.473  1.00  0.00     0.013 C 
BRANCH  10  15
ATOM     15  C   UNL A   1      30.905  23.203  26.846  1.00  0.00     0.228 C 
ATOM     16  N   UNL A   1      31.890  22.296  27.080  1.00  0.00    -0.310 N 
ATOM     17  H   UNL A   1      31.660  21.687  27.820  1.00  0.00     0.171 HD
ATOM     18  O   UNL A   1      29.882  23.128  27.536  1.00  0.00    -0.274 OA
BRANCH  16  19
ATOM     19  C   UNL A   1      33.141  22.008  26.540  1.00  0.00     0.132 A 
ATOM     20  C   UNL A   1      34.244  19.116  24.550  1.00  0.00     0.068 C 
ATOM     21  C   UNL A   1      34.328  20.397  25.327  1.00  0.00     0.054 A 
ATOM     22  N   UNL A   1      33.152  20.851  25.843  1.00  0.00    -0.235 NA
ATOM     23  C   UNL A   1      35.526  21.084  25.499  1.00  0.00     0.039 A 
ATOM     24  C   UNL A   1      35.492  22.302  26.163  1.00  0.00     0.021 A 
ATOM     25  Br  UNL A   1      37.189  20.451  24.853  1.00  0.00    -0.049 Br
ATOM     26  C   UNL A   1      34.281  22.782  26.663  1.00  0.00     0.048 A 
ENDBRANCH  16  19
ENDBRANCH  10  15
ENDBRANCH   6   9
ENDBRANCH   4   5
ENDBRANCH   3   4
ENDBRANCH   2   3
ENDBRANCH   1   2
BRANCH   1  27
ATOM     27  C   UNL A   1      31.254  29.943  25.391  1.00  0.00     0.021 C 
BRANCH  27  28
ATOM     28  C   UNL A   1      32.335  30.466  26.332  1.00  0.00     0.116 C 
BRANCH  28  29
ATOM     29  N   UNL A   1      32.172  31.880  26.627  1.00  0.00    -0.352 N 
ATOM     30  C   UNL A   1      32.971  32.689  27.400  1.00  0.00     0.251 C 
ATOM     31  H   UNL A   1      31.388  32.314  26.219  1.00  0.00     0.163 HD
ATOM     32  O   UNL A   1      32.621  33.825  27.687  1.00  0.00    -0.269 OA
BRANCH  30  33
ATOM     33  C   UNL A   1      34.250  32.149  27.905  1.00  0.00     0.039 A 
ATOM     34  C   UNL A   1      35.340  33.010  28.043  1.00  0.00     0.014 A 
ATOM     35  C   UNL A   1      34.346  30.807  28.288  1.00  0.00     0.014 A 
ATOM     36  C   UNL A   1      36.515  32.538  28.630  1.00  0.00     0.010 A 
ATOM     37  C   UNL A   1      35.504  30.352  28.918  1.00  0.00     0.010 A 
ATOM     38  C   UNL A   1      36.595  31.214  29.098  1.00  0.00    -0.014 A 
BRANCH  38  39
ATOM     39  C   UNL A   1      37.814  30.736  29.793  1.00  0.00     0.031 A 
ATOM     40  C   UNL A   1      38.124  31.202  31.187  1.00  0.00     0.074 A 
ATOM     41  C   UNL A   1      38.661  29.906  29.151  1.00  0.00     0.049 A 
ATOM     42  N   UNL A   1      39.104  30.839  31.971  1.00  0.00    -0.248 NA
ATOM     43  C   UNL A   1      37.229  32.214  31.776  1.00  0.00     0.031 C 
ATOM     44  C   UNL A   1      38.506  29.441  27.771  1.00  0.00     0.029 A 
ATOM     45  N   UNL A   1      39.823  29.309  29.572  1.00  0.00    -0.354 N 
ATOM     46  C   UNL A   1      38.955  31.581  33.134  1.00  0.00     0.074 A 
ATOM     47  C   UNL A   1      37.809  32.441  32.947  1.00  0.00     0.031 C 
ATOM     48  C   UNL A   1      39.518  28.610  27.470  1.00  0.00     0.029 A 
ATOM     49  C   UNL A   1      40.398  28.489  28.630  1.00  0.00     0.049 A 
ATOM     50  H   UNL A   1      40.209  29.453  30.467  1.00  0.00     0.167 HD
ATOM     51  C   UNL A   1      39.685  31.521  34.270  1.00  0.00     0.034 A 
ATOM     52  C   UNL A   1      41.495  27.708  28.700  1.00  0.00     0.034 A 
ATOM     53  C   UNL A   1      40.784  30.619  34.478  1.00  0.00     0.049 A 
ATOM     54  C   UNL A   1      42.271  27.644  29.987  1.00  0.00     0.074 A 
ATOM     55  C   UNL A   1      41.511  30.412  35.636  1.00  0.00     0.029 A 
ATOM     56  N   UNL A   1      41.312  29.782  33.511  1.00  0.00    -0.354 N 
ATOM     57  N   UNL A   1      42.011  28.228  31.130  1.00  0.00    -0.248 NA
ATOM     58  C   UNL A   1      43.472  26.795  30.004  1.00  0.00     0.031 C 
ATOM     59  C   UNL A   1      42.486  29.448  35.367  1.00  0.00     0.029 A 
ATOM     60  C   UNL A   1      42.364  29.062  34.042  1.00  0.00     0.049 A 
ATOM     61  H   UNL A   1      40.987  29.710  32.584  1.00  0.00     0.167 HD
ATOM     62  C   UNL A   1      42.995  27.793  32.011  1.00  0.00     0.074 A 
ATOM     63  C   UNL A   1      43.855  26.892  31.272  1.00  0.00     0.031 C 
ATOM     64  C   UNL A   1      43.174  28.124  33.311  1.00  0.00     0.034 A 
BRANCH  51  65
ATOM     65  C   UNL A   1      39.274  32.384  35.427  1.00  0.00     0.023 A 
ATOM     66  C   UNL A   1      38.459  31.824  36.432  1.00  0.00     0.012 A 
ATOM     67  C   UNL A   1      39.793  33.680  35.590  1.00  0.00     0.148 A 
ATOM     68  C   UNL A   1      38.165  32.547  37.586  1.00  0.00     0.002 A 
ATOM     69  C   UNL A   1      39.515  34.386  36.754  1.00  0.00     0.091 A 
ATOM     70  F   UNL A   1      40.562  34.187  34.615  1.00  0.00    -0.205 F 
ATOM     71  C   UNL A   1      38.700  33.821  37.751  1.00  0.00     0.022 A 
BRANCH  69  72
ATOM     72  S   UNL A   1      40.190  36.015  37.093  1.00  0.00     0.127 S 
ATOM     73  O   UNL A   1      39.743  36.770  35.923  1.00  0.00    -0.237 OA
ATOM     74  O   UNL A   1      39.515  36.370  38.342  1.00  0.00    -0.237 OA
ATOM     75  O   UNL A   1      41.632  35.843  37.196  1.00  0.00    -0.744 OA
ENDBRANCH  69  72
ENDBRANCH  51  65
BRANCH  52  76
ATOM     76  C   UNL A   1      41.861  26.839  27.549  1.00  0.00     0.023 A 
ATOM     77  C   UNL A   1      42.547  27.409  26.460  1.00  0.00     0.012 A 
ATOM     78  C   UNL A   1      41.572  25.462  27.538  1.00  0.00     0.148 A 
ATOM     79  C   UNL A   1      42.926  26.625  25.370  1.00  0.00     0.002 A 
ATOM     80  C   UNL A   1      41.983  24.679  26.464  1.00  0.00     0.091 A 
ATOM     81  F   UNL A   1      40.907  24.944  28.581  1.00  0.00    -0.205 F 
ATOM     82  C   UNL A   1      42.651  25.260  25.375  1.00  0.00     0.022 A 
BRANCH  80  83
ATOM     83  S   UNL A   1      41.762  22.896  26.429  1.00  0.00     0.127 S 
ATOM     84  O   UNL A   1      42.468  22.484  27.639  1.00  0.00    -0.237 OA
ATOM     85  O   UNL A   1      40.306  22.769  26.489  1.00  0.00    -0.237 OA
ATOM     86  O   UNL A   1      42.350  22.454  25.171  1.00  0.00    -0.744 OA
ENDBRANCH  80  83
ENDBRANCH  52  76
BRANCH  64  87
ATOM     87  C   UNL A   1      44.332  27.518  34.053  1.00  0.00     0.023 A 
ATOM     88  C   UNL A   1      45.542  28.231  34.125  1.00  0.00     0.012 A 
ATOM     89  C   UNL A   1      44.161  26.347  34.816  1.00  0.00     0.148 A 
ATOM     90  C   UNL A   1      46.571  27.788  34.955  1.00  0.00     0.002 A 
ATOM     91  C   UNL A   1      45.179  25.930  35.665  1.00  0.00     0.091 A 
ATOM     92  F   UNL A   1      42.995  25.692  34.727  1.00  0.00    -0.205 F 
ATOM     93  C   UNL A   1      46.385  26.648  35.733  1.00  0.00     0.022 A 
BRANCH  91  94
ATOM     94  S   UNL A   1      45.009  24.523  36.769  1.00  0.00     0.127 S 
ATOM     95  O   UNL A   1      43.909  24.953  37.632  1.00  0.00    -0.237 OA
ATOM     96  O   UNL A   1      44.672  23.444  35.841  1.00  0.00    -0.237 OA
ATOM     97  O   UNL A   1      46.294  24.376  37.440  1.00  0.00    -0.744 OA
ENDBRANCH  91  94
ENDBRANCH  64  87
ENDBRANCH  38  39
ENDBRANCH  30  33
ENDBRANCH  28  29
ENDBRANCH  27  28
ENDBRANCH   1  27
TORSDOF 18
ENDMDL
MODEL 2
REMARK VINA RESULT:     -12.5      5.085     10.245
REMARK SMILES Cc1nc(NC(=O)[C@@H]2CCC[C@@H](C(=O)NCCCCCCNC(=O)c3ccc(-c4c5nc(c(-c6cccc(S(=O)(=O)[O-])c6F)c6ccc([nH]6)c(-c6cccc(S(=O)(=O)[O-])c6F)c6nc(c(-c7cccc(S(=O)(=O)[O-])c7F)c7ccc4[nH]7)C=C6)C=C5)cc3)C2)ccc1Br
REMARK SMILES IDX 19 1 18 2 17 3 16 4 15 5 13 6 14 7 12 9 8 10 9 11 88 12
REMARK SMILES IDX 10 13 11 14 6 15 5 16 7 18 4 19 1 20 2 21 3 22 91 23 90 24
REMARK SMILES IDX 92 25 89 26 20 27 21 28 22 29 23 30 24 32 25 33 26 34 87 35
REMARK SMILES IDX 27 36 86 37 28 38 29 39 30 40 80 41 31 42 85 43 79 44 81 45
REMARK SMILES IDX 32 46 84 47 78 48 77 49 33 51 65 52 45 53 64 54 46 55 49 56
REMARK SMILES IDX 63 57 82 58 47 59 48 60 62 62 83 63 50 64 34 65 35 66 43 67
REMARK SMILES IDX 36 68 38 69 44 70 37 71 39 72 40 73 41 74 42 75 66 76 67 77
REMARK SMILES IDX 75 78 68 79 70 80 76 81 69 82 71 83 72 84 73 85 74 86 51 87
REMARK SMILES IDX 52 88 60 89 53 90 55 91 61 92 54 93 56 94 57 95 58 96 59 97
REMARK H PARENT 15 8 5 17 22 31 81 50 49 61
REMARK Flexibility Score: inf
ROOT
ATOM      1  C   UNL A   1      36.271  23.165  23.971  1.00  0.00     0.002 C 
ENDROOT
BRANCH   1   2
ATOM      2  C   UNL A   1      36.057  24.042  25.212  1.00  0.00     0.002 C 
BRANCH   2   3
ATOM      3  C   UNL A   1      34.656  24.648  25.372  1.00  0.00     0.021 C 
BRANCH   3   4
ATOM      4  C   UNL A   1      33.600  23.696  25.930  1.00  0.00     0.116 C 
BRANCH   4   5
ATOM      5  N   UNL A   1      32.324  24.361  26.072  1.00  0.00    -0.356 N 
ATOM      6  C   UNL A   1      31.205  24.451  25.332  1.00  0.00     0.223 C 
ATOM      7  O   UNL A   1      30.348  25.211  25.813  1.00  0.00    -0.275 OA
ATOM      8  H   UNL A   1      32.259  24.871  26.912  1.00  0.00     0.163 HD
BRANCH   6   9
ATOM      9  C   UNL A   1      30.883  23.719  24.018  1.00  0.00     0.079 C 
ATOM     10  C   UNL A   1      32.631  24.734  22.478  1.00  0.00     0.079 C 
ATOM     11  C   UNL A   1      33.076  23.345  22.009  1.00  0.00     0.013 C 
ATOM     12  C   UNL A   1      31.143  24.695  22.849  1.00  0.00     0.027 C 
ATOM     13  C   UNL A   1      32.869  22.333  23.137  1.00  0.00     0.002 C 
ATOM     14  C   UNL A   1      31.427  22.336  23.649  1.00  0.00     0.013 C 
BRANCH  10  15
ATOM     15  C   UNL A   1      32.855  25.794  21.414  1.00  0.00     0.228 C 
ATOM     16  N   UNL A   1      32.792  27.124  21.689  1.00  0.00    -0.310 N 
ATOM     17  H   UNL A   1      32.999  27.674  20.899  1.00  0.00     0.171 HD
ATOM     18  O   UNL A   1      33.118  25.463  20.252  1.00  0.00    -0.274 OA
BRANCH  16  19
ATOM     19  C   UNL A   1      32.509  27.906  22.806  1.00  0.00     0.132 A 
ATOM     20  C   UNL A   1      34.327  28.220  25.991  1.00  0.00     0.068 C 
ATOM     21  C   UNL A   1      33.243  28.411  24.971  1.00  0.00     0.054 A 
ATOM     22  N   UNL A   1      33.432  27.769  23.784  1.00  0.00    -0.235 NA
ATOM     23  C   UNL A   1      32.124  29.200  25.216  1.00  0.00     0.039 A 
ATOM     24  C   UNL A   1      31.213  29.383  24.184  1.00  0.00     0.021 A 
ATOM     25  Br  UNL A   1      31.796  30.051  26.874  1.00  0.00    -0.049 Br
ATOM     26  C   UNL A   1      31.426  28.752  22.957  1.00  0.00     0.048 A 
ENDBRANCH  16  19
ENDBRANCH  10  15
ENDBRANCH   6   9
ENDBRANCH   4   5
ENDBRANCH   3   4
ENDBRANCH   2   3
ENDBRANCH   1   2
BRANCH   1  27
ATOM     27  C   UNL A   1      36.966  21.825  24.218  1.00  0.00     0.021 C 
BRANCH  27  28
ATOM     28  C   UNL A   1      37.327  21.545  25.673  1.00  0.00     0.116 C 
BRANCH  28  29
ATOM     29  N   UNL A   1      38.391  20.562  25.798  1.00  0.00    -0.352 N 
ATOM     30  C   UNL A   1      39.697  20.761  26.183  1.00  0.00     0.251 C 
ATOM     31  H   UNL A   1      38.145  19.635  25.581  1.00  0.00     0.163 HD
ATOM     32  O   UNL A   1      40.520  19.863  26.089  1.00  0.00    -0.269 OA
BRANCH  30  33
ATOM     33  C   UNL A   1      40.093  22.093  26.683  1.00  0.00     0.039 A 
ATOM     34  C   UNL A   1      41.029  22.176  27.716  1.00  0.00     0.014 A 
ATOM     35  C   UNL A   1      39.578  23.251  26.091  1.00  0.00     0.014 A 
ATOM     36  C   UNL A   1      41.499  23.428  28.114  1.00  0.00     0.010 A 
ATOM     37  C   UNL A   1      40.085  24.496  26.457  1.00  0.00     0.010 A 
ATOM     38  C   UNL A   1      41.052  24.595  27.468  1.00  0.00    -0.014 A 
BRANCH  38  39
ATOM     39  C   UNL A   1      41.611  25.918  27.837  1.00  0.00     0.031 A 
ATOM     40  C   UNL A   1      43.008  26.291  27.429  1.00  0.00     0.074 A 
ATOM     41  C   UNL A   1      40.868  26.771  28.571  1.00  0.00     0.049 A 
ATOM     42  N   UNL A   1      43.635  27.424  27.604  1.00  0.00    -0.248 NA
ATOM     43  C   UNL A   1      43.812  25.260  26.749  1.00  0.00     0.031 C 
ATOM     44  C   UNL A   1      39.525  26.494  29.088  1.00  0.00     0.029 A 
ATOM     45  N   UNL A   1      41.136  28.042  29.013  1.00  0.00    -0.354 N 
ATOM     46  C   UNL A   1      44.904  27.242  27.072  1.00  0.00     0.074 A 
ATOM     47  C   UNL A   1      44.974  25.880  26.593  1.00  0.00     0.031 C 
ATOM     48  C   UNL A   1      39.078  27.572  29.752  1.00  0.00     0.029 A 
ATOM     49  C   UNL A   1      40.102  28.614  29.716  1.00  0.00     0.049 A 
ATOM     50  H   UNL A   1      41.990  28.503  28.842  1.00  0.00     0.167 HD
ATOM     51  C   UNL A   1      45.905  28.143  26.957  1.00  0.00     0.034 A 
ATOM     52  C   UNL A   1      39.981  29.846  30.250  1.00  0.00     0.034 A 
ATOM     53  C   UNL A   1      45.810  29.514  27.373  1.00  0.00     0.049 A 
ATOM     54  C   UNL A   1      41.103  30.833  30.082  1.00  0.00     0.074 A 
ATOM     55  C   UNL A   1      46.735  30.526  27.196  1.00  0.00     0.029 A 
ATOM     56  N   UNL A   1      44.734  30.062  28.050  1.00  0.00    -0.354 N 
ATOM     57  N   UNL A   1      42.227  30.692  29.426  1.00  0.00    -0.248 NA
ATOM     58  C   UNL A   1      40.931  32.157  30.702  1.00  0.00     0.031 C 
ATOM     59  C   UNL A   1      46.219  31.690  27.770  1.00  0.00     0.029 A 
ATOM     60  C   UNL A   1      44.975  31.397  28.306  1.00  0.00     0.049 A 
ATOM     61  H   UNL A   1      43.919  29.573  28.308  1.00  0.00     0.167 HD
ATOM     62  C   UNL A   1      42.882  31.915  29.525  1.00  0.00     0.074 A 
ATOM     63  C   UNL A   1      42.028  32.789  30.300  1.00  0.00     0.031 C 
ATOM     64  C   UNL A   1      44.089  32.272  29.028  1.00  0.00     0.034 A 
BRANCH  51  65
ATOM     65  C   UNL A   1      47.169  27.718  26.269  1.00  0.00     0.023 A 
ATOM     66  C   UNL A   1      48.141  27.019  27.012  1.00  0.00     0.012 A 
ATOM     67  C   UNL A   1      47.336  27.885  24.882  1.00  0.00     0.148 A 
ATOM     68  C   UNL A   1      49.266  26.490  26.383  1.00  0.00     0.002 A 
ATOM     69  C   UNL A   1      48.448  27.334  24.258  1.00  0.00     0.091 A 
ATOM     70  F   UNL A   1      46.397  28.558  24.203  1.00  0.00    -0.205 F 
ATOM     71  C   UNL A   1      49.414  26.639  25.007  1.00  0.00     0.022 A 
BRANCH  69  72
ATOM     72  S   UNL A   1      48.717  27.424  22.485  1.00  0.00     0.127 S 
ATOM     73  O   UNL A   1      47.614  28.287  22.062  1.00  0.00    -0.237 OA
ATOM     74  O   UNL A   1      50.039  28.044  22.409  1.00  0.00    -0.237 OA
ATOM     75  O   UNL A   1      48.646  26.055  21.994  1.00  0.00    -0.744 OA
ENDBRANCH  69  72
ENDBRANCH  51  65
BRANCH  52  76
ATOM     76  C   UNL A   1      38.704  30.251  30.898  1.00  0.00     0.023 A 
ATOM     77  C   UNL A   1      38.502  29.936  32.255  1.00  0.00     0.012 A 
ATOM     78  C   UNL A   1      37.715  30.970  30.202  1.00  0.00     0.148 A 
ATOM     79  C   UNL A   1      37.327  30.316  32.905  1.00  0.00     0.002 A 
ATOM     80  C   UNL A   1      36.561  31.376  30.865  1.00  0.00     0.091 A 
ATOM     81  F   UNL A   1      37.924  31.249  28.907  1.00  0.00    -0.205 F 
ATOM     82  C   UNL A   1      36.362  31.041  32.213  1.00  0.00     0.022 A 
BRANCH  80  83
ATOM     83  S   UNL A   1      35.308  32.400  30.084  1.00  0.00     0.127 S 
ATOM     84  O   UNL A   1      36.086  33.568  29.681  1.00  0.00    -0.237 OA
ATOM     85  O   UNL A   1      34.860  31.545  28.983  1.00  0.00    -0.237 OA
ATOM     86  O   UNL A   1      34.299  32.633  31.110  1.00  0.00    -0.744 OA
ENDBRANCH  80  83
ENDBRANCH  52  76
BRANCH  64  87
ATOM     87  C   UNL A   1      44.586  33.667  29.282  1.00  0.00     0.023 A 
ATOM     88  C   UNL A   1      45.343  33.920  30.440  1.00  0.00     0.012 A 
ATOM     89  C   UNL A   1      44.457  34.665  28.297  1.00  0.00     0.148 A 
ATOM     90  C   UNL A   1      45.972  35.152  30.615  1.00  0.00     0.002 A 
ATOM     91  C   UNL A   1      45.113  35.878  28.463  1.00  0.00     0.091 A 
ATOM     92  F   UNL A   1      43.731  34.392  27.203  1.00  0.00    -0.205 F 
ATOM     93  C   UNL A   1      45.868  36.124  29.622  1.00  0.00     0.022 A 
BRANCH  91  94
ATOM     94  S   UNL A   1      45.112  37.164  27.208  1.00  0.00     0.127 S 
ATOM     95  O   UNL A   1      45.751  38.272  27.916  1.00  0.00    -0.237 OA
ATOM     96  O   UNL A   1      45.925  36.562  26.151  1.00  0.00    -0.237 OA
ATOM     97  O   UNL A   1      43.715  37.385  26.855  1.00  0.00    -0.744 OA
ENDBRANCH  91  94
ENDBRANCH  64  87
ENDBRANCH  38  39
ENDBRANCH  30  33
ENDBRANCH  28  29
ENDBRANCH  27  28
ENDBRANCH   1  27
TORSDOF 18
ENDMDL
MODEL 3
REMARK VINA RESULT:     -12.2      2.070      3.334
REMARK SMILES Cc1nc(NC(=O)[C@@H]2CCC[C@@H](C(=O)NCCCCCCNC(=O)c3ccc(-c4c5nc(c(-c6cccc(S(=O)(=O)[O-])c6F)c6ccc([nH]6)c(-c6cccc(S(=O)(=O)[O-])c6F)c6nc(c(-c7cccc(S(=O)(=O)[O-])c7F)c7ccc4[nH]7)C=C6)C=C5)cc3)C2)ccc1Br
REMARK SMILES IDX 19 1 18 2 17 3 16 4 15 5 13 6 14 7 12 9 8 10 9 11 88 12
REMARK SMILES IDX 10 13 11 14 6 15 5 16 7 18 4 19 1 20 2 21 3 22 91 23 90 24
REMARK SMILES IDX 92 25 89 26 20 27 21 28 22 29 23 30 24 32 25 33 26 34 87 35
REMARK SMILES IDX 27 36 86 37 28 38 29 39 30 40 80 41 31 42 85 43 79 44 81 45
REMARK SMILES IDX 32 46 84 47 78 48 77 49 33 51 65 52 45 53 64 54 46 55 49 56
REMARK SMILES IDX 63 57 82 58 47 59 48 60 62 62 83 63 50 64 34 65 35 66 43 67
REMARK SMILES IDX 36 68 38 69 44 70 37 71 39 72 40 73 41 74 42 75 66 76 67 77
REMARK SMILES IDX 75 78 68 79 70 80 76 81 69 82 71 83 72 84 73 85 74 86 51 87
REMARK SMILES IDX 52 88 60 89 53 90 55 91 61 92 54 93 56 94 57 95 58 96 59 97
REMARK H PARENT 15 8 5 17 22 31 81 50 49 61
REMARK Flexibility Score: inf
ROOT
ATOM      1  C   UNL A   1      32.391  27.411  26.519  1.00  0.00     0.002 C 
ENDROOT
BRANCH   1   2
ATOM      2  C   UNL A   1      33.836  27.068  26.134  1.00  0.00     0.002 C 
BRANCH   2   3
ATOM      3  C   UNL A   1      34.005  26.129  24.931  1.00  0.00     0.021 C 
BRANCH   3   4
ATOM      4  C   UNL A   1      34.326  24.677  25.285  1.00  0.00     0.116 C 
BRANCH   4   5
ATOM      5  N   UNL A   1      35.211  24.087  24.306  1.00  0.00    -0.356 N 
ATOM      6  C   UNL A   1      36.094  23.073  24.304  1.00  0.00     0.223 C 
ATOM      7  O   UNL A   1      36.711  22.950  23.233  1.00  0.00    -0.275 OA
ATOM      8  H   UNL A   1      35.154  24.536  23.432  1.00  0.00     0.163 HD
BRANCH   6   9
ATOM      9  C   UNL A   1      36.386  22.075  25.438  1.00  0.00     0.079 C 
ATOM     10  C   UNL A   1      34.989  20.090  24.683  1.00  0.00     0.079 C 
ATOM     11  C   UNL A   1      36.180  19.141  24.855  1.00  0.00     0.013 C 
ATOM     12  C   UNL A   1      35.107  21.244  25.686  1.00  0.00     0.027 C 
ATOM     13  C   UNL A   1      37.481  19.900  24.592  1.00  0.00     0.002 C 
ATOM     14  C   UNL A   1      37.603  21.146  25.473  1.00  0.00     0.013 C 
BRANCH  10  15
ATOM     15  C   UNL A   1      33.661  19.381  24.886  1.00  0.00     0.228 C 
ATOM     16  N   UNL A   1      32.469  20.018  24.741  1.00  0.00    -0.310 N 
ATOM     17  H   UNL A   1      31.707  19.407  24.870  1.00  0.00     0.171 HD
ATOM     18  O   UNL A   1      33.636  18.181  25.182  1.00  0.00    -0.274 OA
BRANCH  16  19
ATOM     19  C   UNL A   1      32.051  21.316  24.455  1.00  0.00     0.132 A 
ATOM     20  C   UNL A   1      30.593  23.866  26.671  1.00  0.00     0.068 C 
ATOM     21  C   UNL A   1      31.065  23.214  25.405  1.00  0.00     0.054 A 
ATOM     22  N   UNL A   1      31.587  21.963  25.547  1.00  0.00    -0.235 NA
ATOM     23  C   UNL A   1      30.986  23.848  24.169  1.00  0.00     0.039 A 
ATOM     24  C   UNL A   1      31.522  23.199  23.066  1.00  0.00     0.021 A 
ATOM     25  Br  UNL A   1      30.209  25.556  23.925  1.00  0.00    -0.049 Br
ATOM     26  C   UNL A   1      32.087  21.932  23.218  1.00  0.00     0.048 A 
ENDBRANCH  16  19
ENDBRANCH  10  15
ENDBRANCH   6   9
ENDBRANCH   4   5
ENDBRANCH   3   4
ENDBRANCH   2   3
ENDBRANCH   1   2
BRANCH   1  27
ATOM     27  C   UNL A   1      32.080  28.901  26.667  1.00  0.00     0.021 C 
BRANCH  27  28
ATOM     28  C   UNL A   1      33.227  29.838  26.301  1.00  0.00     0.116 C 
BRANCH  28  29
ATOM     29  N   UNL A   1      32.998  31.197  26.762  1.00  0.00    -0.352 N 
ATOM     30  C   UNL A   1      33.759  31.944  27.632  1.00  0.00     0.251 C 
ATOM     31  H   UNL A   1      32.195  31.640  26.406  1.00  0.00     0.163 HD
ATOM     32  O   UNL A   1      33.356  33.019  28.050  1.00  0.00    -0.269 OA
BRANCH  30  33
ATOM     33  C   UNL A   1      35.061  31.408  28.075  1.00  0.00     0.039 A 
ATOM     34  C   UNL A   1      36.163  32.264  28.127  1.00  0.00     0.014 A 
ATOM     35  C   UNL A   1      35.172  30.075  28.487  1.00  0.00     0.014 A 
ATOM     36  C   UNL A   1      37.367  31.798  28.656  1.00  0.00     0.010 A 
ATOM     37  C   UNL A   1      36.361  29.628  29.059  1.00  0.00     0.010 A 
ATOM     38  C   UNL A   1      37.467  30.486  29.152  1.00  0.00    -0.014 A 
BRANCH  38  39
ATOM     39  C   UNL A   1      38.721  30.017  29.788  1.00  0.00     0.031 A 
ATOM     40  C   UNL A   1      39.116  30.518  31.148  1.00  0.00     0.074 A 
ATOM     41  C   UNL A   1      39.524  29.163  29.120  1.00  0.00     0.049 A 
ATOM     42  N   UNL A   1      40.138  30.167  31.882  1.00  0.00    -0.248 NA
ATOM     43  C   UNL A   1      38.264  31.553  31.760  1.00  0.00     0.031 C 
ATOM     44  C   UNL A   1      39.284  28.662  27.764  1.00  0.00     0.029 A 
ATOM     45  N   UNL A   1      40.704  28.568  29.489  1.00  0.00    -0.354 N 
ATOM     46  C   UNL A   1      40.063  30.942  33.032  1.00  0.00     0.074 A 
ATOM     47  C   UNL A   1      38.913  31.806  32.889  1.00  0.00     0.031 C 
ATOM     48  C   UNL A   1      40.271  27.815  27.428  1.00  0.00     0.029 A 
ATOM     49  C   UNL A   1      41.217  27.718  28.537  1.00  0.00     0.049 A 
ATOM     50  H   UNL A   1      41.143  28.733  30.355  1.00  0.00     0.167 HD
ATOM     51  C   UNL A   1      40.859  30.906  34.124  1.00  0.00     0.034 A 
ATOM     52  C   UNL A   1      42.311  26.930  28.563  1.00  0.00     0.034 A 
ATOM     53  C   UNL A   1      41.961  30.002  34.291  1.00  0.00     0.049 A 
ATOM     54  C   UNL A   1      43.161  26.895  29.804  1.00  0.00     0.074 A 
ATOM     55  C   UNL A   1      42.754  29.820  35.409  1.00  0.00     0.029 A 
ATOM     56  N   UNL A   1      42.426  29.134  33.318  1.00  0.00    -0.354 N 
ATOM     57  N   UNL A   1      42.973  27.510  30.944  1.00  0.00    -0.248 NA
ATOM     58  C   UNL A   1      44.355  26.036  29.774  1.00  0.00     0.031 C 
ATOM     59  C   UNL A   1      43.705  28.841  35.111  1.00  0.00     0.029 A 
ATOM     60  C   UNL A   1      43.503  28.420  33.806  1.00  0.00     0.049 A 
ATOM     61  H   UNL A   1      42.046  29.040  32.415  1.00  0.00     0.167 HD
ATOM     62  C   UNL A   1      44.004  27.092  31.777  1.00  0.00     0.074 A 
ATOM     63  C   UNL A   1      44.813  26.164  31.014  1.00  0.00     0.031 C 
ATOM     64  C   UNL A   1      44.262  27.456  33.055  1.00  0.00     0.034 A 
BRANCH  51  65
ATOM     65  C   UNL A   1      40.522  31.803  35.279  1.00  0.00     0.023 A 
ATOM     66  C   UNL A   1      41.285  32.972  35.473  1.00  0.00     0.012 A 
ATOM     67  C   UNL A   1      39.388  31.569  36.077  1.00  0.00     0.148 A 
ATOM     68  C   UNL A   1      40.923  33.898  36.449  1.00  0.00     0.002 A 
ATOM     69  C   UNL A   1      39.020  32.508  37.033  1.00  0.00     0.091 A 
ATOM     70  F   UNL A   1      38.685  30.446  35.873  1.00  0.00    -0.205 F 
ATOM     71  C   UNL A   1      39.787  33.671  37.220  1.00  0.00     0.022 A 
BRANCH  69  72
ATOM     72  S   UNL A   1      37.549  32.342  38.050  1.00  0.00     0.127 S 
ATOM     73  O   UNL A   1      37.940  33.073  39.256  1.00  0.00    -0.237 OA
ATOM     74  O   UNL A   1      36.537  33.010  37.233  1.00  0.00    -0.237 OA
ATOM     75  O   UNL A   1      37.348  30.912  38.240  1.00  0.00    -0.744 OA
ENDBRANCH  69  72
ENDBRANCH  51  65
BRANCH  52  76
ATOM     76  C   UNL A   1      42.602  26.027  27.417  1.00  0.00     0.023 A 
ATOM     77  C   UNL A   1      43.344  26.528  26.331  1.00  0.00     0.012 A 
ATOM     78  C   UNL A   1      42.189  24.683  27.408  1.00  0.00     0.148 A 
ATOM     79  C   UNL A   1      43.656  25.709  25.245  1.00  0.00     0.002 A 
ATOM     80  C   UNL A   1      42.533  23.861  26.340  1.00  0.00     0.091 A 
ATOM     81  F   UNL A   1      41.473  24.231  28.449  1.00  0.00    -0.205 F 
ATOM     82  C   UNL A   1      43.258  24.375  25.253  1.00  0.00     0.022 A 
BRANCH  80  83
ATOM     83  S   UNL A   1      42.150  22.106  26.308  1.00  0.00     0.127 S 
ATOM     84  O   UNL A   1      40.697  22.120  26.167  1.00  0.00    -0.237 OA
ATOM     85  O   UNL A   1      42.882  21.657  25.123  1.00  0.00    -0.237 OA
ATOM     86  O   UNL A   1      42.661  21.572  27.565  1.00  0.00    -0.744 OA
ENDBRANCH  80  83
ENDBRANCH  52  76
BRANCH  64  87
ATOM     87  C   UNL A   1      45.457  26.861  33.743  1.00  0.00     0.023 A 
ATOM     88  C   UNL A   1      46.660  27.591  33.773  1.00  0.00     0.012 A 
ATOM     89  C   UNL A   1      45.334  25.682  34.503  1.00  0.00     0.148 A 
ATOM     90  C   UNL A   1      47.728  27.156  34.556  1.00  0.00     0.002 A 
ATOM     91  C   UNL A   1      46.392  25.272  35.306  1.00  0.00     0.091 A 
ATOM     92  F   UNL A   1      44.175  25.011  34.456  1.00  0.00    -0.205 F 
ATOM     93  C   UNL A   1      47.590  26.007  35.331  1.00  0.00     0.022 A 
BRANCH  91  94
ATOM     94  S   UNL A   1      46.286  23.855  36.405  1.00  0.00     0.127 S 
ATOM     95  O   UNL A   1      47.441  24.067  37.276  1.00  0.00    -0.237 OA
ATOM     96  O   UNL A   1      44.988  24.061  37.047  1.00  0.00    -0.237 OA
ATOM     97  O   UNL A   1      46.368  22.675  35.553  1.00  0.00    -0.744 OA
ENDBRANCH  91  94
ENDBRANCH  64  87
ENDBRANCH  38  39
ENDBRANCH  30  33
ENDBRANCH  28  29
ENDBRANCH  27  28
ENDBRANCH   1  27
TORSDOF 18
ENDMDL
