MODEL 1
REMARK VINA RESULT:      -7.1      0.000      0.000
REMARK SMILES NS(=O)(=O)c1ccc(-n2nc(C(=O)NCCCCCCCCCCC(=O)NCCCCCCNC(=O)c3ccc(-c4c5nc(c(-c6cccc(S(=O)(=O)[O-])c6F)c6ccc([nH]6)c(-c6cccc(S(=O)(=O)[O-])c6F)c6nc(c(-c7cccc(S(=O)(=O)[O-])c7F)c7ccc4[nH]7)C=C6)C=C5)cc3)cc2-c2ccccc2)cc1
REMARK SMILES IDX 23 1 22 2 21 3 20 4 19 5 18 6 17 7 16 8 15 9 14 10 12 11
REMARK SMILES IDX 13 12 11 14 9 15 10 16 101 17 100 18 8 19 5 20 6 21 109 22
REMARK SMILES IDX 7 23 108 24 2 25 3 26 4 27 1 28 102 31 103 32 107 33 104 34
REMARK SMILES IDX 106 35 105 36 24 37 25 38 26 39 27 40 28 42 29 43 30 44
REMARK SMILES IDX 31 45 32 46 33 47 34 48 35 49 36 51 37 52 38 53 99 54 39 55
REMARK SMILES IDX 98 56 40 57 41 58 42 59 92 60 43 61 97 62 91 63 93 64 44 65
REMARK SMILES IDX 96 66 90 67 89 68 45 70 77 71 57 72 76 73 58 74 61 75 75 76
REMARK SMILES IDX 94 77 59 78 60 79 74 81 95 82 62 83 46 84 47 85 55 86 48 87
REMARK SMILES IDX 50 88 56 89 49 90 51 91 52 92 53 93 54 94 78 95 79 96 87 97
REMARK SMILES IDX 80 98 82 99 88 100 81 101 83 102 84 103 85 104 86 105 63 106
REMARK SMILES IDX 64 107 72 108 65 109 67 110 73 111 66 112 68 113 69 114
REMARK SMILES IDX 70 115 71 116
REMARK H PARENT 14 13 1 29 1 30 27 41 34 50 93 69 61 80
REMARK Flexibility Score: inf
ROOT
ATOM      1  C   UNL A   1      43.841  30.885  28.005  1.00  0.00     0.010 C 
ENDROOT
BRANCH   1   2
ATOM      2  C   UNL A   1      43.449  29.823  26.981  1.00  0.00     0.001 C 
BRANCH   2   3
ATOM      3  C   UNL A   1      42.068  29.197  27.223  1.00  0.00     0.000 C 
BRANCH   3   4
ATOM      4  C   UNL A   1      41.411  28.676  25.949  1.00  0.00     0.000 C 
BRANCH   4   5
ATOM      5  C   UNL A   1      42.162  27.509  25.307  1.00  0.00     0.000 C 
BRANCH   5   6
ATOM      6  C   UNL A   1      41.622  26.128  25.697  1.00  0.00     0.000 C 
BRANCH   6   7
ATOM      7  C   UNL A   1      42.683  25.177  26.268  1.00  0.00     0.002 C 
BRANCH   7   8
ATOM      8  C   UNL A   1      43.233  24.181  25.242  1.00  0.00     0.021 C 
BRANCH   8   9
ATOM      9  C   UNL A   1      44.187  23.167  25.879  1.00  0.00     0.116 C 
BRANCH   9  10
ATOM     10  N   UNL A   1      44.021  23.182  27.309  1.00  0.00    -0.351 N 
ATOM     11  C   UNL A   1      44.819  23.631  28.331  1.00  0.00     0.271 C 
ATOM     12  O   UNL A   1      44.395  23.399  29.471  1.00  0.00    -0.267 OA
ATOM     13  H   UNL A   1      43.169  22.795  27.614  1.00  0.00     0.163 HD
BRANCH  11  14
ATOM     14  C   UNL A   1      46.108  24.315  28.093  1.00  0.00     0.151 A 
ATOM     15  N   UNL A   1      47.514  25.893  28.382  1.00  0.00    -0.232 N 
ATOM     16  N   UNL A   1      46.616  25.132  29.044  1.00  0.00    -0.162 NA
ATOM     17  C   UNL A   1      47.955  25.263  27.230  1.00  0.00     0.075 A 
ATOM     18  C   UNL A   1      47.039  24.253  27.024  1.00  0.00     0.065 A 
BRANCH  15  19
ATOM     19  C   UNL A   1      47.995  27.097  28.949  1.00  0.00     0.065 A 
ATOM     20  C   UNL A   1      48.779  29.449  30.190  1.00  0.00     0.082 A 
ATOM     21  C   UNL A   1      49.313  28.233  30.624  1.00  0.00     0.024 A 
ATOM     22  C   UNL A   1      47.901  29.503  29.103  1.00  0.00     0.024 A 
ATOM     23  C   UNL A   1      48.911  27.053  30.005  1.00  0.00     0.030 A 
ATOM     24  C   UNL A   1      47.530  28.323  28.458  1.00  0.00     0.030 A 
BRANCH  20  25
ATOM     25  S   UNL A   1      49.146  30.946  31.046  1.00  0.00     0.238 S 
ATOM     26  O   UNL A   1      49.605  31.928  30.069  1.00  0.00    -0.207 OA
ATOM     27  O   UNL A   1      49.873  30.656  32.242  1.00  0.00    -0.207 OA
BRANCH  25  28
ATOM     28  N   UNL A   1      47.647  31.526  31.541  1.00  0.00    -0.225 NA
ATOM     29  H   UNL A   1      47.119  31.845  30.727  1.00  0.00     0.137 HD
ATOM     30  H   UNL A   1      47.779  32.303  32.187  1.00  0.00     0.137 HD
ENDBRANCH  25  28
ENDBRANCH  20  25
ENDBRANCH  15  19
BRANCH  17  31
ATOM     31  C   UNL A   1      49.153  25.573  26.456  1.00  0.00     0.000 A 
ATOM     32  C   UNL A   1      49.052  26.261  25.240  1.00  0.00     0.010 A 
ATOM     33  C   UNL A   1      50.420  25.241  26.950  1.00  0.00     0.010 A 
ATOM     34  C   UNL A   1      50.200  26.606  24.525  1.00  0.00     0.001 A 
ATOM     35  C   UNL A   1      51.568  25.583  26.233  1.00  0.00     0.001 A 
ATOM     36  C   UNL A   1      51.458  26.268  25.023  1.00  0.00     0.000 A 
ENDBRANCH  17  31
ENDBRANCH  11  14
ENDBRANCH   9  10
ENDBRANCH   8   9
ENDBRANCH   7   8
ENDBRANCH   6   7
ENDBRANCH   5   6
ENDBRANCH   4   5
ENDBRANCH   3   4
ENDBRANCH   2   3
ENDBRANCH   1   2
BRANCH   1  37
ATOM     37  C   UNL A   1      44.894  31.898  27.554  1.00  0.00     0.100 C 
BRANCH  37  38
ATOM     38  C   UNL A   1      44.386  32.950  26.589  1.00  0.00     0.219 C 
ATOM     39  O   UNL A   1      43.954  32.631  25.478  1.00  0.00    -0.275 OA
ATOM     40  N   UNL A   1      44.345  34.267  26.939  1.00  0.00    -0.356 N 
ATOM     41  H   UNL A   1      43.987  34.868  26.247  1.00  0.00     0.163 HD
BRANCH  40  42
ATOM     42  C   UNL A   1      44.745  34.922  28.170  1.00  0.00     0.116 C 
BRANCH  42  43
ATOM     43  C   UNL A   1      43.696  35.938  28.635  1.00  0.00     0.021 C 
BRANCH  43  44
ATOM     44  C   UNL A   1      44.134  37.398  28.510  1.00  0.00     0.002 C 
BRANCH  44  45
ATOM     45  C   UNL A   1      45.646  37.624  28.371  1.00  0.00     0.002 C 
BRANCH  45  46
ATOM     46  C   UNL A   1      46.193  38.937  28.953  1.00  0.00     0.021 C 
BRANCH  46  47
ATOM     47  C   UNL A   1      45.369  39.485  30.112  1.00  0.00     0.116 C 
BRANCH  47  48
ATOM     48  N   UNL A   1      46.153  39.566  31.344  1.00  0.00    -0.352 N 
ATOM     49  C   UNL A   1      45.968  38.882  32.526  1.00  0.00     0.251 C 
ATOM     50  H   UNL A   1      46.912  40.193  31.327  1.00  0.00     0.163 HD
ATOM     51  O   UNL A   1      46.497  39.270  33.562  1.00  0.00    -0.269 OA
BRANCH  49  52
ATOM     52  C   UNL A   1      45.117  37.683  32.525  1.00  0.00     0.039 A 
ATOM     53  C   UNL A   1      45.605  36.469  32.037  1.00  0.00     0.014 A 
ATOM     54  C   UNL A   1      43.832  37.781  33.056  1.00  0.00     0.014 A 
ATOM     55  C   UNL A   1      44.820  35.327  32.167  1.00  0.00     0.010 A 
ATOM     56  C   UNL A   1      43.108  36.635  33.290  1.00  0.00     0.010 A 
ATOM     57  C   UNL A   1      43.580  35.413  32.817  1.00  0.00    -0.014 A 
BRANCH  57  58
ATOM     58  C   UNL A   1      42.818  34.200  33.100  1.00  0.00     0.031 A 
ATOM     59  C   UNL A   1      41.884  33.763  32.023  1.00  0.00     0.074 A 
ATOM     60  C   UNL A   1      43.097  33.392  34.145  1.00  0.00     0.049 A 
ATOM     61  N   UNL A   1      40.594  33.695  32.075  1.00  0.00    -0.248 NA
ATOM     62  C   UNL A   1      42.443  33.468  30.695  1.00  0.00     0.031 C 
ATOM     63  C   UNL A   1      44.215  33.500  35.090  1.00  0.00     0.029 A 
ATOM     64  N   UNL A   1      42.530  32.200  34.479  1.00  0.00    -0.354 N 
ATOM     65  C   UNL A   1      40.195  33.131  30.862  1.00  0.00     0.074 A 
ATOM     66  C   UNL A   1      41.343  33.188  29.995  1.00  0.00     0.031 C 
ATOM     67  C   UNL A   1      44.410  32.305  35.688  1.00  0.00     0.029 A 
ATOM     68  C   UNL A   1      43.326  31.420  35.311  1.00  0.00     0.049 A 
ATOM     69  H   UNL A   1      41.642  31.917  34.162  1.00  0.00     0.167 HD
ATOM     70  C   UNL A   1      39.026  32.443  30.745  1.00  0.00     0.034 A 
ATOM     71  C   UNL A   1      43.136  30.117  35.621  1.00  0.00     0.034 A 
ATOM     72  C   UNL A   1      38.172  32.655  31.886  1.00  0.00     0.049 A 
ATOM     73  C   UNL A   1      41.716  29.803  35.356  1.00  0.00     0.074 A 
ATOM     74  C   UNL A   1      37.581  33.746  32.491  1.00  0.00     0.029 A 
ATOM     75  N   UNL A   1      38.116  31.637  32.806  1.00  0.00    -0.354 N 
ATOM     76  N   UNL A   1      40.724  30.322  36.023  1.00  0.00    -0.248 NA
ATOM     77  C   UNL A   1      41.366  29.201  34.080  1.00  0.00     0.031 C 
ATOM     78  C   UNL A   1      37.627  33.462  33.889  1.00  0.00     0.029 A 
ATOM     79  C   UNL A   1      38.195  32.196  34.053  1.00  0.00     0.049 A 
ATOM     80  H   UNL A   1      38.035  30.676  32.606  1.00  0.00     0.167 HD
ATOM     81  C   UNL A   1      39.737  30.524  35.069  1.00  0.00     0.074 A 
ATOM     82  C   UNL A   1      40.132  29.690  33.938  1.00  0.00     0.031 C 
ATOM     83  C   UNL A   1      38.860  31.569  35.175  1.00  0.00     0.034 A 
BRANCH  70  84
ATOM     84  C   UNL A   1      38.777  31.283  29.799  1.00  0.00     0.023 A 
ATOM     85  C   UNL A   1      37.714  31.424  28.876  1.00  0.00     0.012 A 
ATOM     86  C   UNL A   1      39.315  29.984  29.957  1.00  0.00     0.148 A 
ATOM     87  C   UNL A   1      37.175  30.325  28.197  1.00  0.00     0.002 A 
ATOM     88  C   UNL A   1      38.821  28.904  29.229  1.00  0.00     0.091 A 
ATOM     89  F   UNL A   1      40.216  29.745  30.916  1.00  0.00    -0.205 F 
ATOM     90  C   UNL A   1      37.732  29.063  28.370  1.00  0.00     0.022 A 
BRANCH  88  91
ATOM     91  S   UNL A   1      39.500  27.248  29.434  1.00  0.00     0.127 S 
ATOM     92  O   UNL A   1      38.678  26.727  30.522  1.00  0.00    -0.237 OA
ATOM     93  O   UNL A   1      39.249  26.634  28.129  1.00  0.00    -0.237 OA
ATOM     94  O   UNL A   1      40.914  27.436  29.739  1.00  0.00    -0.744 OA
ENDBRANCH  88  91
ENDBRANCH  70  84
BRANCH  71  95
ATOM     95  C   UNL A   1      44.138  29.066  35.902  1.00  0.00     0.023 A 
ATOM     96  C   UNL A   1      44.123  28.405  37.145  1.00  0.00     0.012 A 
ATOM     97  C   UNL A   1      44.922  28.519  34.861  1.00  0.00     0.148 A 
ATOM     98  C   UNL A   1      44.837  27.217  37.335  1.00  0.00     0.002 A 
ATOM     99  C   UNL A   1      45.633  27.340  35.056  1.00  0.00     0.091 A 
ATOM    100  F   UNL A   1      44.894  29.105  33.656  1.00  0.00    -0.205 F 
ATOM    101  C   UNL A   1      45.583  26.679  36.290  1.00  0.00     0.022 A 
BRANCH  99 102
ATOM    102  S   UNL A   1      46.593  26.571  33.743  1.00  0.00     0.127 S 
ATOM    103  O   UNL A   1      46.826  27.697  32.838  1.00  0.00    -0.237 OA
ATOM    104  O   UNL A   1      47.776  26.109  34.464  1.00  0.00    -0.237 OA
ATOM    105  O   UNL A   1      45.743  25.524  33.189  1.00  0.00    -0.744 OA
ENDBRANCH  99 102
ENDBRANCH  71  95
BRANCH  83 106
ATOM    106  C   UNL A   1      38.784  32.301  36.492  1.00  0.00     0.023 A 
ATOM    107  C   UNL A   1      39.353  33.577  36.685  1.00  0.00     0.012 A 
ATOM    108  C   UNL A   1      37.977  31.759  37.507  1.00  0.00     0.148 A 
ATOM    109  C   UNL A   1      39.145  34.284  37.872  1.00  0.00     0.002 A 
ATOM    110  C   UNL A   1      37.734  32.485  38.668  1.00  0.00     0.091 A 
ATOM    111  F   UNL A   1      37.437  30.547  37.311  1.00  0.00    -0.205 F 
ATOM    112  C   UNL A   1      38.325  33.743  38.859  1.00  0.00     0.022 A 
BRANCH 110 113
ATOM    113  S   UNL A   1      36.588  31.897  39.917  1.00  0.00     0.127 S 
ATOM    114  O   UNL A   1      37.274  30.714  40.430  1.00  0.00    -0.237 OA
ATOM    115  O   UNL A   1      36.531  33.024  40.850  1.00  0.00    -0.237 OA
ATOM    116  O   UNL A   1      35.333  31.643  39.219  1.00  0.00    -0.744 OA
ENDBRANCH 110 113
ENDBRANCH  83 106
ENDBRANCH  57  58
ENDBRANCH  49  52
ENDBRANCH  47  48
ENDBRANCH  46  47
ENDBRANCH  45  46
ENDBRANCH  44  45
ENDBRANCH  43  44
ENDBRANCH  42  43
ENDBRANCH  40  42
ENDBRANCH  37  38
ENDBRANCH   1  37
TORSDOF 31
ENDMDL
MODEL 2
REMARK VINA RESULT:      -7.0      5.642     11.462
REMARK SMILES NS(=O)(=O)c1ccc(-n2nc(C(=O)NCCCCCCCCCCC(=O)NCCCCCCNC(=O)c3ccc(-c4c5nc(c(-c6cccc(S(=O)(=O)[O-])c6F)c6ccc([nH]6)c(-c6cccc(S(=O)(=O)[O-])c6F)c6nc(c(-c7cccc(S(=O)(=O)[O-])c7F)c7ccc4[nH]7)C=C6)C=C5)cc3)cc2-c2ccccc2)cc1
REMARK SMILES IDX 23 1 22 2 21 3 20 4 19 5 18 6 17 7 16 8 15 9 14 10 12 11
REMARK SMILES IDX 13 12 11 14 9 15 10 16 101 17 100 18 8 19 5 20 6 21 109 22
REMARK SMILES IDX 7 23 108 24 2 25 3 26 4 27 1 28 102 31 103 32 107 33 104 34
REMARK SMILES IDX 106 35 105 36 24 37 25 38 26 39 27 40 28 42 29 43 30 44
REMARK SMILES IDX 31 45 32 46 33 47 34 48 35 49 36 51 37 52 38 53 99 54 39 55
REMARK SMILES IDX 98 56 40 57 41 58 42 59 92 60 43 61 97 62 91 63 93 64 44 65
REMARK SMILES IDX 96 66 90 67 89 68 45 70 77 71 57 72 76 73 58 74 61 75 75 76
REMARK SMILES IDX 94 77 59 78 60 79 74 81 95 82 62 83 46 84 47 85 55 86 48 87
REMARK SMILES IDX 50 88 56 89 49 90 51 91 52 92 53 93 54 94 78 95 79 96 87 97
REMARK SMILES IDX 80 98 82 99 88 100 81 101 83 102 84 103 85 104 86 105 63 106
REMARK SMILES IDX 64 107 72 108 65 109 67 110 73 111 66 112 68 113 69 114
REMARK SMILES IDX 70 115 71 116
REMARK H PARENT 14 13 1 29 1 30 27 41 34 50 93 69 61 80
REMARK Flexibility Score: inf
ROOT
ATOM      1  C   UNL A   1      45.318  21.631  35.593  1.00  0.00     0.010 C 
ENDROOT
BRANCH   1   2
ATOM      2  C   UNL A   1      46.644  22.331  35.881  1.00  0.00     0.001 C 
BRANCH   2   3
ATOM      3  C   UNL A   1      47.882  21.457  35.637  1.00  0.00     0.000 C 
BRANCH   3   4
ATOM      4  C   UNL A   1      48.614  21.795  34.343  1.00  0.00     0.000 C 
BRANCH   4   5
ATOM      5  C   UNL A   1      50.135  21.843  34.496  1.00  0.00     0.000 C 
BRANCH   5   6
ATOM      6  C   UNL A   1      50.687  23.240  34.805  1.00  0.00     0.000 C 
BRANCH   6   7
ATOM      7  C   UNL A   1      50.776  23.563  36.303  1.00  0.00     0.002 C 
BRANCH   7   8
ATOM      8  C   UNL A   1      49.696  24.536  36.787  1.00  0.00     0.021 C 
BRANCH   8   9
ATOM      9  C   UNL A   1      50.244  25.540  37.806  1.00  0.00     0.116 C 
BRANCH   9  10
ATOM     10  N   UNL A   1      49.285  25.727  38.863  1.00  0.00    -0.351 N 
ATOM     11  C   UNL A   1      48.604  24.846  39.665  1.00  0.00     0.271 C 
ATOM     12  O   UNL A   1      47.772  25.359  40.424  1.00  0.00    -0.267 OA
ATOM     13  H   UNL A   1      49.076  26.671  39.047  1.00  0.00     0.163 HD
BRANCH  11  14
ATOM     14  C   UNL A   1      48.824  23.384  39.609  1.00  0.00     0.151 A 
ATOM     15  N   UNL A   1      48.176  21.353  39.644  1.00  0.00    -0.232 N 
ATOM     16  N   UNL A   1      47.827  22.575  39.185  1.00  0.00    -0.162 NA
ATOM     17  C   UNL A   1      49.540  21.268  39.864  1.00  0.00     0.075 A 
ATOM     18  C   UNL A   1      49.965  22.580  39.863  1.00  0.00     0.065 A 
BRANCH  15  19
ATOM     19  C   UNL A   1      47.221  20.311  39.713  1.00  0.00     0.065 A 
ATOM     20  C   UNL A   1      45.504  18.139  39.873  1.00  0.00     0.082 A 
ATOM     21  C   UNL A   1      45.801  18.866  41.028  1.00  0.00     0.024 A 
ATOM     22  C   UNL A   1      46.013  18.526  38.628  1.00  0.00     0.024 A 
ATOM     23  C   UNL A   1      46.670  19.950  40.948  1.00  0.00     0.030 A 
ATOM     24  C   UNL A   1      46.852  19.637  38.543  1.00  0.00     0.030 A 
BRANCH  20  25
ATOM     25  S   UNL A   1      44.531  16.672  39.960  1.00  0.00     0.238 S 
ATOM     26  O   UNL A   1      43.243  16.942  39.331  1.00  0.00    -0.207 OA
ATOM     27  O   UNL A   1      44.644  16.093  41.262  1.00  0.00    -0.207 OA
BRANCH  25  28
ATOM     28  N   UNL A   1      45.289  15.602  38.907  1.00  0.00    -0.225 NA
ATOM     29  H   UNL A   1      44.868  15.680  37.980  1.00  0.00     0.137 HD
ATOM     30  H   UNL A   1      45.177  14.648  39.252  1.00  0.00     0.137 HD
ENDBRANCH  25  28
ENDBRANCH  20  25
ENDBRANCH  15  19
BRANCH  17  31
ATOM     31  C   UNL A   1      50.341  20.056  40.004  1.00  0.00     0.000 A 
ATOM     32  C   UNL A   1      50.776  19.636  41.267  1.00  0.00     0.010 A 
ATOM     33  C   UNL A   1      50.629  19.266  38.885  1.00  0.00     0.010 A 
ATOM     34  C   UNL A   1      51.495  18.448  41.409  1.00  0.00     0.001 A 
ATOM     35  C   UNL A   1      51.351  18.080  39.027  1.00  0.00     0.001 A 
ATOM     36  C   UNL A   1      51.781  17.669  40.289  1.00  0.00     0.000 A 
ENDBRANCH  17  31
ENDBRANCH  11  14
ENDBRANCH   9  10
ENDBRANCH   8   9
ENDBRANCH   7   8
ENDBRANCH   6   7
ENDBRANCH   5   6
ENDBRANCH   4   5
ENDBRANCH   3   4
ENDBRANCH   2   3
ENDBRANCH   1   2
BRANCH   1  37
ATOM     37  C   UNL A   1      44.543  22.133  34.375  1.00  0.00     0.100 C 
BRANCH  37  38
ATOM     38  C   UNL A   1      43.847  23.465  34.573  1.00  0.00     0.219 C 
ATOM     39  O   UNL A   1      43.154  23.672  35.573  1.00  0.00    -0.275 OA
ATOM     40  N   UNL A   1      44.009  24.485  33.683  1.00  0.00    -0.356 N 
ATOM     41  H   UNL A   1      43.526  25.311  33.909  1.00  0.00     0.163 HD
BRANCH  40  42
ATOM     42  C   UNL A   1      44.781  24.544  32.456  1.00  0.00     0.116 C 
BRANCH  42  43
ATOM     43  C   UNL A   1      44.067  23.827  31.305  1.00  0.00     0.021 C 
BRANCH  43  44
ATOM     44  C   UNL A   1      44.454  24.328  29.913  1.00  0.00     0.002 C 
BRANCH  44  45
ATOM     45  C   UNL A   1      43.894  23.513  28.738  1.00  0.00     0.002 C 
BRANCH  45  46
ATOM     46  C   UNL A   1      44.858  23.253  27.571  1.00  0.00     0.021 C 
BRANCH  46  47
ATOM     47  C   UNL A   1      46.188  23.984  27.698  1.00  0.00     0.116 C 
BRANCH  47  48
ATOM     48  N   UNL A   1      46.664  24.476  26.405  1.00  0.00    -0.352 N 
ATOM     49  C   UNL A   1      46.316  25.634  25.747  1.00  0.00     0.251 C 
ATOM     50  H   UNL A   1      47.319  23.903  25.946  1.00  0.00     0.163 HD
ATOM     51  O   UNL A   1      46.548  25.767  24.550  1.00  0.00    -0.269 OA
BRANCH  49  52
ATOM     52  C   UNL A   1      45.651  26.707  26.502  1.00  0.00     0.039 A 
ATOM     53  C   UNL A   1      44.258  26.747  26.596  1.00  0.00     0.014 A 
ATOM     54  C   UNL A   1      46.444  27.652  27.151  1.00  0.00     0.014 A 
ATOM     55  C   UNL A   1      43.667  27.699  27.422  1.00  0.00     0.010 A 
ATOM     56  C   UNL A   1      45.866  28.512  28.055  1.00  0.00     0.010 A 
ATOM     57  C   UNL A   1      44.479  28.566  28.168  1.00  0.00    -0.014 A 
BRANCH  57  58
ATOM     58  C   UNL A   1      43.881  29.460  29.155  1.00  0.00     0.031 A 
ATOM     59  C   UNL A   1      43.946  28.991  30.568  1.00  0.00     0.074 A 
ATOM     60  C   UNL A   1      43.508  30.724  28.861  1.00  0.00     0.049 A 
ATOM     61  N   UNL A   1      42.960  28.682  31.345  1.00  0.00    -0.248 NA
ATOM     62  C   UNL A   1      45.270  28.733  31.155  1.00  0.00     0.031 C 
ATOM     63  C   UNL A   1      43.709  31.449  27.600  1.00  0.00     0.029 A 
ATOM     64  N   UNL A   1      43.019  31.687  29.690  1.00  0.00    -0.354 N 
ATOM     65  C   UNL A   1      43.529  28.410  32.590  1.00  0.00     0.074 A 
ATOM     66  C   UNL A   1      44.944  28.275  32.365  1.00  0.00     0.031 C 
ATOM     67  C   UNL A   1      43.615  32.776  27.830  1.00  0.00     0.029 A 
ATOM     68  C   UNL A   1      43.167  32.977  29.194  1.00  0.00     0.049 A 
ATOM     69  H   UNL A   1      42.602  31.488  30.560  1.00  0.00     0.167 HD
ATOM     70  C   UNL A   1      42.822  28.555  33.746  1.00  0.00     0.034 A 
ATOM     71  C   UNL A   1      42.990  34.131  29.877  1.00  0.00     0.034 A 
ATOM     72  C   UNL A   1      41.411  28.698  33.486  1.00  0.00     0.049 A 
ATOM     73  C   UNL A   1      42.146  33.823  31.050  1.00  0.00     0.074 A 
ATOM     74  C   UNL A   1      40.436  27.940  32.872  1.00  0.00     0.029 A 
ATOM     75  N   UNL A   1      40.898  29.968  33.582  1.00  0.00    -0.354 N 
ATOM     76  N   UNL A   1      40.903  33.438  30.966  1.00  0.00    -0.248 NA
ATOM     77  C   UNL A   1      42.797  33.564  32.323  1.00  0.00     0.031 C 
ATOM     78  C   UNL A   1      39.592  28.886  32.218  1.00  0.00     0.029 A 
ATOM     79  C   UNL A   1      40.069  30.166  32.512  1.00  0.00     0.049 A 
ATOM     80  H   UNL A   1      41.091  30.622  34.294  1.00  0.00     0.167 HD
ATOM     81  C   UNL A   1      40.766  32.496  31.977  1.00  0.00     0.074 A 
ATOM     82  C   UNL A   1      41.907  32.723  32.858  1.00  0.00     0.031 C 
ATOM     83  C   UNL A   1      39.911  31.438  31.841  1.00  0.00     0.034 A 
BRANCH  70  84
ATOM     84  C   UNL A   1      43.404  28.945  35.091  1.00  0.00     0.023 A 
ATOM     85  C   UNL A   1      43.940  30.249  35.205  1.00  0.00     0.012 A 
ATOM     86  C   UNL A   1      43.716  28.034  36.129  1.00  0.00     0.148 A 
ATOM     87  C   UNL A   1      44.790  30.608  36.258  1.00  0.00     0.002 A 
ATOM     88  C   UNL A   1      44.508  28.416  37.210  1.00  0.00     0.091 A 
ATOM     89  F   UNL A   1      43.372  26.747  36.016  1.00  0.00    -0.205 F 
ATOM     90  C   UNL A   1      45.071  29.692  37.264  1.00  0.00     0.022 A 
BRANCH  88  91
ATOM     91  S   UNL A   1      44.913  27.257  38.528  1.00  0.00     0.127 S 
ATOM     92  O   UNL A   1      43.711  26.431  38.572  1.00  0.00    -0.237 OA
ATOM     93  O   UNL A   1      46.102  26.581  38.009  1.00  0.00    -0.237 OA
ATOM     94  O   UNL A   1      45.165  28.076  39.709  1.00  0.00    -0.744 OA
ENDBRANCH  88  91
ENDBRANCH  70  84
BRANCH  71  95
ATOM     95  C   UNL A   1      43.687  35.426  29.723  1.00  0.00     0.023 A 
ATOM     96  C   UNL A   1      45.070  35.506  29.970  1.00  0.00     0.012 A 
ATOM     97  C   UNL A   1      43.058  36.510  29.069  1.00  0.00     0.148 A 
ATOM     98  C   UNL A   1      45.813  36.614  29.546  1.00  0.00     0.002 A 
ATOM     99  C   UNL A   1      43.800  37.611  28.653  1.00  0.00     0.091 A 
ATOM    100  F   UNL A   1      41.754  36.417  28.773  1.00  0.00    -0.205 F 
ATOM    101  C   UNL A   1      45.181  37.661  28.880  1.00  0.00     0.022 A 
BRANCH  99 102
ATOM    102  S   UNL A   1      43.057  38.985  27.760  1.00  0.00     0.127 S 
ATOM    103  O   UNL A   1      42.224  38.293  26.777  1.00  0.00    -0.237 OA
ATOM    104  O   UNL A   1      42.318  39.669  28.818  1.00  0.00    -0.237 OA
ATOM    105  O   UNL A   1      44.168  39.733  27.184  1.00  0.00    -0.744 OA
ENDBRANCH  99 102
ENDBRANCH  71  95
BRANCH  83 106
ATOM    106  C   UNL A   1      38.898  31.483  30.723  1.00  0.00     0.023 A 
ATOM    107  C   UNL A   1      39.042  30.732  29.538  1.00  0.00     0.012 A 
ATOM    108  C   UNL A   1      37.692  32.172  30.946  1.00  0.00     0.148 A 
ATOM    109  C   UNL A   1      38.020  30.691  28.586  1.00  0.00     0.002 A 
ATOM    110  C   UNL A   1      36.660  32.091  30.019  1.00  0.00     0.091 A 
ATOM    111  F   UNL A   1      37.565  32.878  32.079  1.00  0.00    -0.205 F 
ATOM    112  C   UNL A   1      36.824  31.360  28.832  1.00  0.00     0.022 A 
BRANCH 110 113
ATOM    113  S   UNL A   1      35.055  32.826  30.338  1.00  0.00     0.127 S 
ATOM    114  O   UNL A   1      34.708  32.254  31.636  1.00  0.00    -0.237 OA
ATOM    115  O   UNL A   1      35.362  34.258  30.361  1.00  0.00    -0.237 OA
ATOM    116  O   UNL A   1      34.204  32.422  29.224  1.00  0.00    -0.744 OA
ENDBRANCH 110 113
ENDBRANCH  83 106
ENDBRANCH  57  58
ENDBRANCH  49  52
ENDBRANCH  47  48
ENDBRANCH  46  47
ENDBRANCH  45  46
ENDBRANCH  44  45
ENDBRANCH  43  44
ENDBRANCH  42  43
ENDBRANCH  40  42
ENDBRANCH  37  38
ENDBRANCH   1  37
TORSDOF 31
ENDMDL
MODEL 3
REMARK VINA RESULT:      -6.8      2.548      4.960
REMARK SMILES NS(=O)(=O)c1ccc(-n2nc(C(=O)NCCCCCCCCCCC(=O)NCCCCCCNC(=O)c3ccc(-c4c5nc(c(-c6cccc(S(=O)(=O)[O-])c6F)c6ccc([nH]6)c(-c6cccc(S(=O)(=O)[O-])c6F)c6nc(c(-c7cccc(S(=O)(=O)[O-])c7F)c7ccc4[nH]7)C=C6)C=C5)cc3)cc2-c2ccccc2)cc1
REMARK SMILES IDX 23 1 22 2 21 3 20 4 19 5 18 6 17 7 16 8 15 9 14 10 12 11
REMARK SMILES IDX 13 12 11 14 9 15 10 16 101 17 100 18 8 19 5 20 6 21 109 22
REMARK SMILES IDX 7 23 108 24 2 25 3 26 4 27 1 28 102 31 103 32 107 33 104 34
REMARK SMILES IDX 106 35 105 36 24 37 25 38 26 39 27 40 28 42 29 43 30 44
REMARK SMILES IDX 31 45 32 46 33 47 34 48 35 49 36 51 37 52 38 53 99 54 39 55
REMARK SMILES IDX 98 56 40 57 41 58 42 59 92 60 43 61 97 62 91 63 93 64 44 65
REMARK SMILES IDX 96 66 90 67 89 68 45 70 77 71 57 72 76 73 58 74 61 75 75 76
REMARK SMILES IDX 94 77 59 78 60 79 74 81 95 82 62 83 46 84 47 85 55 86 48 87
REMARK SMILES IDX 50 88 56 89 49 90 51 91 52 92 53 93 54 94 78 95 79 96 87 97
REMARK SMILES IDX 80 98 82 99 88 100 81 101 83 102 84 103 85 104 86 105 63 106
REMARK SMILES IDX 64 107 72 108 65 109 67 110 73 111 66 112 68 113 69 114
REMARK SMILES IDX 70 115 71 116
REMARK H PARENT 14 13 1 29 1 30 27 41 34 50 93 69 61 80
REMARK Flexibility Score: inf
ROOT
ATOM      1  C   UNL A   1      47.626  34.126  30.939  1.00  0.00     0.010 C 
ENDROOT
BRANCH   1   2
ATOM      2  C   UNL A   1      47.218  32.663  30.789  1.00  0.00     0.001 C 
BRANCH   2   3
ATOM      3  C   UNL A   1      46.279  32.390  29.606  1.00  0.00     0.000 C 
BRANCH   3   4
ATOM      4  C   UNL A   1      44.802  32.479  29.975  1.00  0.00     0.000 C 
BRANCH   4   5
ATOM      5  C   UNL A   1      44.086  31.127  29.957  1.00  0.00     0.000 C 
BRANCH   5   6
ATOM      6  C   UNL A   1      43.191  30.911  28.730  1.00  0.00     0.000 C 
BRANCH   6   7
ATOM      7  C   UNL A   1      43.103  29.450  28.267  1.00  0.00     0.002 C 
BRANCH   7   8
ATOM      8  C   UNL A   1      43.549  29.237  26.817  1.00  0.00     0.021 C 
BRANCH   8   9
ATOM      9  C   UNL A   1      44.943  29.813  26.554  1.00  0.00     0.116 C 
BRANCH   9  10
ATOM     10  N   UNL A   1      45.557  29.110  25.458  1.00  0.00    -0.351 N 
ATOM     11  C   UNL A   1      45.854  27.787  25.254  1.00  0.00     0.271 C 
ATOM     12  O   UNL A   1      46.476  27.540  24.213  1.00  0.00    -0.267 OA
ATOM     13  H   UNL A   1      45.813  29.693  24.707  1.00  0.00     0.163 HD
BRANCH  11  14
ATOM     14  C   UNL A   1      45.486  26.730  26.221  1.00  0.00     0.151 A 
ATOM     15  N   UNL A   1      44.461  24.956  26.813  1.00  0.00    -0.232 N 
ATOM     16  N   UNL A   1      45.114  25.511  25.769  1.00  0.00    -0.162 NA
ATOM     17  C   UNL A   1      44.850  25.528  28.012  1.00  0.00     0.075 A 
ATOM     18  C   UNL A   1      45.497  26.688  27.639  1.00  0.00     0.065 A 
BRANCH  15  19
ATOM     19  C   UNL A   1      43.619  23.835  26.621  1.00  0.00     0.065 A 
ATOM     20  C   UNL A   1      42.020  21.577  26.432  1.00  0.00     0.082 A 
ATOM     21  C   UNL A   1      41.459  22.782  26.863  1.00  0.00     0.024 A 
ATOM     22  C   UNL A   1      43.361  21.507  26.039  1.00  0.00     0.024 A 
ATOM     23  C   UNL A   1      42.265  23.912  26.966  1.00  0.00     0.030 A 
ATOM     24  C   UNL A   1      44.158  22.650  26.104  1.00  0.00     0.030 A 
BRANCH  20  25
ATOM     25  S   UNL A   1      41.069  20.092  26.434  1.00  0.00     0.238 S 
ATOM     26  O   UNL A   1      41.836  19.061  25.744  1.00  0.00    -0.207 OA
ATOM     27  O   UNL A   1      39.709  20.387  26.107  1.00  0.00    -0.207 OA
BRANCH  25  28
ATOM     28  N   UNL A   1      41.065  19.598  28.042  1.00  0.00    -0.225 NA
ATOM     29  H   UNL A   1      40.906  18.591  28.088  1.00  0.00     0.137 HD
ATOM     30  H   UNL A   1      40.323  20.084  28.545  1.00  0.00     0.137 HD
ENDBRANCH  25  28
ENDBRANCH  20  25
ENDBRANCH  15  19
BRANCH  17  31
ATOM     31  C   UNL A   1      44.663  24.985  29.354  1.00  0.00     0.000 A 
ATOM     32  C   UNL A   1      44.776  25.815  30.476  1.00  0.00     0.010 A 
ATOM     33  C   UNL A   1      44.307  23.643  29.530  1.00  0.00     0.010 A 
ATOM     34  C   UNL A   1      44.543  25.310  31.756  1.00  0.00     0.001 A 
ATOM     35  C   UNL A   1      44.078  23.137  30.811  1.00  0.00     0.001 A 
ATOM     36  C   UNL A   1      44.193  23.971  31.923  1.00  0.00     0.000 A 
ENDBRANCH  17  31
ENDBRANCH  11  14
ENDBRANCH   9  10
ENDBRANCH   8   9
ENDBRANCH   7   8
ENDBRANCH   6   7
ENDBRANCH   5   6
ENDBRANCH   4   5
ENDBRANCH   3   4
ENDBRANCH   2   3
ENDBRANCH   1   2
BRANCH   1  37
ATOM     37  C   UNL A   1      47.532  34.984  29.677  1.00  0.00     0.100 C 
BRANCH  37  38
ATOM     38  C   UNL A   1      48.868  35.385  29.084  1.00  0.00     0.219 C 
ATOM     39  O   UNL A   1      49.924  35.035  29.617  1.00  0.00    -0.275 OA
ATOM     40  N   UNL A   1      48.939  36.097  27.924  1.00  0.00    -0.356 N 
ATOM     41  H   UNL A   1      49.852  36.297  27.617  1.00  0.00     0.163 HD
BRANCH  40  42
ATOM     42  C   UNL A   1      47.882  36.608  27.072  1.00  0.00     0.116 C 
BRANCH  42  43
ATOM     43  C   UNL A   1      48.091  38.089  26.739  1.00  0.00     0.021 C 
BRANCH  43  44
ATOM     44  C   UNL A   1      46.841  38.955  26.905  1.00  0.00     0.002 C 
BRANCH  44  45
ATOM     45  C   UNL A   1      46.116  38.816  28.251  1.00  0.00     0.002 C 
BRANCH  45  46
ATOM     46  C   UNL A   1      44.584  38.933  28.213  1.00  0.00     0.021 C 
BRANCH  46  47
ATOM     47  C   UNL A   1      44.001  39.745  29.362  1.00  0.00     0.116 C 
BRANCH  47  48
ATOM     48  N   UNL A   1      45.037  40.185  30.297  1.00  0.00    -0.352 N 
ATOM     49  C   UNL A   1      45.284  39.739  31.576  1.00  0.00     0.251 C 
ATOM     50  H   UNL A   1      45.636  40.893  29.968  1.00  0.00     0.163 HD
ATOM     51  O   UNL A   1      45.971  40.400  32.348  1.00  0.00    -0.269 OA
BRANCH  49  52
ATOM     52  C   UNL A   1      44.699  38.459  32.006  1.00  0.00     0.039 A 
ATOM     53  C   UNL A   1      43.730  38.425  33.011  1.00  0.00     0.014 A 
ATOM     54  C   UNL A   1      45.107  37.293  31.359  1.00  0.00     0.014 A 
ATOM     55  C   UNL A   1      43.107  37.216  33.305  1.00  0.00     0.010 A 
ATOM     56  C   UNL A   1      44.409  36.126  31.567  1.00  0.00     0.010 A 
ATOM     57  C   UNL A   1      43.435  36.072  32.562  1.00  0.00    -0.014 A 
BRANCH  57  58
ATOM     58  C   UNL A   1      42.681  34.837  32.750  1.00  0.00     0.031 A 
ATOM     59  C   UNL A   1      41.615  34.577  31.741  1.00  0.00     0.074 A 
ATOM     60  C   UNL A   1      43.060  33.876  33.619  1.00  0.00     0.049 A 
ATOM     61  N   UNL A   1      40.339  34.513  31.937  1.00  0.00    -0.248 NA
ATOM     62  C   UNL A   1      42.004  34.483  30.325  1.00  0.00     0.031 C 
ATOM     63  C   UNL A   1      44.285  33.830  34.427  1.00  0.00     0.029 A 
ATOM     64  N   UNL A   1      42.506  32.652  33.837  1.00  0.00    -0.354 N 
ATOM     65  C   UNL A   1      39.784  34.143  30.711  1.00  0.00     0.074 A 
ATOM     66  C   UNL A   1      40.821  34.322  29.729  1.00  0.00     0.031 C 
ATOM     67  C   UNL A   1      44.517  32.556  34.810  1.00  0.00     0.029 A 
ATOM     68  C   UNL A   1      43.373  31.747  34.439  1.00  0.00     0.049 A 
ATOM     69  H   UNL A   1      41.579  32.428  33.591  1.00  0.00     0.167 HD
ATOM     70  C   UNL A   1      38.591  33.491  30.634  1.00  0.00     0.034 A 
ATOM     71  C   UNL A   1      43.187  30.414  34.569  1.00  0.00     0.034 A 
ATOM     72  C   UNL A   1      37.884  33.534  31.890  1.00  0.00     0.049 A 
ATOM     73  C   UNL A   1      41.738  30.156  34.434  1.00  0.00     0.074 A 
ATOM     74  C   UNL A   1      37.399  34.524  32.719  1.00  0.00     0.029 A 
ATOM     75  N   UNL A   1      37.911  32.387  32.646  1.00  0.00    -0.354 N 
ATOM     76  N   UNL A   1      40.847  30.575  35.288  1.00  0.00    -0.248 NA
ATOM     77  C   UNL A   1      41.223  29.758  33.135  1.00  0.00     0.031 C 
ATOM     78  C   UNL A   1      37.603  34.029  34.042  1.00  0.00     0.029 A 
ATOM     79  C   UNL A   1      38.152  32.748  33.943  1.00  0.00     0.049 A 
ATOM     80  H   UNL A   1      37.781  31.469  32.314  1.00  0.00     0.167 HD
ATOM     81  C   UNL A   1      39.758  30.929  34.502  1.00  0.00     0.074 A 
ATOM     82  C   UNL A   1      39.994  30.274  33.219  1.00  0.00     0.031 C 
ATOM     83  C   UNL A   1      38.929  31.952  34.869  1.00  0.00     0.034 A 
BRANCH  70  84
ATOM     84  C   UNL A   1      38.201  32.491  29.562  1.00  0.00     0.023 A 
ATOM     85  C   UNL A   1      36.910  32.625  28.998  1.00  0.00     0.012 A 
ATOM     86  C   UNL A   1      38.890  31.284  29.296  1.00  0.00     0.148 A 
ATOM     87  C   UNL A   1      36.314  31.593  28.265  1.00  0.00     0.002 A 
ATOM     88  C   UNL A   1      38.320  30.285  28.509  1.00  0.00     0.091 A 
ATOM     89  F   UNL A   1      40.046  31.022  29.915  1.00  0.00    -0.205 F 
ATOM     90  C   UNL A   1      37.021  30.423  28.016  1.00  0.00     0.022 A 
BRANCH  88  91
ATOM     91  S   UNL A   1      39.192  28.745  28.175  1.00  0.00     0.127 S 
ATOM     92  O   UNL A   1      38.091  27.787  28.141  1.00  0.00    -0.237 OA
ATOM     93  O   UNL A   1      39.818  29.004  26.879  1.00  0.00    -0.237 OA
ATOM     94  O   UNL A   1      40.141  28.584  29.271  1.00  0.00    -0.744 OA
ENDBRANCH  88  91
ENDBRANCH  70  84
BRANCH  71  95
ATOM     95  C   UNL A   1      44.187  29.324  34.566  1.00  0.00     0.023 A 
ATOM     96  C   UNL A   1      44.993  29.123  33.429  1.00  0.00     0.012 A 
ATOM     97  C   UNL A   1      44.544  28.669  35.767  1.00  0.00     0.148 A 
ATOM     98  C   UNL A   1      46.139  28.323  33.494  1.00  0.00     0.002 A 
ATOM     99  C   UNL A   1      45.683  27.872  35.824  1.00  0.00     0.091 A 
ATOM    100  F   UNL A   1      43.821  28.904  36.870  1.00  0.00    -0.205 F 
ATOM    101  C   UNL A   1      46.490  27.706  34.692  1.00  0.00     0.022 A 
BRANCH  99 102
ATOM    102  S   UNL A   1      46.214  27.070  37.345  1.00  0.00     0.127 S 
ATOM    103  O   UNL A   1      45.126  26.121  37.584  1.00  0.00    -0.237 OA
ATOM    104  O   UNL A   1      47.479  26.462  36.940  1.00  0.00    -0.237 OA
ATOM    105  O   UNL A   1      46.314  28.130  38.340  1.00  0.00    -0.744 OA
ENDBRANCH  99 102
ENDBRANCH  71  95
BRANCH  83 106
ATOM    106  C   UNL A   1      39.028  32.475  36.281  1.00  0.00     0.023 A 
ATOM    107  C   UNL A   1      39.784  33.619  36.615  1.00  0.00     0.012 A 
ATOM    108  C   UNL A   1      38.208  31.895  37.264  1.00  0.00     0.148 A 
ATOM    109  C   UNL A   1      39.743  34.155  37.904  1.00  0.00     0.002 A 
ATOM    110  C   UNL A   1      38.134  32.458  38.533  1.00  0.00     0.091 A 
ATOM    111  F   UNL A   1      37.491  30.811  36.933  1.00  0.00    -0.205 F 
ATOM    112  C   UNL A   1      38.908  33.582  38.860  1.00  0.00     0.022 A 
BRANCH 110 113
ATOM    113  S   UNL A   1      36.985  31.842  39.765  1.00  0.00     0.127 S 
ATOM    114  O   UNL A   1      37.574  32.335  41.007  1.00  0.00    -0.237 OA
ATOM    115  O   UNL A   1      35.730  32.492  39.381  1.00  0.00    -0.237 OA
ATOM    116  O   UNL A   1      36.971  30.392  39.607  1.00  0.00    -0.744 OA
ENDBRANCH 110 113
ENDBRANCH  83 106
ENDBRANCH  57  58
ENDBRANCH  49  52
ENDBRANCH  47  48
ENDBRANCH  46  47
ENDBRANCH  45  46
ENDBRANCH  44  45
ENDBRANCH  43  44
ENDBRANCH  42  43
ENDBRANCH  40  42
ENDBRANCH  37  38
ENDBRANCH   1  37
TORSDOF 31
ENDMDL
