MODEL 1
REMARK VINA RESULT:     -11.4      0.000      0.000
REMARK SMILES CC(C)Cc1ccc(S(=O)(=O)Nc2cnc(N3CCCC3)c(C(=O)NCCCCCCNC(=O)c3ccc(-c4c5nc(c(-c6cccc(S(=O)(=O)[O-])c6F)c6ccc([nH]6)c(-c6cccc(S(=O)(=O)[O-])c6F)c6nc(c(-c7cccc(S(=O)(=O)[O-])c7F)c7ccc4[nH]7)C=C6)C=C5)cc3)c2)cc1
REMARK SMILES IDX 27 1 26 2 25 3 23 4 24 5 22 7 13 8 14 9 98 10 15 11 16 12
REMARK SMILES IDX 12 13 9 15 10 16 11 17 8 18 5 19 6 20 100 21 7 22 99 23 4 24
REMARK SMILES IDX 2 25 1 26 3 27 17 28 18 29 21 30 19 31 20 32 28 33 29 34
REMARK SMILES IDX 30 35 31 36 32 37 33 38 34 40 35 41 36 42 97 43 37 44 96 45
REMARK SMILES IDX 38 46 39 47 40 48 90 49 41 50 95 51 89 52 91 53 42 54 94 55
REMARK SMILES IDX 88 56 87 57 43 59 75 60 55 61 74 62 56 63 59 64 73 65 92 66
REMARK SMILES IDX 57 67 58 68 72 70 93 71 60 72 44 73 45 74 53 75 46 76 48 77
REMARK SMILES IDX 54 78 47 79 49 80 50 81 51 82 52 83 76 84 77 85 85 86 78 87
REMARK SMILES IDX 80 88 86 89 79 90 81 91 82 92 83 93 84 94 61 95 62 96 70 97
REMARK SMILES IDX 63 98 65 99 71 100 64 101 66 102 67 103 68 104 69 105
REMARK H PARENT 25 6 12 14 32 39 91 58 59 69
REMARK Flexibility Score: inf
ROOT
ATOM      1  C   UNL A   1      36.855  22.071  24.620  1.00  0.00     0.021 C 
ENDROOT
BRANCH   1   2
ATOM      2  C   UNL A   1      36.296  20.669  24.844  1.00  0.00     0.116 C 
BRANCH   2   3
ATOM      3  N   UNL A   1      35.287  20.702  25.886  1.00  0.00    -0.352 N 
ATOM      4  C   UNL A   1      33.929  20.828  25.992  1.00  0.00     0.255 C 
ATOM      5  O   UNL A   1      33.555  20.809  27.166  1.00  0.00    -0.269 OA
ATOM      6  H   UNL A   1      35.700  20.607  26.776  1.00  0.00     0.163 HD
BRANCH   4   7
ATOM      7  C   UNL A   1      32.964  20.882  24.837  1.00  0.00     0.084 A 
ATOM      8  C   UNL A   1      32.044  22.239  23.067  1.00  0.00     0.068 A 
ATOM      9  C   UNL A   1      31.829  21.081  22.348  1.00  0.00     0.140 A 
ATOM     10  C   UNL A   1      32.454  22.106  24.385  1.00  0.00     0.046 A 
ATOM     11  N   UNL A   1      32.134  19.854  22.810  1.00  0.00    -0.236 NA
ATOM     12  C   UNL A   1      32.727  19.742  24.031  1.00  0.00     0.141 A 
BRANCH   8  13
ATOM     13  N   UNL A   1      31.988  23.484  22.382  1.00  0.00    -0.278 N 
ATOM     14  H   UNL A   1      31.116  23.786  22.042  1.00  0.00     0.180 HD
BRANCH  13  15
ATOM     15  S   UNL A   1      33.326  24.476  22.119  1.00  0.00     0.261 S 
ATOM     16  O   UNL A   1      33.151  25.093  20.818  1.00  0.00    -0.201 OA
ATOM     17  O   UNL A   1      34.464  23.638  22.415  1.00  0.00    -0.201 OA
BRANCH  15  18
ATOM     18  C   UNL A   1      33.350  25.811  23.311  1.00  0.00     0.087 A 
ATOM     19  C   UNL A   1      33.822  27.802  25.256  1.00  0.00    -0.048 A 
ATOM     20  C   UNL A   1      33.841  26.445  25.606  1.00  0.00     0.005 A 
ATOM     21  C   UNL A   1      33.492  28.147  23.938  1.00  0.00     0.005 A 
ATOM     22  C   UNL A   1      33.624  25.456  24.641  1.00  0.00     0.022 A 
ATOM     23  C   UNL A   1      33.228  27.159  22.978  1.00  0.00     0.022 A 
BRANCH  19  24
ATOM     24  C   UNL A   1      34.131  28.873  26.281  1.00  0.00     0.038 C 
BRANCH  24  25
ATOM     25  C   UNL A   1      32.961  29.843  26.561  1.00  0.00    -0.013 C 
ATOM     26  C   UNL A   1      31.786  29.141  27.242  1.00  0.00     0.008 C 
ATOM     27  C   UNL A   1      33.427  31.001  27.449  1.00  0.00     0.008 C 
ENDBRANCH  24  25
ENDBRANCH  19  24
ENDBRANCH  15  18
ENDBRANCH  13  15
ENDBRANCH   8  13
BRANCH  12  28
ATOM     28  N   UNL A   1      33.107  18.472  24.339  1.00  0.00    -0.356 N 
ATOM     29  C   UNL A   1      32.530  17.654  25.389  1.00  0.00     0.118 C 
ATOM     30  C   UNL A   1      33.950  17.693  23.449  1.00  0.00     0.118 C 
ATOM     31  C   UNL A   1      33.626  16.612  25.587  1.00  0.00     0.023 C 
ATOM     32  C   UNL A   1      34.083  16.341  24.157  1.00  0.00     0.023 C 
ENDBRANCH  12  28
ENDBRANCH   4   7
ENDBRANCH   2   3
ENDBRANCH   1   2
BRANCH   1  33
ATOM     33  C   UNL A   1      37.412  22.711  25.901  1.00  0.00     0.002 C 
BRANCH  33  34
ATOM     34  C   UNL A   1      38.862  22.340  26.234  1.00  0.00     0.002 C 
BRANCH  34  35
ATOM     35  C   UNL A   1      39.350  21.020  25.633  1.00  0.00     0.021 C 
BRANCH  35  36
ATOM     36  C   UNL A   1      39.960  20.058  26.643  1.00  0.00     0.116 C 
BRANCH  36  37
ATOM     37  N   UNL A   1      41.065  19.300  26.081  1.00  0.00    -0.352 N 
ATOM     38  C   UNL A   1      42.322  19.737  25.748  1.00  0.00     0.251 C 
ATOM     39  H   UNL A   1      40.888  18.346  25.916  1.00  0.00     0.163 HD
ATOM     40  O   UNL A   1      43.086  19.001  25.132  1.00  0.00    -0.269 OA
BRANCH  38  41
ATOM     41  C   UNL A   1      42.741  21.107  26.116  1.00  0.00     0.039 A 
ATOM     42  C   UNL A   1      42.775  22.089  25.123  1.00  0.00     0.014 A 
ATOM     43  C   UNL A   1      43.103  21.418  27.430  1.00  0.00     0.014 A 
ATOM     44  C   UNL A   1      43.137  23.395  25.457  1.00  0.00     0.010 A 
ATOM     45  C   UNL A   1      43.398  22.734  27.773  1.00  0.00     0.010 A 
ATOM     46  C   UNL A   1      43.436  23.730  26.788  1.00  0.00    -0.014 A 
BRANCH  46  47
ATOM     47  C   UNL A   1      43.811  25.115  27.162  1.00  0.00     0.031 A 
ATOM     48  C   UNL A   1      45.162  25.657  26.782  1.00  0.00     0.074 A 
ATOM     49  C   UNL A   1      42.967  25.856  27.904  1.00  0.00     0.049 A 
ATOM     50  N   UNL A   1      45.676  26.834  27.030  1.00  0.00    -0.248 NA
ATOM     51  C   UNL A   1      46.066  24.750  26.054  1.00  0.00     0.031 C 
ATOM     52  C   UNL A   1      41.669  25.405  28.410  1.00  0.00     0.029 A 
ATOM     53  N   UNL A   1      43.082  27.137  28.379  1.00  0.00    -0.354 N 
ATOM     54  C   UNL A   1      46.969  26.796  26.524  1.00  0.00     0.074 A 
ATOM     55  C   UNL A   1      47.177  25.469  25.987  1.00  0.00     0.031 C 
ATOM     56  C   UNL A   1      41.104  26.399  29.116  1.00  0.00     0.029 A 
ATOM     57  C   UNL A   1      42.002  27.550  29.123  1.00  0.00     0.049 A 
ATOM     58  H   UNL A   1      43.865  27.708  28.204  1.00  0.00     0.167 HD
ATOM     59  C   UNL A   1      47.890  27.788  26.475  1.00  0.00     0.034 A 
ATOM     60  C   UNL A   1      41.758  28.728  29.729  1.00  0.00     0.034 A 
ATOM     61  C   UNL A   1      47.654  29.124  26.949  1.00  0.00     0.049 A 
ATOM     62  C   UNL A   1      42.761  29.841  29.586  1.00  0.00     0.074 A 
ATOM     63  C   UNL A   1      48.481  30.229  26.857  1.00  0.00     0.029 A 
ATOM     64  N   UNL A   1      46.503  29.537  27.600  1.00  0.00    -0.354 N 
ATOM     65  N   UNL A   1      43.908  29.841  28.950  1.00  0.00    -0.248 NA
ATOM     66  C   UNL A   1      42.418  31.129  30.206  1.00  0.00     0.031 C 
ATOM     67  C   UNL A   1      47.827  31.313  27.454  1.00  0.00     0.029 A 
ATOM     68  C   UNL A   1      46.592  30.881  27.915  1.00  0.00     0.049 A 
ATOM     69  H   UNL A   1      45.733  28.959  27.808  1.00  0.00     0.167 HD
ATOM     70  C   UNL A   1      44.408  31.132  29.063  1.00  0.00     0.074 A 
ATOM     71  C   UNL A   1      43.430  31.894  29.813  1.00  0.00     0.031 C 
ATOM     72  C   UNL A   1      45.579  31.638  28.604  1.00  0.00     0.034 A 
BRANCH  59  73
ATOM     73  C   UNL A   1      49.207  27.482  25.812  1.00  0.00     0.023 A 
ATOM     74  C   UNL A   1      50.283  27.022  26.600  1.00  0.00     0.012 A 
ATOM     75  C   UNL A   1      49.374  27.607  24.420  1.00  0.00     0.148 A 
ATOM     76  C   UNL A   1      51.515  26.726  26.018  1.00  0.00     0.002 A 
ATOM     77  C   UNL A   1      50.595  27.272  23.842  1.00  0.00     0.091 A 
ATOM     78  F   UNL A   1      48.351  28.071  23.688  1.00  0.00    -0.205 F 
ATOM     79  C   UNL A   1      51.668  26.842  24.640  1.00  0.00     0.022 A 
BRANCH  77  80
ATOM     80  S   UNL A   1      50.861  27.323  22.065  1.00  0.00     0.127 S 
ATOM     81  O   UNL A   1      50.920  28.762  21.816  1.00  0.00    -0.237 OA
ATOM     82  O   UNL A   1      52.141  26.627  21.920  1.00  0.00    -0.237 OA
ATOM     83  O   UNL A   1      49.727  26.623  21.477  1.00  0.00    -0.744 OA
ENDBRANCH  77  80
ENDBRANCH  59  73
BRANCH  60  84
ATOM     84  C   UNL A   1      40.457  28.946  30.421  1.00  0.00     0.023 A 
ATOM     85  C   UNL A   1      40.348  28.619  31.788  1.00  0.00     0.012 A 
ATOM     86  C   UNL A   1      39.354  29.522  29.763  1.00  0.00     0.148 A 
ATOM     87  C   UNL A   1      39.157  28.839  32.479  1.00  0.00     0.002 A 
ATOM     88  C   UNL A   1      38.186  29.784  30.470  1.00  0.00     0.091 A 
ATOM     89  F   UNL A   1      39.472  29.813  28.459  1.00  0.00    -0.205 F 
ATOM     90  C   UNL A   1      38.081  29.432  31.825  1.00  0.00     0.022 A 
BRANCH  88  91
ATOM     91  S   UNL A   1      36.801  30.666  29.740  1.00  0.00     0.127 S 
ATOM     92  O   UNL A   1      36.326  29.707  28.747  1.00  0.00    -0.237 OA
ATOM     93  O   UNL A   1      35.914  30.851  30.890  1.00  0.00    -0.237 OA
ATOM     94  O   UNL A   1      37.362  31.903  29.216  1.00  0.00    -0.744 OA
ENDBRANCH  88  91
ENDBRANCH  60  84
BRANCH  72  95
ATOM     95  C   UNL A   1      45.866  33.090  28.875  1.00  0.00     0.023 A 
ATOM     96  C   UNL A   1      46.558  33.453  30.046  1.00  0.00     0.012 A 
ATOM     97  C   UNL A   1      45.531  34.081  27.931  1.00  0.00     0.148 A 
ATOM     98  C   UNL A   1      46.894  34.784  30.287  1.00  0.00     0.002 A 
ATOM     99  C   UNL A   1      45.904  35.401  28.158  1.00  0.00     0.091 A 
ATOM    100  F   UNL A   1      44.851  33.719  26.833  1.00  0.00    -0.205 F 
ATOM    101  C   UNL A   1      46.578  35.756  29.339  1.00  0.00     0.022 A 
BRANCH  99 102
ATOM    102  S   UNL A   1      45.615  36.695  26.946  1.00  0.00     0.127 S 
ATOM    103  O   UNL A   1      46.362  36.197  25.792  1.00  0.00    -0.237 OA
ATOM    104  O   UNL A   1      44.161  36.664  26.791  1.00  0.00    -0.237 OA
ATOM    105  O   UNL A   1      46.126  37.920  27.548  1.00  0.00    -0.744 OA
ENDBRANCH  99 102
ENDBRANCH  72  95
ENDBRANCH  46  47
ENDBRANCH  38  41
ENDBRANCH  36  37
ENDBRANCH  35  36
ENDBRANCH  34  35
ENDBRANCH  33  34
ENDBRANCH   1  33
TORSDOF 22
ENDMDL
MODEL 2
REMARK VINA RESULT:     -11.1      1.203      7.278
REMARK SMILES CC(C)Cc1ccc(S(=O)(=O)Nc2cnc(N3CCCC3)c(C(=O)NCCCCCCNC(=O)c3ccc(-c4c5nc(c(-c6cccc(S(=O)(=O)[O-])c6F)c6ccc([nH]6)c(-c6cccc(S(=O)(=O)[O-])c6F)c6nc(c(-c7cccc(S(=O)(=O)[O-])c7F)c7ccc4[nH]7)C=C6)C=C5)cc3)c2)cc1
REMARK SMILES IDX 27 1 26 2 25 3 23 4 24 5 22 7 13 8 14 9 98 10 15 11 16 12
REMARK SMILES IDX 12 13 9 15 10 16 11 17 8 18 5 19 6 20 100 21 7 22 99 23 4 24
REMARK SMILES IDX 2 25 1 26 3 27 17 28 18 29 21 30 19 31 20 32 28 33 29 34
REMARK SMILES IDX 30 35 31 36 32 37 33 38 34 40 35 41 36 42 97 43 37 44 96 45
REMARK SMILES IDX 38 46 39 47 40 48 90 49 41 50 95 51 89 52 91 53 42 54 94 55
REMARK SMILES IDX 88 56 87 57 43 59 75 60 55 61 74 62 56 63 59 64 73 65 92 66
REMARK SMILES IDX 57 67 58 68 72 70 93 71 60 72 44 73 45 74 53 75 46 76 48 77
REMARK SMILES IDX 54 78 47 79 49 80 50 81 51 82 52 83 76 84 77 85 85 86 78 87
REMARK SMILES IDX 80 88 86 89 79 90 81 91 82 92 83 93 84 94 61 95 62 96 70 97
REMARK SMILES IDX 63 98 65 99 71 100 64 101 66 102 67 103 68 104 69 105
REMARK H PARENT 25 6 12 14 32 39 91 58 59 69
REMARK Flexibility Score: inf
ROOT
ATOM      1  C   UNL A   1      36.731  22.346  24.905  1.00  0.00     0.021 C 
ENDROOT
BRANCH   1   2
ATOM      2  C   UNL A   1      36.197  20.928  25.082  1.00  0.00     0.116 C 
BRANCH   2   3
ATOM      3  N   UNL A   1      35.120  20.925  26.054  1.00  0.00    -0.352 N 
ATOM      4  C   UNL A   1      33.753  20.983  26.068  1.00  0.00     0.255 C 
ATOM      5  O   UNL A   1      33.302  20.963  27.214  1.00  0.00    -0.269 OA
ATOM      6  H   UNL A   1      35.477  20.864  26.971  1.00  0.00     0.163 HD
BRANCH   4   7
ATOM      7  C   UNL A   1      32.866  20.969  24.850  1.00  0.00     0.084 A 
ATOM      8  C   UNL A   1      32.018  22.242  22.985  1.00  0.00     0.068 A 
ATOM      9  C   UNL A   1      31.893  21.059  22.287  1.00  0.00     0.140 A 
ATOM     10  C   UNL A   1      32.344  22.160  24.331  1.00  0.00     0.046 A 
ATOM     11  N   UNL A   1      32.211  19.857  22.803  1.00  0.00    -0.236 NA
ATOM     12  C   UNL A   1      32.725  19.800  24.064  1.00  0.00     0.141 A 
BRANCH   8  13
ATOM     13  N   UNL A   1      31.963  23.466  22.262  1.00  0.00    -0.278 N 
ATOM     14  H   UNL A   1      31.172  23.637  21.702  1.00  0.00     0.180 HD
BRANCH  13  15
ATOM     15  S   UNL A   1      33.170  24.643  22.308  1.00  0.00     0.261 S 
ATOM     16  O   UNL A   1      33.255  25.219  20.979  1.00  0.00    -0.201 OA
ATOM     17  O   UNL A   1      34.298  23.983  22.922  1.00  0.00    -0.201 OA
BRANCH  15  18
ATOM     18  C   UNL A   1      32.695  25.974  23.405  1.00  0.00     0.087 A 
ATOM     19  C   UNL A   1      32.025  28.345  24.783  1.00  0.00    -0.048 A 
ATOM     20  C   UNL A   1      33.343  28.111  24.368  1.00  0.00     0.005 A 
ATOM     21  C   UNL A   1      31.068  27.346  24.562  1.00  0.00     0.005 A 
ATOM     22  C   UNL A   1      33.674  26.944  23.671  1.00  0.00     0.022 A 
ATOM     23  C   UNL A   1      31.406  26.155  23.904  1.00  0.00     0.022 A 
BRANCH  19  24
ATOM     24  C   UNL A   1      31.647  29.640  25.470  1.00  0.00     0.038 C 
BRANCH  24  25
ATOM     25  C   UNL A   1      31.946  29.669  26.986  1.00  0.00    -0.013 C 
ATOM     26  C   UNL A   1      31.854  28.277  27.613  1.00  0.00     0.008 C 
ATOM     27  C   UNL A   1      33.344  30.236  27.245  1.00  0.00     0.008 C 
ENDBRANCH  24  25
ENDBRANCH  19  24
ENDBRANCH  15  18
ENDBRANCH  13  15
ENDBRANCH   8  13
BRANCH  12  28
ATOM     28  N   UNL A   1      33.129  18.554  24.433  1.00  0.00    -0.356 N 
ATOM     29  C   UNL A   1      32.307  17.570  25.112  1.00  0.00     0.118 C 
ATOM     30  C   UNL A   1      34.359  17.972  23.925  1.00  0.00     0.118 C 
ATOM     31  C   UNL A   1      33.371  16.640  25.685  1.00  0.00     0.023 C 
ATOM     32  C   UNL A   1      34.392  16.574  24.554  1.00  0.00     0.023 C 
ENDBRANCH  12  28
ENDBRANCH   4   7
ENDBRANCH   2   3
ENDBRANCH   1   2
BRANCH   1  33
ATOM     33  C   UNL A   1      38.136  22.539  25.495  1.00  0.00     0.002 C 
BRANCH  33  34
ATOM     34  C   UNL A   1      38.947  21.250  25.676  1.00  0.00     0.002 C 
BRANCH  34  35
ATOM     35  C   UNL A   1      40.109  21.346  26.666  1.00  0.00     0.021 C 
BRANCH  35  36
ATOM     36  C   UNL A   1      40.568  20.006  27.227  1.00  0.00     0.116 C 
BRANCH  36  37
ATOM     37  N   UNL A   1      41.473  19.315  26.324  1.00  0.00    -0.352 N 
ATOM     38  C   UNL A   1      42.566  19.810  25.660  1.00  0.00     0.251 C 
ATOM     39  H   UNL A   1      41.274  18.363  26.168  1.00  0.00     0.163 HD
ATOM     40  O   UNL A   1      43.128  19.130  24.807  1.00  0.00    -0.269 OA
BRANCH  38  41
ATOM     41  C   UNL A   1      43.046  21.176  25.961  1.00  0.00     0.039 A 
ATOM     42  C   UNL A   1      43.024  22.136  24.947  1.00  0.00     0.014 A 
ATOM     43  C   UNL A   1      43.521  21.505  27.235  1.00  0.00     0.014 A 
ATOM     44  C   UNL A   1      43.445  23.439  25.220  1.00  0.00     0.010 A 
ATOM     45  C   UNL A   1      43.875  22.819  27.523  1.00  0.00     0.010 A 
ATOM     46  C   UNL A   1      43.858  23.793  26.515  1.00  0.00    -0.014 A 
BRANCH  46  47
ATOM     47  C   UNL A   1      44.296  25.176  26.825  1.00  0.00     0.031 A 
ATOM     48  C   UNL A   1      43.322  26.158  27.417  1.00  0.00     0.074 A 
ATOM     49  C   UNL A   1      45.544  25.566  26.507  1.00  0.00     0.049 A 
ATOM     50  N   UNL A   1      43.512  27.410  27.743  1.00  0.00    -0.248 NA
ATOM     51  C   UNL A   1      41.947  25.681  27.645  1.00  0.00     0.031 C 
ATOM     52  C   UNL A   1      46.549  24.730  25.847  1.00  0.00     0.029 A 
ATOM     53  N   UNL A   1      46.176  26.770  26.680  1.00  0.00    -0.354 N 
ATOM     54  C   UNL A   1      42.279  27.879  28.178  1.00  0.00     0.074 A 
ATOM     55  C   UNL A   1      41.337  26.789  28.041  1.00  0.00     0.031 C 
ATOM     56  C   UNL A   1      47.673  25.444  25.679  1.00  0.00     0.029 A 
ATOM     57  C   UNL A   1      47.468  26.789  26.208  1.00  0.00     0.049 A 
ATOM     58  H   UNL A   1      45.746  27.550  27.102  1.00  0.00     0.167 HD
ATOM     59  C   UNL A   1      41.964  29.096  28.684  1.00  0.00     0.034 A 
ATOM     60  C   UNL A   1      48.386  27.775  26.216  1.00  0.00     0.034 A 
ATOM     61  C   UNL A   1      42.918  30.152  28.882  1.00  0.00     0.049 A 
ATOM     62  C   UNL A   1      48.037  29.090  26.861  1.00  0.00     0.074 A 
ATOM     63  C   UNL A   1      42.726  31.386  29.477  1.00  0.00     0.029 A 
ATOM     64  N   UNL A   1      44.247  30.096  28.492  1.00  0.00    -0.354 N 
ATOM     65  N   UNL A   1      46.913  29.457  27.429  1.00  0.00    -0.248 NA
ATOM     66  C   UNL A   1      49.094  30.110  26.907  1.00  0.00     0.031 C 
ATOM     67  C   UNL A   1      43.943  32.076  29.448  1.00  0.00     0.029 A 
ATOM     68  C   UNL A   1      44.891  31.271  28.836  1.00  0.00     0.049 A 
ATOM     69  H   UNL A   1      44.671  29.332  28.038  1.00  0.00     0.167 HD
ATOM     70  C   UNL A   1      47.136  30.734  27.928  1.00  0.00     0.074 A 
ATOM     71  C   UNL A   1      48.510  31.071  27.613  1.00  0.00     0.031 C 
ATOM     72  C   UNL A   1      46.277  31.562  28.572  1.00  0.00     0.034 A 
BRANCH  59  73
ATOM     73  C   UNL A   1      40.544  29.314  29.134  1.00  0.00     0.023 A 
ATOM     74  C   UNL A   1      39.577  29.714  28.188  1.00  0.00     0.012 A 
ATOM     75  C   UNL A   1      40.154  29.092  30.468  1.00  0.00     0.148 A 
ATOM     76  C   UNL A   1      38.252  29.922  28.569  1.00  0.00     0.002 A 
ATOM     77  C   UNL A   1      38.822  29.266  30.833  1.00  0.00     0.091 A 
ATOM     78  F   UNL A   1      41.090  28.740  31.361  1.00  0.00    -0.205 F 
ATOM     79  C   UNL A   1      37.874  29.689  29.888  1.00  0.00     0.022 A 
BRANCH  77  80
ATOM     80  S   UNL A   1      38.230  28.920  32.494  1.00  0.00     0.127 S 
ATOM     81  O   UNL A   1      38.467  27.481  32.599  1.00  0.00    -0.237 OA
ATOM     82  O   UNL A   1      39.115  29.744  33.320  1.00  0.00    -0.237 OA
ATOM     83  O   UNL A   1      36.834  29.335  32.509  1.00  0.00    -0.744 OA
ENDBRANCH  77  80
ENDBRANCH  59  73
BRANCH  60  84
ATOM     84  C   UNL A   1      49.758  27.510  25.699  1.00  0.00     0.023 A 
ATOM     85  C   UNL A   1      50.761  27.104  26.602  1.00  0.00     0.012 A 
ATOM     86  C   UNL A   1      50.063  27.598  24.327  1.00  0.00     0.148 A 
ATOM     87  C   UNL A   1      52.049  26.815  26.151  1.00  0.00     0.002 A 
ATOM     88  C   UNL A   1      51.335  27.261  23.879  1.00  0.00     0.091 A 
ATOM     89  F   UNL A   1      49.099  28.000  23.486  1.00  0.00    -0.205 F 
ATOM     90  C   UNL A   1      52.333  26.881  24.790  1.00  0.00     0.022 A 
BRANCH  88  91
ATOM     91  S   UNL A   1      51.747  27.190  22.131  1.00  0.00     0.127 S 
ATOM     92  O   UNL A   1      50.528  26.625  21.559  1.00  0.00    -0.237 OA
ATOM     93  O   UNL A   1      51.980  28.600  21.814  1.00  0.00    -0.237 OA
ATOM     94  O   UNL A   1      52.938  26.357  22.047  1.00  0.00    -0.744 OA
ENDBRANCH  88  91
ENDBRANCH  60  84
BRANCH  72  95
ATOM     95  C   UNL A   1      46.795  32.906  29.005  1.00  0.00     0.023 A 
ATOM     96  C   UNL A   1      47.437  33.032  30.252  1.00  0.00     0.012 A 
ATOM     97  C   UNL A   1      46.728  34.019  28.145  1.00  0.00     0.148 A 
ATOM     98  C   UNL A   1      47.985  34.251  30.648  1.00  0.00     0.002 A 
ATOM     99  C   UNL A   1      47.311  35.222  28.528  1.00  0.00     0.091 A 
ATOM    100  F   UNL A   1      46.092  33.886  26.971  1.00  0.00    -0.205 F 
ATOM    101  C   UNL A   1      47.932  35.342  29.782  1.00  0.00     0.022 A 
BRANCH  99 102
ATOM    102  S   UNL A   1      47.366  36.645  27.434  1.00  0.00     0.127 S 
ATOM    103  O   UNL A   1      47.969  36.075  26.230  1.00  0.00    -0.237 OA
ATOM    104  O   UNL A   1      45.952  36.996  27.300  1.00  0.00    -0.237 OA
ATOM    105  O   UNL A   1      48.167  37.645  28.128  1.00  0.00    -0.744 OA
ENDBRANCH  99 102
ENDBRANCH  72  95
ENDBRANCH  46  47
ENDBRANCH  38  41
ENDBRANCH  36  37
ENDBRANCH  35  36
ENDBRANCH  34  35
ENDBRANCH  33  34
ENDBRANCH   1  33
TORSDOF 22
ENDMDL
MODEL 3
REMARK VINA RESULT:      -9.9      1.608      4.802
REMARK SMILES CC(C)Cc1ccc(S(=O)(=O)Nc2cnc(N3CCCC3)c(C(=O)NCCCCCCNC(=O)c3ccc(-c4c5nc(c(-c6cccc(S(=O)(=O)[O-])c6F)c6ccc([nH]6)c(-c6cccc(S(=O)(=O)[O-])c6F)c6nc(c(-c7cccc(S(=O)(=O)[O-])c7F)c7ccc4[nH]7)C=C6)C=C5)cc3)c2)cc1
REMARK SMILES IDX 27 1 26 2 25 3 23 4 24 5 22 7 13 8 14 9 98 10 15 11 16 12
REMARK SMILES IDX 12 13 9 15 10 16 11 17 8 18 5 19 6 20 100 21 7 22 99 23 4 24
REMARK SMILES IDX 2 25 1 26 3 27 17 28 18 29 21 30 19 31 20 32 28 33 29 34
REMARK SMILES IDX 30 35 31 36 32 37 33 38 34 40 35 41 36 42 97 43 37 44 96 45
REMARK SMILES IDX 38 46 39 47 40 48 90 49 41 50 95 51 89 52 91 53 42 54 94 55
REMARK SMILES IDX 88 56 87 57 43 59 75 60 55 61 74 62 56 63 59 64 73 65 92 66
REMARK SMILES IDX 57 67 58 68 72 70 93 71 60 72 44 73 45 74 53 75 46 76 48 77
REMARK SMILES IDX 54 78 47 79 49 80 50 81 51 82 52 83 76 84 77 85 85 86 78 87
REMARK SMILES IDX 80 88 86 89 79 90 81 91 82 92 83 93 84 94 61 95 62 96 70 97
REMARK SMILES IDX 63 98 65 99 71 100 64 101 66 102 67 103 68 104 69 105
REMARK H PARENT 25 6 12 14 32 39 91 58 59 69
REMARK Flexibility Score: inf
ROOT
ATOM      1  C   UNL A   1      36.461  23.702  25.805  1.00  0.00     0.021 C 
ENDROOT
BRANCH   1   2
ATOM      2  C   UNL A   1      35.042  23.997  25.328  1.00  0.00     0.116 C 
BRANCH   2   3
ATOM      3  N   UNL A   1      34.911  25.408  25.016  1.00  0.00    -0.352 N 
ATOM      4  C   UNL A   1      33.995  26.250  24.448  1.00  0.00     0.255 C 
ATOM      5  O   UNL A   1      34.401  27.412  24.405  1.00  0.00    -0.269 OA
ATOM      6  H   UNL A   1      35.717  25.904  25.293  1.00  0.00     0.163 HD
BRANCH   4   7
ATOM      7  C   UNL A   1      32.606  25.863  24.009  1.00  0.00     0.084 A 
ATOM      8  C   UNL A   1      31.191  24.079  23.212  1.00  0.00     0.068 A 
ATOM      9  C   UNL A   1      30.121  24.719  23.806  1.00  0.00     0.140 A 
ATOM     10  C   UNL A   1      32.400  24.757  23.175  1.00  0.00     0.046 A 
ATOM     11  N   UNL A   1      30.231  25.884  24.469  1.00  0.00    -0.236 NA
ATOM     12  C   UNL A   1      31.464  26.448  24.606  1.00  0.00     0.141 A 
BRANCH   8  13
ATOM     13  N   UNL A   1      31.037  22.721  22.819  1.00  0.00    -0.278 N 
ATOM     14  H   UNL A   1      30.151  22.306  22.926  1.00  0.00     0.180 HD
BRANCH  13  15
ATOM     15  S   UNL A   1      32.280  21.779  22.179  1.00  0.00     0.261 S 
ATOM     16  O   UNL A   1      33.488  22.581  22.218  1.00  0.00    -0.201 OA
ATOM     17  O   UNL A   1      31.748  21.268  20.938  1.00  0.00    -0.201 OA
BRANCH  15  18
ATOM     18  C   UNL A   1      32.583  20.361  23.228  1.00  0.00     0.087 A 
ATOM     19  C   UNL A   1      32.757  18.310  25.161  1.00  0.00    -0.048 A 
ATOM     20  C   UNL A   1      33.202  19.606  25.455  1.00  0.00     0.005 A 
ATOM     21  C   UNL A   1      32.293  18.041  23.866  1.00  0.00     0.005 A 
ATOM     22  C   UNL A   1      33.102  20.627  24.504  1.00  0.00     0.022 A 
ATOM     23  C   UNL A   1      32.235  19.053  22.896  1.00  0.00     0.022 A 
BRANCH  19  24
ATOM     24  C   UNL A   1      32.793  17.220  26.211  1.00  0.00     0.038 C 
BRANCH  24  25
ATOM     25  C   UNL A   1      33.538  15.938  25.774  1.00  0.00    -0.013 C 
ATOM     26  C   UNL A   1      32.572  14.823  25.373  1.00  0.00     0.008 C 
ATOM     27  C   UNL A   1      34.467  16.236  24.594  1.00  0.00     0.008 C 
ENDBRANCH  24  25
ENDBRANCH  19  24
ENDBRANCH  15  18
ENDBRANCH  13  15
ENDBRANCH   8  13
BRANCH  12  28
ATOM     28  N   UNL A   1      31.474  27.552  25.402  1.00  0.00    -0.356 N 
ATOM     29  C   UNL A   1      31.231  28.911  24.958  1.00  0.00     0.118 C 
ATOM     30  C   UNL A   1      31.451  27.445  26.850  1.00  0.00     0.118 C 
ATOM     31  C   UNL A   1      31.844  29.711  26.103  1.00  0.00     0.023 C 
ATOM     32  C   UNL A   1      31.427  28.902  27.327  1.00  0.00     0.023 C 
ENDBRANCH  12  28
ENDBRANCH   4   7
ENDBRANCH   2   3
ENDBRANCH   1   2
BRANCH   1  33
ATOM     33  C   UNL A   1      37.025  22.388  25.244  1.00  0.00     0.002 C 
BRANCH  33  34
ATOM     34  C   UNL A   1      38.444  22.040  25.710  1.00  0.00     0.002 C 
BRANCH  34  35
ATOM     35  C   UNL A   1      38.918  20.629  25.356  1.00  0.00     0.021 C 
BRANCH  35  36
ATOM     36  C   UNL A   1      39.570  19.878  26.509  1.00  0.00     0.116 C 
BRANCH  36  37
ATOM     37  N   UNL A   1      40.812  19.236  26.113  1.00  0.00    -0.352 N 
ATOM     38  C   UNL A   1      42.051  19.799  25.944  1.00  0.00     0.251 C 
ATOM     39  H   UNL A   1      40.756  18.268  25.943  1.00  0.00     0.163 HD
ATOM     40  O   UNL A   1      42.962  19.143  25.448  1.00  0.00    -0.269 OA
BRANCH  38  41
ATOM     41  C   UNL A   1      42.275  21.206  26.340  1.00  0.00     0.039 A 
ATOM     42  C   UNL A   1      42.439  21.505  27.694  1.00  0.00     0.014 A 
ATOM     43  C   UNL A   1      42.317  22.223  25.381  1.00  0.00     0.014 A 
ATOM     44  C   UNL A   1      42.682  22.823  28.085  1.00  0.00     0.010 A 
ATOM     45  C   UNL A   1      42.626  23.524  25.766  1.00  0.00     0.010 A 
ATOM     46  C   UNL A   1      42.793  23.839  27.122  1.00  0.00    -0.014 A 
BRANCH  46  47
ATOM     47  C   UNL A   1      43.064  25.242  27.519  1.00  0.00     0.031 A 
ATOM     48  C   UNL A   1      44.453  25.805  27.393  1.00  0.00     0.074 A 
ATOM     49  C   UNL A   1      42.078  25.983  28.059  1.00  0.00     0.049 A 
ATOM     50  N   UNL A   1      44.888  26.999  27.701  1.00  0.00    -0.248 NA
ATOM     51  C   UNL A   1      45.498  24.899  26.885  1.00  0.00     0.031 C 
ATOM     52  C   UNL A   1      40.713  25.517  28.315  1.00  0.00     0.029 A 
ATOM     53  N   UNL A   1      42.076  27.279  28.506  1.00  0.00    -0.354 N 
ATOM     54  C   UNL A   1      46.256  26.978  27.458  1.00  0.00     0.074 A 
ATOM     55  C   UNL A   1      46.588  25.642  27.013  1.00  0.00     0.031 C 
ATOM     56  C   UNL A   1      40.004  26.516  28.865  1.00  0.00     0.029 A 
ATOM     57  C   UNL A   1      40.863  27.687  29.012  1.00  0.00     0.049 A 
ATOM     58  H   UNL A   1      42.868  27.864  28.470  1.00  0.00     0.167 HD
ATOM     59  C   UNL A   1      47.151  27.989  27.559  1.00  0.00     0.034 A 
ATOM     60  C   UNL A   1      40.485  28.876  29.521  1.00  0.00     0.034 A 
ATOM     61  C   UNL A   1      46.804  29.332  27.936  1.00  0.00     0.049 A 
ATOM     62  C   UNL A   1      41.477  30.007  29.542  1.00  0.00     0.074 A 
ATOM     63  C   UNL A   1      47.614  30.453  27.973  1.00  0.00     0.029 A 
ATOM     64  N   UNL A   1      45.540  29.735  28.336  1.00  0.00    -0.354 N 
ATOM     65  N   UNL A   1      42.726  30.016  29.143  1.00  0.00    -0.248 NA
ATOM     66  C   UNL A   1      40.998  31.303  30.042  1.00  0.00     0.031 C 
ATOM     67  C   UNL A   1      46.836  31.537  28.396  1.00  0.00     0.029 A 
ATOM     68  C   UNL A   1      45.543  31.089  28.620  1.00  0.00     0.049 A 
ATOM     69  H   UNL A   1      44.755  29.145  28.408  1.00  0.00     0.167 HD
ATOM     70  C   UNL A   1      43.172  31.321  29.311  1.00  0.00     0.074 A 
ATOM     71  C   UNL A   1      42.053  32.081  29.831  1.00  0.00     0.031 C 
ATOM     72  C   UNL A   1      44.402  31.841  29.075  1.00  0.00     0.034 A 
BRANCH  59  73
ATOM     73  C   UNL A   1      48.577  27.695  27.176  1.00  0.00     0.023 A 
ATOM     74  C   UNL A   1      49.490  27.299  28.176  1.00  0.00     0.012 A 
ATOM     75  C   UNL A   1      49.008  27.770  25.838  1.00  0.00     0.148 A 
ATOM     76  C   UNL A   1      50.817  27.016  27.856  1.00  0.00     0.002 A 
ATOM     77  C   UNL A   1      50.325  27.449  25.521  1.00  0.00     0.091 A 
ATOM     78  F   UNL A   1      48.137  28.174  24.903  1.00  0.00    -0.205 F 
ATOM     79  C   UNL A   1      51.232  27.081  26.529  1.00  0.00     0.022 A 
BRANCH  77  80
ATOM     80  S   UNL A   1      50.928  27.436  23.828  1.00  0.00     0.127 S 
ATOM     81  O   UNL A   1      52.147  26.640  23.954  1.00  0.00    -0.237 OA
ATOM     82  O   UNL A   1      49.837  26.771  23.112  1.00  0.00    -0.237 OA
ATOM     83  O   UNL A   1      51.118  28.835  23.468  1.00  0.00    -0.744 OA
ENDBRANCH  77  80
ENDBRANCH  59  73
BRANCH  60  84
ATOM     84  C   UNL A   1      39.070  29.082  29.939  1.00  0.00     0.023 A 
ATOM     85  C   UNL A   1      38.715  28.851  31.283  1.00  0.00     0.012 A 
ATOM     86  C   UNL A   1      38.094  29.556  29.041  1.00  0.00     0.148 A 
ATOM     87  C   UNL A   1      37.408  29.065  31.720  1.00  0.00     0.002 A 
ATOM     88  C   UNL A   1      36.805  29.814  29.495  1.00  0.00     0.091 A 
ATOM     89  F   UNL A   1      38.448  29.756  27.764  1.00  0.00    -0.205 F 
ATOM     90  C   UNL A   1      36.456  29.557  30.830  1.00  0.00     0.022 A 
BRANCH  88  91
ATOM     91  S   UNL A   1      35.556  30.574  28.451  1.00  0.00     0.127 S 
ATOM     92  O   UNL A   1      36.375  31.273  27.465  1.00  0.00    -0.237 OA
ATOM     93  O   UNL A   1      34.835  29.408  27.937  1.00  0.00    -0.237 OA
ATOM     94  O   UNL A   1      34.767  31.416  29.340  1.00  0.00    -0.744 OA
ENDBRANCH  88  91
ENDBRANCH  60  84
BRANCH  72  95
ATOM     95  C   UNL A   1      44.605  33.306  29.350  1.00  0.00     0.023 A 
ATOM     96  C   UNL A   1      45.120  33.712  30.596  1.00  0.00     0.012 A 
ATOM     97  C   UNL A   1      44.371  34.270  28.349  1.00  0.00     0.148 A 
ATOM     98  C   UNL A   1      45.380  35.057  30.851  1.00  0.00     0.002 A 
ATOM     99  C   UNL A   1      44.669  35.605  28.596  1.00  0.00     0.091 A 
ATOM    100  F   UNL A   1      43.857  33.866  27.177  1.00  0.00    -0.205 F 
ATOM    101  C   UNL A   1      45.165  36.002  29.849  1.00  0.00     0.022 A 
BRANCH  99 102
ATOM    102  S   UNL A   1      44.507  36.868  27.329  1.00  0.00     0.127 S 
ATOM    103  O   UNL A   1      43.148  36.632  26.844  1.00  0.00    -0.237 OA
ATOM    104  O   UNL A   1      44.676  38.105  28.092  1.00  0.00    -0.237 OA
ATOM    105  O   UNL A   1      45.574  36.606  26.372  1.00  0.00    -0.744 OA
ENDBRANCH  99 102
ENDBRANCH  72  95
ENDBRANCH  46  47
ENDBRANCH  38  41
ENDBRANCH  36  37
ENDBRANCH  35  36
ENDBRANCH  34  35
ENDBRANCH  33  34
ENDBRANCH   1  33
TORSDOF 22
ENDMDL
