MODEL 1
REMARK VINA RESULT:      -9.1      0.000      0.000
REMARK SMILES CCOC(=O)c1ccc(-c2ccc(C(=O)NCCCCCCNC(=O)c3ccc(-c4c5nc(c(-c6cccc(S(=O)(=O)[O-])c6F)c6ccc([nH]6)c(-c6cccc(S(=O)(=O)[O-])c6F)c6nc(c(-c7cccc(S(=O)(=O)[O-])c7F)c7ccc4[nH]7)C=C6)C=C5)cc3)o2)cc1
REMARK SMILES IDX 19 1 18 2 17 3 16 4 14 5 15 6 13 8 10 9 11 10 89 11 12 12
REMARK SMILES IDX 9 13 6 14 7 15 91 16 8 17 90 18 4 19 5 20 3 21 2 22 1 23
REMARK SMILES IDX 20 24 21 25 22 26 23 27 24 28 25 30 26 31 27 32 88 33 28 34
REMARK SMILES IDX 87 35 29 36 30 37 31 38 81 39 32 40 86 41 80 42 82 43 33 44
REMARK SMILES IDX 85 45 79 46 78 47 34 49 66 50 46 51 65 52 47 53 50 54 64 55
REMARK SMILES IDX 83 56 48 57 49 58 63 60 84 61 51 62 35 63 36 64 44 65 37 66
REMARK SMILES IDX 39 67 45 68 38 69 40 70 41 71 42 72 43 73 67 74 68 75 76 76
REMARK SMILES IDX 69 77 71 78 77 79 70 80 72 81 73 82 74 83 75 84 52 85 53 86
REMARK SMILES IDX 61 87 54 88 56 89 62 90 55 91 57 92 58 93 59 94 60 95
REMARK H PARENT 16 7 23 29 82 48 50 59
REMARK Flexibility Score: inf
ROOT
ATOM      1  C   UNL A   1      35.905  32.241  29.262  1.00  0.00     0.002 C 
ENDROOT
BRANCH   1   2
ATOM      2  C   UNL A   1      36.680  31.094  28.598  1.00  0.00     0.021 C 
BRANCH   2   3
ATOM      3  C   UNL A   1      36.316  29.718  29.153  1.00  0.00     0.116 C 
BRANCH   3   4
ATOM      4  N   UNL A   1      37.172  29.375  30.270  1.00  0.00    -0.349 N 
ATOM      5  C   UNL A   1      38.394  28.749  30.332  1.00  0.00     0.287 C 
ATOM      6  O   UNL A   1      38.872  28.638  31.465  1.00  0.00    -0.266 OA
ATOM      7  H   UNL A   1      36.812  29.638  31.147  1.00  0.00     0.163 HD
BRANCH   5   8
ATOM      8  C   UNL A   1      39.081  28.282  29.141  1.00  0.00     0.192 A 
ATOM      9  C   UNL A   1      39.991  26.678  27.917  1.00  0.00     0.135 A 
ATOM     10  C   UNL A   1      40.212  27.848  27.233  1.00  0.00     0.052 A 
ATOM     11  O   UNL A   1      39.304  26.924  29.061  1.00  0.00    -0.451 OA
ATOM     12  C   UNL A   1      39.580  28.866  27.988  1.00  0.00     0.057 A 
BRANCH   9  13
ATOM     13  C   UNL A   1      40.300  25.294  27.636  1.00  0.00     0.017 A 
ATOM     14  C   UNL A   1      40.782  22.562  27.311  1.00  0.00     0.060 A 
ATOM     15  C   UNL A   1      41.653  23.333  28.088  1.00  0.00     0.016 A 
ATOM     16  C   UNL A   1      39.687  23.153  26.673  1.00  0.00     0.016 A 
ATOM     17  C   UNL A   1      41.419  24.700  28.234  1.00  0.00     0.013 A 
ATOM     18  C   UNL A   1      39.443  24.518  26.845  1.00  0.00     0.013 A 
BRANCH  14  19
ATOM     19  C   UNL A   1      41.006  21.106  27.251  1.00  0.00     0.338 C 
ATOM     20  O   UNL A   1      40.850  20.363  28.204  1.00  0.00    -0.246 OA
BRANCH  19  21
ATOM     21  O   UNL A   1      41.458  20.771  26.018  1.00  0.00    -0.462 OA
BRANCH  21  22
ATOM     22  C   UNL A   1      42.748  20.143  25.991  1.00  0.00     0.230 C 
ATOM     23  C   UNL A   1      42.636  18.628  26.014  1.00  0.00     0.049 C 
ENDBRANCH  21  22
ENDBRANCH  19  21
ENDBRANCH  14  19
ENDBRANCH   9  13
ENDBRANCH   5   8
ENDBRANCH   3   4
ENDBRANCH   2   3
ENDBRANCH   1   2
BRANCH   1  24
ATOM     24  C   UNL A   1      36.247  33.645  28.741  1.00  0.00     0.002 C 
BRANCH  24  25
ATOM     25  C   UNL A   1      35.060  34.606  28.641  1.00  0.00     0.021 C 
BRANCH  25  26
ATOM     26  C   UNL A   1      33.717  33.983  29.007  1.00  0.00     0.116 C 
BRANCH  26  27
ATOM     27  N   UNL A   1      32.906  34.884  29.815  1.00  0.00    -0.352 N 
ATOM     28  C   UNL A   1      32.980  35.122  31.165  1.00  0.00     0.251 C 
ATOM     29  H   UNL A   1      32.217  35.390  29.328  1.00  0.00     0.163 HD
ATOM     30  O   UNL A   1      32.095  35.752  31.737  1.00  0.00    -0.269 OA
BRANCH  28  31
ATOM     31  C   UNL A   1      34.131  34.595  31.925  1.00  0.00     0.039 A 
ATOM     32  C   UNL A   1      34.166  33.241  32.270  1.00  0.00     0.014 A 
ATOM     33  C   UNL A   1      35.189  35.442  32.264  1.00  0.00     0.014 A 
ATOM     34  C   UNL A   1      35.298  32.720  32.903  1.00  0.00     0.010 A 
ATOM     35  C   UNL A   1      36.339  34.909  32.832  1.00  0.00     0.010 A 
ATOM     36  C   UNL A   1      36.405  33.545  33.158  1.00  0.00    -0.014 A 
BRANCH  36  37
ATOM     37  C   UNL A   1      37.657  33.023  33.764  1.00  0.00     0.031 A 
ATOM     38  C   UNL A   1      37.864  33.139  35.249  1.00  0.00     0.074 A 
ATOM     39  C   UNL A   1      38.652  32.581  32.970  1.00  0.00     0.049 A 
ATOM     40  N   UNL A   1      38.943  32.919  35.951  1.00  0.00    -0.248 NA
ATOM     41  C   UNL A   1      36.710  33.594  36.043  1.00  0.00     0.031 C 
ATOM     42  C   UNL A   1      38.591  32.478  31.511  1.00  0.00     0.029 A 
ATOM     43  N   UNL A   1      39.929  32.178  33.277  1.00  0.00    -0.354 N 
ATOM     44  C   UNL A   1      38.618  33.259  37.259  1.00  0.00     0.074 A 
ATOM     45  C   UNL A   1      37.246  33.718  37.250  1.00  0.00     0.031 C 
ATOM     46  C   UNL A   1      39.778  32.057  31.049  1.00  0.00     0.029 A 
ATOM     47  C   UNL A   1      40.698  31.898  32.171  1.00  0.00     0.049 A 
ATOM     48  H   UNL A   1      40.262  32.098  34.200  1.00  0.00     0.167 HD
ATOM     49  C   UNL A   1      39.386  33.174  38.371  1.00  0.00     0.034 A 
ATOM     50  C   UNL A   1      42.003  31.574  32.071  1.00  0.00     0.034 A 
ATOM     51  C   UNL A   1      40.730  32.667  38.379  1.00  0.00     0.049 A 
ATOM     52  C   UNL A   1      42.824  31.451  33.327  1.00  0.00     0.074 A 
ATOM     53  C   UNL A   1      41.562  32.460  39.465  1.00  0.00     0.029 A 
ATOM     54  N   UNL A   1      41.438  32.287  37.251  1.00  0.00    -0.354 N 
ATOM     55  N   UNL A   1      42.460  31.647  34.571  1.00  0.00    -0.248 NA
ATOM     56  C   UNL A   1      44.226  31.034  33.172  1.00  0.00     0.031 C 
ATOM     57  C   UNL A   1      42.782  31.971  38.988  1.00  0.00     0.029 A 
ATOM     58  C   UNL A   1      42.700  31.849  37.611  1.00  0.00     0.049 A 
ATOM     59  H   UNL A   1      41.094  32.323  36.329  1.00  0.00     0.167 HD
ATOM     60  C   UNL A   1      43.568  31.330  35.347  1.00  0.00     0.074 A 
ATOM     61  C   UNL A   1      44.618  30.927  34.435  1.00  0.00     0.031 C 
ATOM     62  C   UNL A   1      43.706  31.379  36.695  1.00  0.00     0.034 A 
BRANCH  49  63
ATOM     63  C   UNL A   1      38.774  33.595  39.680  1.00  0.00     0.023 A 
ATOM     64  C   UNL A   1      39.017  34.891  40.177  1.00  0.00     0.012 A 
ATOM     65  C   UNL A   1      37.909  32.735  40.385  1.00  0.00     0.148 A 
ATOM     66  C   UNL A   1      38.439  35.314  41.374  1.00  0.00     0.002 A 
ATOM     67  C   UNL A   1      37.301  33.179  41.554  1.00  0.00     0.091 A 
ATOM     68  F   UNL A   1      37.707  31.499  39.908  1.00  0.00    -0.205 F 
ATOM     69  C   UNL A   1      37.574  34.462  42.055  1.00  0.00     0.022 A 
BRANCH  67  70
ATOM     70  S   UNL A   1      36.108  32.187  42.460  1.00  0.00     0.127 S 
ATOM     71  O   UNL A   1      35.643  33.136  43.470  1.00  0.00    -0.237 OA
ATOM     72  O   UNL A   1      35.124  31.866  41.425  1.00  0.00    -0.237 OA
ATOM     73  O   UNL A   1      36.847  31.041  42.970  1.00  0.00    -0.744 OA
ENDBRANCH  67  70
ENDBRANCH  49  63
BRANCH  50  74
ATOM     74  C   UNL A   1      42.597  31.285  30.735  1.00  0.00     0.023 A 
ATOM     75  C   UNL A   1      42.487  29.987  30.200  1.00  0.00     0.012 A 
ATOM     76  C   UNL A   1      43.238  32.287  29.980  1.00  0.00     0.148 A 
ATOM     77  C   UNL A   1      43.030  29.683  28.950  1.00  0.00     0.002 A 
ATOM     78  C   UNL A   1      43.728  31.992  28.713  1.00  0.00     0.091 A 
ATOM     79  F   UNL A   1      43.342  33.514  30.511  1.00  0.00    -0.205 F 
ATOM     80  C   UNL A   1      43.641  30.688  28.203  1.00  0.00     0.022 A 
BRANCH  78  81
ATOM     81  S   UNL A   1      44.412  33.251  27.628  1.00  0.00     0.127 S 
ATOM     82  O   UNL A   1      45.692  33.536  28.269  1.00  0.00    -0.237 OA
ATOM     83  O   UNL A   1      44.504  32.536  26.355  1.00  0.00    -0.237 OA
ATOM     84  O   UNL A   1      43.444  34.340  27.632  1.00  0.00    -0.744 OA
ENDBRANCH  78  81
ENDBRANCH  50  74
BRANCH  62  85
ATOM     85  C   UNL A   1      45.012  30.927  37.293  1.00  0.00     0.023 A 
ATOM     86  C   UNL A   1      46.023  31.867  37.565  1.00  0.00     0.012 A 
ATOM     87  C   UNL A   1      45.177  29.588  37.700  1.00  0.00     0.148 A 
ATOM     88  C   UNL A   1      47.187  31.479  38.226  1.00  0.00     0.002 A 
ATOM     89  C   UNL A   1      46.318  29.218  38.399  1.00  0.00     0.091 A 
ATOM     90  F   UNL A   1      44.206  28.710  37.414  1.00  0.00    -0.205 F 
ATOM     91  C   UNL A   1      47.329  30.160  38.655  1.00  0.00     0.022 A 
BRANCH  89  92
ATOM     92  S   UNL A   1      46.543  27.572  39.080  1.00  0.00     0.127 S 
ATOM     93  O   UNL A   1      45.352  27.431  39.917  1.00  0.00    -0.237 OA
ATOM     94  O   UNL A   1      46.545  26.738  37.878  1.00  0.00    -0.237 OA
ATOM     95  O   UNL A   1      47.808  27.602  39.802  1.00  0.00    -0.744 OA
ENDBRANCH  89  92
ENDBRANCH  62  85
ENDBRANCH  36  37
ENDBRANCH  28  31
ENDBRANCH  26  27
ENDBRANCH  25  26
ENDBRANCH  24  25
ENDBRANCH   1  24
TORSDOF 20
ENDMDL
MODEL 2
REMARK VINA RESULT:      -8.6      2.027      2.343
REMARK SMILES CCOC(=O)c1ccc(-c2ccc(C(=O)NCCCCCCNC(=O)c3ccc(-c4c5nc(c(-c6cccc(S(=O)(=O)[O-])c6F)c6ccc([nH]6)c(-c6cccc(S(=O)(=O)[O-])c6F)c6nc(c(-c7cccc(S(=O)(=O)[O-])c7F)c7ccc4[nH]7)C=C6)C=C5)cc3)o2)cc1
REMARK SMILES IDX 19 1 18 2 17 3 16 4 14 5 15 6 13 8 10 9 11 10 89 11 12 12
REMARK SMILES IDX 9 13 6 14 7 15 91 16 8 17 90 18 4 19 5 20 3 21 2 22 1 23
REMARK SMILES IDX 20 24 21 25 22 26 23 27 24 28 25 30 26 31 27 32 88 33 28 34
REMARK SMILES IDX 87 35 29 36 30 37 31 38 81 39 32 40 86 41 80 42 82 43 33 44
REMARK SMILES IDX 85 45 79 46 78 47 34 49 66 50 46 51 65 52 47 53 50 54 64 55
REMARK SMILES IDX 83 56 48 57 49 58 63 60 84 61 51 62 35 63 36 64 44 65 37 66
REMARK SMILES IDX 39 67 45 68 38 69 40 70 41 71 42 72 43 73 67 74 68 75 76 76
REMARK SMILES IDX 69 77 71 78 77 79 70 80 72 81 73 82 74 83 75 84 52 85 53 86
REMARK SMILES IDX 61 87 54 88 56 89 62 90 55 91 57 92 58 93 59 94 60 95
REMARK H PARENT 16 7 23 29 82 48 50 59
REMARK Flexibility Score: inf
ROOT
ATOM      1  C   UNL A   1      35.932  31.922  28.998  1.00  0.00     0.002 C 
ENDROOT
BRANCH   1   2
ATOM      2  C   UNL A   1      36.956  30.873  28.538  1.00  0.00     0.021 C 
BRANCH   2   3
ATOM      3  C   UNL A   1      36.640  29.463  29.035  1.00  0.00     0.116 C 
BRANCH   3   4
ATOM      4  N   UNL A   1      37.509  29.104  30.137  1.00  0.00    -0.349 N 
ATOM      5  C   UNL A   1      38.659  28.353  30.193  1.00  0.00     0.287 C 
ATOM      6  O   UNL A   1      39.177  28.267  31.311  1.00  0.00    -0.266 OA
ATOM      7  H   UNL A   1      37.222  29.462  31.008  1.00  0.00     0.163 HD
BRANCH   5   8
ATOM      8  C   UNL A   1      39.233  27.735  29.011  1.00  0.00     0.192 A 
ATOM      9  C   UNL A   1      39.986  25.975  27.901  1.00  0.00     0.135 A 
ATOM     10  C   UNL A   1      40.196  27.057  27.083  1.00  0.00     0.052 A 
ATOM     11  O   UNL A   1      39.399  26.368  29.060  1.00  0.00    -0.451 OA
ATOM     12  C   UNL A   1      39.663  28.175  27.769  1.00  0.00     0.057 A 
BRANCH   9  13
ATOM     13  C   UNL A   1      40.221  24.557  27.748  1.00  0.00     0.017 A 
ATOM     14  C   UNL A   1      40.796  21.872  27.237  1.00  0.00     0.060 A 
ATOM     15  C   UNL A   1      39.682  22.469  26.639  1.00  0.00     0.016 A 
ATOM     16  C   UNL A   1      41.610  22.601  28.111  1.00  0.00     0.016 A 
ATOM     17  C   UNL A   1      39.387  23.805  26.910  1.00  0.00     0.013 A 
ATOM     18  C   UNL A   1      41.325  23.946  28.357  1.00  0.00     0.013 A 
BRANCH  14  19
ATOM     19  C   UNL A   1      41.131  20.486  26.860  1.00  0.00     0.338 C 
ATOM     20  O   UNL A   1      40.293  19.633  26.625  1.00  0.00    -0.246 OA
BRANCH  19  21
ATOM     21  O   UNL A   1      42.476  20.326  26.886  1.00  0.00    -0.462 OA
BRANCH  21  22
ATOM     22  C   UNL A   1      43.071  19.964  25.631  1.00  0.00     0.230 C 
ATOM     23  C   UNL A   1      43.548  18.522  25.631  1.00  0.00     0.049 C 
ENDBRANCH  21  22
ENDBRANCH  19  21
ENDBRANCH  14  19
ENDBRANCH   9  13
ENDBRANCH   5   8
ENDBRANCH   3   4
ENDBRANCH   2   3
ENDBRANCH   1   2
BRANCH   1  24
ATOM     24  C   UNL A   1      36.383  33.381  28.841  1.00  0.00     0.002 C 
BRANCH  24  25
ATOM     25  C   UNL A   1      35.255  34.416  28.885  1.00  0.00     0.021 C 
BRANCH  25  26
ATOM     26  C   UNL A   1      33.890  33.839  29.244  1.00  0.00     0.116 C 
BRANCH  26  27
ATOM     27  N   UNL A   1      33.128  34.745  30.093  1.00  0.00    -0.352 N 
ATOM     28  C   UNL A   1      33.269  34.976  31.439  1.00  0.00     0.251 C 
ATOM     29  H   UNL A   1      32.421  35.259  29.642  1.00  0.00     0.163 HD
ATOM     30  O   UNL A   1      32.419  35.612  32.056  1.00  0.00    -0.269 OA
BRANCH  28  31
ATOM     31  C   UNL A   1      34.451  34.436  32.140  1.00  0.00     0.039 A 
ATOM     32  C   UNL A   1      34.508  33.072  32.442  1.00  0.00     0.014 A 
ATOM     33  C   UNL A   1      35.514  35.281  32.467  1.00  0.00     0.014 A 
ATOM     34  C   UNL A   1      35.666  32.542  33.018  1.00  0.00     0.010 A 
ATOM     35  C   UNL A   1      36.688  34.740  32.977  1.00  0.00     0.010 A 
ATOM     36  C   UNL A   1      36.776  33.367  33.258  1.00  0.00    -0.014 A 
BRANCH  36  37
ATOM     37  C   UNL A   1      38.052  32.838  33.801  1.00  0.00     0.031 A 
ATOM     38  C   UNL A   1      38.355  32.998  35.266  1.00  0.00     0.074 A 
ATOM     39  C   UNL A   1      38.986  32.346  32.963  1.00  0.00     0.049 A 
ATOM     40  N   UNL A   1      39.472  32.777  35.906  1.00  0.00    -0.248 NA
ATOM     41  C   UNL A   1      37.264  33.505  36.115  1.00  0.00     0.031 C 
ATOM     42  C   UNL A   1      38.830  32.196  31.515  1.00  0.00     0.029 A 
ATOM     43  N   UNL A   1      40.271  31.925  33.202  1.00  0.00    -0.354 N 
ATOM     44  C   UNL A   1      39.238  33.168  37.219  1.00  0.00     0.074 A 
ATOM     45  C   UNL A   1      37.878  33.658  37.280  1.00  0.00     0.031 C 
ATOM     46  C   UNL A   1      39.977  31.733  30.994  1.00  0.00     0.029 A 
ATOM     47  C   UNL A   1      40.963  31.590  32.061  1.00  0.00     0.049 A 
ATOM     48  H   UNL A   1      40.660  31.868  34.106  1.00  0.00     0.167 HD
ATOM     49  C   UNL A   1      40.073  33.103  38.283  1.00  0.00     0.034 A 
ATOM     50  C   UNL A   1      42.252  31.234  31.890  1.00  0.00     0.034 A 
ATOM     51  C   UNL A   1      41.404  32.566  38.224  1.00  0.00     0.049 A 
ATOM     52  C   UNL A   1      43.148  31.134  33.096  1.00  0.00     0.074 A 
ATOM     53  C   UNL A   1      42.298  32.376  39.262  1.00  0.00     0.029 A 
ATOM     54  N   UNL A   1      42.031  32.132  37.068  1.00  0.00    -0.354 N 
ATOM     55  N   UNL A   1      42.867  31.380  34.353  1.00  0.00    -0.248 NA
ATOM     56  C   UNL A   1      44.528  30.680  32.868  1.00  0.00     0.031 C 
ATOM     57  C   UNL A   1      43.476  31.844  38.728  1.00  0.00     0.029 A 
ATOM     58  C   UNL A   1      43.304  31.678  37.363  1.00  0.00     0.049 A 
ATOM     59  H   UNL A   1      41.630  32.145  36.169  1.00  0.00     0.167 HD
ATOM     60  C   UNL A   1      44.016  31.064  35.069  1.00  0.00     0.074 A 
ATOM     61  C   UNL A   1      44.997  30.607  34.107  1.00  0.00     0.031 C 
ATOM     62  C   UNL A   1      44.240  31.155  36.403  1.00  0.00     0.034 A 
BRANCH  49  63
ATOM     63  C   UNL A   1      39.554  33.581  39.613  1.00  0.00     0.023 A 
ATOM     64  C   UNL A   1      38.821  32.698  40.431  1.00  0.00     0.012 A 
ATOM     65  C   UNL A   1      39.844  34.877  40.080  1.00  0.00     0.148 A 
ATOM     66  C   UNL A   1      38.352  33.109  41.679  1.00  0.00     0.002 A 
ATOM     67  C   UNL A   1      39.413  35.265  41.344  1.00  0.00     0.091 A 
ATOM     68  F   UNL A   1      40.524  35.710  39.279  1.00  0.00    -0.205 F 
ATOM     69  C   UNL A   1      38.658  34.386  42.138  1.00  0.00     0.022 A 
BRANCH  67  70
ATOM     70  S   UNL A   1      39.825  36.861  42.059  1.00  0.00     0.127 S 
ATOM     71  O   UNL A   1      39.275  36.730  43.407  1.00  0.00    -0.237 OA
ATOM     72  O   UNL A   1      41.287  36.860  41.994  1.00  0.00    -0.237 OA
ATOM     73  O   UNL A   1      39.181  37.856  41.213  1.00  0.00    -0.744 OA
ENDBRANCH  67  70
ENDBRANCH  49  63
BRANCH  50  74
ATOM     74  C   UNL A   1      42.754  30.887  30.531  1.00  0.00     0.023 A 
ATOM     75  C   UNL A   1      42.622  29.564  30.066  1.00  0.00     0.012 A 
ATOM     76  C   UNL A   1      43.326  31.858  29.687  1.00  0.00     0.148 A 
ATOM     77  C   UNL A   1      43.080  29.206  28.797  1.00  0.00     0.002 A 
ATOM     78  C   UNL A   1      43.730  31.508  28.403  1.00  0.00     0.091 A 
ATOM     79  F   UNL A   1      43.453  33.109  30.150  1.00  0.00    -0.205 F 
ATOM     80  C   UNL A   1      43.624  30.179  27.962  1.00  0.00     0.022 A 
BRANCH  78  81
ATOM     81  S   UNL A   1      44.319  32.719  27.214  1.00  0.00     0.127 S 
ATOM     82  O   UNL A   1      45.724  32.850  27.590  1.00  0.00    -0.237 OA
ATOM     83  O   UNL A   1      44.082  32.036  25.942  1.00  0.00    -0.237 OA
ATOM     84  O   UNL A   1      43.494  33.903  27.419  1.00  0.00    -0.744 OA
ENDBRANCH  78  81
ENDBRANCH  50  74
BRANCH  62  85
ATOM     85  C   UNL A   1      45.571  30.693  36.933  1.00  0.00     0.023 A 
ATOM     86  C   UNL A   1      45.759  29.342  37.282  1.00  0.00     0.012 A 
ATOM     87  C   UNL A   1      46.668  31.578  36.959  1.00  0.00     0.148 A 
ATOM     88  C   UNL A   1      47.018  28.880  37.661  1.00  0.00     0.002 A 
ATOM     89  C   UNL A   1      47.928  31.101  37.292  1.00  0.00     0.091 A 
ATOM     90  F   UNL A   1      46.459  32.862  36.637  1.00  0.00    -0.205 F 
ATOM     91  C   UNL A   1      48.104  29.754  37.653  1.00  0.00     0.022 A 
BRANCH  89  92
ATOM     92  S   UNL A   1      49.402  32.124  37.209  1.00  0.00     0.127 S 
ATOM     93  O   UNL A   1      50.461  31.140  37.425  1.00  0.00    -0.237 OA
ATOM     94  O   UNL A   1      49.332  32.656  35.848  1.00  0.00    -0.237 OA
ATOM     95  O   UNL A   1      49.260  33.124  38.260  1.00  0.00    -0.744 OA
ENDBRANCH  89  92
ENDBRANCH  62  85
ENDBRANCH  36  37
ENDBRANCH  28  31
ENDBRANCH  26  27
ENDBRANCH  25  26
ENDBRANCH  24  25
ENDBRANCH   1  24
TORSDOF 20
ENDMDL
MODEL 3
REMARK VINA RESULT:      -8.5      5.787     10.531
REMARK SMILES CCOC(=O)c1ccc(-c2ccc(C(=O)NCCCCCCNC(=O)c3ccc(-c4c5nc(c(-c6cccc(S(=O)(=O)[O-])c6F)c6ccc([nH]6)c(-c6cccc(S(=O)(=O)[O-])c6F)c6nc(c(-c7cccc(S(=O)(=O)[O-])c7F)c7ccc4[nH]7)C=C6)C=C5)cc3)o2)cc1
REMARK SMILES IDX 19 1 18 2 17 3 16 4 14 5 15 6 13 8 10 9 11 10 89 11 12 12
REMARK SMILES IDX 9 13 6 14 7 15 91 16 8 17 90 18 4 19 5 20 3 21 2 22 1 23
REMARK SMILES IDX 20 24 21 25 22 26 23 27 24 28 25 30 26 31 27 32 88 33 28 34
REMARK SMILES IDX 87 35 29 36 30 37 31 38 81 39 32 40 86 41 80 42 82 43 33 44
REMARK SMILES IDX 85 45 79 46 78 47 34 49 66 50 46 51 65 52 47 53 50 54 64 55
REMARK SMILES IDX 83 56 48 57 49 58 63 60 84 61 51 62 35 63 36 64 44 65 37 66
REMARK SMILES IDX 39 67 45 68 38 69 40 70 41 71 42 72 43 73 67 74 68 75 76 76
REMARK SMILES IDX 69 77 71 78 77 79 70 80 72 81 73 82 74 83 75 84 52 85 53 86
REMARK SMILES IDX 61 87 54 88 56 89 62 90 55 91 57 92 58 93 59 94 60 95
REMARK H PARENT 16 7 23 29 82 48 50 59
REMARK Flexibility Score: inf
ROOT
ATOM      1  C   UNL A   1      47.104  39.114  25.200  1.00  0.00     0.002 C 
ENDROOT
BRANCH   1   2
ATOM      2  C   UNL A   1      47.737  38.672  26.528  1.00  0.00     0.021 C 
BRANCH   2   3
ATOM      3  C   UNL A   1      47.386  37.236  26.915  1.00  0.00     0.116 C 
BRANCH   3   4
ATOM      4  N   UNL A   1      48.123  36.293  26.098  1.00  0.00    -0.349 N 
ATOM      5  C   UNL A   1      47.769  35.089  25.539  1.00  0.00     0.287 C 
ATOM      6  O   UNL A   1      48.646  34.544  24.862  1.00  0.00    -0.266 OA
ATOM      7  H   UNL A   1      49.051  36.565  25.910  1.00  0.00     0.163 HD
BRANCH   5   8
ATOM      8  C   UNL A   1      46.445  34.519  25.713  1.00  0.00     0.192 A 
ATOM      9  C   UNL A   1      45.094  32.828  26.175  1.00  0.00     0.135 A 
ATOM     10  C   UNL A   1      44.280  33.882  25.841  1.00  0.00     0.052 A 
ATOM     11  O   UNL A   1      46.397  33.200  26.111  1.00  0.00    -0.451 OA
ATOM     12  C   UNL A   1      45.142  34.980  25.602  1.00  0.00     0.057 A 
BRANCH   9  13
ATOM     13  C   UNL A   1      44.833  31.472  26.605  1.00  0.00     0.017 A 
ATOM     14  C   UNL A   1      44.235  28.811  27.204  1.00  0.00     0.060 A 
ATOM     15  C   UNL A   1      43.239  29.787  27.310  1.00  0.00     0.016 A 
ATOM     16  C   UNL A   1      45.536  29.161  26.827  1.00  0.00     0.016 A 
ATOM     17  C   UNL A   1      43.545  31.118  27.027  1.00  0.00     0.013 A 
ATOM     18  C   UNL A   1      45.829  30.491  26.519  1.00  0.00     0.013 A 
BRANCH  14  19
ATOM     19  C   UNL A   1      43.858  27.402  27.423  1.00  0.00     0.338 C 
ATOM     20  O   UNL A   1      44.554  26.460  27.084  1.00  0.00    -0.246 OA
BRANCH  19  21
ATOM     21  O   UNL A   1      42.626  27.348  27.983  1.00  0.00    -0.462 OA
BRANCH  21  22
ATOM     22  C   UNL A   1      41.795  26.270  27.529  1.00  0.00     0.230 C 
ATOM     23  C   UNL A   1      40.594  26.776  26.750  1.00  0.00     0.049 C 
ENDBRANCH  21  22
ENDBRANCH  19  21
ENDBRANCH  14  19
ENDBRANCH   9  13
ENDBRANCH   5   8
ENDBRANCH   3   4
ENDBRANCH   2   3
ENDBRANCH   1   2
BRANCH   1  24
ATOM     24  C   UNL A   1      46.788  40.613  25.099  1.00  0.00     0.002 C 
BRANCH  24  25
ATOM     25  C   UNL A   1      45.335  40.991  25.402  1.00  0.00     0.021 C 
BRANCH  25  26
ATOM     26  C   UNL A   1      44.929  40.793  26.859  1.00  0.00     0.116 C 
BRANCH  26  27
ATOM     27  N   UNL A   1      43.537  41.159  27.084  1.00  0.00    -0.352 N 
ATOM     28  C   UNL A   1      42.498  40.359  27.493  1.00  0.00     0.251 C 
ATOM     29  H   UNL A   1      43.312  42.103  26.923  1.00  0.00     0.163 HD
ATOM     30  O   UNL A   1      41.340  40.762  27.438  1.00  0.00    -0.269 OA
BRANCH  28  31
ATOM     31  C   UNL A   1      42.792  38.999  27.987  1.00  0.00     0.039 A 
ATOM     32  C   UNL A   1      43.277  38.828  29.287  1.00  0.00     0.014 A 
ATOM     33  C   UNL A   1      42.554  37.893  27.167  1.00  0.00     0.014 A 
ATOM     34  C   UNL A   1      43.463  37.537  29.789  1.00  0.00     0.010 A 
ATOM     35  C   UNL A   1      42.676  36.612  27.691  1.00  0.00     0.010 A 
ATOM     36  C   UNL A   1      43.133  36.421  29.004  1.00  0.00    -0.014 A 
BRANCH  36  37
ATOM     37  C   UNL A   1      43.246  35.032  29.518  1.00  0.00     0.031 A 
ATOM     38  C   UNL A   1      44.596  34.371  29.571  1.00  0.00     0.074 A 
ATOM     39  C   UNL A   1      42.132  34.328  29.799  1.00  0.00     0.049 A 
ATOM     40  N   UNL A   1      44.894  33.122  29.808  1.00  0.00    -0.248 NA
ATOM     41  C   UNL A   1      45.761  35.226  29.287  1.00  0.00     0.031 C 
ATOM     42  C   UNL A   1      40.763  34.843  29.728  1.00  0.00     0.029 A 
ATOM     43  N   UNL A   1      41.972  33.012  30.157  1.00  0.00    -0.354 N 
ATOM     44  C   UNL A   1      46.272  33.026  29.650  1.00  0.00     0.074 A 
ATOM     45  C   UNL A   1      46.749  34.341  29.278  1.00  0.00     0.031 C 
ATOM     46  C   UNL A   1      39.904  33.852  30.016  1.00  0.00     0.029 A 
ATOM     47  C   UNL A   1      40.655  32.623  30.253  1.00  0.00     0.049 A 
ATOM     48  H   UNL A   1      42.728  32.404  30.328  1.00  0.00     0.167 HD
ATOM     49  C   UNL A   1      47.070  31.946  29.821  1.00  0.00     0.034 A 
ATOM     50  C   UNL A   1      40.114  31.409  30.482  1.00  0.00     0.034 A 
ATOM     51  C   UNL A   1      46.594  30.658  30.242  1.00  0.00     0.049 A 
ATOM     52  C   UNL A   1      41.027  30.233  30.706  1.00  0.00     0.074 A 
ATOM     53  C   UNL A   1      47.332  29.523  30.528  1.00  0.00     0.029 A 
ATOM     54  N   UNL A   1      45.262  30.332  30.438  1.00  0.00    -0.354 N 
ATOM     55  N   UNL A   1      42.337  30.192  30.685  1.00  0.00    -0.248 NA
ATOM     56  C   UNL A   1      40.392  28.943  31.014  1.00  0.00     0.031 C 
ATOM     57  C   UNL A   1      46.440  28.504  30.880  1.00  0.00     0.029 A 
ATOM     58  C   UNL A   1      45.153  29.013  30.839  1.00  0.00     0.049 A 
ATOM     59  H   UNL A   1      44.505  30.949  30.312  1.00  0.00     0.167 HD
ATOM     60  C   UNL A   1      42.683  28.890  31.025  1.00  0.00     0.074 A 
ATOM     61  C   UNL A   1      41.446  28.172  31.249  1.00  0.00     0.031 C 
ATOM     62  C   UNL A   1      43.916  28.336  31.131  1.00  0.00     0.034 A 
BRANCH  49  63
ATOM     63  C   UNL A   1      48.548  32.124  29.601  1.00  0.00     0.023 A 
ATOM     64  C   UNL A   1      49.355  32.606  30.652  1.00  0.00     0.012 A 
ATOM     65  C   UNL A   1      49.148  31.757  28.381  1.00  0.00     0.148 A 
ATOM     66  C   UNL A   1      50.731  32.754  30.481  1.00  0.00     0.002 A 
ATOM     67  C   UNL A   1      50.526  31.864  28.233  1.00  0.00     0.091 A 
ATOM     68  F   UNL A   1      48.362  31.322  27.386  1.00  0.00    -0.205 F 
ATOM     69  C   UNL A   1      51.317  32.373  29.277  1.00  0.00     0.022 A 
BRANCH  67  70
ATOM     70  S   UNL A   1      51.385  31.324  26.750  1.00  0.00     0.127 S 
ATOM     71  O   UNL A   1      50.983  29.920  26.673  1.00  0.00    -0.237 OA
ATOM     72  O   UNL A   1      50.798  32.184  25.723  1.00  0.00    -0.237 OA
ATOM     73  O   UNL A   1      52.800  31.557  27.001  1.00  0.00    -0.744 OA
ENDBRANCH  67  70
ENDBRANCH  49  63
BRANCH  50  74
ATOM     74  C   UNL A   1      38.635  31.259  30.570  1.00  0.00     0.023 A 
ATOM     75  C   UNL A   1      38.021  31.222  31.837  1.00  0.00     0.012 A 
ATOM     76  C   UNL A   1      37.831  31.188  29.415  1.00  0.00     0.148 A 
ATOM     77  C   UNL A   1      36.637  31.085  31.954  1.00  0.00     0.002 A 
ATOM     78  C   UNL A   1      36.448  31.107  29.538  1.00  0.00     0.091 A 
ATOM     79  F   UNL A   1      38.433  31.214  28.218  1.00  0.00    -0.205 F 
ATOM     80  C   UNL A   1      35.850  31.038  30.806  1.00  0.00     0.022 A 
BRANCH  78  81
ATOM     81  S   UNL A   1      35.349  31.173  28.118  1.00  0.00     0.127 S 
ATOM     82  O   UNL A   1      34.041  31.288  28.756  1.00  0.00    -0.237 OA
ATOM     83  O   UNL A   1      35.811  32.381  27.434  1.00  0.00    -0.237 OA
ATOM     84  O   UNL A   1      35.589  29.941  27.379  1.00  0.00    -0.744 OA
ENDBRANCH  78  81
ENDBRANCH  50  74
BRANCH  62  85
ATOM     85  C   UNL A   1      44.015  26.900  31.572  1.00  0.00     0.023 A 
ATOM     86  C   UNL A   1      44.225  25.885  30.619  1.00  0.00     0.012 A 
ATOM     87  C   UNL A   1      44.028  26.580  32.944  1.00  0.00     0.148 A 
ATOM     88  C   UNL A   1      44.436  24.569  31.026  1.00  0.00     0.002 A 
ATOM     89  C   UNL A   1      44.285  25.275  33.344  1.00  0.00     0.091 A 
ATOM     90  F   UNL A   1      43.810  27.562  33.830  1.00  0.00    -0.205 F 
ATOM     91  C   UNL A   1      44.480  24.266  32.386  1.00  0.00     0.022 A 
BRANCH  89  92
ATOM     92  S   UNL A   1      44.463  24.811  35.069  1.00  0.00     0.127 S 
ATOM     93  O   UNL A   1      43.410  25.604  35.702  1.00  0.00    -0.237 OA
ATOM     94  O   UNL A   1      44.203  23.372  35.030  1.00  0.00    -0.237 OA
ATOM     95  O   UNL A   1      45.823  25.172  35.447  1.00  0.00    -0.744 OA
ENDBRANCH  89  92
ENDBRANCH  62  85
ENDBRANCH  36  37
ENDBRANCH  28  31
ENDBRANCH  26  27
ENDBRANCH  25  26
ENDBRANCH  24  25
ENDBRANCH   1  24
TORSDOF 20
ENDMDL
