MODEL 1
REMARK VINA RESULT:     -11.1      0.000      0.000
REMARK SMILES [NH3+][C@@]1(C(=O)NCCCCCCNC(=O)c2ccc(-c3c4nc(c(-c5cccc(S(=O)(=O)[O-])c5F)c5ccc([nH]5)c(-c5cccc(S(=O)(=O)[O-])c5F)c5nc(c(-c6cccc(S(=O)(=O)[O-])c6F)c6ccc3[nH]6)C=C5)C=C4)cc2)CCC[C@@H](Oc2ccccc2[N+](=O)[O-])C1
REMARK SMILES IDX 8 1 7 2 6 3 5 4 3 5 4 6 2 8 78 9 92 10 79 11 81 12 80 13
REMARK SMILES IDX 1 14 82 18 83 19 84 20 88 21 85 22 87 23 86 24 89 25 90 26
REMARK SMILES IDX 91 27 9 28 10 29 11 30 12 31 13 32 14 34 15 35 16 36 77 37
REMARK SMILES IDX 17 38 76 39 18 40 19 41 20 42 70 43 21 44 75 45 69 46 71 47
REMARK SMILES IDX 22 48 74 49 68 50 67 51 23 53 55 54 35 55 54 56 36 57 39 58
REMARK SMILES IDX 53 59 72 60 37 61 38 62 52 64 73 65 40 66 24 67 25 68 33 69
REMARK SMILES IDX 26 70 28 71 34 72 27 73 29 74 30 75 31 76 32 77 56 78 57 79
REMARK SMILES IDX 65 80 58 81 60 82 66 83 59 84 61 85 62 86 63 87 64 88 41 89
REMARK SMILES IDX 42 90 50 91 43 92 45 93 51 94 44 95 46 96 47 97 48 98 49 99
REMARK H PARENT 5 7 1 15 1 16 1 17 12 33 71 52 39 63
REMARK Flexibility Score: inf
ROOT
ATOM      1  C   UNL A   1      36.633  21.896  24.959  1.00  0.00     0.002 C 
ENDROOT
BRANCH   1   2
ATOM      2  C   UNL A   1      35.647  22.416  26.015  1.00  0.00     0.021 C 
BRANCH   2   3
ATOM      3  C   UNL A   1      34.599  21.379  26.439  1.00  0.00     0.116 C 
BRANCH   3   4
ATOM      4  N   UNL A   1      33.519  21.965  27.214  1.00  0.00    -0.351 N 
ATOM      5  C   UNL A   1      32.402  22.667  26.865  1.00  0.00     0.281 C 
ATOM      6  O   UNL A   1      31.663  23.000  27.802  1.00  0.00    -0.268 OA
ATOM      7  H   UNL A   1      33.611  21.828  28.185  1.00  0.00     0.163 HD
BRANCH   5   8
ATOM      8  C   UNL A   1      31.977  22.944  25.376  1.00  0.00     0.177 C 
ATOM      9  C   UNL A   1      32.334  21.707  24.521  1.00  0.00     0.079 C 
ATOM     10  C   UNL A   1      32.813  24.143  24.872  1.00  0.00     0.124 C 
ATOM     11  C   UNL A   1      32.097  21.919  23.025  1.00  0.00     0.011 C 
ATOM     12  C   UNL A   1      32.882  24.372  23.348  1.00  0.00     0.180 C 
ATOM     13  C   UNL A   1      32.879  23.107  22.474  1.00  0.00     0.046 C 
BRANCH   8  14
ATOM     14  N   UNL A   1      30.517  23.119  25.290  1.00  0.00    -0.345 N 
ATOM     15  H   UNL A   1      30.082  22.774  26.146  1.00  0.00     0.345 HD
ATOM     16  H   UNL A   1      30.157  22.595  24.492  1.00  0.00     0.345 HD
ATOM     17  H   UNL A   1      30.299  24.109  25.173  1.00  0.00     0.345 HD
ENDBRANCH   8  14
BRANCH  12  18
ATOM     18  O   UNL A   1      32.092  25.455  22.810  1.00  0.00    -0.483 OA
BRANCH  18  19
ATOM     19  C   UNL A   1      32.274  26.694  23.340  1.00  0.00     0.197 A 
ATOM     20  C   UNL A   1      33.526  27.299  23.215  1.00  0.00     0.054 A 
ATOM     21  C   UNL A   1      31.277  27.351  24.072  1.00  0.00     0.310 A 
ATOM     22  C   UNL A   1      33.728  28.599  23.684  1.00  0.00     0.004 A 
ATOM     23  C   UNL A   1      31.464  28.664  24.525  1.00  0.00     0.090 A 
ATOM     24  C   UNL A   1      32.690  29.292  24.310  1.00  0.00     0.007 A 
BRANCH  21  25
ATOM     25  N   UNL A   1      29.992  26.716  24.325  1.00  0.00     0.066 N 
ATOM     26  O   UNL A   1      29.079  26.975  23.527  1.00  0.00    -0.258 OA
ATOM     27  O   UNL A   1      29.892  25.957  25.297  1.00  0.00    -0.258 OA
ENDBRANCH  21  25
ENDBRANCH  18  19
ENDBRANCH  12  18
ENDBRANCH   5   8
ENDBRANCH   3   4
ENDBRANCH   2   3
ENDBRANCH   1   2
BRANCH   1  28
ATOM     28  C   UNL A   1      36.761  20.369  24.886  1.00  0.00     0.002 C 
BRANCH  28  29
ATOM     29  C   UNL A   1      38.191  19.824  24.793  1.00  0.00     0.021 C 
BRANCH  29  30
ATOM     30  C   UNL A   1      39.093  20.142  25.986  1.00  0.00     0.116 C 
BRANCH  30  31
ATOM     31  N   UNL A   1      40.245  19.257  26.057  1.00  0.00    -0.352 N 
ATOM     32  C   UNL A   1      41.585  19.530  26.137  1.00  0.00     0.251 C 
ATOM     33  H   UNL A   1      40.023  18.297  26.047  1.00  0.00     0.163 HD
ATOM     34  O   UNL A   1      42.389  18.612  25.976  1.00  0.00    -0.269 OA
BRANCH  32  35
ATOM     35  C   UNL A   1      42.079  20.897  26.413  1.00  0.00     0.039 A 
ATOM     36  C   UNL A   1      42.279  21.761  25.330  1.00  0.00     0.014 A 
ATOM     37  C   UNL A   1      42.414  21.316  27.704  1.00  0.00     0.014 A 
ATOM     38  C   UNL A   1      42.778  23.047  25.547  1.00  0.00     0.010 A 
ATOM     39  C   UNL A   1      42.845  22.625  27.926  1.00  0.00     0.010 A 
ATOM     40  C   UNL A   1      43.044  23.500  26.849  1.00  0.00    -0.014 A 
BRANCH  40  41
ATOM     41  C   UNL A   1      43.502  24.895  27.078  1.00  0.00     0.031 A 
ATOM     42  C   UNL A   1      42.570  25.943  27.624  1.00  0.00     0.074 A 
ATOM     43  C   UNL A   1      44.767  25.228  26.751  1.00  0.00     0.049 A 
ATOM     44  N   UNL A   1      42.826  27.186  27.942  1.00  0.00    -0.248 NA
ATOM     45  C   UNL A   1      41.163  25.556  27.818  1.00  0.00     0.031 C 
ATOM     46  C   UNL A   1      45.739  24.331  26.122  1.00  0.00     0.029 A 
ATOM     47  N   UNL A   1      45.449  26.410  26.893  1.00  0.00    -0.354 N 
ATOM     48  C   UNL A   1      41.616  27.736  28.350  1.00  0.00     0.074 A 
ATOM     49  C   UNL A   1      40.616  26.701  28.202  1.00  0.00     0.031 C 
ATOM     50  C   UNL A   1      46.897  24.987  25.954  1.00  0.00     0.029 A 
ATOM     51  C   UNL A   1      46.747  26.353  26.443  1.00  0.00     0.049 A 
ATOM     52  H   UNL A   1      45.048  27.222  27.280  1.00  0.00     0.167 HD
ATOM     53  C   UNL A   1      41.365  28.977  28.834  1.00  0.00     0.034 A 
ATOM     54  C   UNL A   1      47.714  27.292  26.436  1.00  0.00     0.034 A 
ATOM     55  C   UNL A   1      42.371  29.991  29.013  1.00  0.00     0.049 A 
ATOM     56  C   UNL A   1      47.427  28.639  27.038  1.00  0.00     0.074 A 
ATOM     57  C   UNL A   1      42.237  31.246  29.582  1.00  0.00     0.029 A 
ATOM     58  N   UNL A   1      43.695  29.872  28.618  1.00  0.00    -0.354 N 
ATOM     59  N   UNL A   1      46.321  29.079  27.587  1.00  0.00    -0.248 NA
ATOM     60  C   UNL A   1      48.534  29.605  27.057  1.00  0.00     0.031 C 
ATOM     61  C   UNL A   1      43.476  31.895  29.509  1.00  0.00     0.029 A 
ATOM     62  C   UNL A   1      44.387  31.034  28.918  1.00  0.00     0.049 A 
ATOM     63  H   UNL A   1      44.087  29.078  28.188  1.00  0.00     0.167 HD
ATOM     64  C   UNL A   1      46.605  30.361  28.041  1.00  0.00     0.074 A 
ATOM     65  C   UNL A   1      47.998  30.612  27.733  1.00  0.00     0.031 C 
ATOM     66  C   UNL A   1      45.783  31.259  28.638  1.00  0.00     0.034 A 
BRANCH  53  67
ATOM     67  C   UNL A   1      39.954  29.291  29.261  1.00  0.00     0.023 A 
ATOM     68  C   UNL A   1      38.977  29.561  28.281  1.00  0.00     0.012 A 
ATOM     69  C   UNL A   1      39.578  29.258  30.618  1.00  0.00     0.148 A 
ATOM     70  C   UNL A   1      37.657  29.827  28.645  1.00  0.00     0.002 A 
ATOM     71  C   UNL A   1      38.251  29.481  30.971  1.00  0.00     0.091 A 
ATOM     72  F   UNL A   1      40.522  29.021  31.539  1.00  0.00    -0.205 F 
ATOM     73  C   UNL A   1      37.292  29.777  29.986  1.00  0.00     0.022 A 
BRANCH  71  74
ATOM     74  S   UNL A   1      37.663  29.364  32.664  1.00  0.00     0.127 S 
ATOM     75  O   UNL A   1      36.311  29.907  32.546  1.00  0.00    -0.237 OA
ATOM     76  O   UNL A   1      37.722  27.922  32.911  1.00  0.00    -0.237 OA
ATOM     77  O   UNL A   1      38.586  30.154  33.465  1.00  0.00    -0.744 OA
ENDBRANCH  71  74
ENDBRANCH  53  67
BRANCH  54  78
ATOM     78  C   UNL A   1      49.067  26.957  25.911  1.00  0.00     0.023 A 
ATOM     79  C   UNL A   1      49.950  26.199  26.704  1.00  0.00     0.012 A 
ATOM     80  C   UNL A   1      49.469  27.352  24.620  1.00  0.00     0.148 A 
ATOM     81  C   UNL A   1      51.223  25.868  26.235  1.00  0.00     0.002 A 
ATOM     82  C   UNL A   1      50.715  26.969  24.137  1.00  0.00     0.091 A 
ATOM     83  F   UNL A   1      48.620  28.084  23.887  1.00  0.00    -0.205 F 
ATOM     84  C   UNL A   1      51.600  26.243  24.948  1.00  0.00     0.022 A 
BRANCH  82  85
ATOM     85  S   UNL A   1      51.222  27.290  22.444  1.00  0.00     0.127 S 
ATOM     86  O   UNL A   1      50.133  26.677  21.686  1.00  0.00    -0.237 OA
ATOM     87  O   UNL A   1      51.248  28.755  22.409  1.00  0.00    -0.237 OA
ATOM     88  O   UNL A   1      52.526  26.666  22.300  1.00  0.00    -0.744 OA
ENDBRANCH  82  85
ENDBRANCH  54  78
BRANCH  66  89
ATOM     89  C   UNL A   1      46.373  32.596  29.009  1.00  0.00     0.023 A 
ATOM     90  C   UNL A   1      46.999  32.759  30.261  1.00  0.00     0.012 A 
ATOM     91  C   UNL A   1      46.346  33.676  28.106  1.00  0.00     0.148 A 
ATOM     92  C   UNL A   1      47.545  33.987  30.628  1.00  0.00     0.002 A 
ATOM     93  C   UNL A   1      46.938  34.884  28.458  1.00  0.00     0.091 A 
ATOM     94  F   UNL A   1      45.730  33.511  26.926  1.00  0.00    -0.205 F 
ATOM     95  C   UNL A   1      47.524  35.046  29.724  1.00  0.00     0.022 A 
BRANCH  93  96
ATOM     96  S   UNL A   1      47.039  36.269  27.319  1.00  0.00     0.127 S 
ATOM     97  O   UNL A   1      45.629  36.613  27.140  1.00  0.00    -0.237 OA
ATOM     98  O   UNL A   1      47.812  37.248  28.085  1.00  0.00    -0.237 OA
ATOM     99  O   UNL A   1      47.718  35.761  26.135  1.00  0.00    -0.744 OA
ENDBRANCH  93  96
ENDBRANCH  66  89
ENDBRANCH  40  41
ENDBRANCH  32  35
ENDBRANCH  30  31
ENDBRANCH  29  30
ENDBRANCH  28  29
ENDBRANCH   1  28
TORSDOF 20
ENDMDL
MODEL 2
REMARK VINA RESULT:     -11.0      5.639      8.834
REMARK SMILES [NH3+][C@@]1(C(=O)NCCCCCCNC(=O)c2ccc(-c3c4nc(c(-c5cccc(S(=O)(=O)[O-])c5F)c5ccc([nH]5)c(-c5cccc(S(=O)(=O)[O-])c5F)c5nc(c(-c6cccc(S(=O)(=O)[O-])c6F)c6ccc3[nH]6)C=C5)C=C4)cc2)CCC[C@@H](Oc2ccccc2[N+](=O)[O-])C1
REMARK SMILES IDX 8 1 7 2 6 3 5 4 3 5 4 6 2 8 78 9 92 10 79 11 81 12 80 13
REMARK SMILES IDX 1 14 82 18 83 19 84 20 88 21 85 22 87 23 86 24 89 25 90 26
REMARK SMILES IDX 91 27 9 28 10 29 11 30 12 31 13 32 14 34 15 35 16 36 77 37
REMARK SMILES IDX 17 38 76 39 18 40 19 41 20 42 70 43 21 44 75 45 69 46 71 47
REMARK SMILES IDX 22 48 74 49 68 50 67 51 23 53 55 54 35 55 54 56 36 57 39 58
REMARK SMILES IDX 53 59 72 60 37 61 38 62 52 64 73 65 40 66 24 67 25 68 33 69
REMARK SMILES IDX 26 70 28 71 34 72 27 73 29 74 30 75 31 76 32 77 56 78 57 79
REMARK SMILES IDX 65 80 58 81 60 82 66 83 59 84 61 85 62 86 63 87 64 88 41 89
REMARK SMILES IDX 42 90 50 91 43 92 45 93 51 94 44 95 46 96 47 97 48 98 49 99
REMARK H PARENT 5 7 1 15 1 16 1 17 12 33 71 52 39 63
REMARK Flexibility Score: inf
ROOT
ATOM      1  C   UNL A   1      31.135  27.342  25.936  1.00  0.00     0.002 C 
ENDROOT
BRANCH   1   2
ATOM      2  C   UNL A   1      31.011  28.051  24.579  1.00  0.00     0.021 C 
BRANCH   2   3
ATOM      3  C   UNL A   1      30.785  27.090  23.405  1.00  0.00     0.116 C 
BRANCH   3   4
ATOM      4  N   UNL A   1      32.005  26.827  22.660  1.00  0.00    -0.351 N 
ATOM      5  C   UNL A   1      32.935  25.830  22.726  1.00  0.00     0.281 C 
ATOM      6  O   UNL A   1      33.857  25.903  21.902  1.00  0.00    -0.268 OA
ATOM      7  H   UNL A   1      32.198  27.502  21.970  1.00  0.00     0.163 HD
BRANCH   5   8
ATOM      8  C   UNL A   1      32.812  24.586  23.680  1.00  0.00     0.177 C 
ATOM      9  C   UNL A   1      31.324  24.180  23.777  1.00  0.00     0.079 C 
ATOM     10  C   UNL A   1      33.288  25.032  25.083  1.00  0.00     0.124 C 
ATOM     11  C   UNL A   1      31.068  23.069  24.794  1.00  0.00     0.011 C 
ATOM     12  C   UNL A   1      32.907  24.137  26.280  1.00  0.00     0.180 C 
ATOM     13  C   UNL A   1      31.539  23.441  26.197  1.00  0.00     0.046 C 
BRANCH   8  14
ATOM     14  N   UNL A   1      33.536  23.437  23.111  1.00  0.00    -0.345 N 
ATOM     15  H   UNL A   1      34.393  23.278  23.641  1.00  0.00     0.345 HD
ATOM     16  H   UNL A   1      33.771  23.632  22.137  1.00  0.00     0.345 HD
ATOM     17  H   UNL A   1      32.947  22.606  23.159  1.00  0.00     0.345 HD
ENDBRANCH   8  14
BRANCH  12  18
ATOM     18  O   UNL A   1      33.951  23.308  26.839  1.00  0.00    -0.483 OA
BRANCH  18  19
ATOM     19  C   UNL A   1      34.989  22.968  26.030  1.00  0.00     0.197 A 
ATOM     20  C   UNL A   1      36.022  23.887  25.842  1.00  0.00     0.054 A 
ATOM     21  C   UNL A   1      35.020  21.763  25.317  1.00  0.00     0.310 A 
ATOM     22  C   UNL A   1      37.137  23.543  25.074  1.00  0.00     0.004 A 
ATOM     23  C   UNL A   1      36.146  21.400  24.565  1.00  0.00     0.090 A 
ATOM     24  C   UNL A   1      37.214  22.290  24.463  1.00  0.00     0.007 A 
BRANCH  21  25
ATOM     25  N   UNL A   1      33.914  20.819  25.392  1.00  0.00     0.066 N 
ATOM     26  O   UNL A   1      33.642  20.372  26.517  1.00  0.00    -0.258 OA
ATOM     27  O   UNL A   1      33.313  20.534  24.350  1.00  0.00    -0.258 OA
ENDBRANCH  21  25
ENDBRANCH  18  19
ENDBRANCH  12  18
ENDBRANCH   5   8
ENDBRANCH   3   4
ENDBRANCH   2   3
ENDBRANCH   1   2
BRANCH   1  28
ATOM     28  C   UNL A   1      31.690  28.209  27.074  1.00  0.00     0.002 C 
BRANCH  28  29
ATOM     29  C   UNL A   1      31.697  29.720  26.819  1.00  0.00     0.021 C 
BRANCH  29  30
ATOM     30  C   UNL A   1      33.072  30.336  26.560  1.00  0.00     0.116 C 
BRANCH  30  31
ATOM     31  N   UNL A   1      33.105  31.758  26.866  1.00  0.00    -0.352 N 
ATOM     32  C   UNL A   1      33.904  32.476  27.716  1.00  0.00     0.251 C 
ATOM     33  H   UNL A   1      32.441  32.295  26.377  1.00  0.00     0.163 HD
ATOM     34  O   UNL A   1      33.608  33.645  27.963  1.00  0.00    -0.269 OA
BRANCH  32  35
ATOM     35  C   UNL A   1      35.108  31.879  28.334  1.00  0.00     0.039 A 
ATOM     36  C   UNL A   1      36.293  32.623  28.333  1.00  0.00     0.014 A 
ATOM     37  C   UNL A   1      35.108  30.579  28.848  1.00  0.00     0.014 A 
ATOM     38  C   UNL A   1      37.459  32.079  28.875  1.00  0.00     0.010 A 
ATOM     39  C   UNL A   1      36.256  30.064  29.453  1.00  0.00     0.010 A 
ATOM     40  C   UNL A   1      37.447  30.804  29.462  1.00  0.00    -0.014 A 
BRANCH  40  41
ATOM     41  C   UNL A   1      38.673  30.263  30.105  1.00  0.00     0.031 A 
ATOM     42  C   UNL A   1      39.097  30.713  31.477  1.00  0.00     0.074 A 
ATOM     43  C   UNL A   1      39.433  29.383  29.423  1.00  0.00     0.049 A 
ATOM     44  N   UNL A   1      40.101  30.295  32.205  1.00  0.00    -0.248 NA
ATOM     45  C   UNL A   1      38.310  31.786  32.107  1.00  0.00     0.031 C 
ATOM     46  C   UNL A   1      39.184  28.942  28.048  1.00  0.00     0.029 A 
ATOM     47  N   UNL A   1      40.571  28.709  29.787  1.00  0.00    -0.354 N 
ATOM     48  C   UNL A   1      40.082  31.063  33.363  1.00  0.00     0.074 A 
ATOM     49  C   UNL A   1      38.990  32.002  33.224  1.00  0.00     0.031 C 
ATOM     50  C   UNL A   1      40.127  28.056  27.694  1.00  0.00     0.029 A 
ATOM     51  C   UNL A   1      41.056  27.878  28.805  1.00  0.00     0.049 A 
ATOM     52  H   UNL A   1      40.999  28.809  30.668  1.00  0.00     0.167 HD
ATOM     53  C   UNL A   1      40.879  30.975  34.456  1.00  0.00     0.034 A 
ATOM     54  C   UNL A   1      42.123  27.055  28.801  1.00  0.00     0.034 A 
ATOM     55  C   UNL A   1      41.941  30.015  34.604  1.00  0.00     0.049 A 
ATOM     56  C   UNL A   1      42.951  26.930  30.050  1.00  0.00     0.074 A 
ATOM     57  C   UNL A   1      42.744  29.782  35.708  1.00  0.00     0.029 A 
ATOM     58  N   UNL A   1      42.356  29.134  33.618  1.00  0.00    -0.354 N 
ATOM     59  N   UNL A   1      42.804  27.536  31.202  1.00  0.00    -0.248 NA
ATOM     60  C   UNL A   1      44.068  25.974  30.010  1.00  0.00     0.031 C 
ATOM     61  C   UNL A   1      43.660  28.776  35.379  1.00  0.00     0.029 A 
ATOM     62  C   UNL A   1      43.411  28.364  34.080  1.00  0.00     0.049 A 
ATOM     63  H   UNL A   1      41.959  29.064  32.719  1.00  0.00     0.167 HD
ATOM     64  C   UNL A   1      43.790  27.019  32.033  1.00  0.00     0.074 A 
ATOM     65  C   UNL A   1      44.505  26.023  31.261  1.00  0.00     0.031 C 
ATOM     66  C   UNL A   1      44.092  27.352  33.313  1.00  0.00     0.034 A 
BRANCH  53  67
ATOM     67  C   UNL A   1      40.596  31.907  35.607  1.00  0.00     0.023 A 
ATOM     68  C   UNL A   1      41.441  33.013  35.828  1.00  0.00     0.012 A 
ATOM     69  C   UNL A   1      39.466  31.728  36.429  1.00  0.00     0.148 A 
ATOM     70  C   UNL A   1      41.188  33.907  36.868  1.00  0.00     0.002 A 
ATOM     71  C   UNL A   1      39.195  32.649  37.436  1.00  0.00     0.091 A 
ATOM     72  F   UNL A   1      38.683  30.661  36.220  1.00  0.00    -0.205 F 
ATOM     73  C   UNL A   1      40.061  33.732  37.664  1.00  0.00     0.022 A 
BRANCH  71  74
ATOM     74  S   UNL A   1      37.727  32.555  38.468  1.00  0.00     0.127 S 
ATOM     75  O   UNL A   1      37.670  31.126  38.770  1.00  0.00    -0.237 OA
ATOM     76  O   UNL A   1      38.094  33.403  39.603  1.00  0.00    -0.237 OA
ATOM     77  O   UNL A   1      36.632  33.067  37.657  1.00  0.00    -0.744 OA
ENDBRANCH  71  74
ENDBRANCH  53  67
BRANCH  54  78
ATOM     78  C   UNL A   1      42.415  26.226  27.598  1.00  0.00     0.023 A 
ATOM     79  C   UNL A   1      43.154  26.783  26.536  1.00  0.00     0.012 A 
ATOM     80  C   UNL A   1      41.999  24.883  27.517  1.00  0.00     0.148 A 
ATOM     81  C   UNL A   1      43.446  26.027  25.399  1.00  0.00     0.002 A 
ATOM     82  C   UNL A   1      42.343  24.120  26.407  1.00  0.00     0.091 A 
ATOM     83  F   UNL A   1      41.286  24.377  28.532  1.00  0.00    -0.205 F 
ATOM     84  C   UNL A   1      43.050  24.694  25.340  1.00  0.00     0.022 A 
BRANCH  82  85
ATOM     85  S   UNL A   1      41.994  22.360  26.315  1.00  0.00     0.127 S 
ATOM     86  O   UNL A   1      42.787  21.960  25.152  1.00  0.00    -0.237 OA
ATOM     87  O   UNL A   1      42.507  21.883  27.601  1.00  0.00    -0.237 OA
ATOM     88  O   UNL A   1      40.553  22.252  26.167  1.00  0.00    -0.744 OA
ENDBRANCH  82  85
ENDBRANCH  54  78
BRANCH  66  89
ATOM     89  C   UNL A   1      45.241  26.624  33.963  1.00  0.00     0.023 A 
ATOM     90  C   UNL A   1      46.555  27.109  33.803  1.00  0.00     0.012 A 
ATOM     91  C   UNL A   1      45.019  25.486  34.762  1.00  0.00     0.148 A 
ATOM     92  C   UNL A   1      47.633  26.448  34.388  1.00  0.00     0.002 A 
ATOM     93  C   UNL A   1      46.094  24.862  35.386  1.00  0.00     0.091 A 
ATOM     94  F   UNL A   1      43.766  25.025  34.890  1.00  0.00    -0.205 F 
ATOM     95  C   UNL A   1      47.403  25.331  35.187  1.00  0.00     0.022 A 
BRANCH  93  96
ATOM     96  S   UNL A   1      45.877  23.475  36.507  1.00  0.00     0.127 S 
ATOM     97  O   UNL A   1      45.093  24.080  37.583  1.00  0.00    -0.237 OA
ATOM     98  O   UNL A   1      45.140  22.517  35.681  1.00  0.00    -0.237 OA
ATOM     99  O   UNL A   1      47.220  23.045  36.871  1.00  0.00    -0.744 OA
ENDBRANCH  93  96
ENDBRANCH  66  89
ENDBRANCH  40  41
ENDBRANCH  32  35
ENDBRANCH  30  31
ENDBRANCH  29  30
ENDBRANCH  28  29
ENDBRANCH   1  28
TORSDOF 20
ENDMDL
MODEL 3
REMARK VINA RESULT:     -10.8      5.390      9.052
REMARK SMILES [NH3+][C@@]1(C(=O)NCCCCCCNC(=O)c2ccc(-c3c4nc(c(-c5cccc(S(=O)(=O)[O-])c5F)c5ccc([nH]5)c(-c5cccc(S(=O)(=O)[O-])c5F)c5nc(c(-c6cccc(S(=O)(=O)[O-])c6F)c6ccc3[nH]6)C=C5)C=C4)cc2)CCC[C@@H](Oc2ccccc2[N+](=O)[O-])C1
REMARK SMILES IDX 8 1 7 2 6 3 5 4 3 5 4 6 2 8 78 9 92 10 79 11 81 12 80 13
REMARK SMILES IDX 1 14 82 18 83 19 84 20 88 21 85 22 87 23 86 24 89 25 90 26
REMARK SMILES IDX 91 27 9 28 10 29 11 30 12 31 13 32 14 34 15 35 16 36 77 37
REMARK SMILES IDX 17 38 76 39 18 40 19 41 20 42 70 43 21 44 75 45 69 46 71 47
REMARK SMILES IDX 22 48 74 49 68 50 67 51 23 53 55 54 35 55 54 56 36 57 39 58
REMARK SMILES IDX 53 59 72 60 37 61 38 62 52 64 73 65 40 66 24 67 25 68 33 69
REMARK SMILES IDX 26 70 28 71 34 72 27 73 29 74 30 75 31 76 32 77 56 78 57 79
REMARK SMILES IDX 65 80 58 81 60 82 66 83 59 84 61 85 62 86 63 87 64 88 41 89
REMARK SMILES IDX 42 90 50 91 43 92 45 93 51 94 44 95 46 96 47 97 48 98 49 99
REMARK H PARENT 5 7 1 15 1 16 1 17 12 33 71 52 39 63
REMARK Flexibility Score: inf
ROOT
ATOM      1  C   UNL A   1      30.944  26.402  26.260  1.00  0.00     0.002 C 
ENDROOT
BRANCH   1   2
ATOM      2  C   UNL A   1      30.270  26.257  24.887  1.00  0.00     0.021 C 
BRANCH   2   3
ATOM      3  C   UNL A   1      30.471  24.876  24.249  1.00  0.00     0.116 C 
BRANCH   3   4
ATOM      4  N   UNL A   1      31.594  24.848  23.328  1.00  0.00    -0.351 N 
ATOM      5  C   UNL A   1      32.838  24.293  23.399  1.00  0.00     0.281 C 
ATOM      6  O   UNL A   1      33.550  24.442  22.396  1.00  0.00    -0.268 OA
ATOM      7  H   UNL A   1      31.422  25.325  22.483  1.00  0.00     0.163 HD
BRANCH   5   8
ATOM      8  C   UNL A   1      33.329  23.405  24.601  1.00  0.00     0.177 C 
ATOM      9  C   UNL A   1      34.415  24.182  25.380  1.00  0.00     0.079 C 
ATOM     10  C   UNL A   1      33.973  22.132  24.003  1.00  0.00     0.124 C 
ATOM     11  C   UNL A   1      35.069  23.355  26.488  1.00  0.00     0.011 C 
ATOM     12  C   UNL A   1      34.874  21.290  24.929  1.00  0.00     0.180 C 
ATOM     13  C   UNL A   1      35.703  22.072  25.961  1.00  0.00     0.046 C 
BRANCH   8  14
ATOM     14  N   UNL A   1      32.218  23.162  25.538  1.00  0.00    -0.345 N 
ATOM     15  H   UNL A   1      31.413  22.804  25.025  1.00  0.00     0.345 HD
ATOM     16  H   UNL A   1      31.964  24.036  25.999  1.00  0.00     0.345 HD
ATOM     17  H   UNL A   1      32.507  22.479  26.238  1.00  0.00     0.345 HD
ENDBRANCH   8  14
BRANCH  12  18
ATOM     18  O   UNL A   1      34.321  20.055  25.438  1.00  0.00    -0.483 OA
BRANCH  18  19
ATOM     19  C   UNL A   1      33.850  19.155  24.535  1.00  0.00     0.197 A 
ATOM     20  C   UNL A   1      32.631  19.411  23.906  1.00  0.00     0.054 A 
ATOM     21  C   UNL A   1      34.504  17.944  24.273  1.00  0.00     0.310 A 
ATOM     22  C   UNL A   1      32.152  18.542  22.922  1.00  0.00     0.004 A 
ATOM     23  C   UNL A   1      34.042  17.080  23.271  1.00  0.00     0.090 A 
ATOM     24  C   UNL A   1      32.872  17.396  22.583  1.00  0.00     0.007 A 
BRANCH  21  25
ATOM     25  N   UNL A   1      35.720  17.580  24.984  1.00  0.00     0.066 N 
ATOM     26  O   UNL A   1      36.637  18.416  24.981  1.00  0.00    -0.258 OA
ATOM     27  O   UNL A   1      35.763  16.482  25.552  1.00  0.00    -0.258 OA
ENDBRANCH  21  25
ENDBRANCH  18  19
ENDBRANCH  12  18
ENDBRANCH   5   8
ENDBRANCH   3   4
ENDBRANCH   2   3
ENDBRANCH   1   2
BRANCH   1  28
ATOM     28  C   UNL A   1      31.487  27.803  26.572  1.00  0.00     0.002 C 
BRANCH  28  29
ATOM     29  C   UNL A   1      31.754  28.700  25.359  1.00  0.00     0.021 C 
BRANCH  29  30
ATOM     30  C   UNL A   1      32.994  29.589  25.459  1.00  0.00     0.116 C 
BRANCH  30  31
ATOM     31  N   UNL A   1      32.682  30.916  25.965  1.00  0.00    -0.352 N 
ATOM     32  C   UNL A   1      33.197  31.620  27.022  1.00  0.00     0.251 C 
ATOM     33  H   UNL A   1      31.981  31.390  25.462  1.00  0.00     0.163 HD
ATOM     34  O   UNL A   1      32.628  32.648  27.384  1.00  0.00    -0.269 OA
BRANCH  32  35
ATOM     35  C   UNL A   1      34.419  31.170  27.726  1.00  0.00     0.039 A 
ATOM     36  C   UNL A   1      35.452  32.094  27.917  1.00  0.00     0.014 A 
ATOM     37  C   UNL A   1      34.590  29.845  28.137  1.00  0.00     0.014 A 
ATOM     38  C   UNL A   1      36.634  31.698  28.546  1.00  0.00     0.010 A 
ATOM     39  C   UNL A   1      35.744  29.469  28.828  1.00  0.00     0.010 A 
ATOM     40  C   UNL A   1      36.783  30.388  29.030  1.00  0.00    -0.014 A 
BRANCH  40  41
ATOM     41  C   UNL A   1      38.013  29.996  29.765  1.00  0.00     0.031 A 
ATOM     42  C   UNL A   1      38.292  30.516  31.149  1.00  0.00     0.074 A 
ATOM     43  C   UNL A   1      38.907  29.191  29.158  1.00  0.00     0.049 A 
ATOM     44  N   UNL A   1      39.283  30.223  31.953  1.00  0.00    -0.248 NA
ATOM     45  C   UNL A   1      37.355  31.510  31.698  1.00  0.00     0.031 C 
ATOM     46  C   UNL A   1      38.801  28.699  27.783  1.00  0.00     0.029 A 
ATOM     47  N   UNL A   1      40.083  28.651  29.614  1.00  0.00    -0.354 N 
ATOM     48  C   UNL A   1      39.104  31.007  33.086  1.00  0.00     0.074 A 
ATOM     49  C   UNL A   1      37.930  31.820  32.851  1.00  0.00     0.031 C 
ATOM     50  C   UNL A   1      39.854  27.913  27.515  1.00  0.00     0.029 A 
ATOM     51  C   UNL A   1      40.720  27.858  28.688  1.00  0.00     0.049 A 
ATOM     52  H   UNL A   1      40.437  28.814  30.518  1.00  0.00     0.167 HD
ATOM     53  C   UNL A   1      39.830  31.028  34.231  1.00  0.00     0.034 A 
ATOM     54  C   UNL A   1      41.866  27.156  28.776  1.00  0.00     0.034 A 
ATOM     55  C   UNL A   1      40.975  30.191  34.474  1.00  0.00     0.049 A 
ATOM     56  C   UNL A   1      42.616  27.145  30.079  1.00  0.00     0.074 A 
ATOM     57  C   UNL A   1      41.722  30.068  35.634  1.00  0.00     0.029 A 
ATOM     58  N   UNL A   1      41.548  29.341  33.540  1.00  0.00    -0.354 N 
ATOM     59  N   UNL A   1      42.328  27.755  31.203  1.00  0.00    -0.248 NA
ATOM     60  C   UNL A   1      43.828  26.316  30.138  1.00  0.00     0.031 C 
ATOM     61  C   UNL A   1      42.761  29.161  35.392  1.00  0.00     0.029 A 
ATOM     62  C   UNL A   1      42.646  28.699  34.091  1.00  0.00     0.049 A 
ATOM     63  H   UNL A   1      41.223  29.211  32.620  1.00  0.00     0.167 HD
ATOM     64  C   UNL A   1      43.304  27.363  32.110  1.00  0.00     0.074 A 
ATOM     65  C   UNL A   1      44.172  26.436  31.413  1.00  0.00     0.031 C 
ATOM     66  C   UNL A   1      43.481  27.752  33.398  1.00  0.00     0.034 A 
BRANCH  53  67
ATOM     67  C   UNL A   1      39.371  31.945  35.336  1.00  0.00     0.023 A 
ATOM     68  C   UNL A   1      38.443  31.476  36.287  1.00  0.00     0.012 A 
ATOM     69  C   UNL A   1      39.901  33.244  35.473  1.00  0.00     0.148 A 
ATOM     70  C   UNL A   1      38.021  32.292  37.336  1.00  0.00     0.002 A 
ATOM     71  C   UNL A   1      39.510  34.037  36.547  1.00  0.00     0.091 A 
ATOM     72  F   UNL A   1      40.766  33.683  34.550  1.00  0.00    -0.205 F 
ATOM     73  C   UNL A   1      38.562  33.567  37.472  1.00  0.00     0.022 A 
BRANCH  71  74
ATOM     74  S   UNL A   1      40.204  35.665  36.854  1.00  0.00     0.127 S 
ATOM     75  O   UNL A   1      39.653  36.436  35.741  1.00  0.00    -0.237 OA
ATOM     76  O   UNL A   1      39.640  35.998  38.164  1.00  0.00    -0.237 OA
ATOM     77  O   UNL A   1      41.649  35.494  36.842  1.00  0.00    -0.744 OA
ENDBRANCH  71  74
ENDBRANCH  53  67
BRANCH  54  78
ATOM     78  C   UNL A   1      42.326  26.340  27.617  1.00  0.00     0.023 A 
ATOM     79  C   UNL A   1      43.213  26.906  26.681  1.00  0.00     0.012 A 
ATOM     80  C   UNL A   1      41.921  25.001  27.459  1.00  0.00     0.148 A 
ATOM     81  C   UNL A   1      43.663  26.162  25.588  1.00  0.00     0.002 A 
ATOM     82  C   UNL A   1      42.418  24.249  26.401  1.00  0.00     0.091 A 
ATOM     83  F   UNL A   1      41.066  24.486  28.353  1.00  0.00    -0.205 F 
ATOM     84  C   UNL A   1      43.274  24.832  25.455  1.00  0.00     0.022 A 
BRANCH  82  85
ATOM     85  S   UNL A   1      42.080  22.493  26.236  1.00  0.00     0.127 S 
ATOM     86  O   UNL A   1      40.629  22.485  26.050  1.00  0.00    -0.237 OA
ATOM     87  O   UNL A   1      42.854  22.147  25.042  1.00  0.00    -0.237 OA
ATOM     88  O   UNL A   1      42.566  21.883  27.462  1.00  0.00    -0.744 OA
ENDBRANCH  82  85
ENDBRANCH  54  78
BRANCH  66  89
ATOM     89  C   UNL A   1      44.654  27.165  34.140  1.00  0.00     0.023 A 
ATOM     90  C   UNL A   1      45.910  27.801  34.075  1.00  0.00     0.012 A 
ATOM     91  C   UNL A   1      44.507  26.011  34.933  1.00  0.00     0.148 A 
ATOM     92  C   UNL A   1      47.010  27.273  34.748  1.00  0.00     0.002 A 
ATOM     93  C   UNL A   1      45.597  25.518  35.642  1.00  0.00     0.091 A 
ATOM     94  F   UNL A   1      43.311  25.405  34.970  1.00  0.00    -0.205 F 
ATOM     95  C   UNL A   1      46.853  26.138  35.539  1.00  0.00     0.022 A 
BRANCH  93  96
ATOM     96  S   UNL A   1      45.459  24.117  36.759  1.00  0.00     0.127 S 
ATOM     97  O   UNL A   1      44.518  24.623  37.758  1.00  0.00    -0.237 OA
ATOM     98  O   UNL A   1      44.918  23.074  35.886  1.00  0.00    -0.237 OA
ATOM     99  O   UNL A   1      46.809  23.858  37.239  1.00  0.00    -0.744 OA
ENDBRANCH  93  96
ENDBRANCH  66  89
ENDBRANCH  40  41
ENDBRANCH  32  35
ENDBRANCH  30  31
ENDBRANCH  29  30
ENDBRANCH  28  29
ENDBRANCH   1  28
TORSDOF 20
ENDMDL
