MODEL 1
REMARK VINA RESULT:     -12.0      0.000      0.000
REMARK SMILES CCc1noc(C)c1C(=O)Nc1cc(Cl)ccc1C(=O)NCCCCCCNC(=O)c1ccc(-c2c3nc(c(-c4cccc(S(=O)(=O)[O-])c4F)c4ccc([nH]4)c(-c4cccc(S(=O)(=O)[O-])c4F)c4nc(c(-c5cccc(S(=O)(=O)[O-])c5F)c5ccc2[nH]5)C=C4)C=C3)cc1
REMARK SMILES IDX 24 1 23 2 22 3 21 4 19 5 20 6 18 8 12 9 13 10 14 11 17 12
REMARK SMILES IDX 15 13 16 14 11 15 9 16 10 17 8 19 3 20 4 21 5 22 6 23 7 24
REMARK SMILES IDX 2 25 1 26 25 27 26 28 27 29 28 30 29 31 30 33 31 34 32 35
REMARK SMILES IDX 93 36 33 37 92 38 34 39 35 40 36 41 86 42 37 43 91 44 85 45
REMARK SMILES IDX 87 46 38 47 90 48 84 49 83 50 39 52 71 53 51 54 70 55 52 56
REMARK SMILES IDX 55 57 69 58 88 59 53 60 54 61 68 63 89 64 56 65 40 66 41 67
REMARK SMILES IDX 49 68 42 69 44 70 50 71 43 72 45 73 46 74 47 75 48 76 72 77
REMARK SMILES IDX 73 78 81 79 74 80 76 81 82 82 75 83 77 84 78 85 79 86 80 87
REMARK SMILES IDX 57 88 58 89 66 90 59 91 61 92 67 93 60 94 62 95 63 96 64 97
REMARK SMILES IDX 65 98
REMARK H PARENT 21 7 11 18 28 32 87 51 55 62
REMARK Flexibility Score: inf
ROOT
ATOM      1  C   UNL A   1      35.570  23.400  26.128  1.00  0.00     0.002 C 
ENDROOT
BRANCH   1   2
ATOM      2  C   UNL A   1      35.136  24.421  25.070  1.00  0.00     0.021 C 
BRANCH   2   3
ATOM      3  C   UNL A   1      34.334  25.629  25.545  1.00  0.00     0.116 C 
BRANCH   3   4
ATOM      4  N   UNL A   1      32.972  25.354  25.942  1.00  0.00    -0.352 N 
ATOM      5  C   UNL A   1      31.891  26.168  26.175  1.00  0.00     0.253 C 
ATOM      6  O   UNL A   1      30.839  25.601  26.482  1.00  0.00    -0.269 OA
ATOM      7  H   UNL A   1      32.782  24.396  26.068  1.00  0.00     0.163 HD
BRANCH   5   8
ATOM      8  C   UNL A   1      31.886  27.669  26.147  1.00  0.00     0.063 A 
ATOM      9  C   UNL A   1      31.275  28.530  25.214  1.00  0.00     0.055 A 
ATOM     10  C   UNL A   1      31.294  29.924  25.415  1.00  0.00     0.047 A 
ATOM     11  C   UNL A   1      31.961  30.475  26.505  1.00  0.00     0.043 A 
ATOM     12  C   UNL A   1      32.574  28.265  27.230  1.00  0.00     0.017 A 
ATOM     13  Cl  UNL A   1      31.974  32.179  26.734  1.00  0.00    -0.084 Cl
ATOM     14  C   UNL A   1      32.620  29.651  27.405  1.00  0.00     0.021 A 
BRANCH   9  15
ATOM     15  N   UNL A   1      30.497  28.058  24.163  1.00  0.00    -0.321 N 
ATOM     16  C   UNL A   1      30.826  27.694  22.871  1.00  0.00     0.261 C 
ATOM     17  O   UNL A   1      29.938  27.847  22.045  1.00  0.00    -0.269 OA
ATOM     18  H   UNL A   1      29.540  27.968  24.377  1.00  0.00     0.170 HD
BRANCH  16  19
ATOM     19  C   UNL A   1      32.053  26.954  22.533  1.00  0.00     0.105 A 
ATOM     20  C   UNL A   1      32.136  25.508  22.534  1.00  0.00     0.096 A 
ATOM     21  N   UNL A   1      33.358  25.084  22.200  1.00  0.00    -0.084 NA
ATOM     22  O   UNL A   1      34.108  26.203  22.018  1.00  0.00    -0.361 OA
ATOM     23  C   UNL A   1      33.367  27.318  22.259  1.00  0.00     0.146 A 
ATOM     24  C   UNL A   1      34.203  28.530  22.163  1.00  0.00     0.092 C 
BRANCH  20  25
ATOM     25  C   UNL A   1      31.125  24.457  22.883  1.00  0.00     0.057 C 
ATOM     26  C   UNL A   1      31.727  23.102  23.242  1.00  0.00     0.011 C 
ENDBRANCH  20  25
ENDBRANCH  16  19
ENDBRANCH   9  15
ENDBRANCH   5   8
ENDBRANCH   3   4
ENDBRANCH   2   3
ENDBRANCH   1   2
BRANCH   1  27
ATOM     27  C   UNL A   1      35.021  21.974  26.036  1.00  0.00     0.002 C 
BRANCH  27  28
ATOM     28  C   UNL A   1      35.695  20.996  25.071  1.00  0.00     0.021 C 
BRANCH  28  29
ATOM     29  C   UNL A   1      37.154  21.252  24.709  1.00  0.00     0.116 C 
BRANCH  29  30
ATOM     30  N   UNL A   1      38.069  20.256  25.233  1.00  0.00    -0.352 N 
ATOM     31  C   UNL A   1      39.241  20.406  25.935  1.00  0.00     0.251 C 
ATOM     32  H   UNL A   1      37.809  19.323  25.057  1.00  0.00     0.163 HD
ATOM     33  O   UNL A   1      39.885  19.398  26.224  1.00  0.00    -0.269 OA
BRANCH  31  34
ATOM     34  C   UNL A   1      39.763  21.743  26.325  1.00  0.00     0.039 A 
ATOM     35  C   UNL A   1      40.870  21.791  27.182  1.00  0.00     0.014 A 
ATOM     36  C   UNL A   1      39.165  22.938  25.917  1.00  0.00     0.014 A 
ATOM     37  C   UNL A   1      41.400  23.022  27.587  1.00  0.00     0.010 A 
ATOM     38  C   UNL A   1      39.731  24.167  26.272  1.00  0.00     0.010 A 
ATOM     39  C   UNL A   1      40.848  24.224  27.119  1.00  0.00    -0.014 A 
BRANCH  39  40
ATOM     40  C   UNL A   1      41.430  25.535  27.513  1.00  0.00     0.031 A 
ATOM     41  C   UNL A   1      42.850  25.886  27.155  1.00  0.00     0.074 A 
ATOM     42  C   UNL A   1      40.699  26.398  28.247  1.00  0.00     0.049 A 
ATOM     43  N   UNL A   1      43.518  26.982  27.410  1.00  0.00    -0.248 NA
ATOM     44  C   UNL A   1      43.629  24.865  26.435  1.00  0.00     0.031 C 
ATOM     45  C   UNL A   1      39.340  26.152  28.734  1.00  0.00     0.029 A 
ATOM     46  N   UNL A   1      41.003  27.648  28.729  1.00  0.00    -0.354 N 
ATOM     47  C   UNL A   1      44.799  26.773  26.913  1.00  0.00     0.074 A 
ATOM     48  C   UNL A   1      44.825  25.434  26.365  1.00  0.00     0.031 C 
ATOM     49  C   UNL A   1      38.927  27.217  29.441  1.00  0.00     0.029 A 
ATOM     50  C   UNL A   1      39.991  28.218  29.466  1.00  0.00     0.049 A 
ATOM     51  H   UNL A   1      41.864  28.094  28.561  1.00  0.00     0.167 HD
ATOM     52  C   UNL A   1      45.851  27.627  26.882  1.00  0.00     0.034 A 
ATOM     53  C   UNL A   1      39.920  29.414  30.083  1.00  0.00     0.034 A 
ATOM     54  C   UNL A   1      45.813  28.980  27.369  1.00  0.00     0.049 A 
ATOM     55  C   UNL A   1      41.075  30.373  29.967  1.00  0.00     0.074 A 
ATOM     56  C   UNL A   1      46.799  29.950  27.297  1.00  0.00     0.029 A 
ATOM     57  N   UNL A   1      44.733  29.558  28.015  1.00  0.00    -0.354 N 
ATOM     58  N   UNL A   1      42.214  30.221  29.336  1.00  0.00    -0.248 NA
ATOM     59  C   UNL A   1      40.917  31.686  30.610  1.00  0.00     0.031 C 
ATOM     60  C   UNL A   1      46.313  31.116  27.899  1.00  0.00     0.029 A 
ATOM     61  C   UNL A   1      45.025  30.871  28.347  1.00  0.00     0.049 A 
ATOM     62  H   UNL A   1      43.882  29.103  28.211  1.00  0.00     0.167 HD
ATOM     63  C   UNL A   1      42.895  31.424  29.480  1.00  0.00     0.074 A 
ATOM     64  C   UNL A   1      42.030  32.306  30.237  1.00  0.00     0.031 C 
ATOM     65  C   UNL A   1      44.133  31.762  29.044  1.00  0.00     0.034 A 
BRANCH  52  66
ATOM     66  C   UNL A   1      47.118  27.148  26.223  1.00  0.00     0.023 A 
ATOM     67  C   UNL A   1      47.321  27.422  24.855  1.00  0.00     0.012 A 
ATOM     68  C   UNL A   1      48.122  26.487  26.954  1.00  0.00     0.148 A 
ATOM     69  C   UNL A   1      48.494  27.019  24.217  1.00  0.00     0.002 A 
ATOM     70  C   UNL A   1      49.304  26.119  26.319  1.00  0.00     0.091 A 
ATOM     71  F   UNL A   1      47.901  26.213  28.247  1.00  0.00    -0.205 F 
ATOM     72  C   UNL A   1      49.488  26.377  24.951  1.00  0.00     0.022 A 
BRANCH  70  73
ATOM     73  S   UNL A   1      50.668  25.348  27.199  1.00  0.00     0.127 S 
ATOM     74  O   UNL A   1      51.055  26.406  28.131  1.00  0.00    -0.237 OA
ATOM     75  O   UNL A   1      50.026  24.191  27.825  1.00  0.00    -0.237 OA
ATOM     76  O   UNL A   1      51.653  25.011  26.180  1.00  0.00    -0.744 OA
ENDBRANCH  70  73
ENDBRANCH  52  66
BRANCH  53  77
ATOM     77  C   UNL A   1      38.666  29.813  30.780  1.00  0.00     0.023 A 
ATOM     78  C   UNL A   1      38.431  29.345  32.087  1.00  0.00     0.012 A 
ATOM     79  C   UNL A   1      37.730  30.676  30.181  1.00  0.00     0.148 A 
ATOM     80  C   UNL A   1      37.276  29.710  32.778  1.00  0.00     0.002 A 
ATOM     81  C   UNL A   1      36.603  31.076  30.893  1.00  0.00     0.091 A 
ATOM     82  F   UNL A   1      37.958  31.095  28.929  1.00  0.00    -0.205 F 
ATOM     83  C   UNL A   1      36.368  30.585  32.186  1.00  0.00     0.022 A 
BRANCH  81  84
ATOM     84  S   UNL A   1      35.457  32.300  30.248  1.00  0.00     0.127 S 
ATOM     85  O   UNL A   1      34.974  31.649  29.034  1.00  0.00    -0.237 OA
ATOM     86  O   UNL A   1      34.471  32.400  31.326  1.00  0.00    -0.237 OA
ATOM     87  O   UNL A   1      36.252  33.506  30.058  1.00  0.00    -0.744 OA
ENDBRANCH  81  84
ENDBRANCH  53  77
BRANCH  65  88
ATOM     88  C   UNL A   1      44.630  33.147  29.356  1.00  0.00     0.023 A 
ATOM     89  C   UNL A   1      45.425  33.354  30.501  1.00  0.00     0.012 A 
ATOM     90  C   UNL A   1      44.375  34.226  28.488  1.00  0.00     0.148 A 
ATOM     91  C   UNL A   1      45.937  34.618  30.791  1.00  0.00     0.002 A 
ATOM     92  C   UNL A   1      44.921  35.476  28.764  1.00  0.00     0.091 A 
ATOM     93  F   UNL A   1      43.596  34.020  27.415  1.00  0.00    -0.205 F 
ATOM     94  C   UNL A   1      45.695  35.676  29.916  1.00  0.00     0.022 A 
BRANCH  92  95
ATOM     95  S   UNL A   1      44.719  36.862  27.637  1.00  0.00     0.127 S 
ATOM     96  O   UNL A   1      45.390  36.373  26.434  1.00  0.00    -0.237 OA
ATOM     97  O   UNL A   1      43.264  36.972  27.521  1.00  0.00    -0.237 OA
ATOM     98  O   UNL A   1      45.350  37.996  28.300  1.00  0.00    -0.744 OA
ENDBRANCH  92  95
ENDBRANCH  65  88
ENDBRANCH  39  40
ENDBRANCH  31  34
ENDBRANCH  29  30
ENDBRANCH  28  29
ENDBRANCH  27  28
ENDBRANCH   1  27
TORSDOF 19
ENDMDL
MODEL 2
REMARK VINA RESULT:     -11.3      2.899      8.384
REMARK SMILES CCc1noc(C)c1C(=O)Nc1cc(Cl)ccc1C(=O)NCCCCCCNC(=O)c1ccc(-c2c3nc(c(-c4cccc(S(=O)(=O)[O-])c4F)c4ccc([nH]4)c(-c4cccc(S(=O)(=O)[O-])c4F)c4nc(c(-c5cccc(S(=O)(=O)[O-])c5F)c5ccc2[nH]5)C=C4)C=C3)cc1
REMARK SMILES IDX 24 1 23 2 22 3 21 4 19 5 20 6 18 8 12 9 13 10 14 11 17 12
REMARK SMILES IDX 15 13 16 14 11 15 9 16 10 17 8 19 3 20 4 21 5 22 6 23 7 24
REMARK SMILES IDX 2 25 1 26 25 27 26 28 27 29 28 30 29 31 30 33 31 34 32 35
REMARK SMILES IDX 93 36 33 37 92 38 34 39 35 40 36 41 86 42 37 43 91 44 85 45
REMARK SMILES IDX 87 46 38 47 90 48 84 49 83 50 39 52 71 53 51 54 70 55 52 56
REMARK SMILES IDX 55 57 69 58 88 59 53 60 54 61 68 63 89 64 56 65 40 66 41 67
REMARK SMILES IDX 49 68 42 69 44 70 50 71 43 72 45 73 46 74 47 75 48 76 72 77
REMARK SMILES IDX 73 78 81 79 74 80 76 81 82 82 75 83 77 84 78 85 79 86 80 87
REMARK SMILES IDX 57 88 58 89 66 90 59 91 61 92 67 93 60 94 62 95 63 96 64 97
REMARK SMILES IDX 65 98
REMARK H PARENT 21 7 11 18 28 32 87 51 55 62
REMARK Flexibility Score: inf
ROOT
ATOM      1  C   UNL A   1      37.388  21.483  25.105  1.00  0.00     0.002 C 
ENDROOT
BRANCH   1   2
ATOM      2  C   UNL A   1      36.784  22.365  24.007  1.00  0.00     0.021 C 
BRANCH   2   3
ATOM      3  C   UNL A   1      36.220  23.722  24.423  1.00  0.00     0.116 C 
BRANCH   3   4
ATOM      4  N   UNL A   1      35.372  23.710  25.592  1.00  0.00    -0.352 N 
ATOM      5  C   UNL A   1      34.296  22.935  25.949  1.00  0.00     0.253 C 
ATOM      6  O   UNL A   1      33.799  23.171  27.054  1.00  0.00    -0.269 OA
ATOM      7  H   UNL A   1      35.613  24.388  26.264  1.00  0.00     0.163 HD
BRANCH   5   8
ATOM      8  C   UNL A   1      33.641  21.880  25.106  1.00  0.00     0.063 A 
ATOM      9  C   UNL A   1      32.904  22.038  23.915  1.00  0.00     0.055 A 
ATOM     10  C   UNL A   1      32.450  20.908  23.206  1.00  0.00     0.047 A 
ATOM     11  C   UNL A   1      32.675  19.625  23.697  1.00  0.00     0.043 A 
ATOM     12  C   UNL A   1      33.830  20.564  25.586  1.00  0.00     0.017 A 
ATOM     13  Cl  UNL A   1      32.114  18.258  22.817  1.00  0.00    -0.084 Cl
ATOM     14  C   UNL A   1      33.347  19.447  24.896  1.00  0.00     0.021 A 
BRANCH   9  15
ATOM     15  N   UNL A   1      32.733  23.274  23.302  1.00  0.00    -0.321 N 
ATOM     16  C   UNL A   1      31.792  24.268  23.492  1.00  0.00     0.261 C 
ATOM     17  O   UNL A   1      31.547  24.948  22.506  1.00  0.00    -0.269 OA
ATOM     18  H   UNL A   1      33.401  23.476  22.609  1.00  0.00     0.170 HD
BRANCH  16  19
ATOM     19  C   UNL A   1      31.287  24.654  24.819  1.00  0.00     0.105 A 
ATOM     20  C   UNL A   1      31.471  25.974  25.388  1.00  0.00     0.096 A 
ATOM     21  N   UNL A   1      30.928  26.067  26.605  1.00  0.00    -0.084 NA
ATOM     22  O   UNL A   1      30.424  24.837  26.888  1.00  0.00    -0.361 OA
ATOM     23  C   UNL A   1      30.670  23.974  25.865  1.00  0.00     0.146 A 
ATOM     24  C   UNL A   1      30.216  22.613  26.210  1.00  0.00     0.092 C 
BRANCH  20  25
ATOM     25  C   UNL A   1      32.186  27.186  24.869  1.00  0.00     0.057 C 
ATOM     26  C   UNL A   1      33.698  27.152  25.062  1.00  0.00     0.011 C 
ENDBRANCH  20  25
ENDBRANCH  16  19
ENDBRANCH   9  15
ENDBRANCH   5   8
ENDBRANCH   3   4
ENDBRANCH   2   3
ENDBRANCH   1   2
BRANCH   1  27
ATOM     27  C   UNL A   1      37.274  19.963  24.967  1.00  0.00     0.002 C 
BRANCH  27  28
ATOM     28  C   UNL A   1      38.538  19.120  25.151  1.00  0.00     0.021 C 
BRANCH  28  29
ATOM     29  C   UNL A   1      39.677  19.721  25.968  1.00  0.00     0.116 C 
BRANCH  29  30
ATOM     30  N   UNL A   1      40.847  18.869  26.057  1.00  0.00    -0.352 N 
ATOM     31  C   UNL A   1      42.171  19.191  26.232  1.00  0.00     0.251 C 
ATOM     32  H   UNL A   1      40.662  17.905  25.979  1.00  0.00     0.163 HD
ATOM     33  O   UNL A   1      43.003  18.285  26.215  1.00  0.00    -0.269 OA
BRANCH  31  34
ATOM     34  C   UNL A   1      42.626  20.596  26.409  1.00  0.00     0.039 A 
ATOM     35  C   UNL A   1      42.616  21.131  27.703  1.00  0.00     0.014 A 
ATOM     36  C   UNL A   1      43.007  21.409  25.338  1.00  0.00     0.014 A 
ATOM     37  C   UNL A   1      43.028  22.450  27.928  1.00  0.00     0.010 A 
ATOM     38  C   UNL A   1      43.476  22.707  25.571  1.00  0.00     0.010 A 
ATOM     39  C   UNL A   1      43.482  23.246  26.866  1.00  0.00    -0.014 A 
BRANCH  39  40
ATOM     40  C   UNL A   1      43.958  24.635  27.103  1.00  0.00     0.031 A 
ATOM     41  C   UNL A   1      43.022  25.690  27.631  1.00  0.00     0.074 A 
ATOM     42  C   UNL A   1      45.227  24.969  26.791  1.00  0.00     0.049 A 
ATOM     43  N   UNL A   1      43.266  26.947  27.903  1.00  0.00    -0.248 NA
ATOM     44  C   UNL A   1      41.626  25.288  27.864  1.00  0.00     0.031 C 
ATOM     45  C   UNL A   1      46.215  24.069  26.194  1.00  0.00     0.029 A 
ATOM     46  N   UNL A   1      45.896  26.163  26.911  1.00  0.00    -0.354 N 
ATOM     47  C   UNL A   1      42.054  27.494  28.307  1.00  0.00     0.074 A 
ATOM     48  C   UNL A   1      41.068  26.439  28.219  1.00  0.00     0.031 C 
ATOM     49  C   UNL A   1      47.363  24.739  26.006  1.00  0.00     0.029 A 
ATOM     50  C   UNL A   1      47.193  26.118  26.458  1.00  0.00     0.049 A 
ATOM     51  H   UNL A   1      45.485  26.974  27.288  1.00  0.00     0.167 HD
ATOM     52  C   UNL A   1      41.789  28.748  28.745  1.00  0.00     0.034 A 
ATOM     53  C   UNL A   1      48.144  27.072  26.420  1.00  0.00     0.034 A 
ATOM     54  C   UNL A   1      42.777  29.782  28.894  1.00  0.00     0.049 A 
ATOM     55  C   UNL A   1      47.844  28.435  26.985  1.00  0.00     0.074 A 
ATOM     56  C   UNL A   1      42.620  31.055  29.417  1.00  0.00     0.029 A 
ATOM     57  N   UNL A   1      44.107  29.666  28.523  1.00  0.00    -0.354 N 
ATOM     58  N   UNL A   1      46.736  28.877  27.528  1.00  0.00    -0.248 NA
ATOM     59  C   UNL A   1      48.938  29.417  26.971  1.00  0.00     0.031 C 
ATOM     60  C   UNL A   1      43.857  31.707  29.364  1.00  0.00     0.029 A 
ATOM     61  C   UNL A   1      44.783  30.841  28.806  1.00  0.00     0.049 A 
ATOM     62  H   UNL A   1      44.511  28.865  28.118  1.00  0.00     0.167 HD
ATOM     63  C   UNL A   1      47.007  30.174  27.947  1.00  0.00     0.074 A 
ATOM     64  C   UNL A   1      48.393  30.440  27.617  1.00  0.00     0.031 C 
ATOM     65  C   UNL A   1      46.178  31.073  28.533  1.00  0.00     0.034 A 
BRANCH  52  66
ATOM     66  C   UNL A   1      40.378  29.050  29.178  1.00  0.00     0.023 A 
ATOM     67  C   UNL A   1      39.435  29.446  28.207  1.00  0.00     0.012 A 
ATOM     68  C   UNL A   1      39.969  28.890  30.515  1.00  0.00     0.148 A 
ATOM     69  C   UNL A   1      38.113  29.706  28.565  1.00  0.00     0.002 A 
ATOM     70  C   UNL A   1      38.641  29.119  30.859  1.00  0.00     0.091 A 
ATOM     71  F   UNL A   1      40.884  28.538  31.429  1.00  0.00    -0.205 F 
ATOM     72  C   UNL A   1      37.715  29.533  29.889  1.00  0.00     0.022 A 
BRANCH  70  73
ATOM     73  S   UNL A   1      38.021  28.857  32.525  1.00  0.00     0.127 S 
ATOM     74  O   UNL A   1      38.209  27.417  32.688  1.00  0.00    -0.237 OA
ATOM     75  O   UNL A   1      38.922  29.683  33.331  1.00  0.00    -0.237 OA
ATOM     76  O   UNL A   1      36.639  29.317  32.507  1.00  0.00    -0.744 OA
ENDBRANCH  70  73
ENDBRANCH  52  66
BRANCH  53  77
ATOM     77  C   UNL A   1      49.507  26.738  25.919  1.00  0.00     0.023 A 
ATOM     78  C   UNL A   1      50.365  25.972  26.731  1.00  0.00     0.012 A 
ATOM     79  C   UNL A   1      49.942  27.135  24.641  1.00  0.00     0.148 A 
ATOM     80  C   UNL A   1      51.642  25.625  26.289  1.00  0.00     0.002 A 
ATOM     81  C   UNL A   1      51.198  26.745  24.186  1.00  0.00     0.091 A 
ATOM     82  F   UNL A   1      49.120  27.881  23.890  1.00  0.00    -0.205 F 
ATOM     83  C   UNL A   1      52.054  26.001  25.012  1.00  0.00     0.022 A 
BRANCH  81  84
ATOM     84  S   UNL A   1      51.746  27.080  22.508  1.00  0.00     0.127 S 
ATOM     85  O   UNL A   1      52.077  28.500  22.578  1.00  0.00    -0.237 OA
ATOM     86  O   UNL A   1      52.899  26.186  22.374  1.00  0.00    -0.237 OA
ATOM     87  O   UNL A   1      50.618  26.723  21.659  1.00  0.00    -0.744 OA
ENDBRANCH  81  84
ENDBRANCH  53  77
BRANCH  65  88
ATOM     88  C   UNL A   1      46.742  32.426  28.872  1.00  0.00     0.023 A 
ATOM     89  C   UNL A   1      47.340  32.629  30.131  1.00  0.00     0.012 A 
ATOM     90  C   UNL A   1      46.746  33.471  27.929  1.00  0.00     0.148 A 
ATOM     91  C   UNL A   1      47.911  33.859  30.456  1.00  0.00     0.002 A 
ATOM     92  C   UNL A   1      47.351  34.684  28.246  1.00  0.00     0.091 A 
ATOM     93  F   UNL A   1      46.150  33.271  26.743  1.00  0.00    -0.205 F 
ATOM     94  C   UNL A   1      47.926  34.882  29.510  1.00  0.00     0.022 A 
BRANCH  92  95
ATOM     95  S   UNL A   1      47.481  36.015  27.045  1.00  0.00     0.127 S 
ATOM     96  O   UNL A   1      48.248  35.381  25.974  1.00  0.00    -0.237 OA
ATOM     97  O   UNL A   1      46.081  36.285  26.713  1.00  0.00    -0.237 OA
ATOM     98  O   UNL A   1      48.147  37.105  27.745  1.00  0.00    -0.744 OA
ENDBRANCH  92  95
ENDBRANCH  65  88
ENDBRANCH  39  40
ENDBRANCH  31  34
ENDBRANCH  29  30
ENDBRANCH  28  29
ENDBRANCH  27  28
ENDBRANCH   1  27
TORSDOF 19
ENDMDL
MODEL 3
REMARK VINA RESULT:     -11.2      1.888      2.582
REMARK SMILES CCc1noc(C)c1C(=O)Nc1cc(Cl)ccc1C(=O)NCCCCCCNC(=O)c1ccc(-c2c3nc(c(-c4cccc(S(=O)(=O)[O-])c4F)c4ccc([nH]4)c(-c4cccc(S(=O)(=O)[O-])c4F)c4nc(c(-c5cccc(S(=O)(=O)[O-])c5F)c5ccc2[nH]5)C=C4)C=C3)cc1
REMARK SMILES IDX 24 1 23 2 22 3 21 4 19 5 20 6 18 8 12 9 13 10 14 11 17 12
REMARK SMILES IDX 15 13 16 14 11 15 9 16 10 17 8 19 3 20 4 21 5 22 6 23 7 24
REMARK SMILES IDX 2 25 1 26 25 27 26 28 27 29 28 30 29 31 30 33 31 34 32 35
REMARK SMILES IDX 93 36 33 37 92 38 34 39 35 40 36 41 86 42 37 43 91 44 85 45
REMARK SMILES IDX 87 46 38 47 90 48 84 49 83 50 39 52 71 53 51 54 70 55 52 56
REMARK SMILES IDX 55 57 69 58 88 59 53 60 54 61 68 63 89 64 56 65 40 66 41 67
REMARK SMILES IDX 49 68 42 69 44 70 50 71 43 72 45 73 46 74 47 75 48 76 72 77
REMARK SMILES IDX 73 78 81 79 74 80 76 81 82 82 75 83 77 84 78 85 79 86 80 87
REMARK SMILES IDX 57 88 58 89 66 90 59 91 61 92 67 93 60 94 62 95 63 96 64 97
REMARK SMILES IDX 65 98
REMARK H PARENT 21 7 11 18 28 32 87 51 55 62
REMARK Flexibility Score: inf
ROOT
ATOM      1  C   UNL A   1      35.730  22.569  24.759  1.00  0.00     0.002 C 
ENDROOT
BRANCH   1   2
ATOM      2  C   UNL A   1      35.204  23.114  23.427  1.00  0.00     0.021 C 
BRANCH   2   3
ATOM      3  C   UNL A   1      34.422  24.424  23.462  1.00  0.00     0.116 C 
BRANCH   3   4
ATOM      4  N   UNL A   1      34.514  25.171  24.695  1.00  0.00    -0.352 N 
ATOM      5  C   UNL A   1      33.808  26.242  25.185  1.00  0.00     0.253 C 
ATOM      6  O   UNL A   1      34.128  26.635  26.311  1.00  0.00    -0.269 OA
ATOM      7  H   UNL A   1      35.218  24.848  25.302  1.00  0.00     0.163 HD
BRANCH   5   8
ATOM      8  C   UNL A   1      32.736  27.005  24.464  1.00  0.00     0.063 A 
ATOM      9  C   UNL A   1      31.356  27.068  24.750  1.00  0.00     0.055 A 
ATOM     10  C   UNL A   1      30.517  27.928  24.015  1.00  0.00     0.047 A 
ATOM     11  C   UNL A   1      31.024  28.688  22.964  1.00  0.00     0.043 A 
ATOM     12  C   UNL A   1      33.211  27.773  23.376  1.00  0.00     0.017 A 
ATOM     13  Cl  UNL A   1      29.985  29.733  22.079  1.00  0.00    -0.084 Cl
ATOM     14  C   UNL A   1      32.367  28.599  22.628  1.00  0.00     0.021 A 
BRANCH   9  15
ATOM     15  N   UNL A   1      30.793  26.429  25.849  1.00  0.00    -0.321 N 
ATOM     16  C   UNL A   1      30.298  25.149  26.009  1.00  0.00     0.261 C 
ATOM     17  O   UNL A   1      29.408  25.035  26.840  1.00  0.00    -0.269 OA
ATOM     18  H   UNL A   1      30.736  26.989  26.656  1.00  0.00     0.170 HD
BRANCH  16  19
ATOM     19  C   UNL A   1      30.933  23.961  25.417  1.00  0.00     0.105 A 
ATOM     20  C   UNL A   1      31.781  23.055  26.167  1.00  0.00     0.096 A 
ATOM     21  N   UNL A   1      32.241  22.062  25.400  1.00  0.00    -0.084 NA
ATOM     22  O   UNL A   1      31.763  22.300  24.150  1.00  0.00    -0.361 OA
ATOM     23  C   UNL A   1      31.029  23.445  24.129  1.00  0.00     0.146 A 
ATOM     24  C   UNL A   1      30.595  23.761  22.755  1.00  0.00     0.092 C 
BRANCH  20  25
ATOM     25  C   UNL A   1      32.243  23.081  27.593  1.00  0.00     0.057 C 
ATOM     26  C   UNL A   1      33.530  22.305  27.849  1.00  0.00     0.011 C 
ENDBRANCH  20  25
ENDBRANCH  16  19
ENDBRANCH   9  15
ENDBRANCH   5   8
ENDBRANCH   3   4
ENDBRANCH   2   3
ENDBRANCH   1   2
BRANCH   1  27
ATOM     27  C   UNL A   1      35.699  21.057  24.995  1.00  0.00     0.002 C 
BRANCH  27  28
ATOM     28  C   UNL A   1      37.024  20.292  24.989  1.00  0.00     0.021 C 
BRANCH  28  29
ATOM     29  C   UNL A   1      38.278  21.047  25.420  1.00  0.00     0.116 C 
BRANCH  29  30
ATOM     30  N   UNL A   1      39.331  20.189  25.929  1.00  0.00    -0.352 N 
ATOM     31  C   UNL A   1      40.516  20.507  26.547  1.00  0.00     0.251 C 
ATOM     32  H   UNL A   1      39.170  19.225  25.813  1.00  0.00     0.163 HD
ATOM     33  O   UNL A   1      41.288  19.595  26.840  1.00  0.00    -0.269 OA
BRANCH  31  34
ATOM     34  C   UNL A   1      40.902  21.912  26.841  1.00  0.00     0.039 A 
ATOM     35  C   UNL A   1      41.320  22.220  28.142  1.00  0.00     0.014 A 
ATOM     36  C   UNL A   1      40.813  22.937  25.894  1.00  0.00     0.014 A 
ATOM     37  C   UNL A   1      41.690  23.529  28.477  1.00  0.00     0.010 A 
ATOM     38  C   UNL A   1      41.240  24.230  26.212  1.00  0.00     0.010 A 
ATOM     39  C   UNL A   1      41.672  24.543  27.509  1.00  0.00    -0.014 A 
BRANCH  39  40
ATOM     40  C   UNL A   1      42.102  25.928  27.848  1.00  0.00     0.031 A 
ATOM     41  C   UNL A   1      43.499  26.397  27.540  1.00  0.00     0.074 A 
ATOM     42  C   UNL A   1      41.249  26.755  28.486  1.00  0.00     0.049 A 
ATOM     43  N   UNL A   1      44.043  27.567  27.759  1.00  0.00    -0.248 NA
ATOM     44  C   UNL A   1      44.413  25.418  26.929  1.00  0.00     0.031 C 
ATOM     45  C   UNL A   1      39.895  26.403  28.917  1.00  0.00     0.029 A 
ATOM     46  N   UNL A   1      41.403  28.055  28.901  1.00  0.00    -0.354 N 
ATOM     47  C   UNL A   1      45.364  27.459  27.343  1.00  0.00     0.074 A 
ATOM     48  C   UNL A   1      45.551  26.100  26.884  1.00  0.00     0.031 C 
ATOM     49  C   UNL A   1      39.341  27.461  29.532  1.00  0.00     0.029 A 
ATOM     50  C   UNL A   1      40.300  28.563  29.547  1.00  0.00     0.049 A 
ATOM     51  H   UNL A   1      42.225  28.574  28.750  1.00  0.00     0.167 HD
ATOM     52  C   UNL A   1      46.328  28.411  27.312  1.00  0.00     0.034 A 
ATOM     53  C   UNL A   1      40.078  29.780  30.082  1.00  0.00     0.034 A 
ATOM     54  C   UNL A   1      46.132  29.779  27.707  1.00  0.00     0.049 A 
ATOM     55  C   UNL A   1      41.140  30.841  29.964  1.00  0.00     0.074 A 
ATOM     56  C   UNL A   1      47.022  30.837  27.625  1.00  0.00     0.029 A 
ATOM     57  N   UNL A   1      44.965  30.284  28.259  1.00  0.00    -0.354 N 
ATOM     58  N   UNL A   1      42.322  30.767  29.404  1.00  0.00    -0.248 NA
ATOM     59  C   UNL A   1      40.819  32.168  30.512  1.00  0.00     0.031 C 
ATOM     60  C   UNL A   1      46.391  31.982  28.125  1.00  0.00     0.029 A 
ATOM     61  C   UNL A   1      45.110  31.637  28.520  1.00  0.00     0.049 A 
ATOM     62  H   UNL A   1      44.153  29.758  28.439  1.00  0.00     0.167 HD
ATOM     63  C   UNL A   1      42.874  32.039  29.505  1.00  0.00     0.074 A 
ATOM     64  C   UNL A   1      41.885  32.873  30.158  1.00  0.00     0.031 C 
ATOM     65  C   UNL A   1      44.096  32.472  29.112  1.00  0.00     0.034 A 
BRANCH  52  66
ATOM     66  C   UNL A   1      47.671  28.023  26.750  1.00  0.00     0.023 A 
ATOM     67  C   UNL A   1      48.733  27.760  27.639  1.00  0.00     0.012 A 
ATOM     68  C   UNL A   1      47.871  27.863  25.366  1.00  0.00     0.148 A 
ATOM     69  C   UNL A   1      49.983  27.371  27.158  1.00  0.00     0.002 A 
ATOM     70  C   UNL A   1      49.110  27.442  24.896  1.00  0.00     0.091 A 
ATOM     71  F   UNL A   1      46.857  28.142  24.535  1.00  0.00    -0.205 F 
ATOM     72  C   UNL A   1      50.167  27.203  25.788  1.00  0.00     0.022 A 
BRANCH  70  73
ATOM     73  S   UNL A   1      49.421  27.133  23.153  1.00  0.00     0.127 S 
ATOM     74  O   UNL A   1      50.817  26.700  23.174  1.00  0.00    -0.237 OA
ATOM     75  O   UNL A   1      48.460  26.072  22.844  1.00  0.00    -0.237 OA
ATOM     76  O   UNL A   1      49.160  28.396  22.477  1.00  0.00    -0.744 OA
ENDBRANCH  70  73
ENDBRANCH  52  66
BRANCH  53  77
ATOM     77  C   UNL A   1      38.753  30.091  30.686  1.00  0.00     0.023 A 
ATOM     78  C   UNL A   1      38.485  29.667  32.002  1.00  0.00     0.012 A 
ATOM     79  C   UNL A   1      37.779  30.832  29.991  1.00  0.00     0.148 A 
ATOM     80  C   UNL A   1      37.261  29.954  32.608  1.00  0.00     0.002 A 
ATOM     81  C   UNL A   1      36.580  31.158  30.618  1.00  0.00     0.091 A 
ATOM     82  F   UNL A   1      38.043  31.210  28.733  1.00  0.00    -0.205 F 
ATOM     83  C   UNL A   1      36.314  30.710  31.921  1.00  0.00     0.022 A 
BRANCH  81  84
ATOM     84  S   UNL A   1      35.367  32.234  29.845  1.00  0.00     0.127 S 
ATOM     85  O   UNL A   1      34.390  32.404  30.917  1.00  0.00    -0.237 OA
ATOM     86  O   UNL A   1      36.159  33.427  29.540  1.00  0.00    -0.237 OA
ATOM     87  O   UNL A   1      34.909  31.510  28.667  1.00  0.00    -0.744 OA
ENDBRANCH  81  84
ENDBRANCH  53  77
BRANCH  65  88
ATOM     88  C   UNL A   1      44.439  33.917  29.360  1.00  0.00     0.023 A 
ATOM     89  C   UNL A   1      45.032  34.286  30.583  1.00  0.00     0.012 A 
ATOM     90  C   UNL A   1      44.242  34.893  28.365  1.00  0.00     0.148 A 
ATOM     91  C   UNL A   1      45.401  35.609  30.823  1.00  0.00     0.002 A 
ATOM     92  C   UNL A   1      44.648  36.205  28.597  1.00  0.00     0.091 A 
ATOM     93  F   UNL A   1      43.653  34.532  27.215  1.00  0.00    -0.205 F 
ATOM     94  C   UNL A   1      45.219  36.565  29.826  1.00  0.00     0.022 A 
BRANCH  92  95
ATOM     95  S   UNL A   1      44.521  37.469  27.325  1.00  0.00     0.127 S 
ATOM     96  O   UNL A   1      43.152  37.282  26.850  1.00  0.00    -0.237 OA
ATOM     97  O   UNL A   1      44.741  38.705  28.079  1.00  0.00    -0.237 OA
ATOM     98  O   UNL A   1      45.575  37.162  26.367  1.00  0.00    -0.744 OA
ENDBRANCH  92  95
ENDBRANCH  65  88
ENDBRANCH  39  40
ENDBRANCH  31  34
ENDBRANCH  29  30
ENDBRANCH  28  29
ENDBRANCH  27  28
ENDBRANCH   1  27
TORSDOF 19
ENDMDL
