MODEL 1
REMARK VINA RESULT:      -9.6      0.000      0.000
REMARK SMILES CC1=C(CC(=O)NCCCCCCNC(=O)c2ccc(-c3c4nc(c(-c5cccc(S(=O)(=O)[O-])c5F)c5ccc([nH]5)c(-c5cccc(S(=O)(=O)[O-])c5F)c5nc(c(-c6cccc(S(=O)(=O)[O-])c6F)c6ccc3[nH]6)C=C5)C=C4)cc2)c2cc(F)ccc2/C1=C\c1cccc(OCc2ccccc2)c1
REMARK SMILES IDX 9 1 8 2 7 3 5 4 6 5 4 7 3 8 1 9 2 10 87 11 80 12 86 13 88 14
REMARK SMILES IDX 81 15 85 16 82 17 84 18 83 19 89 20 90 21 102 22 91 23 93 24
REMARK SMILES IDX 92 25 94 26 95 27 96 28 97 29 101 30 98 31 100 32 99 33
REMARK SMILES IDX 10 34 11 35 12 36 13 37 14 38 15 39 16 41 17 42 18 43 79 44
REMARK SMILES IDX 19 45 78 46 20 47 21 48 22 49 72 50 23 51 77 52 71 53 73 54
REMARK SMILES IDX 24 55 76 56 70 57 69 58 25 60 57 61 37 62 56 63 38 64 41 65
REMARK SMILES IDX 55 66 74 67 39 68 40 69 54 71 75 72 42 73 26 74 27 75 35 76
REMARK SMILES IDX 28 77 30 78 36 79 29 80 31 81 32 82 33 83 34 84 58 85 59 86
REMARK SMILES IDX 67 87 60 88 62 89 68 90 61 91 63 92 64 93 65 94 66 95 43 96
REMARK SMILES IDX 44 97 52 98 45 99 47 100 53 101 46 102 48 103 49 104 50 105
REMARK SMILES IDX 51 106
REMARK H PARENT 7 6 14 40 73 59 41 70
REMARK Flexibility Score: inf
ROOT
ATOM      1  C   UNL A   1      34.500  33.322  31.845  1.00  0.00     0.021 C 
ENDROOT
BRANCH   1   2
ATOM      2  C   UNL A   1      34.295  34.548  30.953  1.00  0.00     0.116 C 
BRANCH   2   3
ATOM      3  N   UNL A   1      33.225  34.341  29.997  1.00  0.00    -0.356 N 
ATOM      4  C   UNL A   1      33.292  34.246  28.638  1.00  0.00     0.224 C 
ATOM      5  O   UNL A   1      32.237  34.127  28.008  1.00  0.00    -0.275 OA
ATOM      6  H   UNL A   1      32.324  34.257  30.382  1.00  0.00     0.163 HD
BRANCH   4   7
ATOM      7  C   UNL A   1      34.641  34.243  27.922  1.00  0.00     0.136 C 
BRANCH   7   8
ATOM      8  C   UNL A   1      35.529  33.104  28.305  1.00  0.00    -0.027 C 
ATOM      9  C   UNL A   1      34.163  31.145  27.418  1.00  0.00     0.045 C 
ATOM     10  C   UNL A   1      35.312  31.778  28.137  1.00  0.00    -0.039 C 
ATOM     11  C   UNL A   1      36.421  31.022  28.732  1.00  0.00    -0.014 C 
ATOM     12  C   UNL A   1      36.853  33.269  28.927  1.00  0.00    -0.011 A 
ATOM     13  C   UNL A   1      37.428  32.007  29.165  1.00  0.00    -0.010 A 
ATOM     14  C   UNL A   1      36.440  29.685  28.875  1.00  0.00     0.017 C 
ATOM     15  C   UNL A   1      37.545  34.431  29.245  1.00  0.00     0.048 A 
ATOM     16  C   UNL A   1      38.709  31.897  29.692  1.00  0.00     0.012 A 
ATOM     17  C   UNL A   1      38.816  34.310  29.800  1.00  0.00     0.123 A 
ATOM     18  C   UNL A   1      39.402  33.062  30.020  1.00  0.00     0.040 A 
ATOM     19  F   UNL A   1      39.502  35.416  30.119  1.00  0.00    -0.207 F 
BRANCH  14  20
ATOM     20  C   UNL A   1      37.529  28.897  29.449  1.00  0.00    -0.021 A 
ATOM     21  C   UNL A   1      37.558  28.575  30.810  1.00  0.00     0.008 A 
ATOM     22  C   UNL A   1      38.560  28.472  28.605  1.00  0.00     0.054 A 
ATOM     23  C   UNL A   1      38.642  27.870  31.331  1.00  0.00     0.004 A 
ATOM     24  C   UNL A   1      39.619  27.723  29.115  1.00  0.00     0.120 A 
ATOM     25  C   UNL A   1      39.672  27.456  30.486  1.00  0.00     0.046 A 
BRANCH  24  26
ATOM     26  O   UNL A   1      40.613  27.140  28.378  1.00  0.00    -0.489 OA
BRANCH  26  27
ATOM     27  C   UNL A   1      41.852  26.827  29.026  1.00  0.00     0.265 C 
BRANCH  27  28
ATOM     28  C   UNL A   1      42.641  25.656  28.464  1.00  0.00    -0.011 A 
ATOM     29  C   UNL A   1      43.788  25.806  27.670  1.00  0.00     0.007 A 
ATOM     30  C   UNL A   1      42.219  24.353  28.775  1.00  0.00     0.007 A 
ATOM     31  C   UNL A   1      44.514  24.696  27.236  1.00  0.00     0.000 A 
ATOM     32  C   UNL A   1      42.933  23.240  28.321  1.00  0.00     0.000 A 
ATOM     33  C   UNL A   1      44.086  23.413  27.561  1.00  0.00     0.000 A 
ENDBRANCH  27  28
ENDBRANCH  26  27
ENDBRANCH  24  26
ENDBRANCH  14  20
ENDBRANCH   7   8
ENDBRANCH   4   7
ENDBRANCH   2   3
ENDBRANCH   1   2
BRANCH   1  34
ATOM     34  C   UNL A   1      35.913  33.198  32.430  1.00  0.00     0.002 C 
BRANCH  34  35
ATOM     35  C   UNL A   1      36.368  34.366  33.314  1.00  0.00     0.002 C 
BRANCH  35  36
ATOM     36  C   UNL A   1      37.880  34.591  33.379  1.00  0.00     0.021 C 
BRANCH  36  37
ATOM     37  C   UNL A   1      38.435  34.807  34.783  1.00  0.00     0.116 C 
BRANCH  37  38
ATOM     38  N   UNL A   1      37.859  33.894  35.760  1.00  0.00    -0.352 N 
ATOM     39  C   UNL A   1      38.090  32.548  35.928  1.00  0.00     0.251 C 
ATOM     40  H   UNL A   1      37.216  34.296  36.387  1.00  0.00     0.163 HD
ATOM     41  O   UNL A   1      37.404  31.895  36.708  1.00  0.00    -0.269 OA
BRANCH  39  42
ATOM     42  C   UNL A   1      39.149  31.892  35.131  1.00  0.00     0.039 A 
ATOM     43  C   UNL A   1      40.488  31.991  35.518  1.00  0.00     0.014 A 
ATOM     44  C   UNL A   1      38.802  31.221  33.956  1.00  0.00     0.014 A 
ATOM     45  C   UNL A   1      41.487  31.570  34.647  1.00  0.00     0.010 A 
ATOM     46  C   UNL A   1      39.808  30.735  33.116  1.00  0.00     0.010 A 
ATOM     47  C   UNL A   1      41.159  30.957  33.427  1.00  0.00    -0.014 A 
BRANCH  47  48
ATOM     48  C   UNL A   1      42.239  30.583  32.478  1.00  0.00     0.031 A 
ATOM     49  C   UNL A   1      42.856  29.208  32.519  1.00  0.00     0.074 A 
ATOM     50  C   UNL A   1      42.642  31.470  31.548  1.00  0.00     0.049 A 
ATOM     51  N   UNL A   1      43.805  28.711  31.768  1.00  0.00    -0.248 NA
ATOM     52  C   UNL A   1      42.345  28.268  33.532  1.00  0.00     0.031 C 
ATOM     53  C   UNL A   1      42.130  32.834  31.408  1.00  0.00     0.029 A 
ATOM     54  N   UNL A   1      43.567  31.357  30.540  1.00  0.00    -0.354 N 
ATOM     55  C   UNL A   1      44.035  27.426  32.241  1.00  0.00     0.074 A 
ATOM     56  C   UNL A   1      43.125  27.212  33.345  1.00  0.00     0.031 C 
ATOM     57  C   UNL A   1      42.720  33.419  30.355  1.00  0.00     0.029 A 
ATOM     58  C   UNL A   1      43.686  32.491  29.774  1.00  0.00     0.049 A 
ATOM     59  H   UNL A   1      44.094  30.540  30.381  1.00  0.00     0.167 HD
ATOM     60  C   UNL A   1      44.908  26.498  31.783  1.00  0.00     0.034 A 
ATOM     61  C   UNL A   1      44.488  32.763  28.727  1.00  0.00     0.034 A 
ATOM     62  C   UNL A   1      45.768  26.682  30.648  1.00  0.00     0.049 A 
ATOM     63  C   UNL A   1      45.441  31.713  28.234  1.00  0.00     0.074 A 
ATOM     64  C   UNL A   1      46.650  25.776  30.084  1.00  0.00     0.029 A 
ATOM     65  N   UNL A   1      45.851  27.842  29.897  1.00  0.00    -0.354 N 
ATOM     66  N   UNL A   1      45.591  30.481  28.653  1.00  0.00    -0.248 NA
ATOM     67  C   UNL A   1      46.328  32.086  27.123  1.00  0.00     0.031 C 
ATOM     68  C   UNL A   1      47.267  26.389  28.990  1.00  0.00     0.029 A 
ATOM     69  C   UNL A   1      46.769  27.676  28.875  1.00  0.00     0.049 A 
ATOM     70  H   UNL A   1      45.334  28.664  30.065  1.00  0.00     0.167 HD
ATOM     71  C   UNL A   1      46.581  29.926  27.853  1.00  0.00     0.074 A 
ATOM     72  C   UNL A   1      46.981  30.949  26.910  1.00  0.00     0.031 C 
ATOM     73  C   UNL A   1      47.124  28.688  27.913  1.00  0.00     0.034 A 
BRANCH  60  74
ATOM     74  C   UNL A   1      44.946  25.161  32.472  1.00  0.00     0.023 A 
ATOM     75  C   UNL A   1      44.118  24.124  32.001  1.00  0.00     0.012 A 
ATOM     76  C   UNL A   1      45.869  24.902  33.503  1.00  0.00     0.148 A 
ATOM     77  C   UNL A   1      44.202  22.846  32.551  1.00  0.00     0.002 A 
ATOM     78  C   UNL A   1      45.966  23.618  34.029  1.00  0.00     0.091 A 
ATOM     79  F   UNL A   1      46.637  25.910  33.941  1.00  0.00    -0.205 F 
ATOM     80  C   UNL A   1      45.131  22.592  33.557  1.00  0.00     0.022 A 
BRANCH  78  81
ATOM     81  S   UNL A   1      47.163  23.168  35.290  1.00  0.00     0.127 S 
ATOM     82  O   UNL A   1      46.754  24.027  36.402  1.00  0.00    -0.237 OA
ATOM     83  O   UNL A   1      46.886  21.746  35.482  1.00  0.00    -0.237 OA
ATOM     84  O   UNL A   1      48.473  23.467  34.728  1.00  0.00    -0.744 OA
ENDBRANCH  78  81
ENDBRANCH  60  74
BRANCH  61  85
ATOM     85  C   UNL A   1      44.375  34.083  28.051  1.00  0.00     0.023 A 
ATOM     86  C   UNL A   1      43.408  34.258  27.045  1.00  0.00     0.012 A 
ATOM     87  C   UNL A   1      45.158  35.180  28.459  1.00  0.00     0.148 A 
ATOM     88  C   UNL A   1      43.223  35.507  26.452  1.00  0.00     0.002 A 
ATOM     89  C   UNL A   1      44.937  36.431  27.896  1.00  0.00     0.091 A 
ATOM     90  F   UNL A   1      46.078  34.981  29.413  1.00  0.00    -0.205 F 
ATOM     91  C   UNL A   1      43.978  36.595  26.885  1.00  0.00     0.022 A 
BRANCH  89  92
ATOM     92  S   UNL A   1      45.777  37.911  28.471  1.00  0.00     0.127 S 
ATOM     93  O   UNL A   1      45.116  38.150  29.752  1.00  0.00    -0.237 OA
ATOM     94  O   UNL A   1      47.162  37.449  28.567  1.00  0.00    -0.237 OA
ATOM     95  O   UNL A   1      45.546  38.920  27.446  1.00  0.00    -0.744 OA
ENDBRANCH  89  92
ENDBRANCH  61  85
BRANCH  73  96
ATOM     96  C   UNL A   1      48.216  28.349  26.938  1.00  0.00     0.023 A 
ATOM     97  C   UNL A   1      49.553  28.357  27.380  1.00  0.00     0.012 A 
ATOM     98  C   UNL A   1      47.914  27.907  25.637  1.00  0.00     0.148 A 
ATOM     99  C   UNL A   1      50.578  27.934  26.535  1.00  0.00     0.002 A 
ATOM    100  C   UNL A   1      48.936  27.458  24.810  1.00  0.00     0.091 A 
ATOM    101  F   UNL A   1      46.632  27.920  25.242  1.00  0.00    -0.205 F 
ATOM    102  C   UNL A   1      50.268  27.475  25.257  1.00  0.00     0.022 A 
BRANCH 100 103
ATOM    103  S   UNL A   1      48.632  26.780  23.176  1.00  0.00     0.127 S 
ATOM    104  O   UNL A   1      48.006  25.498  23.497  1.00  0.00    -0.237 OA
ATOM    105  O   UNL A   1      47.729  27.772  22.591  1.00  0.00    -0.237 OA
ATOM    106  O   UNL A   1      49.934  26.688  22.528  1.00  0.00    -0.744 OA
ENDBRANCH 100 103
ENDBRANCH  73  96
ENDBRANCH  47  48
ENDBRANCH  39  42
ENDBRANCH  37  38
ENDBRANCH  36  37
ENDBRANCH  35  36
ENDBRANCH  34  35
ENDBRANCH   1  34
TORSDOF 21
ENDMDL
MODEL 2
REMARK VINA RESULT:      -9.4      5.648      8.489
REMARK SMILES CC1=C(CC(=O)NCCCCCCNC(=O)c2ccc(-c3c4nc(c(-c5cccc(S(=O)(=O)[O-])c5F)c5ccc([nH]5)c(-c5cccc(S(=O)(=O)[O-])c5F)c5nc(c(-c6cccc(S(=O)(=O)[O-])c6F)c6ccc3[nH]6)C=C5)C=C4)cc2)c2cc(F)ccc2/C1=C\c1cccc(OCc2ccccc2)c1
REMARK SMILES IDX 9 1 8 2 7 3 5 4 6 5 4 7 3 8 1 9 2 10 87 11 80 12 86 13 88 14
REMARK SMILES IDX 81 15 85 16 82 17 84 18 83 19 89 20 90 21 102 22 91 23 93 24
REMARK SMILES IDX 92 25 94 26 95 27 96 28 97 29 101 30 98 31 100 32 99 33
REMARK SMILES IDX 10 34 11 35 12 36 13 37 14 38 15 39 16 41 17 42 18 43 79 44
REMARK SMILES IDX 19 45 78 46 20 47 21 48 22 49 72 50 23 51 77 52 71 53 73 54
REMARK SMILES IDX 24 55 76 56 70 57 69 58 25 60 57 61 37 62 56 63 38 64 41 65
REMARK SMILES IDX 55 66 74 67 39 68 40 69 54 71 75 72 42 73 26 74 27 75 35 76
REMARK SMILES IDX 28 77 30 78 36 79 29 80 31 81 32 82 33 83 34 84 58 85 59 86
REMARK SMILES IDX 67 87 60 88 62 89 68 90 61 91 63 92 64 93 65 94 66 95 43 96
REMARK SMILES IDX 44 97 52 98 45 99 47 100 53 101 46 102 48 103 49 104 50 105
REMARK SMILES IDX 51 106
REMARK H PARENT 7 6 14 40 73 59 41 70
REMARK Flexibility Score: inf
ROOT
ATOM      1  C   UNL A   1      31.400  30.345  26.144  1.00  0.00     0.021 C 
ENDROOT
BRANCH   1   2
ATOM      2  C   UNL A   1      31.134  30.576  24.656  1.00  0.00     0.116 C 
BRANCH   2   3
ATOM      3  N   UNL A   1      29.728  30.818  24.395  1.00  0.00    -0.356 N 
ATOM      4  C   UNL A   1      28.944  30.337  23.389  1.00  0.00     0.224 C 
ATOM      5  O   UNL A   1      27.774  30.724  23.325  1.00  0.00    -0.275 OA
ATOM      6  H   UNL A   1      29.276  31.414  25.035  1.00  0.00     0.163 HD
BRANCH   4   7
ATOM      7  C   UNL A   1      29.490  29.312  22.397  1.00  0.00     0.136 C 
BRANCH   7   8
ATOM      8  C   UNL A   1      30.048  28.084  23.039  1.00  0.00    -0.027 C 
ATOM      9  C   UNL A   1      27.905  27.005  23.896  1.00  0.00     0.045 C 
ATOM     10  C   UNL A   1      29.386  27.119  23.722  1.00  0.00    -0.039 C 
ATOM     11  C   UNL A   1      30.349  26.139  24.240  1.00  0.00    -0.014 C 
ATOM     12  C   UNL A   1      31.471  27.709  22.995  1.00  0.00    -0.011 A 
ATOM     13  C   UNL A   1      31.669  26.505  23.696  1.00  0.00    -0.010 A 
ATOM     14  C   UNL A   1      30.039  25.144  25.090  1.00  0.00     0.017 C 
ATOM     15  C   UNL A   1      32.535  28.342  22.366  1.00  0.00     0.048 A 
ATOM     16  C   UNL A   1      32.923  25.909  23.747  1.00  0.00     0.012 A 
ATOM     17  C   UNL A   1      33.794  27.752  22.448  1.00  0.00     0.123 A 
ATOM     18  C   UNL A   1      33.995  26.547  23.123  1.00  0.00     0.040 A 
ATOM     19  F   UNL A   1      34.838  28.346  21.852  1.00  0.00    -0.207 F 
BRANCH  14  20
ATOM     20  C   UNL A   1      30.964  24.144  25.617  1.00  0.00    -0.021 A 
ATOM     21  C   UNL A   1      31.820  24.432  26.685  1.00  0.00     0.008 A 
ATOM     22  C   UNL A   1      30.987  22.878  25.022  1.00  0.00     0.054 A 
ATOM     23  C   UNL A   1      32.728  23.470  27.123  1.00  0.00     0.004 A 
ATOM     24  C   UNL A   1      31.859  21.898  25.492  1.00  0.00     0.120 A 
ATOM     25  C   UNL A   1      32.752  22.212  26.521  1.00  0.00     0.046 A 
BRANCH  24  26
ATOM     26  O   UNL A   1      31.886  20.592  25.088  1.00  0.00    -0.489 OA
BRANCH  26  27
ATOM     27  C   UNL A   1      33.085  20.085  24.489  1.00  0.00     0.265 C 
BRANCH  27  28
ATOM     28  C   UNL A   1      33.387  18.612  24.705  1.00  0.00    -0.011 A 
ATOM     29  C   UNL A   1      34.600  18.009  24.338  1.00  0.00     0.007 A 
ATOM     30  C   UNL A   1      32.414  17.812  25.327  1.00  0.00     0.007 A 
ATOM     31  C   UNL A   1      34.852  16.665  24.622  1.00  0.00     0.000 A 
ATOM     32  C   UNL A   1      32.657  16.461  25.590  1.00  0.00     0.000 A 
ATOM     33  C   UNL A   1      33.880  15.891  25.247  1.00  0.00     0.000 A 
ENDBRANCH  27  28
ENDBRANCH  26  27
ENDBRANCH  24  26
ENDBRANCH  14  20
ENDBRANCH   7   8
ENDBRANCH   4   7
ENDBRANCH   2   3
ENDBRANCH   1   2
BRANCH   1  34
ATOM     34  C   UNL A   1      31.712  28.887  26.509  1.00  0.00     0.002 C 
BRANCH  34  35
ATOM     35  C   UNL A   1      33.196  28.501  26.479  1.00  0.00     0.002 C 
BRANCH  35  36
ATOM     36  C   UNL A   1      34.045  29.066  27.619  1.00  0.00     0.021 C 
BRANCH  36  37
ATOM     37  C   UNL A   1      34.566  30.481  27.388  1.00  0.00     0.116 C 
BRANCH  37  38
ATOM     38  N   UNL A   1      34.389  31.339  28.551  1.00  0.00    -0.352 N 
ATOM     39  C   UNL A   1      35.192  31.470  29.661  1.00  0.00     0.251 C 
ATOM     40  H   UNL A   1      33.584  31.906  28.540  1.00  0.00     0.163 HD
ATOM     41  O   UNL A   1      34.815  32.132  30.622  1.00  0.00    -0.269 OA
BRANCH  39  42
ATOM     42  C   UNL A   1      36.495  30.772  29.695  1.00  0.00     0.039 A 
ATOM     43  C   UNL A   1      36.630  29.562  30.381  1.00  0.00     0.014 A 
ATOM     44  C   UNL A   1      37.603  31.363  29.084  1.00  0.00     0.014 A 
ATOM     45  C   UNL A   1      37.898  29.035  30.600  1.00  0.00     0.010 A 
ATOM     46  C   UNL A   1      38.868  30.791  29.245  1.00  0.00     0.010 A 
ATOM     47  C   UNL A   1      39.033  29.654  30.052  1.00  0.00    -0.014 A 
BRANCH  47  48
ATOM     48  C   UNL A   1      40.384  29.118  30.360  1.00  0.00     0.031 A 
ATOM     49  C   UNL A   1      40.960  27.980  29.556  1.00  0.00     0.074 A 
ATOM     50  C   UNL A   1      41.114  29.681  31.342  1.00  0.00     0.049 A 
ATOM     51  N   UNL A   1      42.121  27.390  29.685  1.00  0.00    -0.248 NA
ATOM     52  C   UNL A   1      40.131  27.433  28.468  1.00  0.00     0.031 C 
ATOM     53  C   UNL A   1      40.667  30.782  32.197  1.00  0.00     0.029 A 
ATOM     54  N   UNL A   1      42.386  29.413  31.781  1.00  0.00    -0.354 N 
ATOM     55  C   UNL A   1      42.144  26.380  28.731  1.00  0.00     0.074 A 
ATOM     56  C   UNL A   1      40.883  26.434  28.025  1.00  0.00     0.031 C 
ATOM     57  C   UNL A   1      41.660  31.119  33.033  1.00  0.00     0.029 A 
ATOM     58  C   UNL A   1      42.795  30.229  32.809  1.00  0.00     0.049 A 
ATOM     59  H   UNL A   1      42.951  28.704  31.397  1.00  0.00     0.167 HD
ATOM     60  C   UNL A   1      43.135  25.500  28.452  1.00  0.00     0.034 A 
ATOM     61  C   UNL A   1      43.950  30.256  33.502  1.00  0.00     0.034 A 
ATOM     62  C   UNL A   1      44.414  25.483  29.106  1.00  0.00     0.049 A 
ATOM     63  C   UNL A   1      45.035  29.275  33.166  1.00  0.00     0.074 A 
ATOM     64  C   UNL A   1      45.495  24.657  28.853  1.00  0.00     0.029 A 
ATOM     65  N   UNL A   1      44.788  26.331  30.135  1.00  0.00    -0.354 N 
ATOM     66  N   UNL A   1      45.062  28.375  32.214  1.00  0.00    -0.248 NA
ATOM     67  C   UNL A   1      46.251  29.317  33.992  1.00  0.00     0.031 C 
ATOM     68  C   UNL A   1      46.527  25.007  29.729  1.00  0.00     0.029 A 
ATOM     69  C   UNL A   1      46.085  26.049  30.527  1.00  0.00     0.049 A 
ATOM     70  H   UNL A   1      44.218  27.030  30.529  1.00  0.00     0.167 HD
ATOM     71  C   UNL A   1      46.297  27.749  32.318  1.00  0.00     0.074 A 
ATOM     72  C   UNL A   1      47.000  28.386  33.412  1.00  0.00     0.031 C 
ATOM     73  C   UNL A   1      46.791  26.722  31.587  1.00  0.00     0.034 A 
BRANCH  60  74
ATOM     74  C   UNL A   1      42.909  24.507  27.346  1.00  0.00     0.023 A 
ATOM     75  C   UNL A   1      43.395  24.797  26.056  1.00  0.00     0.012 A 
ATOM     76  C   UNL A   1      42.320  23.254  27.603  1.00  0.00     0.148 A 
ATOM     77  C   UNL A   1      43.292  23.855  25.033  1.00  0.00     0.002 A 
ATOM     78  C   UNL A   1      42.244  22.311  26.585  1.00  0.00     0.091 A 
ATOM     79  F   UNL A   1      41.856  23.009  28.837  1.00  0.00    -0.205 F 
ATOM     80  C   UNL A   1      42.726  22.611  25.300  1.00  0.00     0.022 A 
BRANCH  78  81
ATOM     81  S   UNL A   1      41.583  20.659  26.833  1.00  0.00     0.127 S 
ATOM     82  O   UNL A   1      40.189  20.950  27.170  1.00  0.00    -0.237 OA
ATOM     83  O   UNL A   1      41.779  20.050  25.519  1.00  0.00    -0.237 OA
ATOM     84  O   UNL A   1      42.368  20.067  27.907  1.00  0.00    -0.744 OA
ENDBRANCH  78  81
ENDBRANCH  60  74
BRANCH  61  85
ATOM     85  C   UNL A   1      44.140  31.290  34.553  1.00  0.00     0.023 A 
ATOM     86  C   UNL A   1      44.756  32.508  34.213  1.00  0.00     0.012 A 
ATOM     87  C   UNL A   1      43.641  31.106  35.856  1.00  0.00     0.148 A 
ATOM     88  C   UNL A   1      44.874  33.529  35.157  1.00  0.00     0.002 A 
ATOM     89  C   UNL A   1      43.721  32.143  36.777  1.00  0.00     0.091 A 
ATOM     90  F   UNL A   1      43.068  29.932  36.154  1.00  0.00    -0.205 F 
ATOM     91  C   UNL A   1      44.346  33.352  36.434  1.00  0.00     0.022 A 
BRANCH  89  92
ATOM     92  S   UNL A   1      42.966  32.050  38.405  1.00  0.00     0.127 S 
ATOM     93  O   UNL A   1      43.000  33.448  38.829  1.00  0.00    -0.237 OA
ATOM     94  O   UNL A   1      41.634  31.533  38.086  1.00  0.00    -0.237 OA
ATOM     95  O   UNL A   1      43.799  31.138  39.177  1.00  0.00    -0.744 OA
ENDBRANCH  89  92
ENDBRANCH  61  85
BRANCH  73  96
ATOM     96  C   UNL A   1      48.160  26.206  31.931  1.00  0.00     0.023 A 
ATOM     97  C   UNL A   1      49.286  26.817  31.347  1.00  0.00     0.012 A 
ATOM     98  C   UNL A   1      48.334  25.213  32.912  1.00  0.00     0.148 A 
ATOM     99  C   UNL A   1      50.571  26.441  31.734  1.00  0.00     0.002 A 
ATOM    100  C   UNL A   1      49.617  24.864  33.314  1.00  0.00     0.091 A 
ATOM    101  F   UNL A   1      47.242  24.642  33.442  1.00  0.00    -0.205 F 
ATOM    102  C   UNL A   1      50.736  25.474  32.723  1.00  0.00     0.022 A 
BRANCH 100 103
ATOM    103  S   UNL A   1      49.932  23.685  34.631  1.00  0.00     0.127 S 
ATOM    104  O   UNL A   1      51.385  23.776  34.772  1.00  0.00    -0.237 OA
ATOM    105  O   UNL A   1      49.173  24.254  35.746  1.00  0.00    -0.237 OA
ATOM    106  O   UNL A   1      49.435  22.401  34.152  1.00  0.00    -0.744 OA
ENDBRANCH 100 103
ENDBRANCH  73  96
ENDBRANCH  47  48
ENDBRANCH  39  42
ENDBRANCH  37  38
ENDBRANCH  36  37
ENDBRANCH  35  36
ENDBRANCH  34  35
ENDBRANCH   1  34
TORSDOF 21
ENDMDL
MODEL 3
REMARK VINA RESULT:      -9.3      5.774     10.030
REMARK SMILES CC1=C(CC(=O)NCCCCCCNC(=O)c2ccc(-c3c4nc(c(-c5cccc(S(=O)(=O)[O-])c5F)c5ccc([nH]5)c(-c5cccc(S(=O)(=O)[O-])c5F)c5nc(c(-c6cccc(S(=O)(=O)[O-])c6F)c6ccc3[nH]6)C=C5)C=C4)cc2)c2cc(F)ccc2/C1=C\c1cccc(OCc2ccccc2)c1
REMARK SMILES IDX 9 1 8 2 7 3 5 4 6 5 4 7 3 8 1 9 2 10 87 11 80 12 86 13 88 14
REMARK SMILES IDX 81 15 85 16 82 17 84 18 83 19 89 20 90 21 102 22 91 23 93 24
REMARK SMILES IDX 92 25 94 26 95 27 96 28 97 29 101 30 98 31 100 32 99 33
REMARK SMILES IDX 10 34 11 35 12 36 13 37 14 38 15 39 16 41 17 42 18 43 79 44
REMARK SMILES IDX 19 45 78 46 20 47 21 48 22 49 72 50 23 51 77 52 71 53 73 54
REMARK SMILES IDX 24 55 76 56 70 57 69 58 25 60 57 61 37 62 56 63 38 64 41 65
REMARK SMILES IDX 55 66 74 67 39 68 40 69 54 71 75 72 42 73 26 74 27 75 35 76
REMARK SMILES IDX 28 77 30 78 36 79 29 80 31 81 32 82 33 83 34 84 58 85 59 86
REMARK SMILES IDX 67 87 60 88 62 89 68 90 61 91 63 92 64 93 65 94 66 95 43 96
REMARK SMILES IDX 44 97 52 98 45 99 47 100 53 101 46 102 48 103 49 104 50 105
REMARK SMILES IDX 51 106
REMARK H PARENT 7 6 14 40 73 59 41 70
REMARK Flexibility Score: inf
ROOT
ATOM      1  C   UNL A   1      31.051  30.554  25.762  1.00  0.00     0.021 C 
ENDROOT
BRANCH   1   2
ATOM      2  C   UNL A   1      30.693  31.153  24.401  1.00  0.00     0.116 C 
BRANCH   2   3
ATOM      3  N   UNL A   1      29.264  31.114  24.159  1.00  0.00    -0.356 N 
ATOM      4  C   UNL A   1      28.572  30.443  23.195  1.00  0.00     0.224 C 
ATOM      5  O   UNL A   1      27.350  30.600  23.136  1.00  0.00    -0.275 OA
ATOM      6  H   UNL A   1      28.716  31.649  24.777  1.00  0.00     0.163 HD
BRANCH   4   7
ATOM      7  C   UNL A   1      29.290  29.486  22.245  1.00  0.00     0.136 C 
BRANCH   7   8
ATOM      8  C   UNL A   1      29.849  28.272  22.913  1.00  0.00    -0.027 C 
ATOM      9  C   UNL A   1      27.700  27.165  23.717  1.00  0.00     0.045 C 
ATOM     10  C   UNL A   1      29.183  27.302  23.585  1.00  0.00    -0.039 C 
ATOM     11  C   UNL A   1      30.147  26.342  24.139  1.00  0.00    -0.014 C 
ATOM     12  C   UNL A   1      31.279  27.921  22.913  1.00  0.00    -0.011 A 
ATOM     13  C   UNL A   1      31.476  26.725  23.630  1.00  0.00    -0.010 A 
ATOM     14  C   UNL A   1      29.829  25.350  24.988  1.00  0.00     0.017 C 
ATOM     15  C   UNL A   1      32.350  28.566  22.309  1.00  0.00     0.048 A 
ATOM     16  C   UNL A   1      32.737  26.151  23.722  1.00  0.00     0.012 A 
ATOM     17  C   UNL A   1      33.616  27.998  22.433  1.00  0.00     0.123 A 
ATOM     18  C   UNL A   1      33.817  26.802  23.123  1.00  0.00     0.040 A 
ATOM     19  F   UNL A   1      34.666  28.604  21.862  1.00  0.00    -0.207 F 
BRANCH  14  20
ATOM     20  C   UNL A   1      30.755  24.369  25.550  1.00  0.00    -0.021 A 
ATOM     21  C   UNL A   1      31.519  24.654  26.686  1.00  0.00     0.008 A 
ATOM     22  C   UNL A   1      30.872  23.126  24.919  1.00  0.00     0.054 A 
ATOM     23  C   UNL A   1      32.433  23.715  27.159  1.00  0.00     0.004 A 
ATOM     24  C   UNL A   1      31.748  22.166  25.422  1.00  0.00     0.120 A 
ATOM     25  C   UNL A   1      32.552  22.479  26.521  1.00  0.00     0.046 A 
BRANCH  24  26
ATOM     26  O   UNL A   1      31.858  20.876  24.980  1.00  0.00    -0.489 OA
BRANCH  26  27
ATOM     27  C   UNL A   1      33.003  20.110  25.379  1.00  0.00     0.265 C 
BRANCH  27  28
ATOM     28  C   UNL A   1      33.323  18.877  24.551  1.00  0.00    -0.011 A 
ATOM     29  C   UNL A   1      34.279  17.921  24.925  1.00  0.00     0.007 A 
ATOM     30  C   UNL A   1      32.607  18.665  23.360  1.00  0.00     0.007 A 
ATOM     31  C   UNL A   1      34.485  16.771  24.161  1.00  0.00     0.000 A 
ATOM     32  C   UNL A   1      32.830  17.525  22.583  1.00  0.00     0.000 A 
ATOM     33  C   UNL A   1      33.761  16.573  22.990  1.00  0.00     0.000 A 
ENDBRANCH  27  28
ENDBRANCH  26  27
ENDBRANCH  24  26
ENDBRANCH  14  20
ENDBRANCH   7   8
ENDBRANCH   4   7
ENDBRANCH   2   3
ENDBRANCH   1   2
BRANCH   1  34
ATOM     34  C   UNL A   1      32.343  29.726  25.764  1.00  0.00     0.002 C 
BRANCH  34  35
ATOM     35  C   UNL A   1      33.444  30.219  26.713  1.00  0.00     0.002 C 
BRANCH  35  36
ATOM     36  C   UNL A   1      33.060  31.400  27.606  1.00  0.00     0.021 C 
BRANCH  36  37
ATOM     37  C   UNL A   1      33.877  32.667  27.378  1.00  0.00     0.116 C 
BRANCH  37  38
ATOM     38  N   UNL A   1      33.204  33.863  27.862  1.00  0.00    -0.352 N 
ATOM     39  C   UNL A   1      33.386  34.541  29.046  1.00  0.00     0.251 C 
ATOM     40  H   UNL A   1      32.524  34.240  27.259  1.00  0.00     0.163 HD
ATOM     41  O   UNL A   1      32.625  35.448  29.364  1.00  0.00    -0.269 OA
BRANCH  39  42
ATOM     42  C   UNL A   1      34.487  34.136  29.947  1.00  0.00     0.039 A 
ATOM     43  C   UNL A   1      35.791  34.578  29.711  1.00  0.00     0.014 A 
ATOM     44  C   UNL A   1      34.220  33.260  31.002  1.00  0.00     0.014 A 
ATOM     45  C   UNL A   1      36.847  34.014  30.420  1.00  0.00     0.010 A 
ATOM     46  C   UNL A   1      35.277  32.749  31.760  1.00  0.00     0.010 A 
ATOM     47  C   UNL A   1      36.603  33.078  31.438  1.00  0.00    -0.014 A 
BRANCH  47  48
ATOM     48  C   UNL A   1      37.747  32.431  32.131  1.00  0.00     0.031 A 
ATOM     49  C   UNL A   1      38.533  31.335  31.459  1.00  0.00     0.074 A 
ATOM     50  C   UNL A   1      38.107  32.858  33.357  1.00  0.00     0.049 A 
ATOM     51  N   UNL A   1      39.559  30.662  31.915  1.00  0.00    -0.248 NA
ATOM     52  C   UNL A   1      38.117  30.939  30.102  1.00  0.00     0.031 C 
ATOM     53  C   UNL A   1      37.424  33.906  34.117  1.00  0.00     0.029 A 
ATOM     54  N   UNL A   1      39.139  32.473  34.175  1.00  0.00    -0.354 N 
ATOM     55  C   UNL A   1      39.882  29.741  30.926  1.00  0.00     0.074 A 
ATOM     56  C   UNL A   1      38.946  29.938  29.841  1.00  0.00     0.031 C 
ATOM     57  C   UNL A   1      38.075  34.104  35.273  1.00  0.00     0.029 A 
ATOM     58  C   UNL A   1      39.190  33.167  35.360  1.00  0.00     0.049 A 
ATOM     59  H   UNL A   1      39.782  31.766  33.935  1.00  0.00     0.167 HD
ATOM     60  C   UNL A   1      40.882  28.828  30.913  1.00  0.00     0.034 A 
ATOM     61  C   UNL A   1      40.033  33.060  36.404  1.00  0.00     0.034 A 
ATOM     62  C   UNL A   1      41.853  28.672  31.960  1.00  0.00     0.049 A 
ATOM     63  C   UNL A   1      41.138  32.045  36.360  1.00  0.00     0.074 A 
ATOM     64  C   UNL A   1      42.931  27.805  32.008  1.00  0.00     0.029 A 
ATOM     65  N   UNL A   1      41.873  29.401  33.137  1.00  0.00    -0.354 N 
ATOM     66  N   UNL A   1      41.467  31.233  35.386  1.00  0.00    -0.248 NA
ATOM     67  C   UNL A   1      41.993  31.937  37.551  1.00  0.00     0.031 C 
ATOM     68  C   UNL A   1      43.604  28.010  33.215  1.00  0.00     0.029 A 
ATOM     69  C   UNL A   1      42.944  29.004  33.918  1.00  0.00     0.049 A 
ATOM     70  H   UNL A   1      41.221  30.098  33.383  1.00  0.00     0.167 HD
ATOM     71  C   UNL A   1      42.570  30.523  35.841  1.00  0.00     0.074 A 
ATOM     72  C   UNL A   1      42.869  31.015  37.169  1.00  0.00     0.031 C 
ATOM     73  C   UNL A   1      43.257  29.535  35.220  1.00  0.00     0.034 A 
BRANCH  60  74
ATOM     74  C   UNL A   1      41.025  27.953  29.699  1.00  0.00     0.023 A 
ATOM     75  C   UNL A   1      40.217  26.805  29.583  1.00  0.00     0.012 A 
ATOM     76  C   UNL A   1      41.872  28.319  28.635  1.00  0.00     0.148 A 
ATOM     77  C   UNL A   1      40.252  26.028  28.427  1.00  0.00     0.002 A 
ATOM     78  C   UNL A   1      41.883  27.554  27.474  1.00  0.00     0.091 A 
ATOM     79  F   UNL A   1      42.640  29.409  28.777  1.00  0.00    -0.205 F 
ATOM     80  C   UNL A   1      41.077  26.407  27.371  1.00  0.00     0.022 A 
BRANCH  78  81
ATOM     81  S   UNL A   1      42.868  27.981  26.034  1.00  0.00     0.127 S 
ATOM     82  O   UNL A   1      42.181  27.236  24.978  1.00  0.00    -0.237 OA
ATOM     83  O   UNL A   1      42.699  29.432  25.966  1.00  0.00    -0.237 OA
ATOM     84  O   UNL A   1      44.223  27.535  26.325  1.00  0.00    -0.744 OA
ENDBRANCH  78  81
ENDBRANCH  60  74
BRANCH  61  85
ATOM     85  C   UNL A   1      39.877  33.983  37.560  1.00  0.00     0.023 A 
ATOM     86  C   UNL A   1      40.347  35.305  37.449  1.00  0.00     0.012 A 
ATOM     87  C   UNL A   1      39.195  33.585  38.725  1.00  0.00     0.148 A 
ATOM     88  C   UNL A   1      40.140  36.217  38.484  1.00  0.00     0.002 A 
ATOM     89  C   UNL A   1      38.953  34.511  39.732  1.00  0.00     0.091 A 
ATOM     90  F   UNL A   1      38.767  32.318  38.806  1.00  0.00    -0.205 F 
ATOM     91  C   UNL A   1      39.434  35.825  39.618  1.00  0.00     0.022 A 
BRANCH  89  92
ATOM     92  S   UNL A   1      37.952  34.131  41.175  1.00  0.00     0.127 S 
ATOM     93  O   UNL A   1      38.860  33.292  41.954  1.00  0.00    -0.237 OA
ATOM     94  O   UNL A   1      37.714  35.464  41.730  1.00  0.00    -0.237 OA
ATOM     95  O   UNL A   1      36.761  33.466  40.666  1.00  0.00    -0.744 OA
ENDBRANCH  89  92
ENDBRANCH  61  85
BRANCH  73  96
ATOM     96  C   UNL A   1      44.406  28.905  35.955  1.00  0.00     0.023 A 
ATOM     97  C   UNL A   1      45.692  29.461  35.817  1.00  0.00     0.012 A 
ATOM     98  C   UNL A   1      44.194  27.855  36.867  1.00  0.00     0.148 A 
ATOM     99  C   UNL A   1      46.756  28.974  36.576  1.00  0.00     0.002 A 
ATOM    100  C   UNL A   1      45.251  27.394  37.642  1.00  0.00     0.091 A 
ATOM    101  F   UNL A   1      42.960  27.339  36.969  1.00  0.00    -0.205 F 
ATOM    102  C   UNL A   1      46.533  27.950  37.494  1.00  0.00     0.022 A 
BRANCH 100 103
ATOM    103  S   UNL A   1      45.050  26.132  38.903  1.00  0.00     0.127 S 
ATOM    104  O   UNL A   1      44.689  24.964  38.100  1.00  0.00    -0.237 OA
ATOM    105  O   UNL A   1      46.385  26.074  39.500  1.00  0.00    -0.237 OA
ATOM    106  O   UNL A   1      44.006  26.616  39.796  1.00  0.00    -0.744 OA
ENDBRANCH 100 103
ENDBRANCH  73  96
ENDBRANCH  47  48
ENDBRANCH  39  42
ENDBRANCH  37  38
ENDBRANCH  36  37
ENDBRANCH  35  36
ENDBRANCH  34  35
ENDBRANCH   1  34
TORSDOF 21
ENDMDL
