MODEL 1
REMARK VINA RESULT:     -11.8      0.000      0.000
REMARK SMILES CCn1cc(CNC(=O)[C@H]2CC=CC[C@H]2C(=O)NCCCCCCNC(=O)c2ccc(-c3c4nc(c(-c5cccc(S(=O)(=O)[O-])c5F)c5ccc([nH]5)c(-c5cccc(S(=O)(=O)[O-])c5F)c5nc(c(-c6cccc(S(=O)(=O)[O-])c6F)c6ccc3[nH]6)C=C5)C=C4)cc2)cn1
REMARK SMILES IDX 21 1 20 2 19 3 18 4 16 5 17 6 15 8 10 9 11 10 12 11 14 12
REMARK SMILES IDX 13 13 8 14 7 15 9 17 6 18 5 19 3 20 4 21 92 22 91 23 2 24
REMARK SMILES IDX 1 25 22 26 23 27 24 28 25 29 26 30 27 32 28 33 29 34 90 35
REMARK SMILES IDX 30 36 89 37 31 38 32 39 33 40 83 41 34 42 88 43 82 44 84 45
REMARK SMILES IDX 35 46 87 47 81 48 80 49 36 51 68 52 48 53 67 54 49 55 52 56
REMARK SMILES IDX 66 57 85 58 50 59 51 60 65 62 86 63 53 64 37 65 38 66 46 67
REMARK SMILES IDX 39 68 41 69 47 70 40 71 42 72 43 73 44 74 45 75 69 76 70 77
REMARK SMILES IDX 78 78 71 79 73 80 79 81 72 82 74 83 75 84 76 85 77 86 54 87
REMARK SMILES IDX 55 88 63 89 56 90 58 91 64 92 57 93 59 94 60 95 61 96 62 97
REMARK H PARENT 18 7 7 16 25 31 84 50 52 61
REMARK Flexibility Score: inf
ROOT
ATOM      1  C   UNL A   1      31.794  27.597  26.064  1.00  0.00     0.002 C 
ENDROOT
BRANCH   1   2
ATOM      2  C   UNL A   1      31.207  28.105  24.747  1.00  0.00     0.021 C 
BRANCH   2   3
ATOM      3  C   UNL A   1      31.725  27.375  23.509  1.00  0.00     0.116 C 
BRANCH   3   4
ATOM      4  N   UNL A   1      31.048  26.123  23.296  1.00  0.00    -0.356 N 
ATOM      5  C   UNL A   1      31.432  24.848  23.533  1.00  0.00     0.224 C 
ATOM      6  O   UNL A   1      30.569  23.985  23.325  1.00  0.00    -0.275 OA
ATOM      7  H   UNL A   1      30.147  26.209  22.910  1.00  0.00     0.163 HD
BRANCH   5   8
ATOM      8  C   UNL A   1      32.771  24.433  24.149  1.00  0.00     0.095 C 
ATOM      9  C   UNL A   1      32.892  24.085  25.646  1.00  0.00     0.095 C 
ATOM     10  C   UNL A   1      34.376  24.010  26.065  1.00  0.00     0.041 C 
ATOM     11  C   UNL A   1      35.269  23.356  25.048  1.00  0.00    -0.030 C 
ATOM     12  C   UNL A   1      33.612  23.599  23.179  1.00  0.00     0.041 C 
ATOM     13  C   UNL A   1      34.929  23.164  23.765  1.00  0.00    -0.030 C 
BRANCH   9  14
ATOM     14  C   UNL A   1      32.125  22.983  26.381  1.00  0.00     0.224 C 
ATOM     15  N   UNL A   1      32.007  21.690  25.996  1.00  0.00    -0.352 N 
ATOM     16  H   UNL A   1      31.824  21.070  26.739  1.00  0.00     0.163 HD
ATOM     17  O   UNL A   1      31.610  23.243  27.474  1.00  0.00    -0.275 OA
BRANCH  15  18
ATOM     18  C   UNL A   1      32.098  21.046  24.716  1.00  0.00     0.155 C 
BRANCH  18  19
ATOM     19  C   UNL A   1      32.948  19.843  24.725  1.00  0.00     0.009 A 
ATOM     20  N   UNL A   1      33.608  17.745  24.798  1.00  0.00    -0.273 N 
ATOM     21  C   UNL A   1      32.500  18.538  24.809  1.00  0.00     0.114 A 
ATOM     22  N   UNL A   1      34.747  18.441  24.657  1.00  0.00    -0.181 NA
ATOM     23  C   UNL A   1      34.350  19.716  24.639  1.00  0.00     0.140 A 
BRANCH  20  24
ATOM     24  C   UNL A   1      33.679  16.313  25.010  1.00  0.00     0.141 C 
ATOM     25  C   UNL A   1      35.080  15.779  25.264  1.00  0.00     0.029 C 
ENDBRANCH  20  24
ENDBRANCH  18  19
ENDBRANCH  15  18
ENDBRANCH   9  14
ENDBRANCH   5   8
ENDBRANCH   3   4
ENDBRANCH   2   3
ENDBRANCH   1   2
BRANCH   1  26
ATOM     26  C   UNL A   1      33.149  28.205  26.456  1.00  0.00     0.002 C 
BRANCH  26  27
ATOM     27  C   UNL A   1      33.129  29.670  26.919  1.00  0.00     0.021 C 
BRANCH  27  28
ATOM     28  C   UNL A   1      34.464  30.147  27.473  1.00  0.00     0.116 C 
BRANCH  28  29
ATOM     29  N   UNL A   1      34.300  31.300  28.359  1.00  0.00    -0.352 N 
ATOM     30  C   UNL A   1      35.014  31.624  29.496  1.00  0.00     0.251 C 
ATOM     31  H   UNL A   1      33.584  31.928  28.113  1.00  0.00     0.163 HD
ATOM     32  O   UNL A   1      34.567  32.411  30.310  1.00  0.00    -0.269 OA
BRANCH  30  33
ATOM     33  C   UNL A   1      36.333  30.999  29.695  1.00  0.00     0.039 A 
ATOM     34  C   UNL A   1      36.444  29.632  29.968  1.00  0.00     0.014 A 
ATOM     35  C   UNL A   1      37.465  31.804  29.587  1.00  0.00     0.014 A 
ATOM     36  C   UNL A   1      37.714  29.070  30.055  1.00  0.00     0.010 A 
ATOM     37  C   UNL A   1      38.706  31.229  29.530  1.00  0.00     0.010 A 
ATOM     38  C   UNL A   1      38.838  29.875  29.816  1.00  0.00    -0.014 A 
BRANCH  38  39
ATOM     39  C   UNL A   1      40.169  29.291  29.740  1.00  0.00     0.031 A 
ATOM     40  C   UNL A   1      40.814  29.067  31.061  1.00  0.00     0.074 A 
ATOM     41  C   UNL A   1      40.676  28.784  28.595  1.00  0.00     0.049 A 
ATOM     42  N   UNL A   1      41.804  29.723  31.569  1.00  0.00    -0.248 NA
ATOM     43  C   UNL A   1      40.187  28.121  31.997  1.00  0.00     0.031 C 
ATOM     44  C   UNL A   1      40.003  28.630  27.298  1.00  0.00     0.029 A 
ATOM     45  N   UNL A   1      41.862  28.151  28.392  1.00  0.00    -0.354 N 
ATOM     46  C   UNL A   1      42.089  29.094  32.778  1.00  0.00     0.074 A 
ATOM     47  C   UNL A   1      40.937  28.289  33.088  1.00  0.00     0.031 C 
ATOM     48  C   UNL A   1      40.675  27.730  26.548  1.00  0.00     0.029 A 
ATOM     49  C   UNL A   1      41.906  27.384  27.231  1.00  0.00     0.049 A 
ATOM     50  H   UNL A   1      42.623  28.230  29.011  1.00  0.00     0.167 HD
ATOM     51  C   UNL A   1      43.356  29.079  33.280  1.00  0.00     0.034 A 
ATOM     52  C   UNL A   1      42.867  26.491  26.890  1.00  0.00     0.034 A 
ATOM     53  C   UNL A   1      44.209  29.989  32.556  1.00  0.00     0.049 A 
ATOM     54  C   UNL A   1      44.070  26.828  27.685  1.00  0.00     0.074 A 
ATOM     55  C   UNL A   1      44.209  31.345  32.299  1.00  0.00     0.029 A 
ATOM     56  N   UNL A   1      45.049  29.423  31.626  1.00  0.00    -0.354 N 
ATOM     57  N   UNL A   1      44.745  27.933  27.532  1.00  0.00    -0.248 NA
ATOM     58  C   UNL A   1      44.267  26.142  28.951  1.00  0.00     0.031 C 
ATOM     59  C   UNL A   1      44.667  31.459  30.952  1.00  0.00     0.029 A 
ATOM     60  C   UNL A   1      44.990  30.182  30.490  1.00  0.00     0.049 A 
ATOM     61  H   UNL A   1      45.595  28.614  31.755  1.00  0.00     0.167 HD
ATOM     62  C   UNL A   1      45.056  28.322  28.828  1.00  0.00     0.074 A 
ATOM     63  C   UNL A   1      44.847  27.126  29.643  1.00  0.00     0.031 C 
ATOM     64  C   UNL A   1      45.158  29.644  29.157  1.00  0.00     0.034 A 
BRANCH  51  65
ATOM     65  C   UNL A   1      43.963  27.988  34.139  1.00  0.00     0.023 A 
ATOM     66  C   UNL A   1      44.658  26.957  33.461  1.00  0.00     0.012 A 
ATOM     67  C   UNL A   1      43.654  27.760  35.497  1.00  0.00     0.148 A 
ATOM     68  C   UNL A   1      44.960  25.740  34.079  1.00  0.00     0.002 A 
ATOM     69  C   UNL A   1      44.025  26.577  36.130  1.00  0.00     0.091 A 
ATOM     70  F   UNL A   1      42.884  28.622  36.165  1.00  0.00    -0.205 F 
ATOM     71  C   UNL A   1      44.645  25.549  35.416  1.00  0.00     0.022 A 
BRANCH  69  72
ATOM     72  S   UNL A   1      43.689  26.288  37.873  1.00  0.00     0.127 S 
ATOM     73  O   UNL A   1      44.330  27.446  38.489  1.00  0.00    -0.237 OA
ATOM     74  O   UNL A   1      42.226  26.303  37.896  1.00  0.00    -0.237 OA
ATOM     75  O   UNL A   1      44.280  24.992  38.178  1.00  0.00    -0.744 OA
ENDBRANCH  69  72
ENDBRANCH  51  65
BRANCH  52  76
ATOM     76  C   UNL A   1      42.771  25.231  26.118  1.00  0.00     0.023 A 
ATOM     77  C   UNL A   1      43.737  24.945  25.132  1.00  0.00     0.012 A 
ATOM     78  C   UNL A   1      41.925  24.184  26.545  1.00  0.00     0.148 A 
ATOM     79  C   UNL A   1      43.885  23.651  24.619  1.00  0.00     0.002 A 
ATOM     80  C   UNL A   1      42.073  22.898  26.029  1.00  0.00     0.091 A 
ATOM     81  F   UNL A   1      41.042  24.427  27.523  1.00  0.00    -0.205 F 
ATOM     82  C   UNL A   1      43.061  22.626  25.075  1.00  0.00     0.022 A 
BRANCH  80  83
ATOM     83  S   UNL A   1      41.070  21.516  26.591  1.00  0.00     0.127 S 
ATOM     84  O   UNL A   1      39.781  21.801  25.959  1.00  0.00    -0.237 OA
ATOM     85  O   UNL A   1      41.788  20.375  26.029  1.00  0.00    -0.237 OA
ATOM     86  O   UNL A   1      41.056  21.605  28.045  1.00  0.00    -0.744 OA
ENDBRANCH  80  83
ENDBRANCH  52  76
BRANCH  64  87
ATOM     87  C   UNL A   1      45.208  30.654  28.039  1.00  0.00     0.023 A 
ATOM     88  C   UNL A   1      44.054  31.122  27.378  1.00  0.00     0.012 A 
ATOM     89  C   UNL A   1      46.441  31.273  27.773  1.00  0.00     0.148 A 
ATOM     90  C   UNL A   1      44.132  32.172  26.458  1.00  0.00     0.002 A 
ATOM     91  C   UNL A   1      46.507  32.347  26.897  1.00  0.00     0.091 A 
ATOM     92  F   UNL A   1      47.529  30.816  28.412  1.00  0.00    -0.205 F 
ATOM     93  C   UNL A   1      45.357  32.794  26.228  1.00  0.00     0.022 A 
BRANCH  91  94
ATOM     94  S   UNL A   1      48.029  33.267  26.663  1.00  0.00     0.127 S 
ATOM     95  O   UNL A   1      48.213  33.890  27.971  1.00  0.00    -0.237 OA
ATOM     96  O   UNL A   1      48.990  32.209  26.348  1.00  0.00    -0.237 OA
ATOM     97  O   UNL A   1      47.777  34.186  25.560  1.00  0.00    -0.744 OA
ENDBRANCH  91  94
ENDBRANCH  64  87
ENDBRANCH  38  39
ENDBRANCH  30  33
ENDBRANCH  28  29
ENDBRANCH  27  28
ENDBRANCH  26  27
ENDBRANCH   1  26
TORSDOF 20
ENDMDL
MODEL 2
REMARK VINA RESULT:     -11.6      2.075      3.680
REMARK SMILES CCn1cc(CNC(=O)[C@H]2CC=CC[C@H]2C(=O)NCCCCCCNC(=O)c2ccc(-c3c4nc(c(-c5cccc(S(=O)(=O)[O-])c5F)c5ccc([nH]5)c(-c5cccc(S(=O)(=O)[O-])c5F)c5nc(c(-c6cccc(S(=O)(=O)[O-])c6F)c6ccc3[nH]6)C=C5)C=C4)cc2)cn1
REMARK SMILES IDX 21 1 20 2 19 3 18 4 16 5 17 6 15 8 10 9 11 10 12 11 14 12
REMARK SMILES IDX 13 13 8 14 7 15 9 17 6 18 5 19 3 20 4 21 92 22 91 23 2 24
REMARK SMILES IDX 1 25 22 26 23 27 24 28 25 29 26 30 27 32 28 33 29 34 90 35
REMARK SMILES IDX 30 36 89 37 31 38 32 39 33 40 83 41 34 42 88 43 82 44 84 45
REMARK SMILES IDX 35 46 87 47 81 48 80 49 36 51 68 52 48 53 67 54 49 55 52 56
REMARK SMILES IDX 66 57 85 58 50 59 51 60 65 62 86 63 53 64 37 65 38 66 46 67
REMARK SMILES IDX 39 68 41 69 47 70 40 71 42 72 43 73 44 74 45 75 69 76 70 77
REMARK SMILES IDX 78 78 71 79 73 80 79 81 72 82 74 83 75 84 76 85 77 86 54 87
REMARK SMILES IDX 55 88 63 89 56 90 58 91 64 92 57 93 59 94 60 95 61 96 62 97
REMARK H PARENT 18 7 7 16 25 31 84 50 52 61
REMARK Flexibility Score: inf
ROOT
ATOM      1  C   UNL A   1      31.860  29.072  26.551  1.00  0.00     0.002 C 
ENDROOT
BRANCH   1   2
ATOM      2  C   UNL A   1      31.756  27.683  27.181  1.00  0.00     0.021 C 
BRANCH   2   3
ATOM      3  C   UNL A   1      31.397  26.573  26.194  1.00  0.00     0.116 C 
BRANCH   3   4
ATOM      4  N   UNL A   1      31.123  25.326  26.857  1.00  0.00    -0.356 N 
ATOM      5  C   UNL A   1      31.672  24.098  26.714  1.00  0.00     0.224 C 
ATOM      6  O   UNL A   1      31.274  23.240  27.514  1.00  0.00    -0.275 OA
ATOM      7  H   UNL A   1      30.411  25.374  27.534  1.00  0.00     0.163 HD
BRANCH   5   8
ATOM      8  C   UNL A   1      32.810  23.751  25.750  1.00  0.00     0.095 C 
ATOM      9  C   UNL A   1      32.536  23.057  24.401  1.00  0.00     0.095 C 
ATOM     10  C   UNL A   1      33.852  22.547  23.778  1.00  0.00     0.041 C 
ATOM     11  C   UNL A   1      35.013  23.488  23.937  1.00  0.00    -0.030 C 
ATOM     12  C   UNL A   1      33.916  24.810  25.767  1.00  0.00     0.041 C 
ATOM     13  C   UNL A   1      35.041  24.502  24.815  1.00  0.00    -0.030 C 
BRANCH   9  14
ATOM     14  C   UNL A   1      31.643  23.592  23.277  1.00  0.00     0.224 C 
ATOM     15  N   UNL A   1      32.003  24.472  22.313  1.00  0.00    -0.352 N 
ATOM     16  H   UNL A   1      31.460  24.407  21.494  1.00  0.00     0.163 HD
ATOM     17  O   UNL A   1      30.497  23.144  23.163  1.00  0.00    -0.275 OA
BRANCH  15  18
ATOM     18  C   UNL A   1      33.023  25.481  22.251  1.00  0.00     0.155 C 
BRANCH  18  19
ATOM     19  C   UNL A   1      32.504  26.848  22.438  1.00  0.00     0.009 A 
ATOM     20  N   UNL A   1      31.151  28.579  22.538  1.00  0.00    -0.273 N 
ATOM     21  C   UNL A   1      31.189  27.241  22.283  1.00  0.00     0.114 A 
ATOM     22  N   UNL A   1      32.344  29.076  22.902  1.00  0.00    -0.181 NA
ATOM     23  C   UNL A   1      33.171  28.032  22.817  1.00  0.00     0.140 A 
BRANCH  20  24
ATOM     24  C   UNL A   1      30.032  29.485  22.367  1.00  0.00     0.141 C 
ATOM     25  C   UNL A   1      29.640  30.250  23.622  1.00  0.00     0.029 C 
ENDBRANCH  20  24
ENDBRANCH  18  19
ENDBRANCH  15  18
ENDBRANCH   9  14
ENDBRANCH   5   8
ENDBRANCH   3   4
ENDBRANCH   2   3
ENDBRANCH   1   2
BRANCH   1  26
ATOM     26  C   UNL A   1      33.291  29.568  26.291  1.00  0.00     0.002 C 
BRANCH  26  27
ATOM     27  C   UNL A   1      34.150  29.845  27.534  1.00  0.00     0.021 C 
BRANCH  27  28
ATOM     28  C   UNL A   1      34.864  31.189  27.488  1.00  0.00     0.116 C 
BRANCH  28  29
ATOM     29  N   UNL A   1      34.556  32.005  28.662  1.00  0.00    -0.352 N 
ATOM     30  C   UNL A   1      35.093  31.931  29.932  1.00  0.00     0.251 C 
ATOM     31  H   UNL A   1      33.872  32.701  28.529  1.00  0.00     0.163 HD
ATOM     32  O   UNL A   1      34.521  32.432  30.883  1.00  0.00    -0.269 OA
BRANCH  30  33
ATOM     33  C   UNL A   1      36.380  31.233  30.107  1.00  0.00     0.039 A 
ATOM     34  C   UNL A   1      36.421  29.863  30.380  1.00  0.00     0.014 A 
ATOM     35  C   UNL A   1      37.551  31.975  29.976  1.00  0.00     0.014 A 
ATOM     36  C   UNL A   1      37.659  29.232  30.442  1.00  0.00     0.010 A 
ATOM     37  C   UNL A   1      38.758  31.332  29.895  1.00  0.00     0.010 A 
ATOM     38  C   UNL A   1      38.821  29.973  30.180  1.00  0.00    -0.014 A 
BRANCH  38  39
ATOM     39  C   UNL A   1      40.116  29.317  30.080  1.00  0.00     0.031 A 
ATOM     40  C   UNL A   1      40.766  29.045  31.389  1.00  0.00     0.074 A 
ATOM     41  C   UNL A   1      40.577  28.794  28.923  1.00  0.00     0.049 A 
ATOM     42  N   UNL A   1      41.798  29.640  31.888  1.00  0.00    -0.248 NA
ATOM     43  C   UNL A   1      40.100  28.127  32.326  1.00  0.00     0.031 C 
ATOM     44  C   UNL A   1      39.878  28.690  27.635  1.00  0.00     0.029 A 
ATOM     45  N   UNL A   1      41.723  28.098  28.697  1.00  0.00    -0.354 N 
ATOM     46  C   UNL A   1      42.065  28.985  33.087  1.00  0.00     0.074 A 
ATOM     47  C   UNL A   1      40.875  28.242  33.407  1.00  0.00     0.031 C 
ATOM     48  C   UNL A   1      40.488  27.762  26.867  1.00  0.00     0.029 A 
ATOM     49  C   UNL A   1      41.707  27.341  27.529  1.00  0.00     0.049 A 
ATOM     50  H   UNL A   1      42.496  28.128  29.305  1.00  0.00     0.167 HD
ATOM     51  C   UNL A   1      43.337  28.894  33.570  1.00  0.00     0.034 A 
ATOM     52  C   UNL A   1      42.612  26.399  27.165  1.00  0.00     0.034 A 
ATOM     53  C   UNL A   1      44.229  29.763  32.841  1.00  0.00     0.049 A 
ATOM     54  C   UNL A   1      43.843  26.661  27.946  1.00  0.00     0.074 A 
ATOM     55  C   UNL A   1      44.300  31.119  32.596  1.00  0.00     0.029 A 
ATOM     56  N   UNL A   1      45.022  29.159  31.894  1.00  0.00    -0.354 N 
ATOM     57  N   UNL A   1      44.576  27.728  27.792  1.00  0.00    -0.248 NA
ATOM     58  C   UNL A   1      44.020  25.953  29.202  1.00  0.00     0.031 C 
ATOM     59  C   UNL A   1      44.744  31.220  31.244  1.00  0.00     0.029 A 
ATOM     60  C   UNL A   1      44.989  29.931  30.766  1.00  0.00     0.049 A 
ATOM     61  H   UNL A   1      45.523  28.320  32.008  1.00  0.00     0.167 HD
ATOM     62  C   UNL A   1      44.927  28.087  29.087  1.00  0.00     0.074 A 
ATOM     63  C   UNL A   1      44.663  26.896  29.895  1.00  0.00     0.031 C 
ATOM     64  C   UNL A   1      45.107  29.398  29.426  1.00  0.00     0.034 A 
BRANCH  51  65
ATOM     65  C   UNL A   1      43.894  27.763  34.410  1.00  0.00     0.023 A 
ATOM     66  C   UNL A   1      44.607  28.129  35.577  1.00  0.00     0.012 A 
ATOM     67  C   UNL A   1      44.011  26.421  33.988  1.00  0.00     0.148 A 
ATOM     68  C   UNL A   1      45.449  27.231  36.240  1.00  0.00     0.002 A 
ATOM     69  C   UNL A   1      44.790  25.510  34.695  1.00  0.00     0.091 A 
ATOM     70  F   UNL A   1      43.482  26.034  32.825  1.00  0.00    -0.205 F 
ATOM     71  C   UNL A   1      45.540  25.918  35.800  1.00  0.00     0.022 A 
BRANCH  69  72
ATOM     72  S   UNL A   1      44.911  23.784  34.205  1.00  0.00     0.127 S 
ATOM     73  O   UNL A   1      43.799  23.193  34.943  1.00  0.00    -0.237 OA
ATOM     74  O   UNL A   1      44.718  23.876  32.757  1.00  0.00    -0.237 OA
ATOM     75  O   UNL A   1      46.245  23.355  34.605  1.00  0.00    -0.744 OA
ENDBRANCH  69  72
ENDBRANCH  51  65
BRANCH  52  76
ATOM     76  C   UNL A   1      42.435  25.154  26.384  1.00  0.00     0.023 A 
ATOM     77  C   UNL A   1      43.370  24.823  25.383  1.00  0.00     0.012 A 
ATOM     78  C   UNL A   1      41.536  24.152  26.813  1.00  0.00     0.148 A 
ATOM     79  C   UNL A   1      43.438  23.528  24.856  1.00  0.00     0.002 A 
ATOM     80  C   UNL A   1      41.605  22.865  26.284  1.00  0.00     0.091 A 
ATOM     81  F   UNL A   1      40.682  24.436  27.805  1.00  0.00    -0.205 F 
ATOM     82  C   UNL A   1      42.563  22.546  25.315  1.00  0.00     0.022 A 
BRANCH  80  83
ATOM     83  S   UNL A   1      40.533  21.537  26.847  1.00  0.00     0.127 S 
ATOM     84  O   UNL A   1      39.213  22.017  26.433  1.00  0.00    -0.237 OA
ATOM     85  O   UNL A   1      41.037  20.399  26.084  1.00  0.00    -0.237 OA
ATOM     86  O   UNL A   1      40.717  21.466  28.290  1.00  0.00    -0.744 OA
ENDBRANCH  80  83
ENDBRANCH  52  76
BRANCH  64  87
ATOM     87  C   UNL A   1      45.198  30.414  28.316  1.00  0.00     0.023 A 
ATOM     88  C   UNL A   1      44.062  30.964  27.688  1.00  0.00     0.012 A 
ATOM     89  C   UNL A   1      46.462  30.954  28.026  1.00  0.00     0.148 A 
ATOM     90  C   UNL A   1      44.188  32.016  26.775  1.00  0.00     0.002 A 
ATOM     91  C   UNL A   1      46.578  32.030  27.158  1.00  0.00     0.091 A 
ATOM     92  F   UNL A   1      47.532  30.419  28.634  1.00  0.00    -0.205 F 
ATOM     93  C   UNL A   1      45.445  32.559  26.522  1.00  0.00     0.022 A 
BRANCH  91  94
ATOM     94  S   UNL A   1      48.152  32.850  26.896  1.00  0.00     0.127 S 
ATOM     95  O   UNL A   1      49.007  31.742  26.478  1.00  0.00    -0.237 OA
ATOM     96  O   UNL A   1      47.834  33.812  25.839  1.00  0.00    -0.237 OA
ATOM     97  O   UNL A   1      48.500  33.466  28.171  1.00  0.00    -0.744 OA
ENDBRANCH  91  94
ENDBRANCH  64  87
ENDBRANCH  38  39
ENDBRANCH  30  33
ENDBRANCH  28  29
ENDBRANCH  27  28
ENDBRANCH  26  27
ENDBRANCH   1  26
TORSDOF 20
ENDMDL
MODEL 3
REMARK VINA RESULT:     -11.6      1.394      1.866
REMARK SMILES CCn1cc(CNC(=O)[C@H]2CC=CC[C@H]2C(=O)NCCCCCCNC(=O)c2ccc(-c3c4nc(c(-c5cccc(S(=O)(=O)[O-])c5F)c5ccc([nH]5)c(-c5cccc(S(=O)(=O)[O-])c5F)c5nc(c(-c6cccc(S(=O)(=O)[O-])c6F)c6ccc3[nH]6)C=C5)C=C4)cc2)cn1
REMARK SMILES IDX 21 1 20 2 19 3 18 4 16 5 17 6 15 8 10 9 11 10 12 11 14 12
REMARK SMILES IDX 13 13 8 14 7 15 9 17 6 18 5 19 3 20 4 21 92 22 91 23 2 24
REMARK SMILES IDX 1 25 22 26 23 27 24 28 25 29 26 30 27 32 28 33 29 34 90 35
REMARK SMILES IDX 30 36 89 37 31 38 32 39 33 40 83 41 34 42 88 43 82 44 84 45
REMARK SMILES IDX 35 46 87 47 81 48 80 49 36 51 68 52 48 53 67 54 49 55 52 56
REMARK SMILES IDX 66 57 85 58 50 59 51 60 65 62 86 63 53 64 37 65 38 66 46 67
REMARK SMILES IDX 39 68 41 69 47 70 40 71 42 72 43 73 44 74 45 75 69 76 70 77
REMARK SMILES IDX 78 78 71 79 73 80 79 81 72 82 74 83 75 84 76 85 77 86 54 87
REMARK SMILES IDX 55 88 63 89 56 90 58 91 64 92 57 93 59 94 60 95 61 96 62 97
REMARK H PARENT 18 7 7 16 25 31 84 50 52 61
REMARK Flexibility Score: inf
ROOT
ATOM      1  C   UNL A   1      34.651  28.923  26.977  1.00  0.00     0.002 C 
ENDROOT
BRANCH   1   2
ATOM      2  C   UNL A   1      33.421  28.819  26.076  1.00  0.00     0.021 C 
BRANCH   2   3
ATOM      3  C   UNL A   1      32.527  27.616  26.373  1.00  0.00     0.116 C 
BRANCH   3   4
ATOM      4  N   UNL A   1      32.083  26.961  25.171  1.00  0.00    -0.356 N 
ATOM      5  C   UNL A   1      32.430  25.777  24.617  1.00  0.00     0.224 C 
ATOM      6  O   UNL A   1      31.787  25.450  23.611  1.00  0.00    -0.275 OA
ATOM      7  H   UNL A   1      31.408  27.464  24.661  1.00  0.00     0.163 HD
BRANCH   5   8
ATOM      8  C   UNL A   1      33.438  24.790  25.213  1.00  0.00     0.095 C 
ATOM      9  C   UNL A   1      33.091  23.938  26.450  1.00  0.00     0.095 C 
ATOM     10  C   UNL A   1      34.361  23.275  27.024  1.00  0.00     0.041 C 
ATOM     11  C   UNL A   1      35.313  22.764  25.979  1.00  0.00    -0.030 C 
ATOM     12  C   UNL A   1      34.288  24.118  24.132  1.00  0.00     0.041 C 
ATOM     13  C   UNL A   1      35.278  23.130  24.690  1.00  0.00    -0.030 C 
BRANCH   9  14
ATOM     14  C   UNL A   1      31.932  22.942  26.563  1.00  0.00     0.224 C 
ATOM     15  N   UNL A   1      31.809  21.771  25.895  1.00  0.00    -0.352 N 
ATOM     16  H   UNL A   1      31.236  21.113  26.352  1.00  0.00     0.163 HD
ATOM     17  O   UNL A   1      31.039  23.160  27.389  1.00  0.00    -0.275 OA
BRANCH  15  18
ATOM     18  C   UNL A   1      32.351  21.302  24.651  1.00  0.00     0.155 C 
BRANCH  18  19
ATOM     19  C   UNL A   1      32.472  19.835  24.583  1.00  0.00     0.009 A 
ATOM     20  N   UNL A   1      32.847  17.736  25.127  1.00  0.00    -0.273 N 
ATOM     21  C   UNL A   1      32.857  19.007  25.620  1.00  0.00     0.114 A 
ATOM     22  N   UNL A   1      32.430  17.673  23.853  1.00  0.00    -0.181 NA
ATOM     23  C   UNL A   1      32.226  18.948  23.513  1.00  0.00     0.140 A 
BRANCH  20  24
ATOM     24  C   UNL A   1      33.311  16.527  25.778  1.00  0.00     0.141 C 
ATOM     25  C   UNL A   1      32.863  15.236  25.109  1.00  0.00     0.029 C 
ENDBRANCH  20  24
ENDBRANCH  18  19
ENDBRANCH  15  18
ENDBRANCH   9  14
ENDBRANCH   5   8
ENDBRANCH   3   4
ENDBRANCH   2   3
ENDBRANCH   1   2
BRANCH   1  26
ATOM     26  C   UNL A   1      35.141  30.352  27.255  1.00  0.00     0.002 C 
BRANCH  26  27
ATOM     27  C   UNL A   1      34.099  31.332  27.817  1.00  0.00     0.021 C 
BRANCH  27  28
ATOM     28  C   UNL A   1      34.699  32.653  28.278  1.00  0.00     0.116 C 
BRANCH  28  29
ATOM     29  N   UNL A   1      34.566  32.829  29.725  1.00  0.00    -0.352 N 
ATOM     30  C   UNL A   1      35.251  32.190  30.739  1.00  0.00     0.251 C 
ATOM     31  H   UNL A   1      33.899  33.493  30.013  1.00  0.00     0.163 HD
ATOM     32  O   UNL A   1      34.817  32.184  31.878  1.00  0.00    -0.269 OA
BRANCH  30  33
ATOM     33  C   UNL A   1      36.521  31.519  30.412  1.00  0.00     0.039 A 
ATOM     34  C   UNL A   1      37.653  32.260  30.061  1.00  0.00     0.014 A 
ATOM     35  C   UNL A   1      36.565  30.128  30.479  1.00  0.00     0.014 A 
ATOM     36  C   UNL A   1      38.853  31.587  29.853  1.00  0.00     0.010 A 
ATOM     37  C   UNL A   1      37.772  29.482  30.416  1.00  0.00     0.010 A 
ATOM     38  C   UNL A   1      38.905  30.199  30.052  1.00  0.00    -0.014 A 
BRANCH  38  39
ATOM     39  C   UNL A   1      40.173  29.486  30.000  1.00  0.00     0.031 A 
ATOM     40  C   UNL A   1      40.765  29.197  31.333  1.00  0.00     0.074 A 
ATOM     41  C   UNL A   1      40.650  28.933  28.864  1.00  0.00     0.049 A 
ATOM     42  N   UNL A   1      41.805  29.751  31.862  1.00  0.00    -0.248 NA
ATOM     43  C   UNL A   1      40.028  28.316  32.253  1.00  0.00     0.031 C 
ATOM     44  C   UNL A   1      39.990  28.850  27.553  1.00  0.00     0.029 A 
ATOM     45  N   UNL A   1      41.771  28.186  28.682  1.00  0.00    -0.354 N 
ATOM     46  C   UNL A   1      42.002  29.094  33.075  1.00  0.00     0.074 A 
ATOM     47  C   UNL A   1      40.770  28.407  33.359  1.00  0.00     0.031 C 
ATOM     48  C   UNL A   1      40.585  27.889  26.813  1.00  0.00     0.029 A 
ATOM     49  C   UNL A   1      41.761  27.421  27.519  1.00  0.00     0.049 A 
ATOM     50  H   UNL A   1      42.523  28.188  29.316  1.00  0.00     0.167 HD
ATOM     51  C   UNL A   1      43.251  28.952  33.602  1.00  0.00     0.034 A 
ATOM     52  C   UNL A   1      42.636  26.438  27.194  1.00  0.00     0.034 A 
ATOM     53  C   UNL A   1      44.205  29.775  32.898  1.00  0.00     0.049 A 
ATOM     54  C   UNL A   1      43.850  26.651  28.014  1.00  0.00     0.074 A 
ATOM     55  C   UNL A   1      44.345  31.124  32.646  1.00  0.00     0.029 A 
ATOM     56  N   UNL A   1      45.002  29.129  31.983  1.00  0.00    -0.354 N 
ATOM     57  N   UNL A   1      44.634  27.684  27.878  1.00  0.00    -0.248 NA
ATOM     58  C   UNL A   1      43.952  25.947  29.281  1.00  0.00     0.031 C 
ATOM     59  C   UNL A   1      44.838  31.194  31.309  1.00  0.00     0.029 A 
ATOM     60  C   UNL A   1      45.042  29.892  30.849  1.00  0.00     0.049 A 
ATOM     61  H   UNL A   1      45.462  28.270  32.120  1.00  0.00     0.167 HD
ATOM     62  C   UNL A   1      44.956  28.038  29.182  1.00  0.00     0.074 A 
ATOM     63  C   UNL A   1      44.613  26.867  29.988  1.00  0.00     0.031 C 
ATOM     64  C   UNL A   1      45.182  29.343  29.518  1.00  0.00     0.034 A 
BRANCH  51  65
ATOM     65  C   UNL A   1      43.729  27.805  34.468  1.00  0.00     0.023 A 
ATOM     66  C   UNL A   1      44.440  28.149  35.644  1.00  0.00     0.012 A 
ATOM     67  C   UNL A   1      43.779  26.452  34.067  1.00  0.00     0.148 A 
ATOM     68  C   UNL A   1      45.219  27.215  36.335  1.00  0.00     0.002 A 
ATOM     69  C   UNL A   1      44.493  25.510  34.802  1.00  0.00     0.091 A 
ATOM     70  F   UNL A   1      43.250  26.077  32.901  1.00  0.00    -0.205 F 
ATOM     71  C   UNL A   1      45.244  25.893  35.916  1.00  0.00     0.022 A 
BRANCH  69  72
ATOM     72  S   UNL A   1      44.526  23.773  34.339  1.00  0.00     0.127 S 
ATOM     73  O   UNL A   1      43.109  23.427  34.403  1.00  0.00    -0.237 OA
ATOM     74  O   UNL A   1      45.090  23.840  32.991  1.00  0.00    -0.237 OA
ATOM     75  O   UNL A   1      45.388  23.122  35.317  1.00  0.00    -0.744 OA
ENDBRANCH  69  72
ENDBRANCH  51  65
BRANCH  52  76
ATOM     76  C   UNL A   1      42.431  25.194  26.415  1.00  0.00     0.023 A 
ATOM     77  C   UNL A   1      43.367  24.831  25.427  1.00  0.00     0.012 A 
ATOM     78  C   UNL A   1      41.497  24.222  26.838  1.00  0.00     0.148 A 
ATOM     79  C   UNL A   1      43.402  23.532  24.906  1.00  0.00     0.002 A 
ATOM     80  C   UNL A   1      41.534  22.931  26.315  1.00  0.00     0.091 A 
ATOM     81  F   UNL A   1      40.640  24.536  27.818  1.00  0.00    -0.205 F 
ATOM     82  C   UNL A   1      42.493  22.580  25.359  1.00  0.00     0.022 A 
BRANCH  80  83
ATOM     83  S   UNL A   1      40.415  21.638  26.871  1.00  0.00     0.127 S 
ATOM     84  O   UNL A   1      40.706  21.582  28.304  1.00  0.00    -0.237 OA
ATOM     85  O   UNL A   1      39.111  22.202  26.532  1.00  0.00    -0.237 OA
ATOM     86  O   UNL A   1      40.800  20.441  26.136  1.00  0.00    -0.744 OA
ENDBRANCH  80  83
ENDBRANCH  52  76
BRANCH  64  87
ATOM     87  C   UNL A   1      45.355  30.344  28.405  1.00  0.00     0.023 A 
ATOM     88  C   UNL A   1      44.270  31.011  27.800  1.00  0.00     0.012 A 
ATOM     89  C   UNL A   1      46.663  30.749  28.087  1.00  0.00     0.148 A 
ATOM     90  C   UNL A   1      44.486  32.045  26.883  1.00  0.00     0.002 A 
ATOM     91  C   UNL A   1      46.872  31.808  27.215  1.00  0.00     0.091 A 
ATOM     92  F   UNL A   1      47.683  30.104  28.672  1.00  0.00    -0.205 F 
ATOM     93  C   UNL A   1      45.787  32.453  26.602  1.00  0.00     0.022 A 
BRANCH  91  94
ATOM     94  S   UNL A   1      48.517  32.458  26.918  1.00  0.00     0.127 S 
ATOM     95  O   UNL A   1      48.272  33.441  25.866  1.00  0.00    -0.237 OA
ATOM     96  O   UNL A   1      48.870  33.029  28.219  1.00  0.00    -0.237 OA
ATOM     97  O   UNL A   1      49.336  31.315  26.531  1.00  0.00    -0.744 OA
ENDBRANCH  91  94
ENDBRANCH  64  87
ENDBRANCH  38  39
ENDBRANCH  30  33
ENDBRANCH  28  29
ENDBRANCH  27  28
ENDBRANCH  26  27
ENDBRANCH   1  26
TORSDOF 20
ENDMDL
