MODEL 1
REMARK VINA RESULT:     -12.5      0.000      0.000
REMARK SMILES Cc1ccccc1/C=C1\SC(=O)N(CC(=O)Nc2ccccc2C(=O)NCCCCCCNC(=O)c2ccc(-c3c4nc(c(-c5cccc(S(=O)(=O)[O-])c5F)c5ccc([nH]5)c(-c5cccc(S(=O)(=O)[O-])c5F)c5nc(c(-c6cccc(S(=O)(=O)[O-])c6F)c6ccc3[nH]6)C=C5)C=C4)cc2)C1=O
REMARK SMILES IDX 29 1 28 2 27 3 26 4 24 5 25 6 23 8 18 9 19 10 20 11 22 12
REMARK SMILES IDX 21 13 17 14 15 15 16 16 14 18 13 19 8 20 9 21 10 22 99 23
REMARK SMILES IDX 11 24 100 25 12 26 7 27 1 28 2 29 3 30 4 31 6 32 5 33 30 34
REMARK SMILES IDX 31 35 32 36 33 37 34 38 35 40 36 41 37 42 98 43 38 44 97 45
REMARK SMILES IDX 39 46 40 47 41 48 91 49 42 50 96 51 90 52 92 53 43 54 95 55
REMARK SMILES IDX 89 56 88 57 44 59 76 60 56 61 75 62 57 63 60 64 74 65 93 66
REMARK SMILES IDX 58 67 59 68 73 70 94 71 61 72 45 73 46 74 54 75 47 76 49 77
REMARK SMILES IDX 55 78 48 79 50 80 51 81 52 82 53 83 77 84 78 85 86 86 79 87
REMARK SMILES IDX 81 88 87 89 80 90 82 91 83 92 84 93 85 94 62 95 63 96 71 97
REMARK SMILES IDX 64 98 66 99 72 100 65 101 67 102 68 103 69 104 70 105
REMARK H PARENT 26 7 17 17 33 39 92 58 60 69
REMARK Flexibility Score: inf
ROOT
ATOM      1  C   UNL A   1      34.801  31.207  27.637  1.00  0.00     0.002 C 
ENDROOT
BRANCH   1   2
ATOM      2  C   UNL A   1      34.824  29.681  27.613  1.00  0.00     0.021 C 
BRANCH   2   3
ATOM      3  C   UNL A   1      33.790  28.879  26.836  1.00  0.00     0.116 C 
BRANCH   3   4
ATOM      4  N   UNL A   1      34.081  27.485  26.528  1.00  0.00    -0.352 N 
ATOM      5  C   UNL A   1      33.572  26.656  25.544  1.00  0.00     0.253 C 
ATOM      6  O   UNL A   1      34.124  25.581  25.326  1.00  0.00    -0.269 OA
ATOM      7  H   UNL A   1      34.749  27.064  27.116  1.00  0.00     0.163 HD
BRANCH   5   8
ATOM      8  C   UNL A   1      32.385  27.032  24.743  1.00  0.00     0.063 A 
ATOM      9  C   UNL A   1      31.066  26.632  25.038  1.00  0.00     0.054 A 
ATOM     10  C   UNL A   1      30.048  26.970  24.118  1.00  0.00     0.027 A 
ATOM     11  C   UNL A   1      30.308  27.693  22.953  1.00  0.00     0.002 A 
ATOM     12  C   UNL A   1      32.637  27.633  23.490  1.00  0.00     0.016 A 
ATOM     13  C   UNL A   1      31.613  28.012  22.628  1.00  0.00     0.001 A 
BRANCH   9  14
ATOM     14  N   UNL A   1      30.622  25.746  26.040  1.00  0.00    -0.324 N 
ATOM     15  C   UNL A   1      30.396  24.411  26.176  1.00  0.00     0.244 C 
ATOM     16  O   UNL A   1      29.811  24.063  27.212  1.00  0.00    -0.273 OA
ATOM     17  H   UNL A   1      30.418  26.226  26.874  1.00  0.00     0.170 HD
BRANCH  15  18
ATOM     18  C   UNL A   1      31.028  23.358  25.281  1.00  0.00     0.230 C 
BRANCH  18  19
ATOM     19  N   UNL A   1      32.351  22.875  25.583  1.00  0.00    -0.259 N 
ATOM     20  C   UNL A   1      35.752  22.448  24.760  1.00  0.00     0.029 C 
ATOM     21  C   UNL A   1      34.565  22.167  25.325  1.00  0.00     0.083 C 
ATOM     22  S   UNL A   1      34.204  21.771  26.947  1.00  0.00    -0.022 SA
ATOM     23  C   UNL A   1      33.272  22.480  24.631  1.00  0.00     0.268 C 
ATOM     24  C   UNL A   1      32.631  22.510  26.865  1.00  0.00     0.294 C 
ATOM     25  O   UNL A   1      33.101  22.380  23.428  1.00  0.00    -0.268 OA
ATOM     26  O   UNL A   1      31.900  22.624  27.846  1.00  0.00    -0.261 OA
BRANCH  20  27
ATOM     27  C   UNL A   1      37.099  22.634  25.368  1.00  0.00    -0.021 A 
ATOM     28  C   UNL A   1      38.099  20.279  25.005  1.00  0.00     0.045 C 
ATOM     29  C   UNL A   1      38.149  21.700  25.491  1.00  0.00    -0.044 A 
ATOM     30  C   UNL A   1      39.324  22.064  26.195  1.00  0.00     0.004 A 
ATOM     31  C   UNL A   1      39.492  23.338  26.732  1.00  0.00     0.000 A 
ATOM     32  C   UNL A   1      37.313  23.930  25.898  1.00  0.00     0.008 A 
ATOM     33  C   UNL A   1      38.489  24.279  26.569  1.00  0.00     0.001 A 
ENDBRANCH  20  27
ENDBRANCH  18  19
ENDBRANCH  15  18
ENDBRANCH   9  14
ENDBRANCH   5   8
ENDBRANCH   3   4
ENDBRANCH   2   3
ENDBRANCH   1   2
BRANCH   1  34
ATOM     34  C   UNL A   1      33.484  31.945  27.854  1.00  0.00     0.002 C 
BRANCH  34  35
ATOM     35  C   UNL A   1      33.481  33.467  28.030  1.00  0.00     0.021 C 
BRANCH  35  36
ATOM     36  C   UNL A   1      34.843  34.128  28.035  1.00  0.00     0.116 C 
BRANCH  36  37
ATOM     37  N   UNL A   1      35.199  34.663  29.354  1.00  0.00    -0.352 N 
ATOM     38  C   UNL A   1      35.487  33.984  30.528  1.00  0.00     0.251 C 
ATOM     39  H   UNL A   1      35.241  35.645  29.413  1.00  0.00     0.163 HD
ATOM     40  O   UNL A   1      35.145  34.484  31.594  1.00  0.00    -0.269 OA
BRANCH  38  41
ATOM     41  C   UNL A   1      36.262  32.730  30.461  1.00  0.00     0.039 A 
ATOM     42  C   UNL A   1      35.945  31.564  31.157  1.00  0.00     0.014 A 
ATOM     43  C   UNL A   1      37.491  32.810  29.833  1.00  0.00     0.014 A 
ATOM     44  C   UNL A   1      36.963  30.626  31.337  1.00  0.00     0.010 A 
ATOM     45  C   UNL A   1      38.271  31.735  29.630  1.00  0.00     0.010 A 
ATOM     46  C   UNL A   1      38.152  30.808  30.635  1.00  0.00    -0.014 A 
BRANCH  46  47
ATOM     47  C   UNL A   1      39.426  30.174  30.858  1.00  0.00     0.031 A 
ATOM     48  C   UNL A   1      39.678  28.945  30.138  1.00  0.00     0.074 A 
ATOM     49  C   UNL A   1      40.397  30.936  31.419  1.00  0.00     0.049 A 
ATOM     50  N   UNL A   1      40.624  28.136  30.429  1.00  0.00    -0.248 NA
ATOM     51  C   UNL A   1      38.814  28.500  29.052  1.00  0.00     0.031 C 
ATOM     52  C   UNL A   1      41.839  30.864  31.240  1.00  0.00     0.029 A 
ATOM     53  N   UNL A   1      40.252  32.007  32.287  1.00  0.00    -0.354 N 
ATOM     54  C   UNL A   1      40.710  27.266  29.371  1.00  0.00     0.074 A 
ATOM     55  C   UNL A   1      39.447  27.384  28.690  1.00  0.00     0.031 C 
ATOM     56  C   UNL A   1      42.436  31.670  32.141  1.00  0.00     0.029 A 
ATOM     57  C   UNL A   1      41.411  32.156  33.048  1.00  0.00     0.049 A 
ATOM     58  H   UNL A   1      39.452  32.576  32.356  1.00  0.00     0.167 HD
ATOM     59  C   UNL A   1      41.932  26.743  29.082  1.00  0.00     0.034 A 
ATOM     60  C   UNL A   1      41.351  31.888  34.393  1.00  0.00     0.034 A 
ATOM     61  C   UNL A   1      42.925  27.197  30.095  1.00  0.00     0.049 A 
ATOM     62  C   UNL A   1      42.004  30.551  34.737  1.00  0.00     0.074 A 
ATOM     63  C   UNL A   1      43.929  28.154  30.093  1.00  0.00     0.029 A 
ATOM     64  N   UNL A   1      42.696  26.909  31.439  1.00  0.00    -0.354 N 
ATOM     65  N   UNL A   1      42.652  29.787  33.897  1.00  0.00    -0.248 NA
ATOM     66  C   UNL A   1      41.893  29.942  36.058  1.00  0.00     0.031 C 
ATOM     67  C   UNL A   1      44.263  28.462  31.454  1.00  0.00     0.029 A 
ATOM     68  C   UNL A   1      43.496  27.668  32.288  1.00  0.00     0.049 A 
ATOM     69  H   UNL A   1      42.042  26.244  31.753  1.00  0.00     0.167 HD
ATOM     70  C   UNL A   1      42.866  28.552  34.454  1.00  0.00     0.074 A 
ATOM     71  C   UNL A   1      42.387  28.715  35.822  1.00  0.00     0.031 C 
ATOM     72  C   UNL A   1      43.358  27.483  33.739  1.00  0.00     0.034 A 
BRANCH  59  73
ATOM     73  C   UNL A   1      42.305  26.091  27.755  1.00  0.00     0.023 A 
ATOM     74  C   UNL A   1      42.081  26.854  26.591  1.00  0.00     0.012 A 
ATOM     75  C   UNL A   1      42.819  24.784  27.534  1.00  0.00     0.148 A 
ATOM     76  C   UNL A   1      42.285  26.343  25.302  1.00  0.00     0.002 A 
ATOM     77  C   UNL A   1      42.997  24.260  26.250  1.00  0.00     0.091 A 
ATOM     78  F   UNL A   1      43.199  24.021  28.553  1.00  0.00    -0.205 F 
ATOM     79  C   UNL A   1      42.726  25.039  25.129  1.00  0.00     0.022 A 
BRANCH  77  80
ATOM     80  S   UNL A   1      43.553  22.564  25.956  1.00  0.00     0.127 S 
ATOM     81  O   UNL A   1      44.985  22.659  26.247  1.00  0.00    -0.237 OA
ATOM     82  O   UNL A   1      42.782  21.809  26.940  1.00  0.00    -0.237 OA
ATOM     83  O   UNL A   1      43.247  22.258  24.563  1.00  0.00    -0.744 OA
ENDBRANCH  77  80
ENDBRANCH  59  73
BRANCH  60  84
ATOM     84  C   UNL A   1      40.056  32.397  34.984  1.00  0.00     0.023 A 
ATOM     85  C   UNL A   1      38.879  31.731  34.557  1.00  0.00     0.012 A 
ATOM     86  C   UNL A   1      40.052  33.023  36.241  1.00  0.00     0.148 A 
ATOM     87  C   UNL A   1      37.870  31.429  35.477  1.00  0.00     0.002 A 
ATOM     88  C   UNL A   1      39.027  32.746  37.141  1.00  0.00     0.091 A 
ATOM     89  F   UNL A   1      41.070  33.823  36.581  1.00  0.00    -0.205 F 
ATOM     90  C   UNL A   1      37.979  31.883  36.790  1.00  0.00     0.022 A 
BRANCH  88  91
ATOM     91  S   UNL A   1      39.111  33.421  38.801  1.00  0.00     0.127 S 
ATOM     92  O   UNL A   1      39.232  34.850  38.534  1.00  0.00    -0.237 OA
ATOM     93  O   UNL A   1      37.834  33.024  39.391  1.00  0.00    -0.237 OA
ATOM     94  O   UNL A   1      40.272  32.774  39.398  1.00  0.00    -0.744 OA
ENDBRANCH  88  91
ENDBRANCH  60  84
BRANCH  72  95
ATOM     95  C   UNL A   1      43.698  26.114  34.339  1.00  0.00     0.023 A 
ATOM     96  C   UNL A   1      42.708  25.207  34.757  1.00  0.00     0.012 A 
ATOM     97  C   UNL A   1      45.038  25.710  34.593  1.00  0.00     0.148 A 
ATOM     98  C   UNL A   1      43.011  23.919  35.212  1.00  0.00     0.002 A 
ATOM     99  C   UNL A   1      45.345  24.435  35.057  1.00  0.00     0.091 A 
ATOM    100  F   UNL A   1      46.041  26.583  34.473  1.00  0.00    -0.205 F 
ATOM    101  C   UNL A   1      44.332  23.520  35.333  1.00  0.00     0.022 A 
BRANCH  99 102
ATOM    102  S   UNL A   1      47.037  23.913  35.368  1.00  0.00     0.127 S 
ATOM    103  O   UNL A   1      46.854  22.492  35.663  1.00  0.00    -0.237 OA
ATOM    104  O   UNL A   1      47.679  24.191  34.083  1.00  0.00    -0.237 OA
ATOM    105  O   UNL A   1      47.522  24.721  36.477  1.00  0.00    -0.744 OA
ENDBRANCH  99 102
ENDBRANCH  72  95
ENDBRANCH  46  47
ENDBRANCH  38  41
ENDBRANCH  36  37
ENDBRANCH  35  36
ENDBRANCH  34  35
ENDBRANCH   1  34
TORSDOF 20
ENDMDL
MODEL 2
REMARK VINA RESULT:     -12.1      4.381     10.393
REMARK SMILES Cc1ccccc1/C=C1\SC(=O)N(CC(=O)Nc2ccccc2C(=O)NCCCCCCNC(=O)c2ccc(-c3c4nc(c(-c5cccc(S(=O)(=O)[O-])c5F)c5ccc([nH]5)c(-c5cccc(S(=O)(=O)[O-])c5F)c5nc(c(-c6cccc(S(=O)(=O)[O-])c6F)c6ccc3[nH]6)C=C5)C=C4)cc2)C1=O
REMARK SMILES IDX 29 1 28 2 27 3 26 4 24 5 25 6 23 8 18 9 19 10 20 11 22 12
REMARK SMILES IDX 21 13 17 14 15 15 16 16 14 18 13 19 8 20 9 21 10 22 99 23
REMARK SMILES IDX 11 24 100 25 12 26 7 27 1 28 2 29 3 30 4 31 6 32 5 33 30 34
REMARK SMILES IDX 31 35 32 36 33 37 34 38 35 40 36 41 37 42 98 43 38 44 97 45
REMARK SMILES IDX 39 46 40 47 41 48 91 49 42 50 96 51 90 52 92 53 43 54 95 55
REMARK SMILES IDX 89 56 88 57 44 59 76 60 56 61 75 62 57 63 60 64 74 65 93 66
REMARK SMILES IDX 58 67 59 68 73 70 94 71 61 72 45 73 46 74 54 75 47 76 49 77
REMARK SMILES IDX 55 78 48 79 50 80 51 81 52 82 53 83 77 84 78 85 86 86 79 87
REMARK SMILES IDX 81 88 87 89 80 90 82 91 83 92 84 93 85 94 62 95 63 96 71 97
REMARK SMILES IDX 64 98 66 99 72 100 65 101 67 102 68 103 69 104 70 105
REMARK H PARENT 26 7 17 17 33 39 92 58 60 69
REMARK Flexibility Score: inf
ROOT
ATOM      1  C   UNL A   1      37.363  23.909  26.410  1.00  0.00     0.002 C 
ENDROOT
BRANCH   1   2
ATOM      2  C   UNL A   1      35.978  23.274  26.310  1.00  0.00     0.021 C 
BRANCH   2   3
ATOM      3  C   UNL A   1      34.779  24.054  25.789  1.00  0.00     0.116 C 
BRANCH   3   4
ATOM      4  N   UNL A   1      33.499  23.891  26.466  1.00  0.00    -0.352 N 
ATOM      5  C   UNL A   1      32.543  22.896  26.357  1.00  0.00     0.253 C 
ATOM      6  O   UNL A   1      31.640  22.845  27.187  1.00  0.00    -0.269 OA
ATOM      7  H   UNL A   1      33.277  24.607  27.104  1.00  0.00     0.163 HD
BRANCH   5   8
ATOM      8  C   UNL A   1      32.583  21.890  25.271  1.00  0.00     0.063 A 
ATOM      9  C   UNL A   1      32.015  22.074  23.995  1.00  0.00     0.054 A 
ATOM     10  C   UNL A   1      32.029  20.981  23.099  1.00  0.00     0.027 A 
ATOM     11  C   UNL A   1      32.597  19.751  23.434  1.00  0.00     0.002 A 
ATOM     12  C   UNL A   1      33.018  20.596  25.631  1.00  0.00     0.016 A 
ATOM     13  C   UNL A   1      33.079  19.551  24.714  1.00  0.00     0.001 A 
BRANCH   9  14
ATOM     14  N   UNL A   1      31.232  23.149  23.529  1.00  0.00    -0.324 N 
ATOM     15  C   UNL A   1      31.373  24.487  23.333  1.00  0.00     0.244 C 
ATOM     16  O   UNL A   1      30.334  25.110  23.069  1.00  0.00    -0.273 OA
ATOM     17  H   UNL A   1      30.330  22.847  23.275  1.00  0.00     0.170 HD
BRANCH  15  18
ATOM     18  C   UNL A   1      32.720  25.175  23.177  1.00  0.00     0.230 C 
BRANCH  18  19
ATOM     19  N   UNL A   1      32.928  26.467  23.782  1.00  0.00    -0.259 N 
ATOM     20  C   UNL A   1      33.276  28.538  26.613  1.00  0.00     0.029 C 
ATOM     21  C   UNL A   1      32.958  28.200  25.350  1.00  0.00     0.083 C 
ATOM     22  S   UNL A   1      33.366  28.978  23.886  1.00  0.00    -0.022 SA
ATOM     23  C   UNL A   1      32.424  26.840  25.013  1.00  0.00     0.268 C 
ATOM     24  C   UNL A   1      33.394  27.480  23.001  1.00  0.00     0.294 C 
ATOM     25  O   UNL A   1      31.666  26.207  25.729  1.00  0.00    -0.268 OA
ATOM     26  O   UNL A   1      33.753  27.409  21.828  1.00  0.00    -0.261 OA
BRANCH  20  27
ATOM     27  C   UNL A   1      34.179  29.601  27.137  1.00  0.00    -0.021 A 
ATOM     28  C   UNL A   1      32.556  31.611  27.164  1.00  0.00     0.045 C 
ATOM     29  C   UNL A   1      33.891  30.958  27.388  1.00  0.00    -0.044 A 
ATOM     30  C   UNL A   1      34.933  31.825  27.803  1.00  0.00     0.004 A 
ATOM     31  C   UNL A   1      36.229  31.363  28.015  1.00  0.00     0.000 A 
ATOM     32  C   UNL A   1      35.499  29.155  27.391  1.00  0.00     0.008 A 
ATOM     33  C   UNL A   1      36.510  30.020  27.823  1.00  0.00     0.001 A 
ENDBRANCH  20  27
ENDBRANCH  18  19
ENDBRANCH  15  18
ENDBRANCH   9  14
ENDBRANCH   5   8
ENDBRANCH   3   4
ENDBRANCH   2   3
ENDBRANCH   1   2
BRANCH   1  34
ATOM     34  C   UNL A   1      38.562  23.224  25.763  1.00  0.00     0.002 C 
BRANCH  34  35
ATOM     35  C   UNL A   1      39.854  23.029  26.563  1.00  0.00     0.021 C 
BRANCH  35  36
ATOM     36  C   UNL A   1      40.053  21.650  27.159  1.00  0.00     0.116 C 
BRANCH  36  37
ATOM     37  N   UNL A   1      41.213  20.957  26.589  1.00  0.00    -0.352 N 
ATOM     38  C   UNL A   1      42.443  21.473  26.208  1.00  0.00     0.251 C 
ATOM     39  H   UNL A   1      41.104  19.988  26.460  1.00  0.00     0.163 HD
ATOM     40  O   UNL A   1      43.010  20.982  25.239  1.00  0.00    -0.269 OA
BRANCH  38  41
ATOM     41  C   UNL A   1      43.061  22.536  27.025  1.00  0.00     0.039 A 
ATOM     42  C   UNL A   1      43.102  22.541  28.419  1.00  0.00     0.014 A 
ATOM     43  C   UNL A   1      43.419  23.687  26.349  1.00  0.00     0.014 A 
ATOM     44  C   UNL A   1      43.320  23.766  29.051  1.00  0.00     0.010 A 
ATOM     45  C   UNL A   1      44.060  24.707  26.947  1.00  0.00     0.010 A 
ATOM     46  C   UNL A   1      43.694  24.851  28.262  1.00  0.00    -0.014 A 
BRANCH  46  47
ATOM     47  C   UNL A   1      43.691  26.249  28.608  1.00  0.00     0.031 A 
ATOM     48  C   UNL A   1      42.404  26.909  28.644  1.00  0.00     0.074 A 
ATOM     49  C   UNL A   1      44.808  26.733  29.206  1.00  0.00     0.049 A 
ATOM     50  N   UNL A   1      42.261  28.180  28.663  1.00  0.00    -0.248 NA
ATOM     51  C   UNL A   1      41.155  26.160  28.595  1.00  0.00     0.031 C 
ATOM     52  C   UNL A   1      44.937  27.813  30.173  1.00  0.00     0.029 A 
ATOM     53  N   UNL A   1      46.114  26.292  29.067  1.00  0.00    -0.354 N 
ATOM     54  C   UNL A   1      40.944  28.402  28.981  1.00  0.00     0.074 A 
ATOM     55  C   UNL A   1      40.278  27.159  28.691  1.00  0.00     0.031 C 
ATOM     56  C   UNL A   1      46.244  28.096  30.346  1.00  0.00     0.029 A 
ATOM     57  C   UNL A   1      46.996  27.330  29.368  1.00  0.00     0.049 A 
ATOM     58  H   UNL A   1      46.380  25.383  28.798  1.00  0.00     0.167 HD
ATOM     59  C   UNL A   1      40.644  29.534  29.671  1.00  0.00     0.034 A 
ATOM     60  C   UNL A   1      47.749  27.864  28.352  1.00  0.00     0.034 A 
ATOM     61  C   UNL A   1      41.875  30.353  29.853  1.00  0.00     0.049 A 
ATOM     62  C   UNL A   1      47.224  29.229  27.910  1.00  0.00     0.074 A 
ATOM     63  C   UNL A   1      42.734  30.573  30.919  1.00  0.00     0.029 A 
ATOM     64  N   UNL A   1      42.578  30.771  28.724  1.00  0.00    -0.354 N 
ATOM     65  N   UNL A   1      46.251  29.886  28.484  1.00  0.00    -0.248 NA
ATOM     66  C   UNL A   1      47.718  29.911  26.719  1.00  0.00     0.031 C 
ATOM     67  C   UNL A   1      43.971  31.084  30.405  1.00  0.00     0.029 A 
ATOM     68  C   UNL A   1      43.859  31.218  29.033  1.00  0.00     0.049 A 
ATOM     69  H   UNL A   1      42.210  30.751  27.811  1.00  0.00     0.167 HD
ATOM     70  C   UNL A   1      45.851  30.928  27.684  1.00  0.00     0.074 A 
ATOM     71  C   UNL A   1      46.824  30.906  26.598  1.00  0.00     0.031 C 
ATOM     72  C   UNL A   1      44.727  31.681  27.941  1.00  0.00     0.034 A 
BRANCH  59  73
ATOM     73  C   UNL A   1      39.345  29.766  30.438  1.00  0.00     0.023 A 
ATOM     74  C   UNL A   1      38.525  28.638  30.644  1.00  0.00     0.012 A 
ATOM     75  C   UNL A   1      38.831  30.991  30.942  1.00  0.00     0.148 A 
ATOM     76  C   UNL A   1      37.261  28.723  31.244  1.00  0.00     0.002 A 
ATOM     77  C   UNL A   1      37.560  31.086  31.516  1.00  0.00     0.091 A 
ATOM     78  F   UNL A   1      39.570  32.095  30.931  1.00  0.00    -0.205 F 
ATOM     79  C   UNL A   1      36.769  29.950  31.665  1.00  0.00     0.022 A 
BRANCH  77  80
ATOM     80  S   UNL A   1      36.853  32.657  32.068  1.00  0.00     0.127 S 
ATOM     81  O   UNL A   1      36.494  33.292  30.799  1.00  0.00    -0.237 OA
ATOM     82  O   UNL A   1      35.715  32.220  32.873  1.00  0.00    -0.237 OA
ATOM     83  O   UNL A   1      37.902  33.352  32.806  1.00  0.00    -0.744 OA
ENDBRANCH  77  80
ENDBRANCH  59  73
BRANCH  60  84
ATOM     84  C   UNL A   1      48.237  26.780  27.419  1.00  0.00     0.023 A 
ATOM     85  C   UNL A   1      47.386  26.479  26.324  1.00  0.00     0.012 A 
ATOM     86  C   UNL A   1      49.613  26.530  27.286  1.00  0.00     0.148 A 
ATOM     87  C   UNL A   1      47.929  26.251  25.055  1.00  0.00     0.002 A 
ATOM     88  C   UNL A   1      50.142  26.270  26.025  1.00  0.00     0.091 A 
ATOM     89  F   UNL A   1      50.404  26.615  28.362  1.00  0.00    -0.205 F 
ATOM     90  C   UNL A   1      49.313  26.213  24.896  1.00  0.00     0.022 A 
BRANCH  88  91
ATOM     91  S   UNL A   1      51.920  26.110  25.836  1.00  0.00     0.127 S 
ATOM     92  O   UNL A   1      52.166  24.805  26.440  1.00  0.00    -0.237 OA
ATOM     93  O   UNL A   1      52.109  26.150  24.388  1.00  0.00    -0.237 OA
ATOM     94  O   UNL A   1      52.464  27.262  26.543  1.00  0.00    -0.744 OA
ENDBRANCH  88  91
ENDBRANCH  60  84
BRANCH  72  95
ATOM     95  C   UNL A   1      44.294  32.906  27.129  1.00  0.00     0.023 A 
ATOM     96  C   UNL A   1      44.166  32.876  25.729  1.00  0.00     0.012 A 
ATOM     97  C   UNL A   1      44.078  34.176  27.732  1.00  0.00     0.148 A 
ATOM     98  C   UNL A   1      43.676  33.962  24.994  1.00  0.00     0.002 A 
ATOM     99  C   UNL A   1      43.603  35.262  27.005  1.00  0.00     0.091 A 
ATOM    100  F   UNL A   1      44.413  34.384  29.008  1.00  0.00    -0.205 F 
ATOM    101  C   UNL A   1      43.364  35.149  25.637  1.00  0.00     0.022 A 
BRANCH  99 102
ATOM    102  S   UNL A   1      43.316  36.868  27.763  1.00  0.00     0.127 S 
ATOM    103  O   UNL A   1      44.662  37.222  28.214  1.00  0.00    -0.237 OA
ATOM    104  O   UNL A   1      42.825  37.652  26.630  1.00  0.00    -0.237 OA
ATOM    105  O   UNL A   1      42.341  36.656  28.823  1.00  0.00    -0.744 OA
ENDBRANCH  99 102
ENDBRANCH  72  95
ENDBRANCH  46  47
ENDBRANCH  38  41
ENDBRANCH  36  37
ENDBRANCH  35  36
ENDBRANCH  34  35
ENDBRANCH   1  34
TORSDOF 20
ENDMDL
MODEL 3
REMARK VINA RESULT:     -11.8      1.845      2.405
REMARK SMILES Cc1ccccc1/C=C1\SC(=O)N(CC(=O)Nc2ccccc2C(=O)NCCCCCCNC(=O)c2ccc(-c3c4nc(c(-c5cccc(S(=O)(=O)[O-])c5F)c5ccc([nH]5)c(-c5cccc(S(=O)(=O)[O-])c5F)c5nc(c(-c6cccc(S(=O)(=O)[O-])c6F)c6ccc3[nH]6)C=C5)C=C4)cc2)C1=O
REMARK SMILES IDX 29 1 28 2 27 3 26 4 24 5 25 6 23 8 18 9 19 10 20 11 22 12
REMARK SMILES IDX 21 13 17 14 15 15 16 16 14 18 13 19 8 20 9 21 10 22 99 23
REMARK SMILES IDX 11 24 100 25 12 26 7 27 1 28 2 29 3 30 4 31 6 32 5 33 30 34
REMARK SMILES IDX 31 35 32 36 33 37 34 38 35 40 36 41 37 42 98 43 38 44 97 45
REMARK SMILES IDX 39 46 40 47 41 48 91 49 42 50 96 51 90 52 92 53 43 54 95 55
REMARK SMILES IDX 89 56 88 57 44 59 76 60 56 61 75 62 57 63 60 64 74 65 93 66
REMARK SMILES IDX 58 67 59 68 73 70 94 71 61 72 45 73 46 74 54 75 47 76 49 77
REMARK SMILES IDX 55 78 48 79 50 80 51 81 52 82 53 83 77 84 78 85 86 86 79 87
REMARK SMILES IDX 81 88 87 89 80 90 82 91 83 92 84 93 85 94 62 95 63 96 71 97
REMARK SMILES IDX 64 98 66 99 72 100 65 101 67 102 68 103 69 104 70 105
REMARK H PARENT 26 7 17 17 33 39 92 58 60 69
REMARK Flexibility Score: inf
ROOT
ATOM      1  C   UNL A   1      34.332  32.189  28.583  1.00  0.00     0.002 C 
ENDROOT
BRANCH   1   2
ATOM      2  C   UNL A   1      34.017  31.262  27.412  1.00  0.00     0.021 C 
BRANCH   2   3
ATOM      3  C   UNL A   1      33.019  30.120  27.544  1.00  0.00     0.116 C 
BRANCH   3   4
ATOM      4  N   UNL A   1      33.506  28.754  27.407  1.00  0.00    -0.352 N 
ATOM      5  C   UNL A   1      33.473  27.892  26.325  1.00  0.00     0.253 C 
ATOM      6  O   UNL A   1      34.142  26.862  26.363  1.00  0.00    -0.269 OA
ATOM      7  H   UNL A   1      33.926  28.383  28.216  1.00  0.00     0.163 HD
BRANCH   5   8
ATOM      8  C   UNL A   1      32.659  28.178  25.122  1.00  0.00     0.063 A 
ATOM      9  C   UNL A   1      31.335  27.735  24.933  1.00  0.00     0.054 A 
ATOM     10  C   UNL A   1      30.723  27.986  23.684  1.00  0.00     0.027 A 
ATOM     11  C   UNL A   1      31.379  28.666  22.657  1.00  0.00     0.002 A 
ATOM     12  C   UNL A   1      33.344  28.732  24.018  1.00  0.00     0.016 A 
ATOM     13  C   UNL A   1      32.704  29.026  22.818  1.00  0.00     0.001 A 
BRANCH   9  14
ATOM     14  N   UNL A   1      30.572  26.876  25.749  1.00  0.00    -0.324 N 
ATOM     15  C   UNL A   1      30.066  25.615  25.690  1.00  0.00     0.244 C 
ATOM     16  O   UNL A   1      29.269  25.307  26.587  1.00  0.00    -0.273 OA
ATOM     17  H   UNL A   1      30.341  27.310  26.602  1.00  0.00     0.170 HD
BRANCH  15  18
ATOM     18  C   UNL A   1      30.606  24.537  24.764  1.00  0.00     0.230 C 
BRANCH  18  19
ATOM     19  N   UNL A   1      32.012  24.223  24.791  1.00  0.00    -0.259 N 
ATOM     20  C   UNL A   1      34.769  22.489  26.139  1.00  0.00     0.029 C 
ATOM     21  C   UNL A   1      34.105  23.487  25.531  1.00  0.00     0.083 C 
ATOM     22  S   UNL A   1      34.457  24.288  24.064  1.00  0.00    -0.022 SA
ATOM     23  C   UNL A   1      32.706  23.854  25.928  1.00  0.00     0.268 C 
ATOM     24  C   UNL A   1      32.776  24.575  23.720  1.00  0.00     0.294 C 
ATOM     25  O   UNL A   1      32.292  23.827  27.075  1.00  0.00    -0.268 OA
ATOM     26  O   UNL A   1      32.390  25.067  22.662  1.00  0.00    -0.261 OA
BRANCH  20  27
ATOM     27  C   UNL A   1      35.931  21.676  25.683  1.00  0.00    -0.021 A 
ATOM     28  C   UNL A   1      34.709  19.577  24.802  1.00  0.00     0.045 C 
ATOM     29  C   UNL A   1      35.935  20.394  25.094  1.00  0.00    -0.044 A 
ATOM     30  C   UNL A   1      37.172  19.759  24.819  1.00  0.00     0.004 A 
ATOM     31  C   UNL A   1      38.390  20.385  25.073  1.00  0.00     0.000 A 
ATOM     32  C   UNL A   1      37.185  22.298  25.901  1.00  0.00     0.008 A 
ATOM     33  C   UNL A   1      38.396  21.665  25.602  1.00  0.00     0.001 A 
ENDBRANCH  20  27
ENDBRANCH  18  19
ENDBRANCH  15  18
ENDBRANCH   9  14
ENDBRANCH   5   8
ENDBRANCH   3   4
ENDBRANCH   2   3
ENDBRANCH   1   2
BRANCH   1  34
ATOM     34  C   UNL A   1      34.047  33.683  28.469  1.00  0.00     0.002 C 
BRANCH  34  35
ATOM     35  C   UNL A   1      33.343  34.416  29.614  1.00  0.00     0.021 C 
BRANCH  35  36
ATOM     36  C   UNL A   1      33.693  35.882  29.766  1.00  0.00     0.116 C 
BRANCH  36  37
ATOM     37  N   UNL A   1      34.088  36.224  31.137  1.00  0.00    -0.352 N 
ATOM     38  C   UNL A   1      34.378  35.384  32.201  1.00  0.00     0.251 C 
ATOM     39  H   UNL A   1      34.158  37.187  31.328  1.00  0.00     0.163 HD
ATOM     40  O   UNL A   1      34.069  35.743  33.332  1.00  0.00    -0.269 OA
BRANCH  38  41
ATOM     41  C   UNL A   1      35.115  34.131  31.948  1.00  0.00     0.039 A 
ATOM     42  C   UNL A   1      34.804  32.898  32.521  1.00  0.00     0.014 A 
ATOM     43  C   UNL A   1      36.312  34.260  31.268  1.00  0.00     0.014 A 
ATOM     44  C   UNL A   1      35.805  31.926  32.536  1.00  0.00     0.010 A 
ATOM     45  C   UNL A   1      37.053  33.201  30.900  1.00  0.00     0.010 A 
ATOM     46  C   UNL A   1      36.961  32.165  31.796  1.00  0.00    -0.014 A 
BRANCH  46  47
ATOM     47  C   UNL A   1      38.228  31.485  31.876  1.00  0.00     0.031 A 
ATOM     48  C   UNL A   1      38.323  30.204  31.210  1.00  0.00     0.074 A 
ATOM     49  C   UNL A   1      39.300  32.231  32.241  1.00  0.00     0.049 A 
ATOM     50  N   UNL A   1      39.270  29.369  31.415  1.00  0.00    -0.248 NA
ATOM     51  C   UNL A   1      37.294  29.738  30.290  1.00  0.00     0.031 C 
ATOM     52  C   UNL A   1      40.697  32.078  31.862  1.00  0.00     0.029 A 
ATOM     53  N   UNL A   1      39.326  33.357  33.048  1.00  0.00    -0.354 N 
ATOM     54  C   UNL A   1      39.166  28.434  30.415  1.00  0.00     0.074 A 
ATOM     55  C   UNL A   1      37.822  28.573  29.916  1.00  0.00     0.031 C 
ATOM     56  C   UNL A   1      41.450  32.906  32.613  1.00  0.00     0.029 A 
ATOM     57  C   UNL A   1      40.588  33.495  33.624  1.00  0.00     0.049 A 
ATOM     58  H   UNL A   1      38.568  33.968  33.193  1.00  0.00     0.167 HD
ATOM     59  C   UNL A   1      40.311  27.837  29.989  1.00  0.00     0.034 A 
ATOM     60  C   UNL A   1      40.715  33.310  34.978  1.00  0.00     0.034 A 
ATOM     61  C   UNL A   1      41.459  28.302  30.817  1.00  0.00     0.049 A 
ATOM     62  C   UNL A   1      41.358  31.966  35.312  1.00  0.00     0.074 A 
ATOM     63  C   UNL A   1      42.488  29.206  30.609  1.00  0.00     0.029 A 
ATOM     64  N   UNL A   1      41.417  28.105  32.196  1.00  0.00    -0.354 N 
ATOM     65  N   UNL A   1      41.846  31.123  34.440  1.00  0.00    -0.248 NA
ATOM     66  C   UNL A   1      41.417  31.442  36.673  1.00  0.00     0.031 C 
ATOM     67  C   UNL A   1      43.029  29.578  31.884  1.00  0.00     0.029 A 
ATOM     68  C   UNL A   1      42.362  28.873  32.870  1.00  0.00     0.049 A 
ATOM     69  H   UNL A   1      40.790  27.493  32.643  1.00  0.00     0.167 HD
ATOM     70  C   UNL A   1      42.090  29.914  35.041  1.00  0.00     0.074 A 
ATOM     71  C   UNL A   1      41.822  30.181  36.450  1.00  0.00     0.031 C 
ATOM     72  C   UNL A   1      42.430  28.782  34.335  1.00  0.00     0.034 A 
BRANCH  59  73
ATOM     73  C   UNL A   1      40.460  27.089  28.668  1.00  0.00     0.023 A 
ATOM     74  C   UNL A   1      39.553  26.036  28.432  1.00  0.00     0.012 A 
ATOM     75  C   UNL A   1      41.431  27.293  27.650  1.00  0.00     0.148 A 
ATOM     76  C   UNL A   1      39.637  25.204  27.307  1.00  0.00     0.002 A 
ATOM     77  C   UNL A   1      41.538  26.449  26.541  1.00  0.00     0.091 A 
ATOM     78  F   UNL A   1      42.252  28.337  27.692  1.00  0.00    -0.205 F 
ATOM     79  C   UNL A   1      40.641  25.397  26.369  1.00  0.00     0.022 A 
BRANCH  77  80
ATOM     80  S   UNL A   1      42.832  26.636  25.292  1.00  0.00     0.127 S 
ATOM     81  O   UNL A   1      42.396  27.839  24.580  1.00  0.00    -0.237 OA
ATOM     82  O   UNL A   1      44.030  26.813  26.109  1.00  0.00    -0.237 OA
ATOM     83  O   UNL A   1      42.811  25.424  24.481  1.00  0.00    -0.744 OA
ENDBRANCH  77  80
ENDBRANCH  59  73
BRANCH  60  84
ATOM     84  C   UNL A   1      39.541  33.916  35.714  1.00  0.00     0.023 A 
ATOM     85  C   UNL A   1      38.284  33.807  35.065  1.00  0.00     0.012 A 
ATOM     86  C   UNL A   1      39.565  34.024  37.113  1.00  0.00     0.148 A 
ATOM     87  C   UNL A   1      37.138  33.493  35.804  1.00  0.00     0.002 A 
ATOM     88  C   UNL A   1      38.413  33.742  37.841  1.00  0.00     0.091 A 
ATOM     89  F   UNL A   1      40.713  34.327  37.730  1.00  0.00    -0.205 F 
ATOM     90  C   UNL A   1      37.220  33.395  37.191  1.00  0.00     0.022 A 
BRANCH  88  91
ATOM     91  S   UNL A   1      38.490  33.724  39.634  1.00  0.00     0.127 S 
ATOM     92  O   UNL A   1      38.819  35.115  39.930  1.00  0.00    -0.237 OA
ATOM     93  O   UNL A   1      37.139  33.328  40.026  1.00  0.00    -0.237 OA
ATOM     94  O   UNL A   1      39.516  32.737  39.943  1.00  0.00    -0.744 OA
ENDBRANCH  88  91
ENDBRANCH  60  84
BRANCH  72  95
ATOM     95  C   UNL A   1      42.800  27.436  34.969  1.00  0.00     0.023 A 
ATOM     96  C   UNL A   1      41.855  26.415  35.175  1.00  0.00     0.012 A 
ATOM     97  C   UNL A   1      44.104  27.167  35.469  1.00  0.00     0.148 A 
ATOM     98  C   UNL A   1      42.207  25.151  35.661  1.00  0.00     0.002 A 
ATOM     99  C   UNL A   1      44.456  25.917  35.964  1.00  0.00     0.091 A 
ATOM    100  F   UNL A   1      45.008  28.146  35.557  1.00  0.00    -0.205 F 
ATOM    101  C   UNL A   1      43.517  24.890  36.028  1.00  0.00     0.022 A 
BRANCH  99 102
ATOM    102  S   UNL A   1      46.107  25.566  36.586  1.00  0.00     0.127 S 
ATOM    103  O   UNL A   1      46.217  26.532  37.680  1.00  0.00    -0.237 OA
ATOM    104  O   UNL A   1      45.978  24.173  37.013  1.00  0.00    -0.237 OA
ATOM    105  O   UNL A   1      47.021  25.779  35.475  1.00  0.00    -0.744 OA
ENDBRANCH  99 102
ENDBRANCH  72  95
ENDBRANCH  46  47
ENDBRANCH  38  41
ENDBRANCH  36  37
ENDBRANCH  35  36
ENDBRANCH  34  35
ENDBRANCH   1  34
TORSDOF 20
ENDMDL
