MODEL 1
REMARK VINA RESULT:     -12.5      0.000      0.000
REMARK SMILES Cc1cc(C(=O)N[C@H]2C=C[C@H](C(=O)NCCCCCCNC(=O)c3ccc(-c4c5nc(c(-c6cccc(S(=O)(=O)[O-])c6F)c6ccc([nH]6)c(-c6cccc(S(=O)(=O)[O-])c6F)c6nc(c(-c7cccc(S(=O)(=O)[O-])c7F)c7ccc4[nH]7)C=C6)C=C5)cc3)C2)ccc1F
REMARK SMILES IDX 18 1 17 2 16 3 15 4 14 5 12 6 13 7 11 9 8 10 9 11 87 12
REMARK SMILES IDX 10 13 7 14 5 15 6 16 4 18 1 19 2 20 3 21 90 22 89 23 91 24
REMARK SMILES IDX 88 25 19 26 20 27 21 28 22 29 23 31 24 32 25 33 86 34 26 35
REMARK SMILES IDX 85 36 27 37 28 38 29 39 79 40 30 41 84 42 78 43 80 44 31 45
REMARK SMILES IDX 83 46 77 47 76 48 32 50 64 51 44 52 63 53 45 54 48 55 62 56
REMARK SMILES IDX 81 57 46 58 47 59 61 61 82 62 49 63 33 64 34 65 42 66 35 67
REMARK SMILES IDX 37 68 43 69 36 70 38 71 39 72 40 73 41 74 65 75 66 76 74 77
REMARK SMILES IDX 67 78 69 79 75 80 68 81 70 82 71 83 72 84 73 85 50 86 51 87
REMARK SMILES IDX 59 88 52 89 54 90 60 91 53 92 55 93 56 94 57 95 58 96
REMARK H PARENT 14 8 7 17 21 30 80 49 48 60
REMARK Flexibility Score: inf
ROOT
ATOM      1  C   UNL A   1      32.846  27.879  26.562  1.00  0.00     0.002 C 
ENDROOT
BRANCH   1   2
ATOM      2  C   UNL A   1      33.981  27.265  25.725  1.00  0.00     0.002 C 
BRANCH   2   3
ATOM      3  C   UNL A   1      33.641  26.419  24.491  1.00  0.00     0.021 C 
BRANCH   3   4
ATOM      4  C   UNL A   1      34.248  25.026  24.386  1.00  0.00     0.116 C 
BRANCH   4   5
ATOM      5  N   UNL A   1      35.283  24.780  25.361  1.00  0.00    -0.356 N 
ATOM      6  C   UNL A   1      36.336  23.930  25.340  1.00  0.00     0.227 C 
ATOM      7  O   UNL A   1      37.158  24.065  26.254  1.00  0.00    -0.274 OA
ATOM      8  H   UNL A   1      35.211  25.322  26.180  1.00  0.00     0.163 HD
BRANCH   6   9
ATOM      9  C   UNL A   1      36.495  22.798  24.294  1.00  0.00     0.103 C 
ATOM     10  C   UNL A   1      35.190  21.034  25.259  1.00  0.00     0.106 C 
ATOM     11  C   UNL A   1      36.607  20.586  25.126  1.00  0.00    -0.006 C 
ATOM     12  C   UNL A   1      35.130  22.089  24.153  1.00  0.00     0.047 C 
ATOM     13  C   UNL A   1      37.341  21.592  24.629  1.00  0.00    -0.016 C 
BRANCH  10  14
ATOM     14  N   UNL A   1      34.252  19.957  25.121  1.00  0.00    -0.346 N 
ATOM     15  C   UNL A   1      32.900  20.007  24.872  1.00  0.00     0.251 C 
ATOM     16  O   UNL A   1      32.287  18.947  24.754  1.00  0.00    -0.269 OA
ATOM     17  H   UNL A   1      34.631  19.052  25.217  1.00  0.00     0.164 HD
BRANCH  15  18
ATOM     18  C   UNL A   1      32.161  21.292  24.664  1.00  0.00     0.040 A 
ATOM     19  C   UNL A   1      30.779  24.305  26.550  1.00  0.00     0.047 C 
ATOM     20  C   UNL A   1      31.121  23.366  25.431  1.00  0.00    -0.015 A 
ATOM     21  C   UNL A   1      31.689  22.111  25.698  1.00  0.00     0.020 A 
ATOM     22  C   UNL A   1      30.907  23.734  24.106  1.00  0.00     0.126 A 
ATOM     23  C   UNL A   1      31.280  22.895  23.061  1.00  0.00     0.040 A 
ATOM     24  F   UNL A   1      30.329  24.909  23.822  1.00  0.00    -0.207 F 
ATOM     25  C   UNL A   1      31.920  21.685  23.339  1.00  0.00     0.017 A 
ENDBRANCH  15  18
ENDBRANCH  10  14
ENDBRANCH   6   9
ENDBRANCH   4   5
ENDBRANCH   3   4
ENDBRANCH   2   3
ENDBRANCH   1   2
BRANCH   1  26
ATOM     26  C   UNL A   1      33.056  29.268  27.157  1.00  0.00     0.021 C 
BRANCH  26  27
ATOM     27  C   UNL A   1      34.411  29.885  26.888  1.00  0.00     0.116 C 
BRANCH  27  28
ATOM     28  N   UNL A   1      34.884  30.865  27.833  1.00  0.00    -0.352 N 
ATOM     29  C   UNL A   1      36.003  30.814  28.650  1.00  0.00     0.251 C 
ATOM     30  H   UNL A   1      34.339  31.681  27.909  1.00  0.00     0.163 HD
ATOM     31  O   UNL A   1      36.160  31.697  29.481  1.00  0.00    -0.269 OA
BRANCH  29  32
ATOM     32  C   UNL A   1      37.066  29.764  28.480  1.00  0.00     0.039 A 
ATOM     33  C   UNL A   1      37.400  28.987  29.605  1.00  0.00     0.014 A 
ATOM     34  C   UNL A   1      37.841  29.619  27.331  1.00  0.00     0.014 A 
ATOM     35  C   UNL A   1      38.589  28.252  29.627  1.00  0.00     0.010 A 
ATOM     36  C   UNL A   1      39.037  28.950  27.358  1.00  0.00     0.010 A 
ATOM     37  C   UNL A   1      39.431  28.317  28.520  1.00  0.00    -0.014 A 
BRANCH  37  38
ATOM     38  C   UNL A   1      40.776  27.793  28.463  1.00  0.00     0.031 A 
ATOM     39  C   UNL A   1      40.976  26.394  28.110  1.00  0.00     0.074 A 
ATOM     40  C   UNL A   1      41.814  28.633  28.639  1.00  0.00     0.049 A 
ATOM     41  N   UNL A   1      41.778  25.601  28.726  1.00  0.00    -0.248 NA
ATOM     42  C   UNL A   1      40.245  25.773  27.012  1.00  0.00     0.031 C 
ATOM     43  C   UNL A   1      43.238  28.354  28.516  1.00  0.00     0.029 A 
ATOM     44  N   UNL A   1      41.755  29.905  29.181  1.00  0.00    -0.354 N 
ATOM     45  C   UNL A   1      41.930  24.505  27.911  1.00  0.00     0.074 A 
ATOM     46  C   UNL A   1      40.856  24.587  26.942  1.00  0.00     0.031 C 
ATOM     47  C   UNL A   1      43.913  29.288  29.213  1.00  0.00     0.029 A 
ATOM     48  C   UNL A   1      42.941  30.140  29.886  1.00  0.00     0.049 A 
ATOM     49  H   UNL A   1      41.007  30.537  29.087  1.00  0.00     0.167 HD
ATOM     50  C   UNL A   1      43.068  23.757  27.983  1.00  0.00     0.034 A 
ATOM     51  C   UNL A   1      42.861  30.355  31.233  1.00  0.00     0.034 A 
ATOM     52  C   UNL A   1      44.031  24.367  28.901  1.00  0.00     0.049 A 
ATOM     53  C   UNL A   1      43.401  29.181  32.023  1.00  0.00     0.074 A 
ATOM     54  C   UNL A   1      45.141  25.164  28.663  1.00  0.00     0.029 A 
ATOM     55  N   UNL A   1      43.714  24.540  30.248  1.00  0.00    -0.354 N 
ATOM     56  N   UNL A   1      43.599  27.990  31.524  1.00  0.00    -0.248 NA
ATOM     57  C   UNL A   1      43.747  29.256  33.437  1.00  0.00     0.031 C 
ATOM     58  C   UNL A   1      45.438  25.879  29.851  1.00  0.00     0.029 A 
ATOM     59  C   UNL A   1      44.532  25.498  30.824  1.00  0.00     0.049 A 
ATOM     60  H   UNL A   1      43.006  24.049  30.724  1.00  0.00     0.167 HD
ATOM     61  C   UNL A   1      44.097  27.159  32.493  1.00  0.00     0.074 A 
ATOM     62  C   UNL A   1      44.182  28.004  33.671  1.00  0.00     0.031 C 
ATOM     63  C   UNL A   1      44.407  25.851  32.238  1.00  0.00     0.034 A 
BRANCH  50  64
ATOM     64  C   UNL A   1      43.389  22.723  26.925  1.00  0.00     0.023 A 
ATOM     65  C   UNL A   1      44.278  23.015  25.864  1.00  0.00     0.012 A 
ATOM     66  C   UNL A   1      42.860  21.416  26.948  1.00  0.00     0.148 A 
ATOM     67  C   UNL A   1      44.760  22.028  24.994  1.00  0.00     0.002 A 
ATOM     68  C   UNL A   1      43.296  20.446  26.042  1.00  0.00     0.091 A 
ATOM     69  F   UNL A   1      41.925  21.083  27.846  1.00  0.00    -0.205 F 
ATOM     70  C   UNL A   1      44.278  20.732  25.093  1.00  0.00     0.022 A 
BRANCH  68  71
ATOM     71  S   UNL A   1      42.558  18.809  26.089  1.00  0.00     0.127 S 
ATOM     72  O   UNL A   1      42.798  18.379  27.463  1.00  0.00    -0.237 OA
ATOM     73  O   UNL A   1      41.171  19.064  25.710  1.00  0.00    -0.237 OA
ATOM     74  O   UNL A   1      43.324  18.067  25.085  1.00  0.00    -0.744 OA
ENDBRANCH  68  71
ENDBRANCH  50  64
BRANCH  51  75
ATOM     75  C   UNL A   1      41.649  31.170  31.589  1.00  0.00     0.023 A 
ATOM     76  C   UNL A   1      41.729  32.570  31.683  1.00  0.00     0.012 A 
ATOM     77  C   UNL A   1      40.625  30.503  32.305  1.00  0.00     0.148 A 
ATOM     78  C   UNL A   1      40.894  33.265  32.571  1.00  0.00     0.002 A 
ATOM     79  C   UNL A   1      39.862  31.190  33.246  1.00  0.00     0.091 A 
ATOM     80  F   UNL A   1      40.505  29.172  32.163  1.00  0.00    -0.205 F 
ATOM     81  C   UNL A   1      40.002  32.573  33.393  1.00  0.00     0.022 A 
BRANCH  79  82
ATOM     82  S   UNL A   1      38.919  30.256  34.464  1.00  0.00     0.127 S 
ATOM     83  O   UNL A   1      39.956  29.523  35.180  1.00  0.00    -0.237 OA
ATOM     84  O   UNL A   1      38.211  31.289  35.217  1.00  0.00    -0.237 OA
ATOM     85  O   UNL A   1      38.031  29.424  33.648  1.00  0.00    -0.744 OA
ENDBRANCH  79  82
ENDBRANCH  51  75
BRANCH  63  86
ATOM     86  C   UNL A   1      44.783  24.797  33.259  1.00  0.00     0.023 A 
ATOM     87  C   UNL A   1      43.791  23.846  33.625  1.00  0.00     0.012 A 
ATOM     88  C   UNL A   1      46.004  24.711  33.941  1.00  0.00     0.148 A 
ATOM     89  C   UNL A   1      43.998  22.874  34.604  1.00  0.00     0.002 A 
ATOM     90  C   UNL A   1      46.249  23.665  34.834  1.00  0.00     0.091 A 
ATOM     91  F   UNL A   1      46.932  25.664  33.794  1.00  0.00    -0.205 F 
ATOM     92  C   UNL A   1      45.244  22.763  35.194  1.00  0.00     0.022 A 
BRANCH  90  93
ATOM     93  S   UNL A   1      47.926  23.409  35.416  1.00  0.00     0.127 S 
ATOM     94  O   UNL A   1      48.123  24.541  36.318  1.00  0.00    -0.237 OA
ATOM     95  O   UNL A   1      47.874  22.088  36.034  1.00  0.00    -0.237 OA
ATOM     96  O   UNL A   1      48.725  23.471  34.190  1.00  0.00    -0.744 OA
ENDBRANCH  90  93
ENDBRANCH  63  86
ENDBRANCH  37  38
ENDBRANCH  29  32
ENDBRANCH  27  28
ENDBRANCH  26  27
ENDBRANCH   1  26
TORSDOF 18
ENDMDL
MODEL 2
REMARK VINA RESULT:     -12.4      4.496      9.803
REMARK SMILES Cc1cc(C(=O)N[C@H]2C=C[C@H](C(=O)NCCCCCCNC(=O)c3ccc(-c4c5nc(c(-c6cccc(S(=O)(=O)[O-])c6F)c6ccc([nH]6)c(-c6cccc(S(=O)(=O)[O-])c6F)c6nc(c(-c7cccc(S(=O)(=O)[O-])c7F)c7ccc4[nH]7)C=C6)C=C5)cc3)C2)ccc1F
REMARK SMILES IDX 18 1 17 2 16 3 15 4 14 5 12 6 13 7 11 9 8 10 9 11 87 12
REMARK SMILES IDX 10 13 7 14 5 15 6 16 4 18 1 19 2 20 3 21 90 22 89 23 91 24
REMARK SMILES IDX 88 25 19 26 20 27 21 28 22 29 23 31 24 32 25 33 86 34 26 35
REMARK SMILES IDX 85 36 27 37 28 38 29 39 79 40 30 41 84 42 78 43 80 44 31 45
REMARK SMILES IDX 83 46 77 47 76 48 32 50 64 51 44 52 63 53 45 54 48 55 62 56
REMARK SMILES IDX 81 57 46 58 47 59 61 61 82 62 49 63 33 64 34 65 42 66 35 67
REMARK SMILES IDX 37 68 43 69 36 70 38 71 39 72 40 73 41 74 65 75 66 76 74 77
REMARK SMILES IDX 67 78 69 79 75 80 68 81 70 82 71 83 72 84 73 85 50 86 51 87
REMARK SMILES IDX 59 88 52 89 54 90 60 91 53 92 55 93 56 94 57 95 58 96
REMARK H PARENT 14 8 7 17 21 30 80 49 48 60
REMARK Flexibility Score: inf
ROOT
ATOM      1  C   UNL A   1      36.216  23.195  24.500  1.00  0.00     0.002 C 
ENDROOT
BRANCH   1   2
ATOM      2  C   UNL A   1      35.032  24.169  24.394  1.00  0.00     0.002 C 
BRANCH   2   3
ATOM      3  C   UNL A   1      34.300  24.332  23.055  1.00  0.00     0.021 C 
BRANCH   3   4
ATOM      4  C   UNL A   1      33.440  25.573  22.853  1.00  0.00     0.116 C 
BRANCH   4   5
ATOM      5  N   UNL A   1      33.820  26.674  23.703  1.00  0.00    -0.356 N 
ATOM      6  C   UNL A   1      33.077  27.473  24.504  1.00  0.00     0.227 C 
ATOM      7  O   UNL A   1      33.711  28.230  25.250  1.00  0.00    -0.274 OA
ATOM      8  H   UNL A   1      34.783  26.880  23.700  1.00  0.00     0.163 HD
BRANCH   6   9
ATOM      9  C   UNL A   1      31.529  27.518  24.461  1.00  0.00     0.103 C 
ATOM     10  C   UNL A   1      30.936  25.461  25.539  1.00  0.00     0.106 C 
ATOM     11  C   UNL A   1      30.411  25.458  24.143  1.00  0.00    -0.006 C 
ATOM     12  C   UNL A   1      31.002  26.966  25.804  1.00  0.00     0.047 C 
ATOM     13  C   UNL A   1      30.786  26.589  23.529  1.00  0.00    -0.016 C 
BRANCH  10  14
ATOM     14  N   UNL A   1      30.105  24.723  26.446  1.00  0.00    -0.346 N 
ATOM     15  C   UNL A   1      30.249  23.434  26.906  1.00  0.00     0.251 C 
ATOM     16  O   UNL A   1      29.429  23.007  27.719  1.00  0.00    -0.269 OA
ATOM     17  H   UNL A   1      29.319  25.208  26.789  1.00  0.00     0.164 HD
BRANCH  15  18
ATOM     18  C   UNL A   1      31.400  22.559  26.520  1.00  0.00     0.040 A 
ATOM     19  C   UNL A   1      32.618  20.247  23.743  1.00  0.00     0.047 C 
ATOM     20  C   UNL A   1      32.570  21.015  25.030  1.00  0.00    -0.015 A 
ATOM     21  C   UNL A   1      31.409  21.708  25.407  1.00  0.00     0.020 A 
ATOM     22  C   UNL A   1      33.686  21.080  25.860  1.00  0.00     0.126 A 
ATOM     23  C   UNL A   1      33.669  21.842  27.024  1.00  0.00     0.040 A 
ATOM     24  F   UNL A   1      34.795  20.396  25.547  1.00  0.00    -0.207 F 
ATOM     25  C   UNL A   1      32.535  22.593  27.344  1.00  0.00     0.017 A 
ENDBRANCH  15  18
ENDBRANCH  10  14
ENDBRANCH   6   9
ENDBRANCH   4   5
ENDBRANCH   3   4
ENDBRANCH   2   3
ENDBRANCH   1   2
BRANCH   1  26
ATOM     26  C   UNL A   1      37.536  23.717  25.060  1.00  0.00     0.021 C 
BRANCH  26  27
ATOM     27  C   UNL A   1      38.176  22.845  26.116  1.00  0.00     0.116 C 
BRANCH  27  28
ATOM     28  N   UNL A   1      39.616  22.852  26.187  1.00  0.00    -0.352 N 
ATOM     29  C   UNL A   1      40.462  23.889  26.547  1.00  0.00     0.251 C 
ATOM     30  H   UNL A   1      40.058  22.006  25.948  1.00  0.00     0.163 HD
ATOM     31  O   UNL A   1      41.667  23.730  26.418  1.00  0.00    -0.269 OA
BRANCH  29  32
ATOM     32  C   UNL A   1      39.949  25.155  27.173  1.00  0.00     0.039 A 
ATOM     33  C   UNL A   1      40.309  26.374  26.567  1.00  0.00     0.014 A 
ATOM     34  C   UNL A   1      39.274  25.205  28.391  1.00  0.00     0.014 A 
ATOM     35  C   UNL A   1      40.172  27.577  27.265  1.00  0.00     0.010 A 
ATOM     36  C   UNL A   1      39.186  26.368  29.110  1.00  0.00     0.010 A 
ATOM     37  C   UNL A   1      39.684  27.537  28.569  1.00  0.00    -0.014 A 
BRANCH  37  38
ATOM     38  C   UNL A   1      39.677  28.648  29.492  1.00  0.00     0.031 A 
ATOM     39  C   UNL A   1      38.651  29.673  29.358  1.00  0.00     0.074 A 
ATOM     40  C   UNL A   1      40.556  28.658  30.513  1.00  0.00     0.049 A 
ATOM     41  N   UNL A   1      38.878  30.936  29.419  1.00  0.00    -0.248 NA
ATOM     42  C   UNL A   1      37.254  29.326  29.119  1.00  0.00     0.031 C 
ATOM     43  C   UNL A   1      40.658  29.605  31.614  1.00  0.00     0.029 A 
ATOM     44  N   UNL A   1      41.694  27.876  30.621  1.00  0.00    -0.354 N 
ATOM     45  C   UNL A   1      37.652  31.535  29.582  1.00  0.00     0.074 A 
ATOM     46  C   UNL A   1      36.674  30.522  29.242  1.00  0.00     0.031 C 
ATOM     47  C   UNL A   1      41.906  29.538  32.115  1.00  0.00     0.029 A 
ATOM     48  C   UNL A   1      42.676  28.616  31.289  1.00  0.00     0.049 A 
ATOM     49  H   UNL A   1      41.795  26.957  30.286  1.00  0.00     0.167 HD
ATOM     50  C   UNL A   1      37.565  32.748  30.199  1.00  0.00     0.034 A 
ATOM     51  C   UNL A   1      43.830  28.912  30.620  1.00  0.00     0.034 A 
ATOM     52  C   UNL A   1      38.872  33.164  30.709  1.00  0.00     0.049 A 
ATOM     53  C   UNL A   1      43.908  30.381  30.257  1.00  0.00     0.074 A 
ATOM     54  C   UNL A   1      39.422  33.092  31.980  1.00  0.00     0.029 A 
ATOM     55  N   UNL A   1      39.943  33.361  29.837  1.00  0.00    -0.354 N 
ATOM     56  N   UNL A   1      42.887  31.194  30.265  1.00  0.00    -0.248 NA
ATOM     57  C   UNL A   1      45.141  31.041  29.846  1.00  0.00     0.031 C 
ATOM     58  C   UNL A   1      40.833  33.162  31.860  1.00  0.00     0.029 A 
ATOM     59  C   UNL A   1      41.146  33.310  30.521  1.00  0.00     0.049 A 
ATOM     60  H   UNL A   1      39.855  33.515  28.869  1.00  0.00     0.167 HD
ATOM     61  C   UNL A   1      43.291  32.450  29.894  1.00  0.00     0.074 A 
ATOM     62  C   UNL A   1      44.716  32.303  29.653  1.00  0.00     0.031 C 
ATOM     63  C   UNL A   1      42.420  33.503  29.829  1.00  0.00     0.034 A 
BRANCH  50  64
ATOM     64  C   UNL A   1      36.227  33.304  30.640  1.00  0.00     0.023 A 
ATOM     65  C   UNL A   1      35.755  33.114  31.959  1.00  0.00     0.012 A 
ATOM     66  C   UNL A   1      35.398  34.063  29.788  1.00  0.00     0.148 A 
ATOM     67  C   UNL A   1      34.633  33.786  32.460  1.00  0.00     0.002 A 
ATOM     68  C   UNL A   1      34.245  34.686  30.273  1.00  0.00     0.091 A 
ATOM     69  F   UNL A   1      35.706  34.200  28.493  1.00  0.00    -0.205 F 
ATOM     70  C   UNL A   1      33.881  34.589  31.617  1.00  0.00     0.022 A 
BRANCH  68  71
ATOM     71  S   UNL A   1      33.202  35.606  29.136  1.00  0.00     0.127 S 
ATOM     72  O   UNL A   1      32.338  36.372  30.028  1.00  0.00    -0.237 OA
ATOM     73  O   UNL A   1      34.167  36.361  28.344  1.00  0.00    -0.237 OA
ATOM     74  O   UNL A   1      32.509  34.553  28.389  1.00  0.00    -0.744 OA
ENDBRANCH  68  71
ENDBRANCH  50  64
BRANCH  51  75
ATOM     75  C   UNL A   1      44.271  27.768  29.750  1.00  0.00     0.023 A 
ATOM     76  C   UNL A   1      45.260  26.872  30.192  1.00  0.00     0.012 A 
ATOM     77  C   UNL A   1      44.069  27.916  28.356  1.00  0.00     0.148 A 
ATOM     78  C   UNL A   1      46.107  26.247  29.265  1.00  0.00     0.002 A 
ATOM     79  C   UNL A   1      44.970  27.362  27.451  1.00  0.00     0.091 A 
ATOM     80  F   UNL A   1      43.079  28.722  27.934  1.00  0.00    -0.205 F 
ATOM     81  C   UNL A   1      46.002  26.534  27.902  1.00  0.00     0.022 A 
BRANCH  79  82
ATOM     82  S   UNL A   1      44.977  27.946  25.747  1.00  0.00     0.127 S 
ATOM     83  O   UNL A   1      45.759  29.174  25.832  1.00  0.00    -0.237 OA
ATOM     84  O   UNL A   1      45.577  26.839  25.007  1.00  0.00    -0.237 OA
ATOM     85  O   UNL A   1      43.557  28.143  25.445  1.00  0.00    -0.744 OA
ENDBRANCH  79  82
ENDBRANCH  51  75
BRANCH  63  86
ATOM     86  C   UNL A   1      42.707  34.877  29.259  1.00  0.00     0.023 A 
ATOM     87  C   UNL A   1      42.242  35.160  27.945  1.00  0.00     0.012 A 
ATOM     88  C   UNL A   1      43.458  35.884  29.880  1.00  0.00     0.148 A 
ATOM     89  C   UNL A   1      42.507  36.362  27.290  1.00  0.00     0.002 A 
ATOM     90  C   UNL A   1      43.620  37.130  29.269  1.00  0.00     0.091 A 
ATOM     91  F   UNL A   1      44.084  35.648  31.038  1.00  0.00    -0.205 F 
ATOM     92  C   UNL A   1      43.176  37.367  27.966  1.00  0.00     0.022 A 
BRANCH  90  93
ATOM     93  S   UNL A   1      44.292  38.480  30.240  1.00  0.00     0.127 S 
ATOM     94  O   UNL A   1      43.769  38.198  31.575  1.00  0.00    -0.237 OA
ATOM     95  O   UNL A   1      45.733  38.341  30.066  1.00  0.00    -0.237 OA
ATOM     96  O   UNL A   1      43.718  39.671  29.611  1.00  0.00    -0.744 OA
ENDBRANCH  90  93
ENDBRANCH  63  86
ENDBRANCH  37  38
ENDBRANCH  29  32
ENDBRANCH  27  28
ENDBRANCH  26  27
ENDBRANCH   1  26
TORSDOF 18
ENDMDL
MODEL 3
REMARK VINA RESULT:     -12.4      2.209      3.061
REMARK SMILES Cc1cc(C(=O)N[C@H]2C=C[C@H](C(=O)NCCCCCCNC(=O)c3ccc(-c4c5nc(c(-c6cccc(S(=O)(=O)[O-])c6F)c6ccc([nH]6)c(-c6cccc(S(=O)(=O)[O-])c6F)c6nc(c(-c7cccc(S(=O)(=O)[O-])c7F)c7ccc4[nH]7)C=C6)C=C5)cc3)C2)ccc1F
REMARK SMILES IDX 18 1 17 2 16 3 15 4 14 5 12 6 13 7 11 9 8 10 9 11 87 12
REMARK SMILES IDX 10 13 7 14 5 15 6 16 4 18 1 19 2 20 3 21 90 22 89 23 91 24
REMARK SMILES IDX 88 25 19 26 20 27 21 28 22 29 23 31 24 32 25 33 86 34 26 35
REMARK SMILES IDX 85 36 27 37 28 38 29 39 79 40 30 41 84 42 78 43 80 44 31 45
REMARK SMILES IDX 83 46 77 47 76 48 32 50 64 51 44 52 63 53 45 54 48 55 62 56
REMARK SMILES IDX 81 57 46 58 47 59 61 61 82 62 49 63 33 64 34 65 42 66 35 67
REMARK SMILES IDX 37 68 43 69 36 70 38 71 39 72 40 73 41 74 65 75 66 76 74 77
REMARK SMILES IDX 67 78 69 79 75 80 68 81 70 82 71 83 72 84 73 85 50 86 51 87
REMARK SMILES IDX 59 88 52 89 54 90 60 91 53 92 55 93 56 94 57 95 58 96
REMARK H PARENT 14 8 7 17 21 30 80 49 48 60
REMARK Flexibility Score: inf
ROOT
ATOM      1  C   UNL A   1      33.010  29.244  26.868  1.00  0.00     0.002 C 
ENDROOT
BRANCH   1   2
ATOM      2  C   UNL A   1      31.848  28.514  27.561  1.00  0.00     0.002 C 
BRANCH   2   3
ATOM      3  C   UNL A   1      31.122  27.378  26.829  1.00  0.00     0.021 C 
BRANCH   3   4
ATOM      4  C   UNL A   1      31.927  26.144  26.441  1.00  0.00     0.116 C 
BRANCH   4   5
ATOM      5  N   UNL A   1      31.126  24.948  26.343  1.00  0.00    -0.356 N 
ATOM      6  C   UNL A   1      31.462  23.683  26.001  1.00  0.00     0.227 C 
ATOM      7  O   UNL A   1      30.587  22.826  26.174  1.00  0.00    -0.274 OA
ATOM      8  H   UNL A   1      30.175  25.074  26.561  1.00  0.00     0.163 HD
BRANCH   6   9
ATOM      9  C   UNL A   1      32.822  23.306  25.360  1.00  0.00     0.103 C 
ATOM     10  C   UNL A   1      32.376  23.603  23.023  1.00  0.00     0.106 C 
ATOM     11  C   UNL A   1      32.745  22.181  23.281  1.00  0.00    -0.006 C 
ATOM     12  C   UNL A   1      33.083  24.287  24.195  1.00  0.00     0.047 C 
ATOM     13  C   UNL A   1      32.947  22.009  24.595  1.00  0.00    -0.016 C 
BRANCH  10  14
ATOM     14  N   UNL A   1      32.782  24.055  21.724  1.00  0.00    -0.346 N 
ATOM     15  C   UNL A   1      32.722  25.320  21.185  1.00  0.00     0.251 C 
ATOM     16  O   UNL A   1      33.165  25.494  20.049  1.00  0.00    -0.269 OA
ATOM     17  H   UNL A   1      33.157  23.362  21.133  1.00  0.00     0.164 HD
BRANCH  15  18
ATOM     18  C   UNL A   1      32.213  26.503  21.947  1.00  0.00     0.040 A 
ATOM     19  C   UNL A   1      29.006  28.043  23.318  1.00  0.00     0.047 C 
ATOM     20  C   UNL A   1      30.453  27.848  22.978  1.00  0.00    -0.015 A 
ATOM     21  C   UNL A   1      30.858  26.796  22.142  1.00  0.00     0.020 A 
ATOM     22  C   UNL A   1      31.426  28.691  23.510  1.00  0.00     0.126 A 
ATOM     23  C   UNL A   1      32.777  28.478  23.251  1.00  0.00     0.040 A 
ATOM     24  F   UNL A   1      31.067  29.729  24.278  1.00  0.00    -0.207 F 
ATOM     25  C   UNL A   1      33.170  27.378  22.485  1.00  0.00     0.017 A 
ENDBRANCH  15  18
ENDBRANCH  10  14
ENDBRANCH   6   9
ENDBRANCH   4   5
ENDBRANCH   3   4
ENDBRANCH   2   3
ENDBRANCH   1   2
BRANCH   1  26
ATOM     26  C   UNL A   1      34.406  29.122  27.473  1.00  0.00     0.021 C 
BRANCH  26  27
ATOM     27  C   UNL A   1      35.176  30.420  27.579  1.00  0.00     0.116 C 
BRANCH  27  28
ATOM     28  N   UNL A   1      35.449  30.914  28.905  1.00  0.00    -0.352 N 
ATOM     29  C   UNL A   1      36.393  30.473  29.819  1.00  0.00     0.251 C 
ATOM     30  H   UNL A   1      34.889  31.666  29.202  1.00  0.00     0.163 HD
ATOM     31  O   UNL A   1      36.378  30.944  30.947  1.00  0.00    -0.269 OA
BRANCH  29  32
ATOM     32  C   UNL A   1      37.482  29.510  29.437  1.00  0.00     0.039 A 
ATOM     33  C   UNL A   1      37.763  28.456  30.327  1.00  0.00     0.014 A 
ATOM     34  C   UNL A   1      38.327  29.684  28.342  1.00  0.00     0.014 A 
ATOM     35  C   UNL A   1      38.960  27.744  30.222  1.00  0.00     0.010 A 
ATOM     36  C   UNL A   1      39.531  29.033  28.260  1.00  0.00     0.010 A 
ATOM     37  C   UNL A   1      39.866  28.108  29.229  1.00  0.00    -0.014 A 
BRANCH  37  38
ATOM     38  C   UNL A   1      41.221  27.620  29.116  1.00  0.00     0.031 A 
ATOM     39  C   UNL A   1      41.454  26.304  28.537  1.00  0.00     0.074 A 
ATOM     40  C   UNL A   1      42.240  28.433  29.455  1.00  0.00     0.049 A 
ATOM     41  N   UNL A   1      42.256  25.430  29.029  1.00  0.00    -0.248 NA
ATOM     42  C   UNL A   1      40.756  25.868  27.333  1.00  0.00     0.031 C 
ATOM     43  C   UNL A   1      43.671  28.200  29.321  1.00  0.00     0.029 A 
ATOM     44  N   UNL A   1      42.147  29.594  30.204  1.00  0.00    -0.354 N 
ATOM     45  C   UNL A   1      42.445  24.490  28.044  1.00  0.00     0.074 A 
ATOM     46  C   UNL A   1      41.390  24.720  27.078  1.00  0.00     0.031 C 
ATOM     47  C   UNL A   1      44.315  29.011  30.181  1.00  0.00     0.029 A 
ATOM     48  C   UNL A   1      43.314  29.723  30.966  1.00  0.00     0.049 A 
ATOM     49  H   UNL A   1      41.390  30.222  30.200  1.00  0.00     0.167 HD
ATOM     50  C   UNL A   1      43.595  23.757  28.015  1.00  0.00     0.034 A 
ATOM     51  C   UNL A   1      43.202  29.706  32.328  1.00  0.00     0.034 A 
ATOM     52  C   UNL A   1      44.527  24.216  29.045  1.00  0.00     0.049 A 
ATOM     53  C   UNL A   1      43.746  28.422  32.920  1.00  0.00     0.074 A 
ATOM     54  C   UNL A   1      45.627  25.058  28.972  1.00  0.00     0.029 A 
ATOM     55  N   UNL A   1      44.179  24.155  30.394  1.00  0.00    -0.354 N 
ATOM     56  N   UNL A   1      43.977  27.337  32.232  1.00  0.00    -0.248 NA
ATOM     57  C   UNL A   1      44.062  28.262  34.334  1.00  0.00     0.031 C 
ATOM     58  C   UNL A   1      45.887  25.566  30.270  1.00  0.00     0.029 A 
ATOM     59  C   UNL A   1      44.968  25.012  31.143  1.00  0.00     0.049 A 
ATOM     60  H   UNL A   1      43.471  23.579  30.764  1.00  0.00     0.167 HD
ATOM     61  C   UNL A   1      44.469  26.360  33.058  1.00  0.00     0.074 A 
ATOM     62  C   UNL A   1      44.514  26.995  34.364  1.00  0.00     0.031 C 
ATOM     63  C   UNL A   1      44.807  25.119  32.593  1.00  0.00     0.034 A 
BRANCH  50  64
ATOM     64  C   UNL A   1      43.956  22.921  26.805  1.00  0.00     0.023 A 
ATOM     65  C   UNL A   1      44.819  23.423  25.802  1.00  0.00     0.012 A 
ATOM     66  C   UNL A   1      43.492  21.603  26.621  1.00  0.00     0.148 A 
ATOM     67  C   UNL A   1      45.340  22.612  24.785  1.00  0.00     0.002 A 
ATOM     68  C   UNL A   1      43.966  20.812  25.571  1.00  0.00     0.091 A 
ATOM     69  F   UNL A   1      42.584  21.085  27.457  1.00  0.00    -0.205 F 
ATOM     70  C   UNL A   1      44.924  21.295  24.678  1.00  0.00     0.022 A 
BRANCH  68  71
ATOM     71  S   UNL A   1      43.311  19.153  25.358  1.00  0.00     0.127 S 
ATOM     72  O   UNL A   1      43.851  18.436  26.509  1.00  0.00    -0.237 OA
ATOM     73  O   UNL A   1      41.868  19.372  25.335  1.00  0.00    -0.237 OA
ATOM     74  O   UNL A   1      43.873  18.733  24.073  1.00  0.00    -0.744 OA
ENDBRANCH  68  71
ENDBRANCH  50  64
BRANCH  51  75
ATOM     75  C   UNL A   1      41.969  30.431  32.788  1.00  0.00     0.023 A 
ATOM     76  C   UNL A   1      40.737  29.761  32.883  1.00  0.00     0.012 A 
ATOM     77  C   UNL A   1      41.960  31.838  32.618  1.00  0.00     0.148 A 
ATOM     78  C   UNL A   1      39.538  30.460  32.683  1.00  0.00     0.002 A 
ATOM     79  C   UNL A   1      40.772  32.505  32.333  1.00  0.00     0.091 A 
ATOM     80  F   UNL A   1      43.136  32.488  32.594  1.00  0.00    -0.205 F 
ATOM     81  C   UNL A   1      39.555  31.817  32.351  1.00  0.00     0.022 A 
BRANCH  79  82
ATOM     82  S   UNL A   1      40.840  34.174  31.659  1.00  0.00     0.127 S 
ATOM     83  O   UNL A   1      41.441  34.935  32.749  1.00  0.00    -0.237 OA
ATOM     84  O   UNL A   1      41.642  34.023  30.448  1.00  0.00    -0.237 OA
ATOM     85  O   UNL A   1      39.437  34.495  31.389  1.00  0.00    -0.744 OA
ENDBRANCH  79  82
ENDBRANCH  51  75
BRANCH  63  86
ATOM     86  C   UNL A   1      45.181  23.912  33.430  1.00  0.00     0.023 A 
ATOM     87  C   UNL A   1      44.182  22.925  33.651  1.00  0.00     0.012 A 
ATOM     88  C   UNL A   1      46.408  23.707  34.075  1.00  0.00     0.148 A 
ATOM     89  C   UNL A   1      44.386  21.809  34.462  1.00  0.00     0.002 A 
ATOM     90  C   UNL A   1      46.649  22.531  34.788  1.00  0.00     0.091 A 
ATOM     91  F   UNL A   1      47.345  24.662  34.070  1.00  0.00    -0.205 F 
ATOM     92  C   UNL A   1      45.637  21.594  35.013  1.00  0.00     0.022 A 
BRANCH  90  93
ATOM     93  S   UNL A   1      48.328  22.169  35.303  1.00  0.00     0.127 S 
ATOM     94  O   UNL A   1      49.065  22.233  34.042  1.00  0.00    -0.237 OA
ATOM     95  O   UNL A   1      48.619  23.214  36.277  1.00  0.00    -0.237 OA
ATOM     96  O   UNL A   1      48.228  20.823  35.872  1.00  0.00    -0.744 OA
ENDBRANCH  90  93
ENDBRANCH  63  86
ENDBRANCH  37  38
ENDBRANCH  29  32
ENDBRANCH  27  28
ENDBRANCH  26  27
ENDBRANCH   1  26
TORSDOF 18
ENDMDL
