MODEL 1
REMARK VINA RESULT:     -12.2      0.000      0.000
REMARK SMILES Cc1cscc1C(=O)N1C[C@@H](C(=O)NCCCCCCNC(=O)c2ccc(-c3c4nc(c(-c5cccc(S(=O)(=O)[O-])c5F)c5ccc([nH]5)c(-c5cccc(S(=O)(=O)[O-])c5F)c5nc(c(-c6cccc(S(=O)(=O)[O-])c6F)c6ccc3[nH]6)C=C5)C=C4)cc2)Oc2ccccc21
REMARK SMILES IDX 18 1 17 2 16 3 15 4 14 5 12 6 13 7 11 9 9 10 10 11 93 12
REMARK SMILES IDX 88 13 92 14 87 15 89 16 91 17 90 18 7 19 8 20 6 21 1 22 2 23
REMARK SMILES IDX 3 24 4 25 5 26 19 27 20 28 21 29 22 30 23 32 24 33 25 34
REMARK SMILES IDX 86 35 26 36 85 37 27 38 28 39 29 40 79 41 30 42 84 43 78 44
REMARK SMILES IDX 80 45 31 46 83 47 77 48 76 49 32 51 64 52 44 53 63 54 45 55
REMARK SMILES IDX 48 56 62 57 81 58 46 59 47 60 61 62 82 63 49 64 33 65 34 66
REMARK SMILES IDX 42 67 35 68 37 69 43 70 36 71 38 72 39 73 40 74 41 75 65 76
REMARK SMILES IDX 66 77 74 78 67 79 69 80 75 81 68 82 70 83 71 84 72 85 73 86
REMARK SMILES IDX 50 87 51 88 59 89 52 90 54 91 60 92 53 93 55 94 56 95 57 96
REMARK SMILES IDX 58 97
REMARK H PARENT 14 8 21 31 80 50 48 61
REMARK Flexibility Score: inf
ROOT
ATOM      1  C   UNL A   1      34.074  21.358  24.934  1.00  0.00     0.002 C 
ENDROOT
BRANCH   1   2
ATOM      2  C   UNL A   1      32.604  21.536  25.319  1.00  0.00     0.002 C 
BRANCH   2   3
ATOM      3  C   UNL A   1      32.284  22.693  26.271  1.00  0.00     0.021 C 
BRANCH   3   4
ATOM      4  C   UNL A   1      30.883  23.289  26.150  1.00  0.00     0.116 C 
BRANCH   4   5
ATOM      5  N   UNL A   1      30.825  24.694  26.495  1.00  0.00    -0.353 N 
ATOM      6  C   UNL A   1      30.311  25.739  25.789  1.00  0.00     0.262 C 
ATOM      7  O   UNL A   1      30.289  26.840  26.355  1.00  0.00    -0.271 OA
ATOM      8  H   UNL A   1      31.215  24.929  27.368  1.00  0.00     0.163 HD
BRANCH   6   9
ATOM      9  C   UNL A   1      29.853  25.617  24.313  1.00  0.00     0.281 C 
ATOM     10  N   UNL A   1      31.182  27.453  23.336  1.00  0.00    -0.301 N 
ATOM     11  C   UNL A   1      31.020  25.996  23.388  1.00  0.00     0.181 C 
ATOM     12  C   UNL A   1      29.963  28.195  23.332  1.00  0.00     0.086 A 
ATOM     13  C   UNL A   1      28.744  27.521  23.500  1.00  0.00     0.144 A 
ATOM     14  C   UNL A   1      29.933  29.574  23.090  1.00  0.00     0.030 A 
ATOM     15  O   UNL A   1      28.644  26.196  23.845  1.00  0.00    -0.477 OA
ATOM     16  C   UNL A   1      27.528  28.198  23.373  1.00  0.00     0.049 A 
ATOM     17  C   UNL A   1      28.717  30.259  22.999  1.00  0.00     0.002 A 
ATOM     18  C   UNL A   1      27.515  29.569  23.128  1.00  0.00     0.004 A 
BRANCH  10  19
ATOM     19  C   UNL A   1      32.419  28.074  23.467  1.00  0.00     0.259 C 
ATOM     20  O   UNL A   1      33.114  28.362  22.488  1.00  0.00    -0.269 OA
BRANCH  19  21
ATOM     21  C   UNL A   1      32.924  28.368  24.821  1.00  0.00     0.053 A 
ATOM     22  C   UNL A   1      34.027  26.087  25.575  1.00  0.00     0.046 C 
ATOM     23  C   UNL A   1      33.653  27.523  25.754  1.00  0.00    -0.028 A 
ATOM     24  C   UNL A   1      34.043  28.238  26.875  1.00  0.00     0.069 A 
ATOM     25  S   UNL A   1      33.583  29.876  26.826  1.00  0.00    -0.151 S 
ATOM     26  C   UNL A   1      32.856  29.668  25.302  1.00  0.00     0.079 A 
ENDBRANCH  19  21
ENDBRANCH  10  19
ENDBRANCH   6   9
ENDBRANCH   4   5
ENDBRANCH   3   4
ENDBRANCH   2   3
ENDBRANCH   1   2
BRANCH   1  27
ATOM     27  C   UNL A   1      35.095  21.454  26.071  1.00  0.00     0.021 C 
BRANCH  27  28
ATOM     28  C   UNL A   1      36.483  21.968  25.696  1.00  0.00     0.116 C 
BRANCH  28  29
ATOM     29  N   UNL A   1      37.519  20.954  25.780  1.00  0.00    -0.352 N 
ATOM     30  C   UNL A   1      38.850  21.084  26.096  1.00  0.00     0.251 C 
ATOM     31  H   UNL A   1      37.225  20.036  25.580  1.00  0.00     0.163 HD
ATOM     32  O   UNL A   1      39.581  20.097  26.038  1.00  0.00    -0.269 OA
BRANCH  30  33
ATOM     33  C   UNL A   1      39.421  22.399  26.476  1.00  0.00     0.039 A 
ATOM     34  C   UNL A   1      40.450  22.425  27.423  1.00  0.00     0.014 A 
ATOM     35  C   UNL A   1      38.939  23.598  25.944  1.00  0.00     0.014 A 
ATOM     36  C   UNL A   1      41.028  23.642  27.797  1.00  0.00     0.010 A 
ATOM     37  C   UNL A   1      39.552  24.807  26.277  1.00  0.00     0.010 A 
ATOM     38  C   UNL A   1      40.597  24.843  27.212  1.00  0.00    -0.014 A 
BRANCH  38  39
ATOM     39  C   UNL A   1      41.240  26.136  27.566  1.00  0.00     0.031 A 
ATOM     40  C   UNL A   1      42.648  26.436  27.129  1.00  0.00     0.074 A 
ATOM     41  C   UNL A   1      40.580  27.016  28.345  1.00  0.00     0.049 A 
ATOM     42  N   UNL A   1      43.365  27.509  27.345  1.00  0.00    -0.248 NA
ATOM     43  C   UNL A   1      43.352  25.388  26.373  1.00  0.00     0.031 C 
ATOM     44  C   UNL A   1      39.249  26.805  28.916  1.00  0.00     0.029 A 
ATOM     45  N   UNL A   1      40.951  28.252  28.813  1.00  0.00    -0.354 N 
ATOM     46  C   UNL A   1      44.612  27.254  26.786  1.00  0.00     0.074 A 
ATOM     47  C   UNL A   1      44.563  25.914  26.243  1.00  0.00     0.031 C 
ATOM     48  C   UNL A   1      38.915  27.874  29.659  1.00  0.00     0.029 A 
ATOM     49  C   UNL A   1      40.007  28.842  29.622  1.00  0.00     0.049 A 
ATOM     50  H   UNL A   1      41.810  28.677  28.591  1.00  0.00     0.167 HD
ATOM     51  C   UNL A   1      45.688  28.071  26.702  1.00  0.00     0.034 A 
ATOM     52  C   UNL A   1      40.015  30.031  30.255  1.00  0.00     0.034 A 
ATOM     53  C   UNL A   1      45.715  29.427  27.179  1.00  0.00     0.049 A 
ATOM     54  C   UNL A   1      41.188  30.956  30.067  1.00  0.00     0.074 A 
ATOM     55  C   UNL A   1      46.717  30.371  27.033  1.00  0.00     0.029 A 
ATOM     56  N   UNL A   1      44.695  30.034  27.894  1.00  0.00    -0.354 N 
ATOM     57  N   UNL A   1      42.279  30.770  29.365  1.00  0.00    -0.248 NA
ATOM     58  C   UNL A   1      41.111  32.272  30.721  1.00  0.00     0.031 C 
ATOM     59  C   UNL A   1      46.301  31.550  27.664  1.00  0.00     0.029 A 
ATOM     60  C   UNL A   1      45.042  31.338  28.201  1.00  0.00     0.049 A 
ATOM     61  H   UNL A   1      43.847  29.601  28.146  1.00  0.00     0.167 HD
ATOM     62  C   UNL A   1      43.005  31.951  29.469  1.00  0.00     0.074 A 
ATOM     63  C   UNL A   1      42.218  32.856  30.281  1.00  0.00     0.031 C 
ATOM     64  C   UNL A   1      44.225  32.250  28.959  1.00  0.00     0.034 A 
BRANCH  51  65
ATOM     65  C   UNL A   1      46.907  27.547  25.992  1.00  0.00     0.023 A 
ATOM     66  C   UNL A   1      47.809  26.722  26.696  1.00  0.00     0.012 A 
ATOM     67  C   UNL A   1      47.132  27.811  24.628  1.00  0.00     0.148 A 
ATOM     68  C   UNL A   1      48.929  26.189  26.060  1.00  0.00     0.002 A 
ATOM     69  C   UNL A   1      48.234  27.249  23.992  1.00  0.00     0.091 A 
ATOM     70  F   UNL A   1      46.278  28.618  23.982  1.00  0.00    -0.205 F 
ATOM     71  C   UNL A   1      49.135  26.445  24.708  1.00  0.00     0.022 A 
BRANCH  69  72
ATOM     72  S   UNL A   1      48.546  27.469  22.236  1.00  0.00     0.127 S 
ATOM     73  O   UNL A   1      49.809  28.208  22.251  1.00  0.00    -0.237 OA
ATOM     74  O   UNL A   1      48.655  26.089  21.761  1.00  0.00    -0.237 OA
ATOM     75  O   UNL A   1      47.397  28.196  21.717  1.00  0.00    -0.744 OA
ENDBRANCH  69  72
ENDBRANCH  51  65
BRANCH  52  76
ATOM     76  C   UNL A   1      38.827  30.453  31.048  1.00  0.00     0.023 A 
ATOM     77  C   UNL A   1      38.797  30.193  32.432  1.00  0.00     0.012 A 
ATOM     78  C   UNL A   1      37.754  31.145  30.456  1.00  0.00     0.148 A 
ATOM     79  C   UNL A   1      37.709  30.593  33.208  1.00  0.00     0.002 A 
ATOM     80  C   UNL A   1      36.695  31.584  31.243  1.00  0.00     0.091 A 
ATOM     81  F   UNL A   1      37.789  31.366  29.134  1.00  0.00    -0.205 F 
ATOM     82  C   UNL A   1      36.664  31.299  32.617  1.00  0.00     0.022 A 
BRANCH  80  83
ATOM     83  S   UNL A   1      35.383  32.612  30.572  1.00  0.00     0.127 S 
ATOM     84  O   UNL A   1      34.918  31.810  29.444  1.00  0.00    -0.237 OA
ATOM     85  O   UNL A   1      34.448  32.699  31.695  1.00  0.00    -0.237 OA
ATOM     86  O   UNL A   1      36.026  33.877  30.239  1.00  0.00    -0.744 OA
ENDBRANCH  80  83
ENDBRANCH  52  76
BRANCH  64  87
ATOM     87  C   UNL A   1      44.789  33.614  29.253  1.00  0.00     0.023 A 
ATOM     88  C   UNL A   1      45.510  33.819  30.446  1.00  0.00     0.012 A 
ATOM     89  C   UNL A   1      44.676  34.666  28.323  1.00  0.00     0.148 A 
ATOM     90  C   UNL A   1      46.088  35.057  30.721  1.00  0.00     0.002 A 
ATOM     91  C   UNL A   1      45.288  35.886  28.587  1.00  0.00     0.091 A 
ATOM     92  F   UNL A   1      43.965  34.462  27.204  1.00  0.00    -0.205 F 
ATOM     93  C   UNL A   1      45.988  36.087  29.787  1.00  0.00     0.022 A 
BRANCH  91  94
ATOM     94  S   UNL A   1      45.272  37.229  27.392  1.00  0.00     0.127 S 
ATOM     95  O   UNL A   1      46.029  36.654  26.282  1.00  0.00    -0.237 OA
ATOM     96  O   UNL A   1      43.844  37.405  27.127  1.00  0.00    -0.237 OA
ATOM     97  O   UNL A   1      45.897  38.358  28.070  1.00  0.00    -0.744 OA
ENDBRANCH  91  94
ENDBRANCH  64  87
ENDBRANCH  38  39
ENDBRANCH  30  33
ENDBRANCH  28  29
ENDBRANCH  27  28
ENDBRANCH   1  27
TORSDOF 18
ENDMDL
MODEL 2
REMARK VINA RESULT:     -12.2      1.868      7.925
REMARK SMILES Cc1cscc1C(=O)N1C[C@@H](C(=O)NCCCCCCNC(=O)c2ccc(-c3c4nc(c(-c5cccc(S(=O)(=O)[O-])c5F)c5ccc([nH]5)c(-c5cccc(S(=O)(=O)[O-])c5F)c5nc(c(-c6cccc(S(=O)(=O)[O-])c6F)c6ccc3[nH]6)C=C5)C=C4)cc2)Oc2ccccc21
REMARK SMILES IDX 18 1 17 2 16 3 15 4 14 5 12 6 13 7 11 9 9 10 10 11 93 12
REMARK SMILES IDX 88 13 92 14 87 15 89 16 91 17 90 18 7 19 8 20 6 21 1 22 2 23
REMARK SMILES IDX 3 24 4 25 5 26 19 27 20 28 21 29 22 30 23 32 24 33 25 34
REMARK SMILES IDX 86 35 26 36 85 37 27 38 28 39 29 40 79 41 30 42 84 43 78 44
REMARK SMILES IDX 80 45 31 46 83 47 77 48 76 49 32 51 64 52 44 53 63 54 45 55
REMARK SMILES IDX 48 56 62 57 81 58 46 59 47 60 61 62 82 63 49 64 33 65 34 66
REMARK SMILES IDX 42 67 35 68 37 69 43 70 36 71 38 72 39 73 40 74 41 75 65 76
REMARK SMILES IDX 66 77 74 78 67 79 69 80 75 81 68 82 70 83 71 84 72 85 73 86
REMARK SMILES IDX 50 87 51 88 59 89 52 90 54 91 60 92 53 93 55 94 56 95 57 96
REMARK SMILES IDX 58 97
REMARK H PARENT 14 8 21 31 80 50 48 61
REMARK Flexibility Score: inf
ROOT
ATOM      1  C   UNL A   1      36.730  20.235  24.894  1.00  0.00     0.002 C 
ENDROOT
BRANCH   1   2
ATOM      2  C   UNL A   1      36.720  21.705  24.467  1.00  0.00     0.002 C 
BRANCH   2   3
ATOM      3  C   UNL A   1      36.849  22.741  25.589  1.00  0.00     0.021 C 
BRANCH   3   4
ATOM      4  C   UNL A   1      36.086  24.048  25.381  1.00  0.00     0.116 C 
BRANCH   4   5
ATOM      5  N   UNL A   1      35.287  24.059  24.173  1.00  0.00    -0.353 N 
ATOM      6  C   UNL A   1      34.434  25.013  23.708  1.00  0.00     0.262 C 
ATOM      7  O   UNL A   1      33.947  24.828  22.584  1.00  0.00    -0.271 OA
ATOM      8  H   UNL A   1      35.373  23.259  23.605  1.00  0.00     0.163 HD
BRANCH   6   9
ATOM      9  C   UNL A   1      33.996  26.238  24.551  1.00  0.00     0.281 C 
ATOM     10  N   UNL A   1      32.088  25.229  25.748  1.00  0.00    -0.301 N 
ATOM     11  C   UNL A   1      33.449  25.753  25.903  1.00  0.00     0.181 C 
ATOM     12  C   UNL A   1      31.265  25.952  24.833  1.00  0.00     0.086 A 
ATOM     13  C   UNL A   1      31.823  26.993  24.076  1.00  0.00     0.144 A 
ATOM     14  C   UNL A   1      29.891  25.706  24.716  1.00  0.00     0.030 A 
ATOM     15  O   UNL A   1      33.168  27.264  24.023  1.00  0.00    -0.477 OA
ATOM     16  C   UNL A   1      31.019  27.802  23.269  1.00  0.00     0.049 A 
ATOM     17  C   UNL A   1      29.092  26.492  23.880  1.00  0.00     0.002 A 
ATOM     18  C   UNL A   1      29.654  27.548  23.167  1.00  0.00     0.004 A 
BRANCH  10  19
ATOM     19  C   UNL A   1      31.683  24.019  26.302  1.00  0.00     0.259 C 
ATOM     20  O   UNL A   1      30.893  23.965  27.250  1.00  0.00    -0.269 OA
BRANCH  19  21
ATOM     21  C   UNL A   1      32.241  22.768  25.757  1.00  0.00     0.053 A 
ATOM     22  C   UNL A   1      33.844  21.919  27.679  1.00  0.00     0.046 C 
ATOM     23  C   UNL A   1      33.170  21.818  26.349  1.00  0.00    -0.028 A 
ATOM     24  C   UNL A   1      33.337  20.710  25.535  1.00  0.00     0.069 A 
ATOM     25  S   UNL A   1      32.406  20.769  24.111  1.00  0.00    -0.151 S 
ATOM     26  C   UNL A   1      31.754  22.277  24.553  1.00  0.00     0.079 A 
ENDBRANCH  19  21
ENDBRANCH  10  19
ENDBRANCH   6   9
ENDBRANCH   4   5
ENDBRANCH   3   4
ENDBRANCH   2   3
ENDBRANCH   1   2
BRANCH   1  27
ATOM     27  C   UNL A   1      38.098  19.552  24.958  1.00  0.00     0.021 C 
BRANCH  27  28
ATOM     28  C   UNL A   1      39.031  20.003  26.079  1.00  0.00     0.116 C 
BRANCH  28  29
ATOM     29  N   UNL A   1      40.237  19.201  26.190  1.00  0.00    -0.352 N 
ATOM     30  C   UNL A   1      41.538  19.595  26.389  1.00  0.00     0.251 C 
ATOM     31  H   UNL A   1      40.102  18.230  26.110  1.00  0.00     0.163 HD
ATOM     32  O   UNL A   1      42.431  18.751  26.379  1.00  0.00    -0.269 OA
BRANCH  30  33
ATOM     33  C   UNL A   1      41.882  21.025  26.586  1.00  0.00     0.039 A 
ATOM     34  C   UNL A   1      42.197  21.459  27.878  1.00  0.00     0.014 A 
ATOM     35  C   UNL A   1      41.865  21.944  25.533  1.00  0.00     0.014 A 
ATOM     36  C   UNL A   1      42.543  22.794  28.105  1.00  0.00     0.010 A 
ATOM     37  C   UNL A   1      42.263  23.264  25.750  1.00  0.00     0.010 A 
ATOM     38  C   UNL A   1      42.599  23.705  27.038  1.00  0.00    -0.014 A 
BRANCH  38  39
ATOM     39  C   UNL A   1      43.016  25.114  27.261  1.00  0.00     0.031 A 
ATOM     40  C   UNL A   1      42.082  26.095  27.917  1.00  0.00     0.074 A 
ATOM     41  C   UNL A   1      44.213  25.533  26.806  1.00  0.00     0.049 A 
ATOM     42  N   UNL A   1      42.277  27.360  28.191  1.00  0.00    -0.248 NA
ATOM     43  C   UNL A   1      40.747  25.600  28.291  1.00  0.00     0.031 C 
ATOM     44  C   UNL A   1      45.172  24.709  26.068  1.00  0.00     0.029 A 
ATOM     45  N   UNL A   1      44.817  26.764  26.876  1.00  0.00    -0.354 N 
ATOM     46  C   UNL A   1      41.084  27.821  28.735  1.00  0.00     0.074 A 
ATOM     47  C   UNL A   1      40.161  26.707  28.729  1.00  0.00     0.031 C 
ATOM     48  C   UNL A   1      46.242  25.457  25.751  1.00  0.00     0.029 A 
ATOM     49  C   UNL A   1      46.045  26.812  26.256  1.00  0.00     0.049 A 
ATOM     50  H   UNL A   1      44.411  27.540  27.325  1.00  0.00     0.167 HD
ATOM     51  C   UNL A   1      40.793  29.048  29.226  1.00  0.00     0.034 A 
ATOM     52  C   UNL A   1      46.918  27.830  26.119  1.00  0.00     0.034 A 
ATOM     53  C   UNL A   1      41.731  30.135  29.297  1.00  0.00     0.049 A 
ATOM     54  C   UNL A   1      46.607  29.157  26.757  1.00  0.00     0.074 A 
ATOM     55  C   UNL A   1      41.567  31.378  29.885  1.00  0.00     0.029 A 
ATOM     56  N   UNL A   1      43.010  30.113  28.764  1.00  0.00    -0.354 N 
ATOM     57  N   UNL A   1      45.548  29.513  27.443  1.00  0.00    -0.248 NA
ATOM     58  C   UNL A   1      47.628  30.209  26.639  1.00  0.00     0.031 C 
ATOM     59  C   UNL A   1      42.749  32.107  29.704  1.00  0.00     0.029 A 
ATOM     60  C   UNL A   1      43.646  31.318  29.004  1.00  0.00     0.049 A 
ATOM     61  H   UNL A   1      43.408  29.350  28.285  1.00  0.00     0.167 HD
ATOM     62  C   UNL A   1      45.785  30.817  27.861  1.00  0.00     0.074 A 
ATOM     63  C   UNL A   1      47.100  31.180  27.374  1.00  0.00     0.031 C 
ATOM     64  C   UNL A   1      44.978  31.647  28.565  1.00  0.00     0.034 A 
BRANCH  51  65
ATOM     65  C   UNL A   1      39.420  29.260  29.805  1.00  0.00     0.023 A 
ATOM     66  C   UNL A   1      39.148  28.802  31.110  1.00  0.00     0.012 A 
ATOM     67  C   UNL A   1      38.425  29.960  29.096  1.00  0.00     0.148 A 
ATOM     68  C   UNL A   1      37.899  29.013  31.691  1.00  0.00     0.002 A 
ATOM     69  C   UNL A   1      37.193  30.196  29.695  1.00  0.00     0.091 A 
ATOM     70  F   UNL A   1      38.694  30.366  27.847  1.00  0.00    -0.205 F 
ATOM     71  C   UNL A   1      36.926  29.718  30.988  1.00  0.00     0.022 A 
BRANCH  69  72
ATOM     72  S   UNL A   1      35.901  31.152  28.891  1.00  0.00     0.127 S 
ATOM     73  O   UNL A   1      36.656  32.295  28.376  1.00  0.00    -0.237 OA
ATOM     74  O   UNL A   1      35.422  30.227  27.862  1.00  0.00    -0.237 OA
ATOM     75  O   UNL A   1      34.927  31.455  29.928  1.00  0.00    -0.744 OA
ENDBRANCH  69  72
ENDBRANCH  51  65
BRANCH  52  76
ATOM     76  C   UNL A   1      48.217  27.598  25.428  1.00  0.00     0.023 A 
ATOM     77  C   UNL A   1      49.341  27.219  26.188  1.00  0.00     0.012 A 
ATOM     78  C   UNL A   1      48.338  27.706  24.031  1.00  0.00     0.148 A 
ATOM     79  C   UNL A   1      50.568  26.975  25.570  1.00  0.00     0.002 A 
ATOM     80  C   UNL A   1      49.550  27.413  23.416  1.00  0.00     0.091 A 
ATOM     81  F   UNL A   1      47.263  28.088  23.324  1.00  0.00    -0.205 F 
ATOM     82  C   UNL A   1      50.670  27.060  24.184  1.00  0.00     0.022 A 
BRANCH  80  83
ATOM     83  S   UNL A   1      49.716  27.374  21.627  1.00  0.00     0.127 S 
ATOM     84  O   UNL A   1      48.668  26.431  21.247  1.00  0.00    -0.237 OA
ATOM     85  O   UNL A   1      49.455  28.767  21.258  1.00  0.00    -0.237 OA
ATOM     86  O   UNL A   1      51.087  26.945  21.383  1.00  0.00    -0.744 OA
ENDBRANCH  80  83
ENDBRANCH  52  76
BRANCH  64  87
ATOM     87  C   UNL A   1      45.488  33.032  28.862  1.00  0.00     0.023 A 
ATOM     88  C   UNL A   1      46.212  33.259  30.050  1.00  0.00     0.012 A 
ATOM     89  C   UNL A   1      45.324  34.084  27.941  1.00  0.00     0.148 A 
ATOM     90  C   UNL A   1      46.741  34.518  30.328  1.00  0.00     0.002 A 
ATOM     91  C   UNL A   1      45.888  35.326  28.206  1.00  0.00     0.091 A 
ATOM     92  F   UNL A   1      44.612  33.857  26.827  1.00  0.00    -0.205 F 
ATOM     93  C   UNL A   1      46.591  35.548  29.402  1.00  0.00     0.022 A 
BRANCH  91  94
ATOM     94  S   UNL A   1      45.807  36.674  27.021  1.00  0.00     0.127 S 
ATOM     95  O   UNL A   1      44.370  36.930  26.953  1.00  0.00    -0.237 OA
ATOM     96  O   UNL A   1      46.582  37.727  27.679  1.00  0.00    -0.237 OA
ATOM     97  O   UNL A   1      46.418  36.156  25.803  1.00  0.00    -0.744 OA
ENDBRANCH  91  94
ENDBRANCH  64  87
ENDBRANCH  38  39
ENDBRANCH  30  33
ENDBRANCH  28  29
ENDBRANCH  27  28
ENDBRANCH   1  27
TORSDOF 18
ENDMDL
MODEL 3
REMARK VINA RESULT:     -12.1      2.748      3.702
REMARK SMILES Cc1cscc1C(=O)N1C[C@@H](C(=O)NCCCCCCNC(=O)c2ccc(-c3c4nc(c(-c5cccc(S(=O)(=O)[O-])c5F)c5ccc([nH]5)c(-c5cccc(S(=O)(=O)[O-])c5F)c5nc(c(-c6cccc(S(=O)(=O)[O-])c6F)c6ccc3[nH]6)C=C5)C=C4)cc2)Oc2ccccc21
REMARK SMILES IDX 18 1 17 2 16 3 15 4 14 5 12 6 13 7 11 9 9 10 10 11 93 12
REMARK SMILES IDX 88 13 92 14 87 15 89 16 91 17 90 18 7 19 8 20 6 21 1 22 2 23
REMARK SMILES IDX 3 24 4 25 5 26 19 27 20 28 21 29 22 30 23 32 24 33 25 34
REMARK SMILES IDX 86 35 26 36 85 37 27 38 28 39 29 40 79 41 30 42 84 43 78 44
REMARK SMILES IDX 80 45 31 46 83 47 77 48 76 49 32 51 64 52 44 53 63 54 45 55
REMARK SMILES IDX 48 56 62 57 81 58 46 59 47 60 61 62 82 63 49 64 33 65 34 66
REMARK SMILES IDX 42 67 35 68 37 69 43 70 36 71 38 72 39 73 40 74 41 75 65 76
REMARK SMILES IDX 66 77 74 78 67 79 69 80 75 81 68 82 70 83 71 84 72 85 73 86
REMARK SMILES IDX 50 87 51 88 59 89 52 90 54 91 60 92 53 93 55 94 56 95 57 96
REMARK SMILES IDX 58 97
REMARK H PARENT 14 8 21 31 80 50 48 61
REMARK Flexibility Score: inf
ROOT
ATOM      1  C   UNL A   1      35.362  21.490  24.630  1.00  0.00     0.002 C 
ENDROOT
BRANCH   1   2
ATOM      2  C   UNL A   1      34.234  21.654  25.651  1.00  0.00     0.002 C 
BRANCH   2   3
ATOM      3  C   UNL A   1      32.837  21.209  25.202  1.00  0.00     0.021 C 
BRANCH   3   4
ATOM      4  C   UNL A   1      31.823  22.327  24.975  1.00  0.00     0.116 C 
BRANCH   4   5
ATOM      5  N   UNL A   1      32.383  23.484  24.306  1.00  0.00    -0.353 N 
ATOM      6  C   UNL A   1      32.120  24.806  24.497  1.00  0.00     0.262 C 
ATOM      7  O   UNL A   1      32.817  25.611  23.864  1.00  0.00    -0.271 OA
ATOM      8  H   UNL A   1      33.050  23.284  23.609  1.00  0.00     0.163 HD
BRANCH   6   9
ATOM      9  C   UNL A   1      30.956  25.316  25.383  1.00  0.00     0.281 C 
ATOM     10  N   UNL A   1      30.346  27.338  24.104  1.00  0.00    -0.301 N 
ATOM     11  C   UNL A   1      29.903  25.995  24.493  1.00  0.00     0.181 C 
ATOM     12  C   UNL A   1      31.033  28.064  25.124  1.00  0.00     0.086 A 
ATOM     13  C   UNL A   1      31.340  27.428  26.337  1.00  0.00     0.144 A 
ATOM     14  C   UNL A   1      31.349  29.421  24.985  1.00  0.00     0.030 A 
ATOM     15  O   UNL A   1      31.177  26.083  26.558  1.00  0.00    -0.477 OA
ATOM     16  C   UNL A   1      31.895  28.146  27.400  1.00  0.00     0.049 A 
ATOM     17  C   UNL A   1      31.938  30.130  26.036  1.00  0.00     0.002 A 
ATOM     18  C   UNL A   1      32.199  29.496  27.248  1.00  0.00     0.004 A 
BRANCH  10  19
ATOM     19  C   UNL A   1      30.273  27.802  22.796  1.00  0.00     0.259 C 
ATOM     20  O   UNL A   1      30.964  27.324  21.891  1.00  0.00    -0.269 OA
BRANCH  19  21
ATOM     21  C   UNL A   1      29.361  28.920  22.490  1.00  0.00     0.053 A 
ATOM     22  C   UNL A   1      27.065  28.148  23.548  1.00  0.00     0.046 C 
ATOM     23  C   UNL A   1      27.959  29.106  22.829  1.00  0.00    -0.028 A 
ATOM     24  C   UNL A   1      27.516  30.363  22.449  1.00  0.00     0.069 A 
ATOM     25  S   UNL A   1      28.727  31.317  21.727  1.00  0.00    -0.151 S 
ATOM     26  C   UNL A   1      29.873  30.072  21.911  1.00  0.00     0.079 A 
ENDBRANCH  19  21
ENDBRANCH  10  19
ENDBRANCH   6   9
ENDBRANCH   4   5
ENDBRANCH   3   4
ENDBRANCH   2   3
ENDBRANCH   1   2
BRANCH   1  27
ATOM     27  C   UNL A   1      36.324  22.671  24.480  1.00  0.00     0.021 C 
BRANCH  27  28
ATOM     28  C   UNL A   1      37.069  23.105  25.741  1.00  0.00     0.116 C 
BRANCH  28  29
ATOM     29  N   UNL A   1      38.169  22.226  26.097  1.00  0.00    -0.352 N 
ATOM     30  C   UNL A   1      39.392  22.530  26.644  1.00  0.00     0.251 C 
ATOM     31  H   UNL A   1      38.016  21.271  25.919  1.00  0.00     0.163 HD
ATOM     32  O   UNL A   1      40.220  21.635  26.802  1.00  0.00    -0.269 OA
BRANCH  30  33
ATOM     33  C   UNL A   1      39.738  23.923  27.018  1.00  0.00     0.039 A 
ATOM     34  C   UNL A   1      39.781  24.253  28.377  1.00  0.00     0.014 A 
ATOM     35  C   UNL A   1      39.983  24.910  26.059  1.00  0.00     0.014 A 
ATOM     36  C   UNL A   1      40.119  25.551  28.774  1.00  0.00     0.010 A 
ATOM     37  C   UNL A   1      40.373  26.190  26.456  1.00  0.00     0.010 A 
ATOM     38  C   UNL A   1      40.438  26.526  27.817  1.00  0.00    -0.014 A 
BRANCH  38  39
ATOM     39  C   UNL A   1      40.848  27.894  28.230  1.00  0.00     0.031 A 
ATOM     40  C   UNL A   1      42.298  28.295  28.221  1.00  0.00     0.074 A 
ATOM     41  C   UNL A   1      39.919  28.757  28.687  1.00  0.00     0.049 A 
ATOM     42  N   UNL A   1      42.837  29.442  28.547  1.00  0.00    -0.248 NA
ATOM     43  C   UNL A   1      43.273  27.269  27.815  1.00  0.00     0.031 C 
ATOM     44  C   UNL A   1      38.493  28.461  28.839  1.00  0.00     0.029 A 
ATOM     45  N   UNL A   1      40.039  30.051  29.131  1.00  0.00    -0.354 N 
ATOM     46  C   UNL A   1      44.210  29.267  28.422  1.00  0.00     0.074 A 
ATOM     47  C   UNL A   1      44.425  27.896  28.015  1.00  0.00     0.031 C 
ATOM     48  C   UNL A   1      37.872  29.540  29.344  1.00  0.00     0.029 A 
ATOM     49  C   UNL A   1      38.852  30.601  29.555  1.00  0.00     0.049 A 
ATOM     50  H   UNL A   1      40.894  30.539  29.145  1.00  0.00     0.167 HD
ATOM     51  C   UNL A   1      45.200  30.174  28.597  1.00  0.00     0.034 A 
ATOM     52  C   UNL A   1      38.581  31.825  30.049  1.00  0.00     0.034 A 
ATOM     53  C   UNL A   1      44.984  31.555  28.934  1.00  0.00     0.049 A 
ATOM     54  C   UNL A   1      39.687  32.842  30.145  1.00  0.00     0.074 A 
ATOM     55  C   UNL A   1      45.914  32.578  29.017  1.00  0.00     0.029 A 
ATOM     56  N   UNL A   1      43.753  32.110  29.244  1.00  0.00    -0.354 N 
ATOM     57  N   UNL A   1      40.953  32.712  29.831  1.00  0.00    -0.248 NA
ATOM     58  C   UNL A   1      39.320  34.184  30.621  1.00  0.00     0.031 C 
ATOM     59  C   UNL A   1      45.242  33.751  29.379  1.00  0.00     0.029 A 
ATOM     60  C   UNL A   1      43.896  33.458  29.523  1.00  0.00     0.049 A 
ATOM     61  H   UNL A   1      42.900  31.617  29.263  1.00  0.00     0.167 HD
ATOM     62  C   UNL A   1      41.528  33.960  30.045  1.00  0.00     0.074 A 
ATOM     63  C   UNL A   1      40.466  34.839  30.490  1.00  0.00     0.031 C 
ATOM     64  C   UNL A   1      42.822  34.337  29.907  1.00  0.00     0.034 A 
BRANCH  51  65
ATOM     65  C   UNL A   1      46.613  29.721  28.346  1.00  0.00     0.023 A 
ATOM     66  C   UNL A   1      47.179  29.913  27.069  1.00  0.00     0.012 A 
ATOM     67  C   UNL A   1      47.399  29.167  29.375  1.00  0.00     0.148 A 
ATOM     68  C   UNL A   1      48.496  29.538  26.812  1.00  0.00     0.002 A 
ATOM     69  C   UNL A   1      48.723  28.826  29.120  1.00  0.00     0.091 A 
ATOM     70  F   UNL A   1      46.836  28.968  30.576  1.00  0.00    -0.205 F 
ATOM     71  C   UNL A   1      49.270  29.005  27.839  1.00  0.00     0.022 A 
BRANCH  69  72
ATOM     72  S   UNL A   1      49.815  28.192  30.398  1.00  0.00     0.127 S 
ATOM     73  O   UNL A   1      49.139  26.952  30.776  1.00  0.00    -0.237 OA
ATOM     74  O   UNL A   1      51.072  28.002  29.670  1.00  0.00    -0.237 OA
ATOM     75  O   UNL A   1      49.864  29.222  31.425  1.00  0.00    -0.744 OA
ENDBRANCH  69  72
ENDBRANCH  51  65
BRANCH  52  76
ATOM     76  C   UNL A   1      37.178  32.186  30.398  1.00  0.00     0.023 A 
ATOM     77  C   UNL A   1      36.719  31.967  31.712  1.00  0.00     0.012 A 
ATOM     78  C   UNL A   1      36.315  32.781  29.459  1.00  0.00     0.148 A 
ATOM     79  C   UNL A   1      35.418  32.311  32.077  1.00  0.00     0.002 A 
ATOM     80  C   UNL A   1      35.036  33.167  29.844  1.00  0.00     0.091 A 
ATOM     81  F   UNL A   1      36.760  32.964  28.208  1.00  0.00    -0.205 F 
ATOM     82  C   UNL A   1      34.580  32.922  31.148  1.00  0.00     0.022 A 
BRANCH  80  83
ATOM     83  S   UNL A   1      33.953  34.078  28.736  1.00  0.00     0.127 S 
ATOM     84  O   UNL A   1      33.522  33.035  27.809  1.00  0.00    -0.237 OA
ATOM     85  O   UNL A   1      32.912  34.564  29.644  1.00  0.00    -0.237 OA
ATOM     86  O   UNL A   1      34.786  35.133  28.173  1.00  0.00    -0.744 OA
ENDBRANCH  80  83
ENDBRANCH  52  76
BRANCH  64  87
ATOM     87  C   UNL A   1      43.172  35.765  30.234  1.00  0.00     0.023 A 
ATOM     88  C   UNL A   1      43.689  36.073  31.508  1.00  0.00     0.012 A 
ATOM     89  C   UNL A   1      43.064  36.782  29.266  1.00  0.00     0.148 A 
ATOM     90  C   UNL A   1      44.069  37.376  31.822  1.00  0.00     0.002 A 
ATOM     91  C   UNL A   1      43.482  38.072  29.574  1.00  0.00     0.091 A 
ATOM     92  F   UNL A   1      42.547  36.476  28.066  1.00  0.00    -0.205 F 
ATOM     93  C   UNL A   1      43.978  38.373  30.852  1.00  0.00     0.022 A 
BRANCH  91  94
ATOM     94  S   UNL A   1      43.473  39.386  28.348  1.00  0.00     0.127 S 
ATOM     95  O   UNL A   1      43.879  38.673  27.139  1.00  0.00    -0.237 OA
ATOM     96  O   UNL A   1      42.076  39.822  28.357  1.00  0.00    -0.237 OA
ATOM     97  O   UNL A   1      44.412  40.384  28.843  1.00  0.00    -0.744 OA
ENDBRANCH  91  94
ENDBRANCH  64  87
ENDBRANCH  38  39
ENDBRANCH  30  33
ENDBRANCH  28  29
ENDBRANCH  27  28
ENDBRANCH   1  27
TORSDOF 18
ENDMDL
