MODEL 1
REMARK VINA RESULT:     -11.3      0.000      0.000
REMARK SMILES COc1cccc([C@@H]2CN(C(=O)c3cnn(C)c3)C[C@H]2C(=O)NCCCCCCNC(=O)c2ccc(-c3c4nc(c(-c5cccc(S(=O)(=O)[O-])c5F)c5ccc([nH]5)c(-c5cccc(S(=O)(=O)[O-])c5F)c5nc(c(-c6cccc(S(=O)(=O)[O-])c6F)c6ccc3[nH]6)C=C5)C=C4)cc2)c1OC
REMARK SMILES IDX 27 1 26 2 25 3 24 4 23 5 21 6 22 7 20 9 8 10 9 11 10 12
REMARK SMILES IDX 19 13 7 14 3 15 4 16 96 17 5 18 6 19 2 20 1 21 97 22 98 23
REMARK SMILES IDX 11 24 12 25 13 26 14 27 18 28 15 29 16 30 17 31 28 32 29 33
REMARK SMILES IDX 30 34 31 35 32 37 33 38 34 39 95 40 35 41 94 42 36 43 37 44
REMARK SMILES IDX 38 45 88 46 39 47 93 48 87 49 89 50 40 51 92 52 86 53 85 54
REMARK SMILES IDX 41 56 73 57 53 58 72 59 54 60 57 61 71 62 90 63 55 64 56 65
REMARK SMILES IDX 70 67 91 68 58 69 42 70 43 71 51 72 44 73 46 74 52 75 45 76
REMARK SMILES IDX 47 77 48 78 49 79 50 80 74 81 75 82 83 83 76 84 78 85 84 86
REMARK SMILES IDX 77 87 79 88 80 89 81 90 82 91 59 92 60 93 68 94 61 95 63 96
REMARK SMILES IDX 69 97 62 98 64 99 65 100 66 101 67 102
REMARK H PARENT 23 8 30 36 89 55 57 66
REMARK Flexibility Score: inf
ROOT
ATOM      1  C   UNL A   1      37.522  20.661  24.495  1.00  0.00     0.002 C 
ENDROOT
BRANCH   1   2
ATOM      2  C   UNL A   1      37.570  21.995  25.246  1.00  0.00     0.002 C 
BRANCH   2   3
ATOM      3  C   UNL A   1      36.208  22.588  25.623  1.00  0.00     0.021 C 
BRANCH   3   4
ATOM      4  C   UNL A   1      35.168  21.562  26.067  1.00  0.00     0.116 C 
BRANCH   4   5
ATOM      5  N   UNL A   1      34.191  22.148  26.969  1.00  0.00    -0.356 N 
ATOM      6  C   UNL A   1      32.859  22.374  26.826  1.00  0.00     0.225 C 
ATOM      7  O   UNL A   1      32.271  22.891  27.783  1.00  0.00    -0.275 OA
ATOM      8  H   UNL A   1      34.560  22.432  27.836  1.00  0.00     0.163 HD
BRANCH   6   9
ATOM      9  C   UNL A   1      32.092  22.021  25.565  1.00  0.00     0.107 C 
ATOM     10  C   UNL A   1      32.646  22.686  24.290  1.00  0.00     0.057 C 
ATOM     11  C   UNL A   1      32.545  21.611  23.205  1.00  0.00     0.129 C 
ATOM     12  N   UNL A   1      32.531  20.347  23.921  1.00  0.00    -0.337 N 
ATOM     13  C   UNL A   1      32.072  20.522  25.288  1.00  0.00     0.134 C 
BRANCH  10  14
ATOM     14  C   UNL A   1      32.004  24.010  23.911  1.00  0.00     0.004 A 
ATOM     15  C   UNL A   1      32.053  26.412  23.528  1.00  0.00     0.161 A 
ATOM     16  C   UNL A   1      30.686  26.396  23.229  1.00  0.00     0.050 A 
ATOM     17  C   UNL A   1      32.717  25.227  23.885  1.00  0.00     0.164 A 
ATOM     18  C   UNL A   1      29.982  25.196  23.242  1.00  0.00     0.004 A 
ATOM     19  C   UNL A   1      30.637  24.013  23.573  1.00  0.00     0.008 A 
BRANCH  15  20
ATOM     20  O   UNL A   1      32.713  27.614  23.563  1.00  0.00    -0.493 OA
ATOM     21  C   UNL A   1      31.833  28.703  23.283  1.00  0.00     0.278 C 
ENDBRANCH  15  20
BRANCH  17  22
ATOM     22  O   UNL A   1      34.027  25.159  24.286  1.00  0.00    -0.493 OA
ATOM     23  C   UNL A   1      34.310  25.580  25.614  1.00  0.00     0.278 C 
ENDBRANCH  17  22
ENDBRANCH  10  14
BRANCH  12  24
ATOM     24  C   UNL A   1      32.607  19.072  23.378  1.00  0.00     0.257 C 
ATOM     25  O   UNL A   1      32.221  18.849  22.230  1.00  0.00    -0.269 OA
BRANCH  24  26
ATOM     26  C   UNL A   1      33.218  18.030  24.177  1.00  0.00     0.077 A 
ATOM     27  C   UNL A   1      32.580  17.221  25.144  1.00  0.00     0.149 A 
ATOM     28  C   UNL A   1      34.541  17.628  24.236  1.00  0.00     0.122 A 
ATOM     29  N   UNL A   1      33.395  16.299  25.666  1.00  0.00    -0.181 NA
ATOM     30  N   UNL A   1      34.589  16.593  25.124  1.00  0.00    -0.275 N 
ATOM     31  C   UNL A   1      35.745  15.802  25.472  1.00  0.00     0.173 C 
ENDBRANCH  24  26
ENDBRANCH  12  24
ENDBRANCH   6   9
ENDBRANCH   4   5
ENDBRANCH   3   4
ENDBRANCH   2   3
ENDBRANCH   1   2
BRANCH   1  32
ATOM     32  C   UNL A   1      38.449  19.568  25.030  1.00  0.00     0.021 C 
BRANCH  32  33
ATOM     33  C   UNL A   1      39.377  20.001  26.159  1.00  0.00     0.116 C 
BRANCH  33  34
ATOM     34  N   UNL A   1      40.631  19.266  26.158  1.00  0.00    -0.352 N 
ATOM     35  C   UNL A   1      41.910  19.756  26.263  1.00  0.00     0.251 C 
ATOM     36  H   UNL A   1      40.554  18.289  26.070  1.00  0.00     0.163 HD
ATOM     37  O   UNL A   1      42.873  19.015  26.085  1.00  0.00    -0.269 OA
BRANCH  35  38
ATOM     38  C   UNL A   1      42.120  21.186  26.576  1.00  0.00     0.039 A 
ATOM     39  C   UNL A   1      42.299  21.572  27.907  1.00  0.00     0.014 A 
ATOM     40  C   UNL A   1      42.137  22.140  25.555  1.00  0.00     0.014 A 
ATOM     41  C   UNL A   1      42.544  22.913  28.213  1.00  0.00     0.010 A 
ATOM     42  C   UNL A   1      42.437  23.466  25.855  1.00  0.00     0.010 A 
ATOM     43  C   UNL A   1      42.634  23.867  27.186  1.00  0.00    -0.014 A 
BRANCH  43  44
ATOM     44  C   UNL A   1      42.905  25.298  27.470  1.00  0.00     0.031 A 
ATOM     45  C   UNL A   1      44.300  25.836  27.299  1.00  0.00     0.074 A 
ATOM     46  C   UNL A   1      41.935  26.080  27.980  1.00  0.00     0.049 A 
ATOM     47  N   UNL A   1      44.780  27.007  27.624  1.00  0.00    -0.248 NA
ATOM     48  C   UNL A   1      45.295  24.920  26.714  1.00  0.00     0.031 C 
ATOM     49  C   UNL A   1      40.559  25.658  28.245  1.00  0.00     0.029 A 
ATOM     50  N   UNL A   1      41.968  27.387  28.398  1.00  0.00    -0.354 N 
ATOM     51  C   UNL A   1      46.136  26.955  27.330  1.00  0.00     0.074 A 
ATOM     52  C   UNL A   1      46.409  25.630  26.820  1.00  0.00     0.031 C 
ATOM     53  C   UNL A   1      39.881  26.684  28.789  1.00  0.00     0.029 A 
ATOM     54  C   UNL A   1      40.780  27.826  28.934  1.00  0.00     0.049 A 
ATOM     55  H   UNL A   1      42.767  27.957  28.323  1.00  0.00     0.167 HD
ATOM     56  C   UNL A   1      47.066  27.932  27.447  1.00  0.00     0.034 A 
ATOM     57  C   UNL A   1      40.454  29.011  29.485  1.00  0.00     0.034 A 
ATOM     58  C   UNL A   1      46.777  29.268  27.889  1.00  0.00     0.049 A 
ATOM     59  C   UNL A   1      41.492  30.100  29.545  1.00  0.00     0.074 A 
ATOM     60  C   UNL A   1      47.634  30.351  27.973  1.00  0.00     0.029 A 
ATOM     61  N   UNL A   1      45.531  29.708  28.309  1.00  0.00    -0.354 N 
ATOM     62  N   UNL A   1      42.739  30.072  29.143  1.00  0.00    -0.248 NA
ATOM     63  C   UNL A   1      41.070  31.395  30.102  1.00  0.00     0.031 C 
ATOM     64  C   UNL A   1      46.904  31.449  28.442  1.00  0.00     0.029 A 
ATOM     65  C   UNL A   1      45.592  31.048  28.644  1.00  0.00     0.049 A 
ATOM     66  H   UNL A   1      44.724  29.149  28.361  1.00  0.00     0.167 HD
ATOM     67  C   UNL A   1      43.237  31.353  29.355  1.00  0.00     0.074 A 
ATOM     68  C   UNL A   1      42.155  32.136  29.914  1.00  0.00     0.031 C 
ATOM     69  C   UNL A   1      44.483  31.833  29.122  1.00  0.00     0.034 A 
BRANCH  56  70
ATOM     70  C   UNL A   1      48.474  27.608  27.026  1.00  0.00     0.023 A 
ATOM     71  C   UNL A   1      48.821  27.690  25.662  1.00  0.00     0.012 A 
ATOM     72  C   UNL A   1      49.460  27.270  27.972  1.00  0.00     0.148 A 
ATOM     73  C   UNL A   1      50.120  27.412  25.242  1.00  0.00     0.002 A 
ATOM     74  C   UNL A   1      50.764  27.032  27.549  1.00  0.00     0.091 A 
ATOM     75  F   UNL A   1      49.107  27.170  29.261  1.00  0.00    -0.205 F 
ATOM     76  C   UNL A   1      51.093  27.093  26.185  1.00  0.00     0.022 A 
BRANCH  74  77
ATOM     77  S   UNL A   1      52.097  26.684  28.703  1.00  0.00     0.127 S 
ATOM     78  O   UNL A   1      51.463  25.724  29.605  1.00  0.00    -0.237 OA
ATOM     79  O   UNL A   1      53.125  26.114  27.833  1.00  0.00    -0.237 OA
ATOM     80  O   UNL A   1      52.452  27.967  29.295  1.00  0.00    -0.744 OA
ENDBRANCH  74  77
ENDBRANCH  56  70
BRANCH  57  81
ATOM     81  C   UNL A   1      39.057  29.259  29.942  1.00  0.00     0.023 A 
ATOM     82  C   UNL A   1      38.707  28.946  31.270  1.00  0.00     0.012 A 
ATOM     83  C   UNL A   1      38.091  29.832  29.093  1.00  0.00     0.148 A 
ATOM     84  C   UNL A   1      37.413  29.175  31.738  1.00  0.00     0.002 A 
ATOM     85  C   UNL A   1      36.818  30.105  29.582  1.00  0.00     0.091 A 
ATOM     86  F   UNL A   1      38.438  30.107  27.828  1.00  0.00    -0.205 F 
ATOM     87  C   UNL A   1      36.473  29.765  30.898  1.00  0.00     0.022 A 
BRANCH  85  88
ATOM     88  S   UNL A   1      35.588  30.979  28.607  1.00  0.00     0.127 S 
ATOM     89  O   UNL A   1      34.828  31.676  29.640  1.00  0.00    -0.237 OA
ATOM     90  O   UNL A   1      36.421  31.841  27.766  1.00  0.00    -0.237 OA
ATOM     91  O   UNL A   1      34.874  29.942  27.874  1.00  0.00    -0.744 OA
ENDBRANCH  85  88
ENDBRANCH  57  81
BRANCH  69  92
ATOM     92  C   UNL A   1      44.746  33.284  29.415  1.00  0.00     0.023 A 
ATOM     93  C   UNL A   1      45.283  33.657  30.662  1.00  0.00     0.012 A 
ATOM     94  C   UNL A   1      44.564  34.261  28.416  1.00  0.00     0.148 A 
ATOM     95  C   UNL A   1      45.622  34.985  30.916  1.00  0.00     0.002 A 
ATOM     96  C   UNL A   1      44.941  35.575  28.662  1.00  0.00     0.091 A 
ATOM     97  F   UNL A   1      44.031  33.884  27.243  1.00  0.00    -0.205 F 
ATOM     98  C   UNL A   1      45.463  35.941  29.913  1.00  0.00     0.022 A 
BRANCH  96  99
ATOM     99  S   UNL A   1      44.858  36.849  27.398  1.00  0.00     0.127 S 
ATOM    100  O   UNL A   1      45.251  38.040  28.150  1.00  0.00    -0.237 OA
ATOM    101  O   UNL A   1      45.849  36.388  26.425  1.00  0.00    -0.237 OA
ATOM    102  O   UNL A   1      43.486  36.839  26.910  1.00  0.00    -0.744 OA
ENDBRANCH  96  99
ENDBRANCH  69  92
ENDBRANCH  43  44
ENDBRANCH  35  38
ENDBRANCH  33  34
ENDBRANCH  32  33
ENDBRANCH   1  32
TORSDOF 21
ENDMDL
MODEL 2
REMARK VINA RESULT:     -11.0      3.152      5.651
REMARK SMILES COc1cccc([C@@H]2CN(C(=O)c3cnn(C)c3)C[C@H]2C(=O)NCCCCCCNC(=O)c2ccc(-c3c4nc(c(-c5cccc(S(=O)(=O)[O-])c5F)c5ccc([nH]5)c(-c5cccc(S(=O)(=O)[O-])c5F)c5nc(c(-c6cccc(S(=O)(=O)[O-])c6F)c6ccc3[nH]6)C=C5)C=C4)cc2)c1OC
REMARK SMILES IDX 27 1 26 2 25 3 24 4 23 5 21 6 22 7 20 9 8 10 9 11 10 12
REMARK SMILES IDX 19 13 7 14 3 15 4 16 96 17 5 18 6 19 2 20 1 21 97 22 98 23
REMARK SMILES IDX 11 24 12 25 13 26 14 27 18 28 15 29 16 30 17 31 28 32 29 33
REMARK SMILES IDX 30 34 31 35 32 37 33 38 34 39 95 40 35 41 94 42 36 43 37 44
REMARK SMILES IDX 38 45 88 46 39 47 93 48 87 49 89 50 40 51 92 52 86 53 85 54
REMARK SMILES IDX 41 56 73 57 53 58 72 59 54 60 57 61 71 62 90 63 55 64 56 65
REMARK SMILES IDX 70 67 91 68 58 69 42 70 43 71 51 72 44 73 46 74 52 75 45 76
REMARK SMILES IDX 47 77 48 78 49 79 50 80 74 81 75 82 83 83 76 84 78 85 84 86
REMARK SMILES IDX 77 87 79 88 80 89 81 90 82 91 59 92 60 93 68 94 61 95 63 96
REMARK SMILES IDX 69 97 62 98 64 99 65 100 66 101 67 102
REMARK H PARENT 23 8 30 36 89 55 57 66
REMARK Flexibility Score: inf
ROOT
ATOM      1  C   UNL A   1      35.952  24.011  24.401  1.00  0.00     0.002 C 
ENDROOT
BRANCH   1   2
ATOM      2  C   UNL A   1      34.988  23.779  23.233  1.00  0.00     0.002 C 
BRANCH   2   3
ATOM      3  C   UNL A   1      33.751  24.682  23.210  1.00  0.00     0.021 C 
BRANCH   3   4
ATOM      4  C   UNL A   1      33.745  25.725  22.095  1.00  0.00     0.116 C 
BRANCH   4   5
ATOM      5  N   UNL A   1      33.550  27.066  22.618  1.00  0.00    -0.356 N 
ATOM      6  C   UNL A   1      32.425  27.730  22.991  1.00  0.00     0.225 C 
ATOM      7  O   UNL A   1      32.567  28.883  23.414  1.00  0.00    -0.275 OA
ATOM      8  H   UNL A   1      34.379  27.585  22.719  1.00  0.00     0.163 HD
BRANCH   6   9
ATOM      9  C   UNL A   1      31.038  27.118  22.906  1.00  0.00     0.107 C 
ATOM     10  C   UNL A   1      30.477  26.651  24.262  1.00  0.00     0.057 C 
ATOM     11  C   UNL A   1      28.994  27.031  24.230  1.00  0.00     0.129 C 
ATOM     12  N   UNL A   1      28.899  28.112  23.265  1.00  0.00    -0.337 N 
ATOM     13  C   UNL A   1      30.005  28.078  22.325  1.00  0.00     0.134 C 
BRANCH  10  14
ATOM     14  C   UNL A   1      30.735  25.195  24.611  1.00  0.00     0.004 A 
ATOM     15  C   UNL A   1      31.343  23.409  26.148  1.00  0.00     0.161 A 
ATOM     16  C   UNL A   1      31.221  22.473  25.115  1.00  0.00     0.050 A 
ATOM     17  C   UNL A   1      31.117  24.774  25.903  1.00  0.00     0.164 A 
ATOM     18  C   UNL A   1      30.833  22.884  23.843  1.00  0.00     0.004 A 
ATOM     19  C   UNL A   1      30.585  24.232  23.596  1.00  0.00     0.008 A 
BRANCH  15  20
ATOM     20  O   UNL A   1      31.780  22.989  27.378  1.00  0.00    -0.493 OA
ATOM     21  C   UNL A   1      33.200  22.841  27.407  1.00  0.00     0.278 C 
ENDBRANCH  15  20
BRANCH  17  22
ATOM     22  O   UNL A   1      31.305  25.772  26.824  1.00  0.00    -0.493 OA
ATOM     23  C   UNL A   1      32.434  26.613  26.632  1.00  0.00     0.278 C 
ENDBRANCH  17  22
ENDBRANCH  10  14
BRANCH  12  24
ATOM     24  C   UNL A   1      27.790  28.901  22.994  1.00  0.00     0.257 C 
ATOM     25  O   UNL A   1      26.658  28.531  23.306  1.00  0.00    -0.269 OA
BRANCH  24  26
ATOM     26  C   UNL A   1      28.012  30.201  22.396  1.00  0.00     0.077 A 
ATOM     27  C   UNL A   1      28.467  31.367  23.050  1.00  0.00     0.149 A 
ATOM     28  C   UNL A   1      27.780  30.625  21.099  1.00  0.00     0.122 A 
ATOM     29  N   UNL A   1      28.639  32.396  22.215  1.00  0.00    -0.181 NA
ATOM     30  N   UNL A   1      28.179  31.928  21.043  1.00  0.00    -0.275 N 
ATOM     31  C   UNL A   1      28.190  32.782  19.879  1.00  0.00     0.173 C 
ENDBRANCH  24  26
ENDBRANCH  12  24
ENDBRANCH   6   9
ENDBRANCH   4   5
ENDBRANCH   3   4
ENDBRANCH   2   3
ENDBRANCH   1   2
BRANCH   1  32
ATOM     32  C   UNL A   1      36.840  22.821  24.772  1.00  0.00     0.021 C 
BRANCH  32  33
ATOM     33  C   UNL A   1      37.538  22.932  26.123  1.00  0.00     0.116 C 
BRANCH  33  34
ATOM     34  N   UNL A   1      38.661  22.016  26.242  1.00  0.00    -0.352 N 
ATOM     35  C   UNL A   1      39.977  22.306  26.512  1.00  0.00     0.251 C 
ATOM     36  H   UNL A   1      38.452  21.063  26.111  1.00  0.00     0.163 HD
ATOM     37  O   UNL A   1      40.834  21.431  26.421  1.00  0.00    -0.269 OA
BRANCH  35  38
ATOM     38  C   UNL A   1      40.357  23.682  26.897  1.00  0.00     0.039 A 
ATOM     39  C   UNL A   1      40.359  24.684  25.922  1.00  0.00     0.014 A 
ATOM     40  C   UNL A   1      40.711  23.979  28.216  1.00  0.00     0.014 A 
ATOM     41  C   UNL A   1      40.671  25.998  26.280  1.00  0.00     0.010 A 
ATOM     42  C   UNL A   1      40.965  25.297  28.582  1.00  0.00     0.010 A 
ATOM     43  C   UNL A   1      40.957  26.317  27.617  1.00  0.00    -0.014 A 
BRANCH  43  44
ATOM     44  C   UNL A   1      41.281  27.703  28.038  1.00  0.00     0.031 A 
ATOM     45  C   UNL A   1      42.718  28.146  28.087  1.00  0.00     0.074 A 
ATOM     46  C   UNL A   1      40.305  28.520  28.478  1.00  0.00     0.049 A 
ATOM     47  N   UNL A   1      43.225  29.255  28.557  1.00  0.00    -0.248 NA
ATOM     48  C   UNL A   1      43.720  27.200  27.566  1.00  0.00     0.031 C 
ATOM     49  C   UNL A   1      38.881  28.184  28.535  1.00  0.00     0.029 A 
ATOM     50  N   UNL A   1      40.367  29.790  28.993  1.00  0.00    -0.354 N 
ATOM     51  C   UNL A   1      44.602  29.122  28.434  1.00  0.00     0.074 A 
ATOM     52  C   UNL A   1      44.854  27.817  27.866  1.00  0.00     0.031 C 
ATOM     53  C   UNL A   1      38.206  29.219  29.062  1.00  0.00     0.029 A 
ATOM     54  C   UNL A   1      39.149  30.280  29.405  1.00  0.00     0.049 A 
ATOM     55  H   UNL A   1      41.204  30.303  29.063  1.00  0.00     0.167 HD
ATOM     56  C   UNL A   1      45.570  30.019  28.740  1.00  0.00     0.034 A 
ATOM     57  C   UNL A   1      38.830  31.448  29.997  1.00  0.00     0.034 A 
ATOM     58  C   UNL A   1      45.312  31.341  29.241  1.00  0.00     0.049 A 
ATOM     59  C   UNL A   1      39.920  32.451  30.269  1.00  0.00     0.074 A 
ATOM     60  C   UNL A   1      46.219  32.350  29.513  1.00  0.00     0.029 A 
ATOM     61  N   UNL A   1      44.053  31.843  29.530  1.00  0.00    -0.354 N 
ATOM     62  N   UNL A   1      41.205  32.357  30.027  1.00  0.00    -0.248 NA
ATOM     63  C   UNL A   1      39.512  33.733  30.863  1.00  0.00     0.031 C 
ATOM     64  C   UNL A   1      45.506  33.466  29.966  1.00  0.00     0.029 A 
ATOM     65  C   UNL A   1      44.156  33.150  29.969  1.00  0.00     0.049 A 
ATOM     66  H   UNL A   1      43.211  31.343  29.438  1.00  0.00     0.167 HD
ATOM     67  C   UNL A   1      41.752  33.580  30.396  1.00  0.00     0.074 A 
ATOM     68  C   UNL A   1      40.659  34.403  30.870  1.00  0.00     0.031 C 
ATOM     69  C   UNL A   1      43.046  33.981  30.359  1.00  0.00     0.034 A 
BRANCH  56  70
ATOM     70  C   UNL A   1      46.997  29.619  28.479  1.00  0.00     0.023 A 
ATOM     71  C   UNL A   1      47.587  29.945  27.240  1.00  0.00     0.012 A 
ATOM     72  C   UNL A   1      47.767  28.971  29.463  1.00  0.00     0.148 A 
ATOM     73  C   UNL A   1      48.911  29.603  26.973  1.00  0.00     0.002 A 
ATOM     74  C   UNL A   1      49.100  28.669  29.203  1.00  0.00     0.091 A 
ATOM     75  F   UNL A   1      47.183  28.646  30.625  1.00  0.00    -0.205 F 
ATOM     76  C   UNL A   1      49.671  28.976  27.957  1.00  0.00     0.022 A 
BRANCH  74  77
ATOM     77  S   UNL A   1      50.171  27.924  30.439  1.00  0.00     0.127 S 
ATOM     78  O   UNL A   1      50.074  28.887  31.533  1.00  0.00    -0.237 OA
ATOM     79  O   UNL A   1      49.512  26.643  30.695  1.00  0.00    -0.237 OA
ATOM     80  O   UNL A   1      51.481  27.812  29.811  1.00  0.00    -0.744 OA
ENDBRANCH  74  77
ENDBRANCH  56  70
BRANCH  57  81
ATOM     81  C   UNL A   1      37.405  31.767  30.290  1.00  0.00     0.023 A 
ATOM     82  C   UNL A   1      36.932  31.633  31.610  1.00  0.00     0.012 A 
ATOM     83  C   UNL A   1      36.530  32.235  29.290  1.00  0.00     0.148 A 
ATOM     84  C   UNL A   1      35.607  31.936  31.925  1.00  0.00     0.002 A 
ATOM     85  C   UNL A   1      35.226  32.582  29.623  1.00  0.00     0.091 A 
ATOM     86  F   UNL A   1      36.994  32.338  28.037  1.00  0.00    -0.205 F 
ATOM     87  C   UNL A   1      34.758  32.420  30.935  1.00  0.00     0.022 A 
BRANCH  85  88
ATOM     88  S   UNL A   1      34.106  33.334  28.436  1.00  0.00     0.127 S 
ATOM     89  O   UNL A   1      35.026  34.100  27.601  1.00  0.00    -0.237 OA
ATOM     90  O   UNL A   1      33.514  32.162  27.788  1.00  0.00    -0.237 OA
ATOM     91  O   UNL A   1      33.168  34.111  29.235  1.00  0.00    -0.744 OA
ENDBRANCH  85  88
ENDBRANCH  57  81
BRANCH  69  92
ATOM     92  C   UNL A   1      43.362  35.388  30.790  1.00  0.00     0.023 A 
ATOM     93  C   UNL A   1      43.736  35.640  32.124  1.00  0.00     0.012 A 
ATOM     94  C   UNL A   1      43.393  36.435  29.848  1.00  0.00     0.148 A 
ATOM     95  C   UNL A   1      44.123  36.919  32.518  1.00  0.00     0.002 A 
ATOM     96  C   UNL A   1      43.819  37.698  30.240  1.00  0.00     0.091 A 
ATOM     97  F   UNL A   1      43.012  36.174  28.589  1.00  0.00    -0.205 F 
ATOM     98  C   UNL A   1      44.178  37.944  31.575  1.00  0.00     0.022 A 
BRANCH  96  99
ATOM     99  S   UNL A   1      44.007  39.051  29.072  1.00  0.00     0.127 S 
ATOM    100  O   UNL A   1      44.744  38.407  27.986  1.00  0.00    -0.237 OA
ATOM    101  O   UNL A   1      42.618  39.384  28.754  1.00  0.00    -0.237 OA
ATOM    102  O   UNL A   1      44.727  40.097  29.786  1.00  0.00    -0.744 OA
ENDBRANCH  96  99
ENDBRANCH  69  92
ENDBRANCH  43  44
ENDBRANCH  35  38
ENDBRANCH  33  34
ENDBRANCH  32  33
ENDBRANCH   1  32
TORSDOF 21
ENDMDL
MODEL 3
REMARK VINA RESULT:     -10.9      2.049      4.393
REMARK SMILES COc1cccc([C@@H]2CN(C(=O)c3cnn(C)c3)C[C@H]2C(=O)NCCCCCCNC(=O)c2ccc(-c3c4nc(c(-c5cccc(S(=O)(=O)[O-])c5F)c5ccc([nH]5)c(-c5cccc(S(=O)(=O)[O-])c5F)c5nc(c(-c6cccc(S(=O)(=O)[O-])c6F)c6ccc3[nH]6)C=C5)C=C4)cc2)c1OC
REMARK SMILES IDX 27 1 26 2 25 3 24 4 23 5 21 6 22 7 20 9 8 10 9 11 10 12
REMARK SMILES IDX 19 13 7 14 3 15 4 16 96 17 5 18 6 19 2 20 1 21 97 22 98 23
REMARK SMILES IDX 11 24 12 25 13 26 14 27 18 28 15 29 16 30 17 31 28 32 29 33
REMARK SMILES IDX 30 34 31 35 32 37 33 38 34 39 95 40 35 41 94 42 36 43 37 44
REMARK SMILES IDX 38 45 88 46 39 47 93 48 87 49 89 50 40 51 92 52 86 53 85 54
REMARK SMILES IDX 41 56 73 57 53 58 72 59 54 60 57 61 71 62 90 63 55 64 56 65
REMARK SMILES IDX 70 67 91 68 58 69 42 70 43 71 51 72 44 73 46 74 52 75 45 76
REMARK SMILES IDX 47 77 48 78 49 79 50 80 74 81 75 82 83 83 76 84 78 85 84 86
REMARK SMILES IDX 77 87 79 88 80 89 81 90 82 91 59 92 60 93 68 94 61 95 63 96
REMARK SMILES IDX 69 97 62 98 64 99 65 100 66 101 67 102
REMARK H PARENT 23 8 30 36 89 55 57 66
REMARK Flexibility Score: inf
ROOT
ATOM      1  C   UNL A   1      39.303  21.939  26.365  1.00  0.00     0.002 C 
ENDROOT
BRANCH   1   2
ATOM      2  C   UNL A   1      38.131  22.659  25.691  1.00  0.00     0.002 C 
BRANCH   2   3
ATOM      3  C   UNL A   1      37.376  21.844  24.635  1.00  0.00     0.021 C 
BRANCH   3   4
ATOM      4  C   UNL A   1      35.995  22.388  24.279  1.00  0.00     0.116 C 
BRANCH   4   5
ATOM      5  N   UNL A   1      35.702  23.615  24.999  1.00  0.00    -0.356 N 
ATOM      6  C   UNL A   1      34.743  24.560  24.814  1.00  0.00     0.225 C 
ATOM      7  O   UNL A   1      34.732  25.512  25.602  1.00  0.00    -0.275 OA
ATOM      8  H   UNL A   1      36.307  23.794  25.755  1.00  0.00     0.163 HD
BRANCH   6   9
ATOM      9  C   UNL A   1      33.715  24.484  23.700  1.00  0.00     0.107 C 
ATOM     10  C   UNL A   1      32.389  23.820  24.117  1.00  0.00     0.057 C 
ATOM     11  C   UNL A   1      31.299  24.645  23.428  1.00  0.00     0.129 C 
ATOM     12  N   UNL A   1      31.900  25.945  23.187  1.00  0.00    -0.337 N 
ATOM     13  C   UNL A   1      33.348  25.855  23.142  1.00  0.00     0.134 C 
BRANCH  10  14
ATOM     14  C   UNL A   1      32.293  22.327  23.855  1.00  0.00     0.004 A 
ATOM     15  C   UNL A   1      32.194  20.003  24.568  1.00  0.00     0.161 A 
ATOM     16  C   UNL A   1      32.152  19.590  23.231  1.00  0.00     0.050 A 
ATOM     17  C   UNL A   1      32.279  21.367  24.890  1.00  0.00     0.164 A 
ATOM     18  C   UNL A   1      32.154  20.534  22.209  1.00  0.00     0.004 A 
ATOM     19  C   UNL A   1      32.216  21.890  22.519  1.00  0.00     0.008 A 
BRANCH  15  20
ATOM     20  O   UNL A   1      32.246  19.053  25.556  1.00  0.00    -0.493 OA
ATOM     21  C   UNL A   1      32.670  17.789  25.046  1.00  0.00     0.278 C 
ENDBRANCH  15  20
BRANCH  17  22
ATOM     22  O   UNL A   1      32.420  21.861  26.161  1.00  0.00    -0.493 OA
ATOM     23  C   UNL A   1      33.588  21.469  26.871  1.00  0.00     0.278 C 
ENDBRANCH  17  22
ENDBRANCH  10  14
BRANCH  12  24
ATOM     24  C   UNL A   1      31.267  27.091  22.725  1.00  0.00     0.257 C 
ATOM     25  O   UNL A   1      30.714  27.110  21.625  1.00  0.00    -0.269 OA
BRANCH  24  26
ATOM     26  C   UNL A   1      31.217  28.240  23.606  1.00  0.00     0.077 A 
ATOM     27  C   UNL A   1      30.308  29.319  23.540  1.00  0.00     0.149 A 
ATOM     28  C   UNL A   1      32.058  28.585  24.650  1.00  0.00     0.122 A 
ATOM     29  N   UNL A   1      30.472  30.195  24.536  1.00  0.00    -0.181 NA
ATOM     30  N   UNL A   1      31.565  29.744  25.174  1.00  0.00    -0.275 N 
ATOM     31  C   UNL A   1      32.068  30.460  26.323  1.00  0.00     0.173 C 
ENDBRANCH  24  26
ENDBRANCH  12  24
ENDBRANCH   6   9
ENDBRANCH   4   5
ENDBRANCH   3   4
ENDBRANCH   2   3
ENDBRANCH   1   2
BRANCH   1  32
ATOM     32  C   UNL A   1      39.627  20.547  25.819  1.00  0.00     0.021 C 
BRANCH  32  33
ATOM     33  C   UNL A   1      40.421  19.651  26.761  1.00  0.00     0.116 C 
BRANCH  33  34
ATOM     34  N   UNL A   1      41.649  19.162  26.156  1.00  0.00    -0.352 N 
ATOM     35  C   UNL A   1      42.762  19.876  25.780  1.00  0.00     0.251 C 
ATOM     36  H   UNL A   1      41.689  18.192  25.993  1.00  0.00     0.163 HD
ATOM     37  O   UNL A   1      43.654  19.335  25.134  1.00  0.00    -0.269 OA
BRANCH  35  38
ATOM     38  C   UNL A   1      42.868  21.305  26.144  1.00  0.00     0.039 A 
ATOM     39  C   UNL A   1      42.993  21.657  27.491  1.00  0.00     0.014 A 
ATOM     40  C   UNL A   1      42.841  22.293  25.156  1.00  0.00     0.014 A 
ATOM     41  C   UNL A   1      43.140  22.999  27.846  1.00  0.00     0.010 A 
ATOM     42  C   UNL A   1      43.045  23.625  25.506  1.00  0.00     0.010 A 
ATOM     43  C   UNL A   1      43.187  23.992  26.854  1.00  0.00    -0.014 A 
BRANCH  43  44
ATOM     44  C   UNL A   1      43.354  25.427  27.190  1.00  0.00     0.031 A 
ATOM     45  C   UNL A   1      44.722  26.052  27.113  1.00  0.00     0.074 A 
ATOM     46  C   UNL A   1      42.313  26.135  27.666  1.00  0.00     0.049 A 
ATOM     47  N   UNL A   1      45.111  27.239  27.497  1.00  0.00    -0.248 NA
ATOM     48  C   UNL A   1      45.801  25.214  26.561  1.00  0.00     0.031 C 
ATOM     49  C   UNL A   1      40.952  25.625  27.842  1.00  0.00     0.029 A 
ATOM     50  N   UNL A   1      42.244  27.428  28.121  1.00  0.00    -0.354 N 
ATOM     51  C   UNL A   1      46.482  27.275  27.278  1.00  0.00     0.074 A 
ATOM     52  C   UNL A   1      46.863  25.985  26.749  1.00  0.00     0.031 C 
ATOM     53  C   UNL A   1      40.185  26.592  28.374  1.00  0.00     0.029 A 
ATOM     54  C   UNL A   1      41.003  27.780  28.600  1.00  0.00     0.049 A 
ATOM     55  H   UNL A   1      43.010  28.047  28.106  1.00  0.00     0.167 HD
ATOM     56  C   UNL A   1      47.343  28.302  27.473  1.00  0.00     0.034 A 
ATOM     57  C   UNL A   1      40.576  28.927  29.163  1.00  0.00     0.034 A 
ATOM     58  C   UNL A   1      46.950  29.605  27.935  1.00  0.00     0.049 A 
ATOM     59  C   UNL A   1      41.542  30.073  29.311  1.00  0.00     0.074 A 
ATOM     60  C   UNL A   1      47.734  30.734  28.095  1.00  0.00     0.029 A 
ATOM     61  N   UNL A   1      45.659  29.957  28.295  1.00  0.00    -0.354 N 
ATOM     62  N   UNL A   1      42.809  30.131  28.979  1.00  0.00    -0.248 NA
ATOM     63  C   UNL A   1      41.012  31.323  29.878  1.00  0.00     0.031 C 
ATOM     64  C   UNL A   1      46.914  31.772  28.552  1.00  0.00     0.029 A 
ATOM     65  C   UNL A   1      45.620  31.288  28.668  1.00  0.00     0.049 A 
ATOM     66  H   UNL A   1      44.885  29.350  28.286  1.00  0.00     0.167 HD
ATOM     67  C   UNL A   1      43.216  31.431  29.253  1.00  0.00     0.074 A 
ATOM     68  C   UNL A   1      42.059  32.132  29.772  1.00  0.00     0.031 C 
ATOM     69  C   UNL A   1      44.441  31.991  29.104  1.00  0.00     0.034 A 
BRANCH  56  70
ATOM     70  C   UNL A   1      48.789  28.074  27.124  1.00  0.00     0.023 A 
ATOM     71  C   UNL A   1      49.710  27.793  28.155  1.00  0.00     0.012 A 
ATOM     72  C   UNL A   1      49.230  28.088  25.787  1.00  0.00     0.148 A 
ATOM     73  C   UNL A   1      51.053  27.562  27.863  1.00  0.00     0.002 A 
ATOM     74  C   UNL A   1      50.564  27.817  25.501  1.00  0.00     0.091 A 
ATOM     75  F   UNL A   1      48.347  28.383  24.823  1.00  0.00    -0.205 F 
ATOM     76  C   UNL A   1      51.478  27.563  26.537  1.00  0.00     0.022 A 
BRANCH  74  77
ATOM     77  S   UNL A   1      51.184  27.729  23.817  1.00  0.00     0.127 S 
ATOM     78  O   UNL A   1      52.393  26.927  23.989  1.00  0.00    -0.237 OA
ATOM     79  O   UNL A   1      50.095  27.047  23.117  1.00  0.00    -0.237 OA
ATOM     80  O   UNL A   1      51.396  29.109  23.401  1.00  0.00    -0.744 OA
ENDBRANCH  74  77
ENDBRANCH  56  70
BRANCH  57  81
ATOM     81  C   UNL A   1      39.145  29.078  29.547  1.00  0.00     0.023 A 
ATOM     82  C   UNL A   1      38.748  28.739  30.856  1.00  0.00     0.012 A 
ATOM     83  C   UNL A   1      38.186  29.585  28.649  1.00  0.00     0.148 A 
ATOM     84  C   UNL A   1      37.419  28.879  31.256  1.00  0.00     0.002 A 
ATOM     85  C   UNL A   1      36.874  29.770  29.070  1.00  0.00     0.091 A 
ATOM     86  F   UNL A   1      38.579  29.885  27.403  1.00  0.00    -0.205 F 
ATOM     87  C   UNL A   1      36.485  29.405  30.368  1.00  0.00     0.022 A 
BRANCH  85  88
ATOM     88  S   UNL A   1      35.639  30.559  28.032  1.00  0.00     0.127 S 
ATOM     89  O   UNL A   1      36.332  31.775  27.616  1.00  0.00    -0.237 OA
ATOM     90  O   UNL A   1      35.448  29.565  26.974  1.00  0.00    -0.237 OA
ATOM     91  O   UNL A   1      34.478  30.745  28.892  1.00  0.00    -0.744 OA
ENDBRANCH  85  88
ENDBRANCH  57  81
BRANCH  69  92
ATOM     92  C   UNL A   1      44.599  33.446  29.450  1.00  0.00     0.023 A 
ATOM     93  C   UNL A   1      45.184  33.810  30.678  1.00  0.00     0.012 A 
ATOM     94  C   UNL A   1      44.269  34.445  28.513  1.00  0.00     0.148 A 
ATOM     95  C   UNL A   1      45.425  35.151  30.975  1.00  0.00     0.002 A 
ATOM     96  C   UNL A   1      44.549  35.775  28.799  1.00  0.00     0.091 A 
ATOM     97  F   UNL A   1      43.693  34.074  27.359  1.00  0.00    -0.205 F 
ATOM     98  C   UNL A   1      45.121  36.131  30.031  1.00  0.00     0.022 A 
BRANCH  96  99
ATOM     99  S   UNL A   1      44.275  37.091  27.606  1.00  0.00     0.127 S 
ATOM    100  O   UNL A   1      45.640  37.397  27.181  1.00  0.00    -0.237 OA
ATOM    101  O   UNL A   1      43.455  36.426  26.592  1.00  0.00    -0.237 OA
ATOM    102  O   UNL A   1      43.591  38.152  28.332  1.00  0.00    -0.744 OA
ENDBRANCH  96  99
ENDBRANCH  69  92
ENDBRANCH  43  44
ENDBRANCH  35  38
ENDBRANCH  33  34
ENDBRANCH  32  33
ENDBRANCH   1  32
TORSDOF 21
ENDMDL
