MODEL 1
REMARK VINA RESULT:     -14.0      0.000      0.000
REMARK SMILES Cc1ccccc1OC1(C(=O)NCCCCCCNC(=O)c2ccc(-c3c4nc(c(-c5cccc(S(=O)(=O)[O-])c5F)c5ccc([nH]5)c(-c5cccc(S(=O)(=O)[O-])c5F)c5nc(c(-c6cccc(S(=O)(=O)[O-])c6F)c6ccc3[nH]6)C=C5)C=C4)cc2)CCN(C(=O)[C@H]2CCCCO2)CC1
REMARK SMILES IDX 16 1 15 2 14 3 13 4 12 5 10 6 11 7 9 9 85 10 97 11 86 12
REMARK SMILES IDX 96 13 87 14 88 15 89 16 8 17 7 18 1 19 2 20 3 21 4 22 6 23
REMARK SMILES IDX 5 24 90 25 91 26 95 27 92 28 94 29 93 30 17 31 18 32 19 33
REMARK SMILES IDX 20 34 21 36 22 37 23 38 84 39 24 40 83 41 25 42 26 43 27 44
REMARK SMILES IDX 77 45 28 46 82 47 76 48 78 49 29 50 81 51 75 52 74 53 30 55
REMARK SMILES IDX 62 56 42 57 61 58 43 59 46 60 60 61 79 62 44 63 45 64 59 66
REMARK SMILES IDX 80 67 47 68 31 69 32 70 40 71 33 72 35 73 41 74 34 75 36 76
REMARK SMILES IDX 37 77 38 78 39 79 63 80 64 81 72 82 65 83 67 84 73 85 66 86
REMARK SMILES IDX 68 87 69 88 70 89 71 90 48 91 49 92 57 93 50 94 52 95 58 96
REMARK SMILES IDX 51 97 53 98 54 99 55 100 56 101
REMARK H PARENT 12 8 19 35 78 54 46 65
REMARK Flexibility Score: inf
ROOT
ATOM      1  C   UNL A   1      31.846  30.106  26.946  1.00  0.00     0.002 C 
ENDROOT
BRANCH   1   2
ATOM      2  C   UNL A   1      31.650  28.580  26.876  1.00  0.00     0.002 C 
BRANCH   2   3
ATOM      3  C   UNL A   1      32.707  27.789  26.096  1.00  0.00     0.021 C 
BRANCH   3   4
ATOM      4  C   UNL A   1      32.790  26.304  26.444  1.00  0.00     0.116 C 
BRANCH   4   5
ATOM      5  N   UNL A   1      31.504  25.713  26.740  1.00  0.00    -0.353 N 
ATOM      6  C   UNL A   1      30.914  24.554  26.307  1.00  0.00     0.264 C 
ATOM      7  O   UNL A   1      29.874  24.250  26.905  1.00  0.00    -0.270 OA
ATOM      8  H   UNL A   1      30.952  26.237  27.364  1.00  0.00     0.163 HD
BRANCH   6   9
ATOM      9  C   UNL A   1      31.523  23.662  25.147  1.00  0.00     0.190 C 
ATOM     10  C   UNL A   1      33.041  23.834  25.189  1.00  0.00     0.080 C 
ATOM     11  C   UNL A   1      30.912  22.264  25.281  1.00  0.00     0.080 C 
ATOM     12  C   UNL A   1      33.855  22.610  25.592  1.00  0.00     0.124 C 
ATOM     13  C   UNL A   1      31.857  21.076  25.427  1.00  0.00     0.124 C 
ATOM     14  N   UNL A   1      33.279  21.309  25.242  1.00  0.00    -0.340 N 
ATOM     15  C   UNL A   1      34.190  20.284  24.938  1.00  0.00     0.251 C 
ATOM     16  O   UNL A   1      35.403  20.515  24.900  1.00  0.00    -0.272 OA
BRANCH   9  17
ATOM     17  O   UNL A   1      30.977  24.344  23.981  1.00  0.00    -0.477 OA
BRANCH  17  18
ATOM     18  C   UNL A   1      31.039  25.618  23.509  1.00  0.00     0.123 A 
ATOM     19  C   UNL A   1      33.412  25.911  22.505  1.00  0.00     0.048 C 
ATOM     20  C   UNL A   1      32.038  26.353  22.857  1.00  0.00    -0.009 A 
ATOM     21  C   UNL A   1      31.809  27.712  22.523  1.00  0.00     0.007 A 
ATOM     22  C   UNL A   1      30.622  28.356  22.832  1.00  0.00     0.001 A 
ATOM     23  C   UNL A   1      29.842  26.301  23.811  1.00  0.00     0.047 A 
ATOM     24  C   UNL A   1      29.632  27.645  23.483  1.00  0.00     0.004 A 
ENDBRANCH  17  18
ENDBRANCH   9  17
BRANCH  15  25
ATOM     25  C   UNL A   1      33.650  18.865  24.602  1.00  0.00     0.207 C 
ATOM     26  C   UNL A   1      34.832  17.960  24.225  1.00  0.00     0.042 C 
ATOM     27  O   UNL A   1      32.966  18.365  25.756  1.00  0.00    -0.368 OA
ATOM     28  C   UNL A   1      34.467  16.481  24.193  1.00  0.00     0.006 C 
ATOM     29  C   UNL A   1      32.527  17.019  25.642  1.00  0.00     0.161 C 
ATOM     30  C   UNL A   1      33.715  16.092  25.455  1.00  0.00     0.029 C 
ENDBRANCH  15  25
ENDBRANCH   6   9
ENDBRANCH   4   5
ENDBRANCH   3   4
ENDBRANCH   2   3
ENDBRANCH   1   2
BRANCH   1  31
ATOM     31  C   UNL A   1      33.237  30.637  26.591  1.00  0.00     0.021 C 
BRANCH  31  32
ATOM     32  C   UNL A   1      34.319  30.305  27.607  1.00  0.00     0.116 C 
BRANCH  32  33
ATOM     33  N   UNL A   1      35.249  31.393  27.849  1.00  0.00    -0.352 N 
ATOM     34  C   UNL A   1      36.549  31.343  28.321  1.00  0.00     0.251 C 
ATOM     35  H   UNL A   1      34.907  32.294  27.649  1.00  0.00     0.163 HD
ATOM     36  O   UNL A   1      37.094  32.389  28.666  1.00  0.00    -0.269 OA
BRANCH  34  37
ATOM     37  C   UNL A   1      37.299  30.063  28.281  1.00  0.00     0.039 A 
ATOM     38  C   UNL A   1      37.359  29.301  29.455  1.00  0.00     0.014 A 
ATOM     39  C   UNL A   1      38.108  29.730  27.199  1.00  0.00     0.014 A 
ATOM     40  C   UNL A   1      38.401  28.393  29.637  1.00  0.00     0.010 A 
ATOM     41  C   UNL A   1      39.186  28.899  27.401  1.00  0.00     0.010 A 
ATOM     42  C   UNL A   1      39.373  28.292  28.646  1.00  0.00    -0.014 A 
BRANCH  42  43
ATOM     43  C   UNL A   1      40.641  27.595  28.788  1.00  0.00     0.031 A 
ATOM     44  C   UNL A   1      40.704  26.141  28.571  1.00  0.00     0.074 A 
ATOM     45  C   UNL A   1      41.764  28.330  28.929  1.00  0.00     0.049 A 
ATOM     46  N   UNL A   1      41.740  25.415  28.808  1.00  0.00    -0.248 NA
ATOM     47  C   UNL A   1      39.560  25.388  28.082  1.00  0.00     0.031 C 
ATOM     48  C   UNL A   1      43.143  27.911  28.715  1.00  0.00     0.029 A 
ATOM     49  N   UNL A   1      41.882  29.583  29.537  1.00  0.00    -0.354 N 
ATOM     50  C   UNL A   1      41.497  24.157  28.302  1.00  0.00     0.074 A 
ATOM     51  C   UNL A   1      40.105  24.180  27.918  1.00  0.00     0.031 C 
ATOM     52  C   UNL A   1      43.950  28.712  29.428  1.00  0.00     0.029 A 
ATOM     53  C   UNL A   1      43.092  29.545  30.255  1.00  0.00     0.049 A 
ATOM     54  H   UNL A   1      41.249  30.335  29.476  1.00  0.00     0.167 HD
ATOM     55  C   UNL A   1      42.544  23.292  28.179  1.00  0.00     0.034 A 
ATOM     56  C   UNL A   1      43.141  29.634  31.619  1.00  0.00     0.034 A 
ATOM     57  C   UNL A   1      43.739  23.828  28.854  1.00  0.00     0.049 A 
ATOM     58  C   UNL A   1      43.728  28.391  32.279  1.00  0.00     0.074 A 
ATOM     59  C   UNL A   1      44.853  24.547  28.455  1.00  0.00     0.029 A 
ATOM     60  N   UNL A   1      43.720  23.895  30.235  1.00  0.00    -0.354 N 
ATOM     61  N   UNL A   1      44.194  27.353  31.637  1.00  0.00    -0.248 NA
ATOM     62  C   UNL A   1      43.739  28.190  33.730  1.00  0.00     0.031 C 
ATOM     63  C   UNL A   1      45.439  25.133  29.621  1.00  0.00     0.029 A 
ATOM     64  C   UNL A   1      44.701  24.739  30.725  1.00  0.00     0.049 A 
ATOM     65  H   UNL A   1      43.085  23.399  30.802  1.00  0.00     0.167 HD
ATOM     66  C   UNL A   1      44.399  26.327  32.522  1.00  0.00     0.074 A 
ATOM     67  C   UNL A   1      44.139  26.912  33.826  1.00  0.00     0.031 C 
ATOM     68  C   UNL A   1      44.700  25.047  32.151  1.00  0.00     0.034 A 
BRANCH  55  69
ATOM     69  C   UNL A   1      42.581  22.049  27.302  1.00  0.00     0.023 A 
ATOM     70  C   UNL A   1      41.565  21.087  27.514  1.00  0.00     0.012 A 
ATOM     71  C   UNL A   1      43.559  21.703  26.340  1.00  0.00     0.148 A 
ATOM     72  C   UNL A   1      41.561  19.841  26.874  1.00  0.00     0.002 A 
ATOM     73  C   UNL A   1      43.589  20.440  25.742  1.00  0.00     0.091 A 
ATOM     74  F   UNL A   1      44.443  22.608  25.929  1.00  0.00    -0.205 F 
ATOM     75  C   UNL A   1      42.589  19.504  26.008  1.00  0.00     0.022 A 
BRANCH  73  76
ATOM     76  S   UNL A   1      44.929  19.911  24.655  1.00  0.00     0.127 S 
ATOM     77  O   UNL A   1      44.709  18.464  24.583  1.00  0.00    -0.237 OA
ATOM     78  O   UNL A   1      44.633  20.631  23.419  1.00  0.00    -0.237 OA
ATOM     79  O   UNL A   1      46.172  20.292  25.315  1.00  0.00    -0.744 OA
ENDBRANCH  73  76
ENDBRANCH  55  69
BRANCH  56  80
ATOM     80  C   UNL A   1      42.035  30.473  32.184  1.00  0.00     0.023 A 
ATOM     81  C   UNL A   1      41.967  31.819  31.743  1.00  0.00     0.012 A 
ATOM     82  C   UNL A   1      40.896  29.899  32.769  1.00  0.00     0.148 A 
ATOM     83  C   UNL A   1      40.750  32.503  31.716  1.00  0.00     0.002 A 
ATOM     84  C   UNL A   1      39.692  30.600  32.767  1.00  0.00     0.091 A 
ATOM     85  F   UNL A   1      40.968  28.650  33.244  1.00  0.00    -0.205 F 
ATOM     86  C   UNL A   1      39.604  31.877  32.192  1.00  0.00     0.022 A 
BRANCH  84  87
ATOM     87  S   UNL A   1      38.192  29.842  33.403  1.00  0.00     0.127 S 
ATOM     88  O   UNL A   1      37.162  30.620  32.721  1.00  0.00    -0.237 OA
ATOM     89  O   UNL A   1      38.317  28.458  32.952  1.00  0.00    -0.237 OA
ATOM     90  O   UNL A   1      38.286  30.010  34.846  1.00  0.00    -0.744 OA
ENDBRANCH  84  87
ENDBRANCH  56  80
BRANCH  68  91
ATOM     91  C   UNL A   1      45.038  23.981  33.166  1.00  0.00     0.023 A 
ATOM     92  C   UNL A   1      44.029  23.103  33.613  1.00  0.00     0.012 A 
ATOM     93  C   UNL A   1      46.292  23.915  33.815  1.00  0.00     0.148 A 
ATOM     94  C   UNL A   1      44.264  22.172  34.628  1.00  0.00     0.002 A 
ATOM     95  C   UNL A   1      46.488  23.060  34.896  1.00  0.00     0.091 A 
ATOM     96  F   UNL A   1      47.317  24.642  33.354  1.00  0.00    -0.205 F 
ATOM     97  C   UNL A   1      45.486  22.168  35.287  1.00  0.00     0.022 A 
BRANCH  95  98
ATOM     98  S   UNL A   1      47.953  23.167  35.933  1.00  0.00     0.127 S 
ATOM     99  O   UNL A   1      49.017  22.802  34.994  1.00  0.00    -0.237 OA
ATOM    100  O   UNL A   1      47.944  24.574  36.324  1.00  0.00    -0.237 OA
ATOM    101  O   UNL A   1      47.745  22.200  37.001  1.00  0.00    -0.744 OA
ENDBRANCH  95  98
ENDBRANCH  68  91
ENDBRANCH  42  43
ENDBRANCH  34  37
ENDBRANCH  32  33
ENDBRANCH  31  32
ENDBRANCH   1  31
TORSDOF 19
ENDMDL
MODEL 2
REMARK VINA RESULT:     -13.7      1.645      2.064
REMARK SMILES Cc1ccccc1OC1(C(=O)NCCCCCCNC(=O)c2ccc(-c3c4nc(c(-c5cccc(S(=O)(=O)[O-])c5F)c5ccc([nH]5)c(-c5cccc(S(=O)(=O)[O-])c5F)c5nc(c(-c6cccc(S(=O)(=O)[O-])c6F)c6ccc3[nH]6)C=C5)C=C4)cc2)CCN(C(=O)[C@H]2CCCCO2)CC1
REMARK SMILES IDX 16 1 15 2 14 3 13 4 12 5 10 6 11 7 9 9 85 10 97 11 86 12
REMARK SMILES IDX 96 13 87 14 88 15 89 16 8 17 7 18 1 19 2 20 3 21 4 22 6 23
REMARK SMILES IDX 5 24 90 25 91 26 95 27 92 28 94 29 93 30 17 31 18 32 19 33
REMARK SMILES IDX 20 34 21 36 22 37 23 38 84 39 24 40 83 41 25 42 26 43 27 44
REMARK SMILES IDX 77 45 28 46 82 47 76 48 78 49 29 50 81 51 75 52 74 53 30 55
REMARK SMILES IDX 62 56 42 57 61 58 43 59 46 60 60 61 79 62 44 63 45 64 59 66
REMARK SMILES IDX 80 67 47 68 31 69 32 70 40 71 33 72 35 73 41 74 34 75 36 76
REMARK SMILES IDX 37 77 38 78 39 79 63 80 64 81 72 82 65 83 67 84 73 85 66 86
REMARK SMILES IDX 68 87 69 88 70 89 71 90 48 91 49 92 57 93 50 94 52 95 58 96
REMARK SMILES IDX 51 97 53 98 54 99 55 100 56 101
REMARK H PARENT 12 8 19 35 78 54 46 65
REMARK Flexibility Score: inf
ROOT
ATOM      1  C   UNL A   1      31.900  29.869  25.757  1.00  0.00     0.002 C 
ENDROOT
BRANCH   1   2
ATOM      2  C   UNL A   1      31.849  28.373  26.117  1.00  0.00     0.002 C 
BRANCH   2   3
ATOM      3  C   UNL A   1      33.133  27.569  25.885  1.00  0.00     0.021 C 
BRANCH   3   4
ATOM      4  C   UNL A   1      33.060  26.100  26.301  1.00  0.00     0.116 C 
BRANCH   4   5
ATOM      5  N   UNL A   1      31.718  25.657  26.605  1.00  0.00    -0.353 N 
ATOM      6  C   UNL A   1      31.004  24.566  26.187  1.00  0.00     0.264 C 
ATOM      7  O   UNL A   1      29.938  24.385  26.790  1.00  0.00    -0.270 OA
ATOM      8  H   UNL A   1      31.229  26.246  27.225  1.00  0.00     0.163 HD
BRANCH   6   9
ATOM      9  C   UNL A   1      31.508  23.600  25.036  1.00  0.00     0.190 C 
ATOM     10  C   UNL A   1      33.030  23.722  24.971  1.00  0.00     0.080 C 
ATOM     11  C   UNL A   1      30.865  22.230  25.278  1.00  0.00     0.080 C 
ATOM     12  C   UNL A   1      33.831  22.493  25.381  1.00  0.00     0.124 C 
ATOM     13  C   UNL A   1      31.781  21.020  25.423  1.00  0.00     0.124 C 
ATOM     14  N   UNL A   1      33.195  21.196  25.134  1.00  0.00    -0.340 N 
ATOM     15  C   UNL A   1      34.052  20.128  24.825  1.00  0.00     0.251 C 
ATOM     16  O   UNL A   1      35.266  20.316  24.696  1.00  0.00    -0.272 OA
BRANCH   9  17
ATOM     17  O   UNL A   1      30.907  24.243  23.874  1.00  0.00    -0.477 OA
BRANCH  17  18
ATOM     18  C   UNL A   1      30.825  25.528  23.436  1.00  0.00     0.123 A 
ATOM     19  C   UNL A   1      33.117  26.080  22.357  1.00  0.00     0.048 C 
ATOM     20  C   UNL A   1      31.721  26.373  22.770  1.00  0.00    -0.009 A 
ATOM     21  C   UNL A   1      31.346  27.711  22.481  1.00  0.00     0.007 A 
ATOM     22  C   UNL A   1      30.113  28.225  22.849  1.00  0.00     0.001 A 
ATOM     23  C   UNL A   1      29.578  26.080  23.799  1.00  0.00     0.047 A 
ATOM     24  C   UNL A   1      29.223  27.404  23.515  1.00  0.00     0.004 A 
ENDBRANCH  17  18
ENDBRANCH   9  17
BRANCH  15  25
ATOM     25  C   UNL A   1      33.448  18.714  24.595  1.00  0.00     0.207 C 
ATOM     26  C   UNL A   1      34.515  17.817  23.948  1.00  0.00     0.042 C 
ATOM     27  O   UNL A   1      33.039  18.193  25.864  1.00  0.00    -0.368 OA
ATOM     28  C   UNL A   1      34.150  16.338  23.975  1.00  0.00     0.006 C 
ATOM     29  C   UNL A   1      32.584  16.849  25.830  1.00  0.00     0.161 C 
ATOM     30  C   UNL A   1      33.699  15.927  25.367  1.00  0.00     0.029 C 
ENDBRANCH  15  25
ENDBRANCH   6   9
ENDBRANCH   4   5
ENDBRANCH   3   4
ENDBRANCH   2   3
ENDBRANCH   1   2
BRANCH   1  31
ATOM     31  C   UNL A   1      32.285  30.834  26.881  1.00  0.00     0.021 C 
BRANCH  31  32
ATOM     32  C   UNL A   1      33.559  30.460  27.624  1.00  0.00     0.116 C 
BRANCH  32  33
ATOM     33  N   UNL A   1      34.186  31.577  28.309  1.00  0.00    -0.352 N 
ATOM     34  C   UNL A   1      35.356  31.603  29.048  1.00  0.00     0.251 C 
ATOM     35  H   UNL A   1      33.712  32.436  28.236  1.00  0.00     0.163 HD
ATOM     36  O   UNL A   1      35.601  32.595  29.730  1.00  0.00    -0.269 OA
BRANCH  34  37
ATOM     37  C   UNL A   1      36.343  30.505  28.903  1.00  0.00     0.039 A 
ATOM     38  C   UNL A   1      36.661  29.755  30.044  1.00  0.00     0.014 A 
ATOM     39  C   UNL A   1      37.104  30.361  27.747  1.00  0.00     0.014 A 
ATOM     40  C   UNL A   1      37.878  29.078  30.108  1.00  0.00     0.010 A 
ATOM     41  C   UNL A   1      38.342  29.766  27.831  1.00  0.00     0.010 A 
ATOM     42  C   UNL A   1      38.758  29.193  29.036  1.00  0.00    -0.014 A 
BRANCH  42  43
ATOM     43  C   UNL A   1      40.149  28.769  29.048  1.00  0.00     0.031 A 
ATOM     44  C   UNL A   1      40.484  27.356  28.814  1.00  0.00     0.074 A 
ATOM     45  C   UNL A   1      41.108  29.719  29.084  1.00  0.00     0.049 A 
ATOM     46  N   UNL A   1      41.664  26.858  28.943  1.00  0.00    -0.248 NA
ATOM     47  C   UNL A   1      39.476  26.381  28.433  1.00  0.00     0.031 C 
ATOM     48  C   UNL A   1      42.516  29.585  28.734  1.00  0.00     0.029 A 
ATOM     49  N   UNL A   1      41.028  30.976  29.689  1.00  0.00    -0.354 N 
ATOM     50  C   UNL A   1      41.634  25.570  28.453  1.00  0.00     0.074 A 
ATOM     51  C   UNL A   1      40.235  25.306  28.207  1.00  0.00     0.031 C 
ATOM     52  C   UNL A   1      43.208  30.542  29.372  1.00  0.00     0.029 A 
ATOM     53  C   UNL A   1      42.284  31.194  30.285  1.00  0.00     0.049 A 
ATOM     54  H   UNL A   1      40.253  31.584  29.695  1.00  0.00     0.167 HD
ATOM     55  C   UNL A   1      42.818  24.934  28.222  1.00  0.00     0.034 A 
ATOM     56  C   UNL A   1      42.446  31.307  31.638  1.00  0.00     0.034 A 
ATOM     57  C   UNL A   1      43.939  25.709  28.782  1.00  0.00     0.049 A 
ATOM     58  C   UNL A   1      43.334  30.217  32.228  1.00  0.00     0.074 A 
ATOM     59  C   UNL A   1      44.840  26.635  28.281  1.00  0.00     0.029 A 
ATOM     60  N   UNL A   1      44.041  25.788  30.158  1.00  0.00    -0.354 N 
ATOM     61  N   UNL A   1      43.936  29.287  31.535  1.00  0.00    -0.248 NA
ATOM     62  C   UNL A   1      43.526  30.039  33.669  1.00  0.00     0.031 C 
ATOM     63  C   UNL A   1      45.404  27.342  29.390  1.00  0.00     0.029 A 
ATOM     64  C   UNL A   1      44.873  26.819  30.558  1.00  0.00     0.049 A 
ATOM     65  H   UNL A   1      43.577  25.181  30.781  1.00  0.00     0.167 HD
ATOM     66  C   UNL A   1      44.430  28.335  32.387  1.00  0.00     0.074 A 
ATOM     67  C   UNL A   1      44.185  28.870  33.716  1.00  0.00     0.031 C 
ATOM     68  C   UNL A   1      44.948  27.138  31.979  1.00  0.00     0.034 A 
BRANCH  55  69
ATOM     69  C   UNL A   1      43.021  23.715  27.336  1.00  0.00     0.023 A 
ATOM     70  C   UNL A   1      43.856  23.876  26.205  1.00  0.00     0.012 A 
ATOM     71  C   UNL A   1      42.411  22.444  27.468  1.00  0.00     0.148 A 
ATOM     72  C   UNL A   1      44.016  22.878  25.236  1.00  0.00     0.002 A 
ATOM     73  C   UNL A   1      42.525  21.467  26.475  1.00  0.00     0.091 A 
ATOM     74  F   UNL A   1      41.764  22.125  28.586  1.00  0.00    -0.205 F 
ATOM     75  C   UNL A   1      43.328  21.681  25.355  1.00  0.00     0.022 A 
BRANCH  73  76
ATOM     76  S   UNL A   1      41.609  19.913  26.532  1.00  0.00     0.127 S 
ATOM     77  O   UNL A   1      40.221  20.374  26.452  1.00  0.00    -0.237 OA
ATOM     78  O   UNL A   1      42.089  19.221  25.338  1.00  0.00    -0.237 OA
ATOM     79  O   UNL A   1      41.952  19.277  27.799  1.00  0.00    -0.744 OA
ENDBRANCH  73  76
ENDBRANCH  55  69
BRANCH  56  80
ATOM     80  C   UNL A   1      41.253  31.911  32.314  1.00  0.00     0.023 A 
ATOM     81  C   UNL A   1      40.921  33.241  31.954  1.00  0.00     0.012 A 
ATOM     82  C   UNL A   1      40.274  31.118  32.935  1.00  0.00     0.148 A 
ATOM     83  C   UNL A   1      39.605  33.699  32.038  1.00  0.00     0.002 A 
ATOM     84  C   UNL A   1      38.969  31.595  33.045  1.00  0.00     0.091 A 
ATOM     85  F   UNL A   1      40.596  29.882  33.335  1.00  0.00    -0.205 F 
ATOM     86  C   UNL A   1      38.621  32.859  32.548  1.00  0.00     0.022 A 
BRANCH  84  87
ATOM     87  S   UNL A   1      37.672  30.556  33.728  1.00  0.00     0.127 S 
ATOM     88  O   UNL A   1      37.703  30.941  35.135  1.00  0.00    -0.237 OA
ATOM     89  O   UNL A   1      36.488  30.999  32.995  1.00  0.00    -0.237 OA
ATOM     90  O   UNL A   1      38.093  29.198  33.416  1.00  0.00    -0.744 OA
ENDBRANCH  84  87
ENDBRANCH  56  80
BRANCH  68  91
ATOM     91  C   UNL A   1      45.591  26.175  32.948  1.00  0.00     0.023 A 
ATOM     92  C   UNL A   1      46.988  25.985  32.915  1.00  0.00     0.012 A 
ATOM     93  C   UNL A   1      44.840  25.329  33.794  1.00  0.00     0.148 A 
ATOM     94  C   UNL A   1      47.617  25.030  33.716  1.00  0.00     0.002 A 
ATOM     95  C   UNL A   1      45.460  24.307  34.509  1.00  0.00     0.091 A 
ATOM     96  F   UNL A   1      43.527  25.542  33.952  1.00  0.00    -0.205 F 
ATOM     97  C   UNL A   1      46.851  24.173  34.495  1.00  0.00     0.022 A 
BRANCH  95  98
ATOM     98  S   UNL A   1      44.513  23.028  35.346  1.00  0.00     0.127 S 
ATOM     99  O   UNL A   1      45.445  22.595  36.390  1.00  0.00    -0.237 OA
ATOM    100  O   UNL A   1      43.359  23.779  35.836  1.00  0.00    -0.237 OA
ATOM    101  O   UNL A   1      44.242  22.018  34.334  1.00  0.00    -0.744 OA
ENDBRANCH  95  98
ENDBRANCH  68  91
ENDBRANCH  42  43
ENDBRANCH  34  37
ENDBRANCH  32  33
ENDBRANCH  31  32
ENDBRANCH   1  31
TORSDOF 19
ENDMDL
MODEL 3
REMARK VINA RESULT:     -13.3      1.832      2.268
REMARK SMILES Cc1ccccc1OC1(C(=O)NCCCCCCNC(=O)c2ccc(-c3c4nc(c(-c5cccc(S(=O)(=O)[O-])c5F)c5ccc([nH]5)c(-c5cccc(S(=O)(=O)[O-])c5F)c5nc(c(-c6cccc(S(=O)(=O)[O-])c6F)c6ccc3[nH]6)C=C5)C=C4)cc2)CCN(C(=O)[C@H]2CCCCO2)CC1
REMARK SMILES IDX 16 1 15 2 14 3 13 4 12 5 10 6 11 7 9 9 85 10 97 11 86 12
REMARK SMILES IDX 96 13 87 14 88 15 89 16 8 17 7 18 1 19 2 20 3 21 4 22 6 23
REMARK SMILES IDX 5 24 90 25 91 26 95 27 92 28 94 29 93 30 17 31 18 32 19 33
REMARK SMILES IDX 20 34 21 36 22 37 23 38 84 39 24 40 83 41 25 42 26 43 27 44
REMARK SMILES IDX 77 45 28 46 82 47 76 48 78 49 29 50 81 51 75 52 74 53 30 55
REMARK SMILES IDX 62 56 42 57 61 58 43 59 46 60 60 61 79 62 44 63 45 64 59 66
REMARK SMILES IDX 80 67 47 68 31 69 32 70 40 71 33 72 35 73 41 74 34 75 36 76
REMARK SMILES IDX 37 77 38 78 39 79 63 80 64 81 72 82 65 83 67 84 73 85 66 86
REMARK SMILES IDX 68 87 69 88 70 89 71 90 48 91 49 92 57 93 50 94 52 95 58 96
REMARK SMILES IDX 51 97 53 98 54 99 55 100 56 101
REMARK H PARENT 12 8 19 35 78 54 46 65
REMARK Flexibility Score: inf
ROOT
ATOM      1  C   UNL A   1      31.764  30.077  25.497  1.00  0.00     0.002 C 
ENDROOT
BRANCH   1   2
ATOM      2  C   UNL A   1      32.512  28.752  25.260  1.00  0.00     0.002 C 
BRANCH   2   3
ATOM      3  C   UNL A   1      31.687  27.466  25.393  1.00  0.00     0.021 C 
BRANCH   3   4
ATOM      4  C   UNL A   1      32.221  26.457  26.408  1.00  0.00     0.116 C 
BRANCH   4   5
ATOM      5  N   UNL A   1      31.207  25.559  26.911  1.00  0.00    -0.353 N 
ATOM      6  C   UNL A   1      30.924  24.250  26.617  1.00  0.00     0.264 C 
ATOM      7  O   UNL A   1      30.098  23.720  27.371  1.00  0.00    -0.270 OA
ATOM      8  H   UNL A   1      30.612  25.958  27.586  1.00  0.00     0.163 HD
BRANCH   6   9
ATOM      9  C   UNL A   1      31.610  23.472  25.419  1.00  0.00     0.190 C 
ATOM     10  C   UNL A   1      33.121  23.648  25.568  1.00  0.00     0.080 C 
ATOM     11  C   UNL A   1      31.008  22.063  25.389  1.00  0.00     0.080 C 
ATOM     12  C   UNL A   1      33.923  22.397  25.907  1.00  0.00     0.124 C 
ATOM     13  C   UNL A   1      31.956  20.873  25.485  1.00  0.00     0.124 C 
ATOM     14  N   UNL A   1      33.384  21.130  25.407  1.00  0.00    -0.340 N 
ATOM     15  C   UNL A   1      34.324  20.142  25.067  1.00  0.00     0.251 C 
ATOM     16  O   UNL A   1      35.533  20.383  25.122  1.00  0.00    -0.272 OA
BRANCH   9  17
ATOM     17  O   UNL A   1      31.127  24.253  24.289  1.00  0.00    -0.477 OA
BRANCH  17  18
ATOM     18  C   UNL A   1      31.648  24.604  23.082  1.00  0.00     0.123 A 
ATOM     19  C   UNL A   1      33.018  22.562  22.258  1.00  0.00     0.048 C 
ATOM     20  C   UNL A   1      32.453  23.932  22.154  1.00  0.00    -0.009 A 
ATOM     21  C   UNL A   1      32.879  24.600  20.977  1.00  0.00     0.007 A 
ATOM     22  C   UNL A   1      32.535  25.916  20.712  1.00  0.00     0.001 A 
ATOM     23  C   UNL A   1      31.316  25.942  22.787  1.00  0.00     0.047 A 
ATOM     24  C   UNL A   1      31.749  26.593  21.626  1.00  0.00     0.004 A 
ENDBRANCH  17  18
ENDBRANCH   9  17
BRANCH  15  25
ATOM     25  C   UNL A   1      33.820  18.757  24.572  1.00  0.00     0.207 C 
ATOM     26  C   UNL A   1      35.031  17.835  24.362  1.00  0.00     0.042 C 
ATOM     27  O   UNL A   1      32.934  18.225  25.563  1.00  0.00    -0.368 OA
ATOM     28  C   UNL A   1      34.646  16.370  24.195  1.00  0.00     0.006 C 
ATOM     29  C   UNL A   1      32.493  16.900  25.309  1.00  0.00     0.161 C 
ATOM     30  C   UNL A   1      33.676  15.947  25.286  1.00  0.00     0.029 C 
ENDBRANCH  15  25
ENDBRANCH   6   9
ENDBRANCH   4   5
ENDBRANCH   3   4
ENDBRANCH   2   3
ENDBRANCH   1   2
BRANCH   1  31
ATOM     31  C   UNL A   1      32.126  30.853  26.765  1.00  0.00     0.021 C 
BRANCH  31  32
ATOM     32  C   UNL A   1      33.496  30.523  27.337  1.00  0.00     0.116 C 
BRANCH  32  33
ATOM     33  N   UNL A   1      34.153  31.652  27.973  1.00  0.00    -0.352 N 
ATOM     34  C   UNL A   1      35.301  31.674  28.745  1.00  0.00     0.251 C 
ATOM     35  H   UNL A   1      33.720  32.525  27.834  1.00  0.00     0.163 HD
ATOM     36  O   UNL A   1      35.571  32.694  29.374  1.00  0.00    -0.269 OA
BRANCH  34  37
ATOM     37  C   UNL A   1      36.243  30.528  28.697  1.00  0.00     0.039 A 
ATOM     38  C   UNL A   1      36.379  29.743  29.849  1.00  0.00     0.014 A 
ATOM     39  C   UNL A   1      37.134  30.365  27.640  1.00  0.00     0.014 A 
ATOM     40  C   UNL A   1      37.543  29.002  30.047  1.00  0.00     0.010 A 
ATOM     41  C   UNL A   1      38.321  29.705  27.863  1.00  0.00     0.010 A 
ATOM     42  C   UNL A   1      38.554  29.089  29.095  1.00  0.00    -0.014 A 
BRANCH  42  43
ATOM     43  C   UNL A   1      39.910  28.593  29.268  1.00  0.00     0.031 A 
ATOM     44  C   UNL A   1      40.241  27.216  28.868  1.00  0.00     0.074 A 
ATOM     45  C   UNL A   1      40.874  29.471  29.617  1.00  0.00     0.049 A 
ATOM     46  N   UNL A   1      41.366  26.641  29.109  1.00  0.00    -0.248 NA
ATOM     47  C   UNL A   1      39.286  26.369  28.173  1.00  0.00     0.031 C 
ATOM     48  C   UNL A   1      42.317  29.316  29.488  1.00  0.00     0.029 A 
ATOM     49  N   UNL A   1      40.726  30.623  30.394  1.00  0.00    -0.354 N 
ATOM     50  C   UNL A   1      41.385  25.448  28.419  1.00  0.00     0.074 A 
ATOM     51  C   UNL A   1      40.043  25.302  27.905  1.00  0.00     0.031 C 
ATOM     52  C   UNL A   1      42.916  30.123  30.377  1.00  0.00     0.029 A 
ATOM     53  C   UNL A   1      41.866  30.676  31.217  1.00  0.00     0.049 A 
ATOM     54  H   UNL A   1      39.979  31.264  30.371  1.00  0.00     0.167 HD
ATOM     55  C   UNL A   1      42.573  24.791  28.288  1.00  0.00     0.034 A 
ATOM     56  C   UNL A   1      41.796  30.570  32.579  1.00  0.00     0.034 A 
ATOM     57  C   UNL A   1      43.602  25.407  29.143  1.00  0.00     0.049 A 
ATOM     58  C   UNL A   1      42.539  29.354  33.124  1.00  0.00     0.074 A 
ATOM     59  C   UNL A   1      44.601  26.349  28.955  1.00  0.00     0.029 A 
ATOM     60  N   UNL A   1      43.467  25.266  30.512  1.00  0.00    -0.354 N 
ATOM     61  N   UNL A   1      43.225  28.512  32.399  1.00  0.00    -0.248 NA
ATOM     62  C   UNL A   1      42.474  28.946  34.529  1.00  0.00     0.031 C 
ATOM     63  C   UNL A   1      44.985  26.843  30.242  1.00  0.00     0.029 A 
ATOM     64  C   UNL A   1      44.246  26.176  31.205  1.00  0.00     0.049 A 
ATOM     65  H   UNL A   1      42.886  24.597  30.943  1.00  0.00     0.167 HD
ATOM     66  C   UNL A   1      43.538  27.413  33.157  1.00  0.00     0.074 A 
ATOM     67  C   UNL A   1      43.082  27.749  34.495  1.00  0.00     0.031 C 
ATOM     68  C   UNL A   1      44.084  26.267  32.651  1.00  0.00     0.034 A 
BRANCH  55  69
ATOM     69  C   UNL A   1      42.891  23.713  27.262  1.00  0.00     0.023 A 
ATOM     70  C   UNL A   1      43.596  24.119  26.105  1.00  0.00     0.012 A 
ATOM     71  C   UNL A   1      42.500  22.354  27.293  1.00  0.00     0.148 A 
ATOM     72  C   UNL A   1      43.832  23.261  25.024  1.00  0.00     0.002 A 
ATOM     73  C   UNL A   1      42.684  21.510  26.194  1.00  0.00     0.091 A 
ATOM     74  F   UNL A   1      42.004  21.825  28.409  1.00  0.00    -0.205 F 
ATOM     75  C   UNL A   1      43.351  21.962  25.055  1.00  0.00     0.022 A 
BRANCH  73  76
ATOM     76  S   UNL A   1      42.030  19.829  26.139  1.00  0.00     0.127 S 
ATOM     77  O   UNL A   1      42.492  19.280  27.417  1.00  0.00    -0.237 OA
ATOM     78  O   UNL A   1      40.588  20.055  26.063  1.00  0.00    -0.237 OA
ATOM     79  O   UNL A   1      42.623  19.192  24.969  1.00  0.00    -0.744 OA
ENDBRANCH  73  76
ENDBRANCH  55  69
BRANCH  56  80
ATOM     80  C   UNL A   1      40.522  31.127  33.137  1.00  0.00     0.023 A 
ATOM     81  C   UNL A   1      39.523  30.189  33.504  1.00  0.00     0.012 A 
ATOM     82  C   UNL A   1      40.450  32.426  33.664  1.00  0.00     0.148 A 
ATOM     83  C   UNL A   1      38.597  30.484  34.506  1.00  0.00     0.002 A 
ATOM     84  C   UNL A   1      39.502  32.722  34.641  1.00  0.00     0.091 A 
ATOM     85  F   UNL A   1      41.352  33.336  33.276  1.00  0.00    -0.205 F 
ATOM     86  C   UNL A   1      38.613  31.740  35.103  1.00  0.00     0.022 A 
BRANCH  84  87
ATOM     87  S   UNL A   1      39.464  34.343  35.416  1.00  0.00     0.127 S 
ATOM     88  O   UNL A   1      40.856  34.500  35.827  1.00  0.00    -0.237 OA
ATOM     89  O   UNL A   1      39.045  35.213  34.319  1.00  0.00    -0.237 OA
ATOM     90  O   UNL A   1      38.482  34.212  36.482  1.00  0.00    -0.744 OA
ENDBRANCH  84  87
ENDBRANCH  56  80
BRANCH  68  91
ATOM     91  C   UNL A   1      44.524  25.132  33.545  1.00  0.00     0.023 A 
ATOM     92  C   UNL A   1      43.578  24.176  33.970  1.00  0.00     0.012 A 
ATOM     93  C   UNL A   1      45.817  25.063  34.111  1.00  0.00     0.148 A 
ATOM     94  C   UNL A   1      43.911  23.170  34.881  1.00  0.00     0.002 A 
ATOM     95  C   UNL A   1      46.112  24.126  35.097  1.00  0.00     0.091 A 
ATOM     96  F   UNL A   1      46.784  25.871  33.658  1.00  0.00    -0.205 F 
ATOM     97  C   UNL A   1      45.171  23.161  35.464  1.00  0.00     0.022 A 
BRANCH  95  98
ATOM     98  S   UNL A   1      47.634  24.204  36.052  1.00  0.00     0.127 S 
ATOM     99  O   UNL A   1      48.595  23.574  35.144  1.00  0.00    -0.237 OA
ATOM    100  O   UNL A   1      47.812  25.645  36.219  1.00  0.00    -0.237 OA
ATOM    101  O   UNL A   1      47.373  23.442  37.264  1.00  0.00    -0.744 OA
ENDBRANCH  95  98
ENDBRANCH  68  91
ENDBRANCH  42  43
ENDBRANCH  34  37
ENDBRANCH  32  33
ENDBRANCH  31  32
ENDBRANCH   1  31
TORSDOF 19
ENDMDL
