MODEL 1
REMARK VINA RESULT:     -12.9      0.000      0.000
REMARK SMILES Cc1ccc(S(=O)(=O)/[NH+]=C(\NCCCCCCNC(=O)c2ccc(-c3c4nc(c(-c5cccc(S(=O)(=O)[O-])c5F)c5ccc([nH]5)c(-c5cccc(S(=O)(=O)[O-])c5F)c5nc(c(-c6cccc(S(=O)(=O)[O-])c6F)c6ccc3[nH]6)C=C5)C=C4)cc2)N[C@@H](Cc2ccc(O)cc2)C(=O)[O-])cc1
REMARK SMILES IDX 14 1 13 2 12 3 11 4 9 5 10 6 84 8 6 11 7 12 8 13 5 14 1 15
REMARK SMILES IDX 2 16 3 17 98 18 4 19 97 20 85 21 86 22 87 23 88 24 93 25
REMARK SMILES IDX 89 26 92 27 90 28 91 29 94 31 95 32 96 33 15 34 16 35 17 36
REMARK SMILES IDX 18 37 19 38 20 40 21 41 22 42 83 43 23 44 82 45 24 46 25 47
REMARK SMILES IDX 26 48 76 49 27 50 81 51 75 52 77 53 28 54 80 55 74 56 73 57
REMARK SMILES IDX 29 59 61 60 41 61 60 62 42 63 45 64 59 65 78 66 43 67 44 68
REMARK SMILES IDX 58 70 79 71 46 72 30 73 31 74 39 75 32 76 34 77 40 78 33 79
REMARK SMILES IDX 35 80 36 81 37 82 38 83 62 84 63 85 71 86 64 87 66 88 72 89
REMARK SMILES IDX 65 90 67 91 68 92 69 93 70 94 47 95 48 96 56 97 49 98 51 99
REMARK SMILES IDX 57 100 50 101 52 102 53 103 54 104 55 105
REMARK H PARENT 9 7 11 9 84 10 91 30 18 39 77 58 45 69
REMARK Flexibility Score: inf
ROOT
ATOM      1  C   UNL A   1      36.618  22.620  23.451  1.00  0.00     0.003 C 
ENDROOT
BRANCH   1   2
ATOM      2  C   UNL A   1      35.395  23.432  23.899  1.00  0.00     0.037 C 
BRANCH   2   3
ATOM      3  C   UNL A   1      34.240  23.487  22.901  1.00  0.00     0.197 C 
BRANCH   3   4
ATOM      4  N   UNL A   1      33.496  24.713  23.061  1.00  0.00    -0.277 N 
ATOM      5  N   UNL A   1      31.879  26.188  23.972  1.00  0.00    -0.167 N 
ATOM      6  C   UNL A   1      32.624  25.133  24.020  1.00  0.00     0.359 C 
ATOM      7  H   UNL A   1      31.340  26.445  24.755  1.00  0.00     0.281 HD
ATOM      8  N   UNL A   1      32.607  24.340  25.122  1.00  0.00    -0.269 N 
ATOM      9  H   UNL A   1      33.646  25.368  22.343  1.00  0.00     0.260 HD
ATOM     10  H   UNL A   1      32.778  23.379  24.990  1.00  0.00     0.260 HD
BRANCH   5  11
ATOM     11  S   UNL A   1      31.832  27.089  22.626  1.00  0.00     0.308 S 
ATOM     12  O   UNL A   1      31.330  26.274  21.524  1.00  0.00    -0.186 OA
ATOM     13  O   UNL A   1      33.076  27.806  22.481  1.00  0.00    -0.186 OA
BRANCH  11  14
ATOM     14  C   UNL A   1      30.580  28.317  22.908  1.00  0.00     0.101 A 
ATOM     15  C   UNL A   1      27.668  31.393  23.584  1.00  0.00     0.044 C 
ATOM     16  C   UNL A   1      28.678  30.309  23.351  1.00  0.00    -0.051 A 
ATOM     17  C   UNL A   1      29.987  30.465  23.828  1.00  0.00     0.005 A 
ATOM     18  C   UNL A   1      28.334  29.144  22.650  1.00  0.00     0.005 A 
ATOM     19  C   UNL A   1      30.940  29.473  23.607  1.00  0.00     0.024 A 
ATOM     20  C   UNL A   1      29.282  28.145  22.427  1.00  0.00     0.024 A 
ENDBRANCH  11  14
ENDBRANCH   5  11
BRANCH   8  21
ATOM     21  C   UNL A   1      32.355  24.793  26.490  1.00  0.00     0.195 C 
BRANCH  21  22
ATOM     22  C   UNL A   1      31.618  26.144  26.414  1.00  0.00     0.083 C 
BRANCH  22  23
ATOM     23  C   UNL A   1      32.311  27.449  26.749  1.00  0.00    -0.044 A 
ATOM     24  C   UNL A   1      33.705  27.497  26.560  1.00  0.00     0.007 A 
ATOM     25  C   UNL A   1      31.663  28.616  27.169  1.00  0.00     0.007 A 
ATOM     26  C   UNL A   1      34.414  28.690  26.714  1.00  0.00     0.046 A 
ATOM     27  C   UNL A   1      32.365  29.820  27.291  1.00  0.00     0.046 A 
ATOM     28  C   UNL A   1      33.732  29.849  27.049  1.00  0.00     0.115 A 
BRANCH  28  29
ATOM     29  O   UNL A   1      34.441  31.010  27.126  1.00  0.00    -0.508 OA
ATOM     30  H   UNL A   1      34.370  31.648  26.444  1.00  0.00     0.293 HD
ENDBRANCH  28  29
ENDBRANCH  22  23
ENDBRANCH  21  22
BRANCH  21  31
ATOM     31  C   UNL A   1      31.537  23.695  27.173  1.00  0.00     0.079 C 
ATOM     32  O   UNL A   1      30.319  23.591  27.174  1.00  0.00    -0.546 OA
ATOM     33  O   UNL A   1      32.293  22.788  27.832  1.00  0.00    -0.546 OA
ENDBRANCH  21  31
ENDBRANCH   8  21
ENDBRANCH   3   4
ENDBRANCH   2   3
ENDBRANCH   1   2
BRANCH   1  34
ATOM     34  C   UNL A   1      36.810  21.247  24.112  1.00  0.00     0.002 C 
BRANCH  34  35
ATOM     35  C   UNL A   1      37.945  21.141  25.125  1.00  0.00     0.021 C 
BRANCH  35  36
ATOM     36  C   UNL A   1      38.178  22.397  25.939  1.00  0.00     0.116 C 
BRANCH  36  37
ATOM     37  N   UNL A   1      39.443  22.385  26.637  1.00  0.00    -0.352 N 
ATOM     38  C   UNL A   1      40.354  23.416  26.781  1.00  0.00     0.251 C 
ATOM     39  H   UNL A   1      39.690  21.533  27.064  1.00  0.00     0.163 HD
ATOM     40  O   UNL A   1      41.533  23.138  26.980  1.00  0.00    -0.269 OA
BRANCH  38  41
ATOM     41  C   UNL A   1      39.858  24.813  26.910  1.00  0.00     0.039 A 
ATOM     42  C   UNL A   1      40.617  25.780  26.236  1.00  0.00     0.014 A 
ATOM     43  C   UNL A   1      39.042  25.190  27.969  1.00  0.00     0.014 A 
ATOM     44  C   UNL A   1      40.845  27.005  26.843  1.00  0.00     0.010 A 
ATOM     45  C   UNL A   1      39.360  26.339  28.640  1.00  0.00     0.010 A 
ATOM     46  C   UNL A   1      40.331  27.192  28.114  1.00  0.00    -0.014 A 
BRANCH  46  47
ATOM     47  C   UNL A   1      40.607  28.316  28.971  1.00  0.00     0.031 A 
ATOM     48  C   UNL A   1      39.670  29.448  28.878  1.00  0.00     0.074 A 
ATOM     49  C   UNL A   1      41.434  28.102  30.022  1.00  0.00     0.049 A 
ATOM     50  N   UNL A   1      39.808  30.543  29.527  1.00  0.00    -0.248 NA
ATOM     51  C   UNL A   1      38.470  29.421  28.041  1.00  0.00     0.031 C 
ATOM     52  C   UNL A   1      41.446  28.819  31.290  1.00  0.00     0.029 A 
ATOM     53  N   UNL A   1      42.522  27.227  30.143  1.00  0.00    -0.354 N 
ATOM     54  C   UNL A   1      38.614  31.226  29.443  1.00  0.00     0.074 A 
ATOM     55  C   UNL A   1      37.851  30.539  28.432  1.00  0.00     0.031 C 
ATOM     56  C   UNL A   1      42.613  28.578  31.911  1.00  0.00     0.029 A 
ATOM     57  C   UNL A   1      43.461  27.897  30.952  1.00  0.00     0.049 A 
ATOM     58  H   UNL A   1      42.611  26.331  29.746  1.00  0.00     0.167 HD
ATOM     59  C   UNL A   1      38.378  32.202  30.362  1.00  0.00     0.034 A 
ATOM     60  C   UNL A   1      44.642  28.399  30.465  1.00  0.00     0.034 A 
ATOM     61  C   UNL A   1      39.554  32.353  31.241  1.00  0.00     0.049 A 
ATOM     62  C   UNL A   1      44.714  29.932  30.528  1.00  0.00     0.074 A 
ATOM     63  C   UNL A   1      39.898  31.899  32.504  1.00  0.00     0.029 A 
ATOM     64  N   UNL A   1      40.740  32.758  30.657  1.00  0.00    -0.354 N 
ATOM     65  N   UNL A   1      43.805  30.699  31.073  1.00  0.00    -0.248 NA
ATOM     66  C   UNL A   1      45.780  30.720  29.910  1.00  0.00     0.031 C 
ATOM     67  C   UNL A   1      41.315  32.041  32.656  1.00  0.00     0.029 A 
ATOM     68  C   UNL A   1      41.823  32.610  31.502  1.00  0.00     0.049 A 
ATOM     69  H   UNL A   1      40.805  33.113  29.740  1.00  0.00     0.167 HD
ATOM     70  C   UNL A   1      44.033  32.013  30.743  1.00  0.00     0.074 A 
ATOM     71  C   UNL A   1      45.313  31.975  30.050  1.00  0.00     0.031 C 
ATOM     72  C   UNL A   1      43.131  33.019  30.997  1.00  0.00     0.034 A 
BRANCH  59  73
ATOM     73  C   UNL A   1      37.040  32.865  30.640  1.00  0.00     0.023 A 
ATOM     74  C   UNL A   1      36.576  32.807  31.974  1.00  0.00     0.012 A 
ATOM     75  C   UNL A   1      36.186  33.515  29.715  1.00  0.00     0.148 A 
ATOM     76  C   UNL A   1      35.321  33.286  32.359  1.00  0.00     0.002 A 
ATOM     77  C   UNL A   1      34.908  33.951  30.088  1.00  0.00     0.091 A 
ATOM     78  F   UNL A   1      36.618  33.783  28.481  1.00  0.00    -0.205 F 
ATOM     79  C   UNL A   1      34.474  33.835  31.412  1.00  0.00     0.022 A 
BRANCH  77  80
ATOM     80  S   UNL A   1      33.713  34.626  28.916  1.00  0.00     0.127 S 
ATOM     81  O   UNL A   1      33.473  33.482  28.033  1.00  0.00    -0.237 OA
ATOM     82  O   UNL A   1      32.584  34.972  29.778  1.00  0.00    -0.237 OA
ATOM     83  O   UNL A   1      34.371  35.752  28.263  1.00  0.00    -0.744 OA
ENDBRANCH  77  80
ENDBRANCH  59  73
BRANCH  60  84
ATOM     84  C   UNL A   1      45.230  27.534  29.392  1.00  0.00     0.023 A 
ATOM     85  C   UNL A   1      45.518  26.195  29.757  1.00  0.00     0.012 A 
ATOM     86  C   UNL A   1      45.046  27.840  28.034  1.00  0.00     0.148 A 
ATOM     87  C   UNL A   1      45.391  25.162  28.827  1.00  0.00     0.002 A 
ATOM     88  C   UNL A   1      44.931  26.804  27.110  1.00  0.00     0.091 A 
ATOM     89  F   UNL A   1      44.906  29.121  27.676  1.00  0.00    -0.205 F 
ATOM     90  C   UNL A   1      45.041  25.464  27.515  1.00  0.00     0.022 A 
BRANCH  88  91
ATOM     91  S   UNL A   1      44.490  27.127  25.398  1.00  0.00     0.127 S 
ATOM     92  O   UNL A   1      43.916  25.848  24.996  1.00  0.00    -0.237 OA
ATOM     93  O   UNL A   1      43.527  28.220  25.522  1.00  0.00    -0.237 OA
ATOM     94  O   UNL A   1      45.741  27.502  24.755  1.00  0.00    -0.744 OA
ENDBRANCH  88  91
ENDBRANCH  60  84
BRANCH  72  95
ATOM     95  C   UNL A   1      43.376  34.499  30.698  1.00  0.00     0.023 A 
ATOM     96  C   UNL A   1      43.626  35.414  31.736  1.00  0.00     0.012 A 
ATOM     97  C   UNL A   1      43.254  35.057  29.392  1.00  0.00     0.148 A 
ATOM     98  C   UNL A   1      43.884  36.768  31.483  1.00  0.00     0.002 A 
ATOM     99  C   UNL A   1      43.477  36.406  29.145  1.00  0.00     0.091 A 
ATOM    100  F   UNL A   1      42.881  34.301  28.361  1.00  0.00    -0.205 F 
ATOM    101  C   UNL A   1      43.828  37.261  30.185  1.00  0.00     0.022 A 
BRANCH  99 102
ATOM    102  S   UNL A   1      43.284  37.127  27.505  1.00  0.00     0.127 S 
ATOM    103  O   UNL A   1      43.054  38.535  27.832  1.00  0.00    -0.237 OA
ATOM    104  O   UNL A   1      44.586  36.845  26.901  1.00  0.00    -0.237 OA
ATOM    105  O   UNL A   1      42.160  36.446  26.881  1.00  0.00    -0.744 OA
ENDBRANCH  99 102
ENDBRANCH  72  95
ENDBRANCH  46  47
ENDBRANCH  38  41
ENDBRANCH  36  37
ENDBRANCH  35  36
ENDBRANCH  34  35
ENDBRANCH   1  34
TORSDOF 22
ENDMDL
MODEL 2
REMARK VINA RESULT:     -12.3      3.923      9.375
REMARK SMILES Cc1ccc(S(=O)(=O)/[NH+]=C(\NCCCCCCNC(=O)c2ccc(-c3c4nc(c(-c5cccc(S(=O)(=O)[O-])c5F)c5ccc([nH]5)c(-c5cccc(S(=O)(=O)[O-])c5F)c5nc(c(-c6cccc(S(=O)(=O)[O-])c6F)c6ccc3[nH]6)C=C5)C=C4)cc2)N[C@@H](Cc2ccc(O)cc2)C(=O)[O-])cc1
REMARK SMILES IDX 14 1 13 2 12 3 11 4 9 5 10 6 84 8 6 11 7 12 8 13 5 14 1 15
REMARK SMILES IDX 2 16 3 17 98 18 4 19 97 20 85 21 86 22 87 23 88 24 93 25
REMARK SMILES IDX 89 26 92 27 90 28 91 29 94 31 95 32 96 33 15 34 16 35 17 36
REMARK SMILES IDX 18 37 19 38 20 40 21 41 22 42 83 43 23 44 82 45 24 46 25 47
REMARK SMILES IDX 26 48 76 49 27 50 81 51 75 52 77 53 28 54 80 55 74 56 73 57
REMARK SMILES IDX 29 59 61 60 41 61 60 62 42 63 45 64 59 65 78 66 43 67 44 68
REMARK SMILES IDX 58 70 79 71 46 72 30 73 31 74 39 75 32 76 34 77 40 78 33 79
REMARK SMILES IDX 35 80 36 81 37 82 38 83 62 84 63 85 71 86 64 87 66 88 72 89
REMARK SMILES IDX 65 90 67 91 68 92 69 93 70 94 47 95 48 96 56 97 49 98 51 99
REMARK SMILES IDX 57 100 50 101 52 102 53 103 54 104 55 105
REMARK H PARENT 9 7 11 9 84 10 91 30 18 39 77 58 45 69
REMARK Flexibility Score: inf
ROOT
ATOM      1  C   UNL A   1      33.010  29.296  24.608  1.00  0.00     0.003 C 
ENDROOT
BRANCH   1   2
ATOM      2  C   UNL A   1      34.094  28.587  23.785  1.00  0.00     0.037 C 
BRANCH   2   3
ATOM      3  C   UNL A   1      33.667  28.125  22.393  1.00  0.00     0.197 C 
BRANCH   3   4
ATOM      4  N   UNL A   1      33.359  26.716  22.405  1.00  0.00    -0.277 N 
ATOM      5  N   UNL A   1      32.312  24.710  23.115  1.00  0.00    -0.167 N 
ATOM      6  C   UNL A   1      32.390  25.999  23.039  1.00  0.00     0.359 C 
ATOM      7  H   UNL A   1      31.526  24.289  23.532  1.00  0.00     0.281 HD
ATOM      8  N   UNL A   1      31.422  26.770  23.599  1.00  0.00    -0.269 N 
ATOM      9  H   UNL A   1      33.961  26.170  21.851  1.00  0.00     0.260 HD
ATOM     10  H   UNL A   1      31.690  27.656  23.937  1.00  0.00     0.260 HD
BRANCH   5  11
ATOM     11  S   UNL A   1      33.507  23.789  22.524  1.00  0.00     0.308 S 
ATOM     12  O   UNL A   1      34.787  24.303  23.003  1.00  0.00    -0.186 OA
ATOM     13  O   UNL A   1      33.300  23.576  21.113  1.00  0.00    -0.186 OA
BRANCH  11  14
ATOM     14  C   UNL A   1      33.322  22.201  23.300  1.00  0.00     0.101 A 
ATOM     15  C   UNL A   1      32.935  18.428  25.303  1.00  0.00     0.044 C 
ATOM     16  C   UNL A   1      33.069  19.742  24.592  1.00  0.00    -0.051 A 
ATOM     17  C   UNL A   1      34.113  20.613  24.931  1.00  0.00     0.005 A 
ATOM     18  C   UNL A   1      32.153  20.117  23.598  1.00  0.00     0.005 A 
ATOM     19  C   UNL A   1      34.242  21.842  24.289  1.00  0.00     0.024 A 
ATOM     20  C   UNL A   1      32.277  21.346  22.949  1.00  0.00     0.024 A 
ENDBRANCH  11  14
ENDBRANCH   5  11
BRANCH   8  21
ATOM     21  C   UNL A   1      30.015  26.397  23.741  1.00  0.00     0.195 C 
BRANCH  21  22
ATOM     22  C   UNL A   1      29.748  26.114  25.232  1.00  0.00     0.083 C 
BRANCH  22  23
ATOM     23  C   UNL A   1      30.538  25.072  25.998  1.00  0.00    -0.044 A 
ATOM     24  C   UNL A   1      29.941  23.808  26.155  1.00  0.00     0.007 A 
ATOM     25  C   UNL A   1      31.831  25.257  26.501  1.00  0.00     0.007 A 
ATOM     26  C   UNL A   1      30.640  22.745  26.728  1.00  0.00     0.046 A 
ATOM     27  C   UNL A   1      32.547  24.184  27.044  1.00  0.00     0.046 A 
ATOM     28  C   UNL A   1      31.949  22.934  27.141  1.00  0.00     0.115 A 
BRANCH  28  29
ATOM     29  O   UNL A   1      32.628  21.861  27.633  1.00  0.00    -0.508 OA
ATOM     30  H   UNL A   1      33.040  21.257  27.047  1.00  0.00     0.293 HD
ENDBRANCH  28  29
ENDBRANCH  22  23
ENDBRANCH  21  22
BRANCH  21  31
ATOM     31  C   UNL A   1      29.193  27.565  23.190  1.00  0.00     0.079 C 
ATOM     32  O   UNL A   1      28.022  27.809  23.439  1.00  0.00    -0.546 OA
ATOM     33  O   UNL A   1      29.884  28.359  22.341  1.00  0.00    -0.546 OA
ENDBRANCH  21  31
ENDBRANCH   8  21
ENDBRANCH   3   4
ENDBRANCH   2   3
ENDBRANCH   1   2
BRANCH   1  34
ATOM     34  C   UNL A   1      33.036  29.063  26.125  1.00  0.00     0.002 C 
BRANCH  34  35
ATOM     35  C   UNL A   1      34.385  28.676  26.724  1.00  0.00     0.021 C 
BRANCH  35  36
ATOM     36  C   UNL A   1      35.112  29.811  27.415  1.00  0.00     0.116 C 
BRANCH  36  37
ATOM     37  N   UNL A   1      34.463  31.088  27.228  1.00  0.00    -0.352 N 
ATOM     38  C   UNL A   1      34.354  32.136  28.124  1.00  0.00     0.251 C 
ATOM     39  H   UNL A   1      34.043  31.231  26.349  1.00  0.00     0.163 HD
ATOM     40  O   UNL A   1      33.420  32.922  28.001  1.00  0.00    -0.269 OA
BRANCH  38  41
ATOM     41  C   UNL A   1      35.476  32.410  29.064  1.00  0.00     0.039 A 
ATOM     42  C   UNL A   1      36.618  32.974  28.480  1.00  0.00     0.014 A 
ATOM     43  C   UNL A   1      35.580  31.736  30.273  1.00  0.00     0.014 A 
ATOM     44  C   UNL A   1      37.871  32.549  28.894  1.00  0.00     0.010 A 
ATOM     45  C   UNL A   1      36.797  31.209  30.606  1.00  0.00     0.010 A 
ATOM     46  C   UNL A   1      37.920  31.550  29.850  1.00  0.00    -0.014 A 
BRANCH  46  47
ATOM     47  C   UNL A   1      39.109  30.858  30.276  1.00  0.00     0.031 A 
ATOM     48  C   UNL A   1      39.343  29.537  29.665  1.00  0.00     0.074 A 
ATOM     49  C   UNL A   1      40.071  31.595  30.877  1.00  0.00     0.049 A 
ATOM     50  N   UNL A   1      40.319  28.771  29.979  1.00  0.00    -0.248 NA
ATOM     51  C   UNL A   1      38.486  28.981  28.618  1.00  0.00     0.031 C 
ATOM     52  C   UNL A   1      41.503  31.326  30.895  1.00  0.00     0.029 A 
ATOM     53  N   UNL A   1      39.954  32.730  31.692  1.00  0.00    -0.354 N 
ATOM     54  C   UNL A   1      40.405  27.793  29.011  1.00  0.00     0.074 A 
ATOM     55  C   UNL A   1      39.189  27.908  28.245  1.00  0.00     0.031 C 
ATOM     56  C   UNL A   1      42.067  32.052  31.873  1.00  0.00     0.029 A 
ATOM     57  C   UNL A   1      40.981  32.619  32.649  1.00  0.00     0.049 A 
ATOM     58  H   UNL A   1      39.292  33.454  31.611  1.00  0.00     0.167 HD
ATOM     59  C   UNL A   1      41.578  27.114  28.900  1.00  0.00     0.034 A 
ATOM     60  C   UNL A   1      40.742  32.338  33.971  1.00  0.00     0.034 A 
ATOM     61  C   UNL A   1      42.514  27.563  29.949  1.00  0.00     0.049 A 
ATOM     62  C   UNL A   1      41.304  30.977  34.407  1.00  0.00     0.074 A 
ATOM     63  C   UNL A   1      43.576  28.452  30.000  1.00  0.00     0.029 A 
ATOM     64  N   UNL A   1      42.152  27.344  31.265  1.00  0.00    -0.354 N 
ATOM     65  N   UNL A   1      42.024  30.191  33.650  1.00  0.00    -0.248 NA
ATOM     66  C   UNL A   1      41.028  30.364  35.707  1.00  0.00     0.031 C 
ATOM     67  C   UNL A   1      43.835  28.758  31.375  1.00  0.00     0.029 A 
ATOM     68  C   UNL A   1      42.955  28.030  32.156  1.00  0.00     0.049 A 
ATOM     69  H   UNL A   1      41.406  26.762  31.538  1.00  0.00     0.167 HD
ATOM     70  C   UNL A   1      42.151  28.954  34.233  1.00  0.00     0.074 A 
ATOM     71  C   UNL A   1      41.547  29.132  35.546  1.00  0.00     0.031 C 
ATOM     72  C   UNL A   1      42.674  27.863  33.580  1.00  0.00     0.034 A 
BRANCH  59  73
ATOM     73  C   UNL A   1      41.992  26.225  27.741  1.00  0.00     0.023 A 
ATOM     74  C   UNL A   1      42.488  26.881  26.591  1.00  0.00     0.012 A 
ATOM     75  C   UNL A   1      41.917  24.812  27.663  1.00  0.00     0.148 A 
ATOM     76  C   UNL A   1      42.813  26.202  25.414  1.00  0.00     0.002 A 
ATOM     77  C   UNL A   1      42.197  24.134  26.468  1.00  0.00     0.091 A 
ATOM     78  F   UNL A   1      41.642  24.096  28.755  1.00  0.00    -0.205 F 
ATOM     79  C   UNL A   1      42.643  24.830  25.342  1.00  0.00     0.022 A 
BRANCH  77  80
ATOM     80  S   UNL A   1      41.951  22.358  26.260  1.00  0.00     0.127 S 
ATOM     81  O   UNL A   1      40.492  22.260  26.178  1.00  0.00    -0.237 OA
ATOM     82  O   UNL A   1      42.646  22.088  25.003  1.00  0.00    -0.237 OA
ATOM     83  O   UNL A   1      42.524  21.724  27.441  1.00  0.00    -0.744 OA
ENDBRANCH  77  80
ENDBRANCH  59  73
BRANCH  60  84
ATOM     84  C   UNL A   1      39.476  32.968  34.467  1.00  0.00     0.023 A 
ATOM     85  C   UNL A   1      38.351  32.871  33.610  1.00  0.00     0.012 A 
ATOM     86  C   UNL A   1      39.264  33.182  35.839  1.00  0.00     0.148 A 
ATOM     87  C   UNL A   1      37.064  32.754  34.136  1.00  0.00     0.002 A 
ATOM     88  C   UNL A   1      37.975  33.075  36.355  1.00  0.00     0.091 A 
ATOM     89  F   UNL A   1      40.322  33.405  36.627  1.00  0.00    -0.205 F 
ATOM     90  C   UNL A   1      36.884  32.798  35.515  1.00  0.00     0.022 A 
BRANCH  88  91
ATOM     91  S   UNL A   1      37.672  33.133  38.126  1.00  0.00     0.127 S 
ATOM     92  O   UNL A   1      38.254  34.422  38.481  1.00  0.00    -0.237 OA
ATOM     93  O   UNL A   1      36.214  33.077  38.198  1.00  0.00    -0.237 OA
ATOM     94  O   UNL A   1      38.343  31.956  38.658  1.00  0.00    -0.744 OA
ENDBRANCH  88  91
ENDBRANCH  60  84
BRANCH  72  95
ATOM     95  C   UNL A   1      42.886  26.490  34.217  1.00  0.00     0.023 A 
ATOM     96  C   UNL A   1      41.901  25.913  35.038  1.00  0.00     0.012 A 
ATOM     97  C   UNL A   1      44.113  25.770  34.119  1.00  0.00     0.148 A 
ATOM     98  C   UNL A   1      42.061  24.642  35.606  1.00  0.00     0.002 A 
ATOM     99  C   UNL A   1      44.285  24.524  34.709  1.00  0.00     0.091 A 
ATOM    100  F   UNL A   1      45.160  26.293  33.481  1.00  0.00    -0.205 F 
ATOM    101  C   UNL A   1      43.246  23.939  35.427  1.00  0.00     0.022 A 
BRANCH  99 102
ATOM    102  S   UNL A   1      45.845  23.628  34.626  1.00  0.00     0.127 S 
ATOM    103  O   UNL A   1      45.401  22.313  34.162  1.00  0.00    -0.237 OA
ATOM    104  O   UNL A   1      46.584  24.409  33.633  1.00  0.00    -0.237 OA
ATOM    105  O   UNL A   1      46.411  23.651  35.966  1.00  0.00    -0.744 OA
ENDBRANCH  99 102
ENDBRANCH  72  95
ENDBRANCH  46  47
ENDBRANCH  38  41
ENDBRANCH  36  37
ENDBRANCH  35  36
ENDBRANCH  34  35
ENDBRANCH   1  34
TORSDOF 22
ENDMDL
MODEL 3
REMARK VINA RESULT:     -12.1      1.609      2.059
REMARK SMILES Cc1ccc(S(=O)(=O)/[NH+]=C(\NCCCCCCNC(=O)c2ccc(-c3c4nc(c(-c5cccc(S(=O)(=O)[O-])c5F)c5ccc([nH]5)c(-c5cccc(S(=O)(=O)[O-])c5F)c5nc(c(-c6cccc(S(=O)(=O)[O-])c6F)c6ccc3[nH]6)C=C5)C=C4)cc2)N[C@@H](Cc2ccc(O)cc2)C(=O)[O-])cc1
REMARK SMILES IDX 14 1 13 2 12 3 11 4 9 5 10 6 84 8 6 11 7 12 8 13 5 14 1 15
REMARK SMILES IDX 2 16 3 17 98 18 4 19 97 20 85 21 86 22 87 23 88 24 93 25
REMARK SMILES IDX 89 26 92 27 90 28 91 29 94 31 95 32 96 33 15 34 16 35 17 36
REMARK SMILES IDX 18 37 19 38 20 40 21 41 22 42 83 43 23 44 82 45 24 46 25 47
REMARK SMILES IDX 26 48 76 49 27 50 81 51 75 52 77 53 28 54 80 55 74 56 73 57
REMARK SMILES IDX 29 59 61 60 41 61 60 62 42 63 45 64 59 65 78 66 43 67 44 68
REMARK SMILES IDX 58 70 79 71 46 72 30 73 31 74 39 75 32 76 34 77 40 78 33 79
REMARK SMILES IDX 35 80 36 81 37 82 38 83 62 84 63 85 71 86 64 87 66 88 72 89
REMARK SMILES IDX 65 90 67 91 68 92 69 93 70 94 47 95 48 96 56 97 49 98 51 99
REMARK SMILES IDX 57 100 50 101 52 102 53 103 54 104 55 105
REMARK H PARENT 9 7 11 9 84 10 91 30 18 39 77 58 45 69
REMARK Flexibility Score: inf
ROOT
ATOM      1  C   UNL A   1      36.731  22.590  23.598  1.00  0.00     0.003 C 
ENDROOT
BRANCH   1   2
ATOM      2  C   UNL A   1      35.378  23.226  23.947  1.00  0.00     0.037 C 
BRANCH   2   3
ATOM      3  C   UNL A   1      34.352  23.250  22.816  1.00  0.00     0.197 C 
BRANCH   3   4
ATOM      4  N   UNL A   1      33.531  24.433  22.908  1.00  0.00    -0.277 N 
ATOM      5  N   UNL A   1      31.728  25.795  23.627  1.00  0.00    -0.167 N 
ATOM      6  C   UNL A   1      32.512  24.774  23.746  1.00  0.00     0.359 C 
ATOM      7  H   UNL A   1      31.071  25.995  24.333  1.00  0.00     0.281 HD
ATOM      8  N   UNL A   1      32.381  23.938  24.808  1.00  0.00    -0.269 N 
ATOM      9  H   UNL A   1      33.746  25.122  22.240  1.00  0.00     0.260 HD
ATOM     10  H   UNL A   1      32.618  22.992  24.671  1.00  0.00     0.260 HD
BRANCH   5  11
ATOM     11  S   UNL A   1      31.825  26.745  22.317  1.00  0.00     0.308 S 
ATOM     12  O   UNL A   1      31.422  25.978  21.142  1.00  0.00    -0.186 OA
ATOM     13  O   UNL A   1      33.085  27.446  22.322  1.00  0.00    -0.186 OA
BRANCH  11  14
ATOM     14  C   UNL A   1      30.567  27.982  22.523  1.00  0.00     0.101 A 
ATOM     15  C   UNL A   1      27.576  31.035  22.884  1.00  0.00     0.044 C 
ATOM     16  C   UNL A   1      28.620  29.964  22.770  1.00  0.00    -0.051 A 
ATOM     17  C   UNL A   1      29.848  30.254  22.159  1.00  0.00     0.005 A 
ATOM     18  C   UNL A   1      28.379  28.671  23.254  1.00  0.00     0.005 A 
ATOM     19  C   UNL A   1      30.822  29.266  22.032  1.00  0.00     0.024 A 
ATOM     20  C   UNL A   1      29.350  27.676  23.134  1.00  0.00     0.024 A 
ENDBRANCH  11  14
ENDBRANCH   5  11
BRANCH   8  21
ATOM     21  C   UNL A   1      31.916  24.325  26.140  1.00  0.00     0.195 C 
BRANCH  21  22
ATOM     22  C   UNL A   1      31.289  25.728  26.034  1.00  0.00     0.083 C 
BRANCH  22  23
ATOM     23  C   UNL A   1      32.073  26.979  26.376  1.00  0.00    -0.044 A 
ATOM     24  C   UNL A   1      31.338  28.085  26.844  1.00  0.00     0.007 A 
ATOM     25  C   UNL A   1      33.467  27.091  26.320  1.00  0.00     0.007 A 
ATOM     26  C   UNL A   1      31.980  29.234  27.309  1.00  0.00     0.046 A 
ATOM     27  C   UNL A   1      34.114  28.227  26.817  1.00  0.00     0.046 A 
ATOM     28  C   UNL A   1      33.365  29.284  27.319  1.00  0.00     0.115 A 
BRANCH  28  29
ATOM     29  O   UNL A   1      33.962  30.391  27.841  1.00  0.00    -0.508 OA
ATOM     30  H   UNL A   1      34.342  30.359  28.698  1.00  0.00     0.293 HD
ENDBRANCH  28  29
ENDBRANCH  22  23
ENDBRANCH  21  22
BRANCH  21  31
ATOM     31  C   UNL A   1      30.924  23.250  26.589  1.00  0.00     0.079 C 
ATOM     32  O   UNL A   1      30.079  23.362  27.466  1.00  0.00    -0.546 OA
ATOM     33  O   UNL A   1      31.052  22.082  25.919  1.00  0.00    -0.546 OA
ENDBRANCH  21  31
ENDBRANCH   8  21
ENDBRANCH   3   4
ENDBRANCH   2   3
ENDBRANCH   1   2
BRANCH   1  34
ATOM     34  C   UNL A   1      37.026  21.219  24.223  1.00  0.00     0.002 C 
BRANCH  34  35
ATOM     35  C   UNL A   1      38.147  21.176  25.256  1.00  0.00     0.021 C 
BRANCH  35  36
ATOM     36  C   UNL A   1      38.237  22.407  26.134  1.00  0.00     0.116 C 
BRANCH  36  37
ATOM     37  N   UNL A   1      39.486  22.490  26.856  1.00  0.00    -0.352 N 
ATOM     38  C   UNL A   1      40.353  23.563  26.954  1.00  0.00     0.251 C 
ATOM     39  H   UNL A   1      39.755  21.677  27.342  1.00  0.00     0.163 HD
ATOM     40  O   UNL A   1      41.537  23.345  27.194  1.00  0.00    -0.269 OA
BRANCH  38  41
ATOM     41  C   UNL A   1      39.801  24.945  26.984  1.00  0.00     0.039 A 
ATOM     42  C   UNL A   1      40.461  25.869  26.163  1.00  0.00     0.014 A 
ATOM     43  C   UNL A   1      39.047  25.393  28.061  1.00  0.00     0.014 A 
ATOM     44  C   UNL A   1      40.673  27.157  26.627  1.00  0.00     0.010 A 
ATOM     45  C   UNL A   1      39.357  26.615  28.591  1.00  0.00     0.010 A 
ATOM     46  C   UNL A   1      40.245  27.450  27.910  1.00  0.00    -0.014 A 
BRANCH  46  47
ATOM     47  C   UNL A   1      40.529  28.665  28.630  1.00  0.00     0.031 A 
ATOM     48  C   UNL A   1      39.459  29.678  28.638  1.00  0.00     0.074 A 
ATOM     49  C   UNL A   1      41.545  28.630  29.523  1.00  0.00     0.049 A 
ATOM     50  N   UNL A   1      39.575  30.832  29.180  1.00  0.00    -0.248 NA
ATOM     51  C   UNL A   1      38.144  29.452  28.038  1.00  0.00     0.031 C 
ATOM     52  C   UNL A   1      41.692  29.448  30.719  1.00  0.00     0.029 A 
ATOM     53  N   UNL A   1      42.736  27.891  29.498  1.00  0.00    -0.354 N 
ATOM     54  C   UNL A   1      38.311  31.373  29.273  1.00  0.00     0.074 A 
ATOM     55  C   UNL A   1      37.472  30.525  28.464  1.00  0.00     0.031 C 
ATOM     56  C   UNL A   1      42.969  29.387  31.130  1.00  0.00     0.029 A 
ATOM     57  C   UNL A   1      43.713  28.723  30.077  1.00  0.00     0.049 A 
ATOM     58  H   UNL A   1      42.862  26.979  29.149  1.00  0.00     0.167 HD
ATOM     59  C   UNL A   1      38.122  32.391  30.156  1.00  0.00     0.034 A 
ATOM     60  C   UNL A   1      44.721  29.308  29.352  1.00  0.00     0.034 A 
ATOM     61  C   UNL A   1      39.406  32.741  30.794  1.00  0.00     0.049 A 
ATOM     62  C   UNL A   1      44.617  30.839  29.304  1.00  0.00     0.074 A 
ATOM     63  C   UNL A   1      40.018  32.434  31.999  1.00  0.00     0.029 A 
ATOM     64  N   UNL A   1      40.415  33.221  29.978  1.00  0.00    -0.354 N 
ATOM     65  N   UNL A   1      43.732  31.546  29.956  1.00  0.00    -0.248 NA
ATOM     66  C   UNL A   1      45.456  31.683  28.452  1.00  0.00     0.031 C 
ATOM     67  C   UNL A   1      41.412  32.740  31.880  1.00  0.00     0.029 A 
ATOM     68  C   UNL A   1      41.638  33.262  30.619  1.00  0.00     0.049 A 
ATOM     69  H   UNL A   1      40.276  33.503  29.045  1.00  0.00     0.167 HD
ATOM     70  C   UNL A   1      43.738  32.845  29.508  1.00  0.00     0.074 A 
ATOM     71  C   UNL A   1      44.872  32.887  28.597  1.00  0.00     0.031 C 
ATOM     72  C   UNL A   1      42.779  33.766  29.858  1.00  0.00     0.034 A 
BRANCH  59  73
ATOM     73  C   UNL A   1      36.783  32.927  30.632  1.00  0.00     0.023 A 
ATOM     74  C   UNL A   1      36.369  32.527  31.923  1.00  0.00     0.012 A 
ATOM     75  C   UNL A   1      35.884  33.763  29.925  1.00  0.00     0.148 A 
ATOM     76  C   UNL A   1      35.120  32.860  32.453  1.00  0.00     0.002 A 
ATOM     77  C   UNL A   1      34.612  34.057  30.435  1.00  0.00     0.091 A 
ATOM     78  F   UNL A   1      36.265  34.341  28.784  1.00  0.00    -0.205 F 
ATOM     79  C   UNL A   1      34.229  33.604  31.700  1.00  0.00     0.022 A 
BRANCH  77  80
ATOM     80  S   UNL A   1      33.363  34.969  29.505  1.00  0.00     0.127 S 
ATOM     81  O   UNL A   1      34.146  36.073  28.943  1.00  0.00    -0.237 OA
ATOM     82  O   UNL A   1      32.917  33.984  28.522  1.00  0.00    -0.237 OA
ATOM     83  O   UNL A   1      32.356  35.388  30.472  1.00  0.00    -0.744 OA
ENDBRANCH  77  80
ENDBRANCH  59  73
BRANCH  60  84
ATOM     84  C   UNL A   1      45.214  28.423  28.247  1.00  0.00     0.023 A 
ATOM     85  C   UNL A   1      45.018  28.903  26.927  1.00  0.00     0.012 A 
ATOM     86  C   UNL A   1      46.217  27.468  28.477  1.00  0.00     0.148 A 
ATOM     87  C   UNL A   1      45.945  28.619  25.923  1.00  0.00     0.002 A 
ATOM     88  C   UNL A   1      47.132  27.181  27.466  1.00  0.00     0.091 A 
ATOM     89  F   UNL A   1      46.315  26.917  29.692  1.00  0.00    -0.205 F 
ATOM     90  C   UNL A   1      47.034  27.803  26.211  1.00  0.00     0.022 A 
BRANCH  88  91
ATOM     91  S   UNL A   1      48.556  26.127  27.769  1.00  0.00     0.127 S 
ATOM     92  O   UNL A   1      47.917  24.860  28.107  1.00  0.00    -0.237 OA
ATOM     93  O   UNL A   1      49.240  26.144  26.478  1.00  0.00    -0.237 OA
ATOM     94  O   UNL A   1      49.286  26.786  28.843  1.00  0.00    -0.744 OA
ENDBRANCH  88  91
ENDBRANCH  60  84
BRANCH  72  95
ATOM     95  C   UNL A   1      42.787  35.233  29.428  1.00  0.00     0.023 A 
ATOM     96  C   UNL A   1      42.192  35.635  28.220  1.00  0.00     0.012 A 
ATOM     97  C   UNL A   1      43.482  36.249  30.147  1.00  0.00     0.148 A 
ATOM     98  C   UNL A   1      42.160  36.979  27.821  1.00  0.00     0.002 A 
ATOM     99  C   UNL A   1      43.480  37.576  29.735  1.00  0.00     0.091 A 
ATOM    100  F   UNL A   1      44.198  35.947  31.230  1.00  0.00    -0.205 F 
ATOM    101  C   UNL A   1      42.788  37.952  28.588  1.00  0.00     0.022 A 
BRANCH  99 102
ATOM    102  S   UNL A   1      44.391  38.857  30.614  1.00  0.00     0.127 S 
ATOM    103  O   UNL A   1      45.773  38.507  30.286  1.00  0.00    -0.237 OA
ATOM    104  O   UNL A   1      43.898  40.071  29.966  1.00  0.00    -0.237 OA
ATOM    105  O   UNL A   1      44.038  38.728  32.020  1.00  0.00    -0.744 OA
ENDBRANCH  99 102
ENDBRANCH  72  95
ENDBRANCH  46  47
ENDBRANCH  38  41
ENDBRANCH  36  37
ENDBRANCH  35  36
ENDBRANCH  34  35
ENDBRANCH   1  34
TORSDOF 22
ENDMDL
