MODEL 1
REMARK VINA RESULT:     -11.8      0.000      0.000
REMARK SMILES C=C(C)COc1ccc2c(C)c(CC(=O)NCCCCCCNC(=O)c3ccc(-c4c5nc(c(-c6cccc(S(=O)(=O)[O-])c6F)c6ccc([nH]6)c(-c6cccc(S(=O)(=O)[O-])c6F)c6nc(c(-c7cccc(S(=O)(=O)[O-])c7F)c7ccc4[nH]7)C=C6)C=C5)cc3)c(=O)oc2c1
REMARK SMILES IDX 19 1 18 2 17 3 16 4 14 5 15 6 13 8 12 9 6 10 7 11 93 12 8 13
REMARK SMILES IDX 92 14 9 15 91 16 10 17 89 18 11 19 90 20 5 21 4 22 2 23 1 24
REMARK SMILES IDX 3 25 20 26 21 27 22 28 23 29 24 30 25 32 26 33 27 34 88 35
REMARK SMILES IDX 28 36 87 37 29 38 30 39 31 40 81 41 32 42 86 43 80 44 82 45
REMARK SMILES IDX 33 46 85 47 79 48 78 49 34 51 66 52 46 53 65 54 47 55 50 56
REMARK SMILES IDX 64 57 83 58 48 59 49 60 63 62 84 63 51 64 35 65 36 66 44 67
REMARK SMILES IDX 37 68 39 69 45 70 38 71 40 72 41 73 42 74 43 75 67 76 68 77
REMARK SMILES IDX 76 78 69 79 71 80 77 81 70 82 72 83 73 84 74 85 75 86 52 87
REMARK SMILES IDX 53 88 61 89 54 90 56 91 62 92 55 93 57 94 58 95 59 96 60 97
REMARK H PARENT 16 7 23 31 82 50 50 61
REMARK Flexibility Score: inf
ROOT
ATOM      1  C   UNL A   1      35.431  24.422  25.708  1.00  0.00     0.002 C 
ENDROOT
BRANCH   1   2
ATOM      2  C   UNL A   1      34.492  25.200  24.776  1.00  0.00     0.021 C 
BRANCH   2   3
ATOM      3  C   UNL A   1      33.780  26.373  25.454  1.00  0.00     0.116 C 
BRANCH   3   4
ATOM      4  N   UNL A   1      33.435  27.400  24.489  1.00  0.00    -0.356 N 
ATOM      5  C   UNL A   1      32.225  27.731  23.959  1.00  0.00     0.224 C 
ATOM      6  O   UNL A   1      32.191  28.616  23.098  1.00  0.00    -0.275 OA
ATOM      7  H   UNL A   1      34.192  27.941  24.170  1.00  0.00     0.163 HD
BRANCH   5   8
ATOM      8  C   UNL A   1      30.947  27.056  24.441  1.00  0.00     0.143 C 
BRANCH   8   9
ATOM      9  C   UNL A   1      31.051  25.551  24.507  1.00  0.00     0.051 A 
ATOM     10  C   UNL A   1      32.034  20.599  24.509  1.00  0.00     0.123 A 
ATOM     11  C   UNL A   1      32.226  21.003  23.192  1.00  0.00     0.047 A 
ATOM     12  C   UNL A   1      31.707  21.541  25.472  1.00  0.00     0.094 A 
ATOM     13  C   UNL A   1      32.034  22.347  22.833  1.00  0.00     0.016 A 
ATOM     14  C   UNL A   1      31.482  22.859  25.093  1.00  0.00     0.142 A 
ATOM     15  C   UNL A   1      31.641  23.302  23.784  1.00  0.00     0.021 A 
ATOM     16  O   UNL A   1      31.052  23.709  26.118  1.00  0.00    -0.422 OA
ATOM     17  C   UNL A   1      31.454  24.739  23.503  1.00  0.00    -0.029 A 
ATOM     18  C   UNL A   1      30.651  24.993  25.830  1.00  0.00     0.340 A 
ATOM     19  C   UNL A   1      31.762  25.223  22.112  1.00  0.00     0.046 C 
ATOM     20  O   UNL A   1      30.045  25.663  26.658  1.00  0.00    -0.246 OA
BRANCH  10  21
ATOM     21  O   UNL A   1      32.240  19.284  24.831  1.00  0.00    -0.489 OA
BRANCH  21  22
ATOM     22  C   UNL A   1      32.602  18.483  23.689  1.00  0.00     0.260 C 
BRANCH  22  23
ATOM     23  C   UNL A   1      33.883  17.702  23.894  1.00  0.00    -0.043 C 
ATOM     24  C   UNL A   1      34.063  16.466  23.397  1.00  0.00     0.011 C 
ATOM     25  C   UNL A   1      34.977  18.418  24.636  1.00  0.00     0.042 C 
ENDBRANCH  22  23
ENDBRANCH  21  22
ENDBRANCH  10  21
ENDBRANCH   8   9
ENDBRANCH   5   8
ENDBRANCH   3   4
ENDBRANCH   2   3
ENDBRANCH   1   2
BRANCH   1  26
ATOM     26  C   UNL A   1      34.799  23.209  26.400  1.00  0.00     0.002 C 
BRANCH  26  27
ATOM     27  C   UNL A   1      35.466  21.868  26.086  1.00  0.00     0.021 C 
BRANCH  27  28
ATOM     28  C   UNL A   1      36.724  21.973  25.232  1.00  0.00     0.116 C 
BRANCH  28  29
ATOM     29  N   UNL A   1      37.672  20.907  25.526  1.00  0.00    -0.352 N 
ATOM     30  C   UNL A   1      38.965  20.998  25.977  1.00  0.00     0.251 C 
ATOM     31  H   UNL A   1      37.339  19.992  25.381  1.00  0.00     0.163 HD
ATOM     32  O   UNL A   1      39.691  20.005  25.971  1.00  0.00    -0.269 OA
BRANCH  30  33
ATOM     33  C   UNL A   1      39.487  22.297  26.452  1.00  0.00     0.039 A 
ATOM     34  C   UNL A   1      40.604  22.317  27.289  1.00  0.00     0.014 A 
ATOM     35  C   UNL A   1      38.877  23.492  26.062  1.00  0.00     0.014 A 
ATOM     36  C   UNL A   1      41.150  23.540  27.685  1.00  0.00     0.010 A 
ATOM     37  C   UNL A   1      39.466  24.708  26.394  1.00  0.00     0.010 A 
ATOM     38  C   UNL A   1      40.607  24.746  27.211  1.00  0.00    -0.014 A 
BRANCH  38  39
ATOM     39  C   UNL A   1      41.229  26.055  27.539  1.00  0.00     0.031 A 
ATOM     40  C   UNL A   1      42.663  26.328  27.172  1.00  0.00     0.074 A 
ATOM     41  C   UNL A   1      40.531  26.962  28.251  1.00  0.00     0.049 A 
ATOM     42  N   UNL A   1      43.394  27.379  27.436  1.00  0.00    -0.248 NA
ATOM     43  C   UNL A   1      43.376  25.272  26.434  1.00  0.00     0.031 C 
ATOM     44  C   UNL A   1      39.159  26.786  28.731  1.00  0.00     0.029 A 
ATOM     45  N   UNL A   1      40.889  28.202  28.720  1.00  0.00    -0.354 N 
ATOM     46  C   UNL A   1      44.658  27.100  26.932  1.00  0.00     0.074 A 
ATOM     47  C   UNL A   1      44.604  25.765  26.375  1.00  0.00     0.031 C 
ATOM     48  C   UNL A   1      38.792  27.874  29.425  1.00  0.00     0.029 A 
ATOM     49  C   UNL A   1      39.911  28.810  29.472  1.00  0.00     0.049 A 
ATOM     50  H   UNL A   1      41.762  28.616  28.537  1.00  0.00     0.167 HD
ATOM     51  C   UNL A   1      45.759  27.889  26.914  1.00  0.00     0.034 A 
ATOM     52  C   UNL A   1      39.918  29.981  30.141  1.00  0.00     0.034 A 
ATOM     53  C   UNL A   1      45.799  29.226  27.440  1.00  0.00     0.049 A 
ATOM     54  C   UNL A   1      41.147  30.846  30.085  1.00  0.00     0.074 A 
ATOM     55  C   UNL A   1      46.838  30.138  27.387  1.00  0.00     0.029 A 
ATOM     56  N   UNL A   1      44.764  29.838  28.128  1.00  0.00    -0.354 N 
ATOM     57  N   UNL A   1      42.281  30.631  29.466  1.00  0.00    -0.248 NA
ATOM     58  C   UNL A   1      41.086  32.134  30.794  1.00  0.00     0.031 C 
ATOM     59  C   UNL A   1      46.445  31.289  28.078  1.00  0.00     0.029 A 
ATOM     60  C   UNL A   1      45.146  31.110  28.524  1.00  0.00     0.049 A 
ATOM     61  H   UNL A   1      43.887  29.430  28.310  1.00  0.00     0.167 HD
ATOM     62  C   UNL A   1      43.054  31.766  29.678  1.00  0.00     0.074 A 
ATOM     63  C   UNL A   1      42.250  32.677  30.466  1.00  0.00     0.031 C 
ATOM     64  C   UNL A   1      44.320  32.026  29.267  1.00  0.00     0.034 A 
BRANCH  51  65
ATOM     65  C   UNL A   1      47.006  27.340  26.268  1.00  0.00     0.023 A 
ATOM     66  C   UNL A   1      47.265  27.607  24.907  1.00  0.00     0.012 A 
ATOM     67  C   UNL A   1      47.952  26.619  27.021  1.00  0.00     0.148 A 
ATOM     68  C   UNL A   1      48.426  27.132  24.298  1.00  0.00     0.002 A 
ATOM     69  C   UNL A   1      49.130  26.191  26.420  1.00  0.00     0.091 A 
ATOM     70  F   UNL A   1      47.682  26.359  28.309  1.00  0.00    -0.205 F 
ATOM     71  C   UNL A   1      49.362  26.435  25.056  1.00  0.00     0.022 A 
BRANCH  69  72
ATOM     72  S   UNL A   1      50.437  25.358  27.328  1.00  0.00     0.127 S 
ATOM     73  O   UNL A   1      49.732  24.187  27.850  1.00  0.00    -0.237 OA
ATOM     74  O   UNL A   1      51.406  25.065  26.272  1.00  0.00    -0.237 OA
ATOM     75  O   UNL A   1      50.898  26.305  28.333  1.00  0.00    -0.744 OA
ENDBRANCH  69  72
ENDBRANCH  51  65
BRANCH  52  76
ATOM     76  C   UNL A   1      38.704  30.423  30.884  1.00  0.00     0.023 A 
ATOM     77  C   UNL A   1      38.598  30.154  32.263  1.00  0.00     0.012 A 
ATOM     78  C   UNL A   1      37.666  31.122  30.239  1.00  0.00     0.148 A 
ATOM     79  C   UNL A   1      37.464  30.542  32.978  1.00  0.00     0.002 A 
ATOM     80  C   UNL A   1      36.567  31.557  30.969  1.00  0.00     0.091 A 
ATOM     81  F   UNL A   1      37.783  31.360  28.926  1.00  0.00    -0.205 F 
ATOM     82  C   UNL A   1      36.454  31.250  32.334  1.00  0.00     0.022 A 
BRANCH  80  83
ATOM     83  S   UNL A   1      35.280  32.588  30.255  1.00  0.00     0.127 S 
ATOM     84  O   UNL A   1      34.802  31.750  29.159  1.00  0.00    -0.237 OA
ATOM     85  O   UNL A   1      34.351  32.727  31.376  1.00  0.00    -0.237 OA
ATOM     86  O   UNL A   1      35.941  33.826  29.864  1.00  0.00    -0.744 OA
ENDBRANCH  80  83
ENDBRANCH  52  76
BRANCH  64  87
ATOM     87  C   UNL A   1      44.912  33.367  29.621  1.00  0.00     0.023 A 
ATOM     88  C   UNL A   1      45.643  33.522  30.814  1.00  0.00     0.012 A 
ATOM     89  C   UNL A   1      44.809  34.451  28.725  1.00  0.00     0.148 A 
ATOM     90  C   UNL A   1      46.236  34.745  31.126  1.00  0.00     0.002 A 
ATOM     91  C   UNL A   1      45.447  35.649  29.018  1.00  0.00     0.091 A 
ATOM     92  F   UNL A   1      44.094  34.287  27.602  1.00  0.00    -0.205 F 
ATOM     93  C   UNL A   1      46.150  35.803  30.224  1.00  0.00     0.022 A 
BRANCH  91  94
ATOM     94  S   UNL A   1      45.476  37.033  27.873  1.00  0.00     0.127 S 
ATOM     95  O   UNL A   1      44.055  37.364  27.770  1.00  0.00    -0.237 OA
ATOM     96  O   UNL A   1      46.281  38.016  28.597  1.00  0.00    -0.237 OA
ATOM     97  O   UNL A   1      46.086  36.532  26.648  1.00  0.00    -0.744 OA
ENDBRANCH  91  94
ENDBRANCH  64  87
ENDBRANCH  38  39
ENDBRANCH  30  33
ENDBRANCH  28  29
ENDBRANCH  27  28
ENDBRANCH  26  27
ENDBRANCH   1  26
TORSDOF 20
ENDMDL
MODEL 2
REMARK VINA RESULT:     -11.7      2.492      8.533
REMARK SMILES C=C(C)COc1ccc2c(C)c(CC(=O)NCCCCCCNC(=O)c3ccc(-c4c5nc(c(-c6cccc(S(=O)(=O)[O-])c6F)c6ccc([nH]6)c(-c6cccc(S(=O)(=O)[O-])c6F)c6nc(c(-c7cccc(S(=O)(=O)[O-])c7F)c7ccc4[nH]7)C=C6)C=C5)cc3)c(=O)oc2c1
REMARK SMILES IDX 19 1 18 2 17 3 16 4 14 5 15 6 13 8 12 9 6 10 7 11 93 12 8 13
REMARK SMILES IDX 92 14 9 15 91 16 10 17 89 18 11 19 90 20 5 21 4 22 2 23 1 24
REMARK SMILES IDX 3 25 20 26 21 27 22 28 23 29 24 30 25 32 26 33 27 34 88 35
REMARK SMILES IDX 28 36 87 37 29 38 30 39 31 40 81 41 32 42 86 43 80 44 82 45
REMARK SMILES IDX 33 46 85 47 79 48 78 49 34 51 66 52 46 53 65 54 47 55 50 56
REMARK SMILES IDX 64 57 83 58 48 59 49 60 63 62 84 63 51 64 35 65 36 66 44 67
REMARK SMILES IDX 37 68 39 69 45 70 38 71 40 72 41 73 42 74 43 75 67 76 68 77
REMARK SMILES IDX 76 78 69 79 71 80 77 81 70 82 72 83 73 84 74 85 75 86 52 87
REMARK SMILES IDX 53 88 61 89 54 90 56 91 62 92 55 93 57 94 58 95 59 96 60 97
REMARK H PARENT 16 7 23 31 82 50 50 61
REMARK Flexibility Score: inf
ROOT
ATOM      1  C   UNL A   1      35.599  21.444  24.913  1.00  0.00     0.002 C 
ENDROOT
BRANCH   1   2
ATOM      2  C   UNL A   1      35.479  21.999  26.339  1.00  0.00     0.021 C 
BRANCH   2   3
ATOM      3  C   UNL A   1      34.275  21.460  27.114  1.00  0.00     0.116 C 
BRANCH   3   4
ATOM      4  N   UNL A   1      33.099  21.392  26.267  1.00  0.00    -0.356 N 
ATOM      5  C   UNL A   1      32.045  22.248  26.162  1.00  0.00     0.224 C 
ATOM      6  O   UNL A   1      31.121  21.941  25.403  1.00  0.00    -0.275 OA
ATOM      7  H   UNL A   1      33.056  20.605  25.677  1.00  0.00     0.163 HD
BRANCH   5   8
ATOM      8  C   UNL A   1      32.025  23.564  26.931  1.00  0.00     0.143 C 
BRANCH   8   9
ATOM      9  C   UNL A   1      31.719  24.761  26.063  1.00  0.00     0.051 A 
ATOM     10  C   UNL A   1      31.010  28.430  22.668  1.00  0.00     0.123 A 
ATOM     11  C   UNL A   1      32.390  28.281  22.754  1.00  0.00     0.047 A 
ATOM     12  C   UNL A   1      30.186  27.592  23.403  1.00  0.00     0.094 A 
ATOM     13  C   UNL A   1      32.943  27.326  23.623  1.00  0.00     0.016 A 
ATOM     14  C   UNL A   1      30.748  26.680  24.288  1.00  0.00     0.142 A 
ATOM     15  C   UNL A   1      32.123  26.514  24.421  1.00  0.00     0.021 A 
ATOM     16  O   UNL A   1      29.834  25.958  25.061  1.00  0.00    -0.422 OA
ATOM     17  C   UNL A   1      32.616  25.461  25.332  1.00  0.00    -0.029 A 
ATOM     18  C   UNL A   1      30.278  25.142  26.075  1.00  0.00     0.340 A 
ATOM     19  C   UNL A   1      34.099  25.203  25.361  1.00  0.00     0.046 C 
ATOM     20  O   UNL A   1      29.500  24.701  26.914  1.00  0.00    -0.246 OA
BRANCH  10  21
ATOM     21  O   UNL A   1      30.501  29.361  21.803  1.00  0.00    -0.489 OA
BRANCH  21  22
ATOM     22  C   UNL A   1      29.728  30.378  22.471  1.00  0.00     0.260 C 
BRANCH  22  23
ATOM     23  C   UNL A   1      28.286  30.423  22.013  1.00  0.00    -0.043 C 
ATOM     24  C   UNL A   1      27.921  30.934  20.824  1.00  0.00     0.011 C 
ATOM     25  C   UNL A   1      27.281  29.798  22.942  1.00  0.00     0.042 C 
ENDBRANCH  22  23
ENDBRANCH  21  22
ENDBRANCH  10  21
ENDBRANCH   8   9
ENDBRANCH   5   8
ENDBRANCH   3   4
ENDBRANCH   2   3
ENDBRANCH   1   2
BRANCH   1  26
ATOM     26  C   UNL A   1      37.033  21.300  24.392  1.00  0.00     0.002 C 
BRANCH  26  27
ATOM     27  C   UNL A   1      37.822  20.135  24.993  1.00  0.00     0.021 C 
BRANCH  27  28
ATOM     28  C   UNL A   1      39.044  20.552  25.804  1.00  0.00     0.116 C 
BRANCH  28  29
ATOM     29  N   UNL A   1      40.002  19.465  25.942  1.00  0.00    -0.352 N 
ATOM     30  C   UNL A   1      41.363  19.526  26.116  1.00  0.00     0.251 C 
ATOM     31  H   UNL A   1      39.622  18.557  25.906  1.00  0.00     0.163 HD
ATOM     32  O   UNL A   1      42.045  18.509  26.003  1.00  0.00    -0.269 OA
BRANCH  30  33
ATOM     33  C   UNL A   1      42.005  20.822  26.420  1.00  0.00     0.039 A 
ATOM     34  C   UNL A   1      42.416  21.642  25.367  1.00  0.00     0.014 A 
ATOM     35  C   UNL A   1      42.193  21.228  27.745  1.00  0.00     0.014 A 
ATOM     36  C   UNL A   1      42.957  22.900  25.642  1.00  0.00     0.010 A 
ATOM     37  C   UNL A   1      42.661  22.510  28.014  1.00  0.00     0.010 A 
ATOM     38  C   UNL A   1      43.051  23.359  26.966  1.00  0.00    -0.014 A 
BRANCH  38  39
ATOM     39  C   UNL A   1      43.533  24.730  27.276  1.00  0.00     0.031 A 
ATOM     40  C   UNL A   1      42.578  25.772  27.794  1.00  0.00     0.074 A 
ATOM     41  C   UNL A   1      44.811  25.063  27.004  1.00  0.00     0.049 A 
ATOM     42  N   UNL A   1      42.798  27.034  28.053  1.00  0.00    -0.248 NA
ATOM     43  C   UNL A   1      41.187  25.347  28.025  1.00  0.00     0.031 C 
ATOM     44  C   UNL A   1      45.814  24.164  26.431  1.00  0.00     0.029 A 
ATOM     45  N   UNL A   1      45.476  26.255  27.145  1.00  0.00    -0.354 N 
ATOM     46  C   UNL A   1      41.573  27.563  28.442  1.00  0.00     0.074 A 
ATOM     47  C   UNL A   1      40.605  26.491  28.353  1.00  0.00     0.031 C 
ATOM     48  C   UNL A   1      46.965  24.835  26.269  1.00  0.00     0.029 A 
ATOM     49  C   UNL A   1      46.774  26.219  26.691  1.00  0.00     0.049 A 
ATOM     50  H   UNL A   1      45.064  27.060  27.533  1.00  0.00     0.167 HD
ATOM     51  C   UNL A   1      41.283  28.819  28.857  1.00  0.00     0.034 A 
ATOM     52  C   UNL A   1      47.702  27.193  26.607  1.00  0.00     0.034 A 
ATOM     53  C   UNL A   1      42.255  29.872  28.975  1.00  0.00     0.049 A 
ATOM     54  C   UNL A   1      47.359  28.574  27.095  1.00  0.00     0.074 A 
ATOM     55  C   UNL A   1      42.079  31.151  29.473  1.00  0.00     0.029 A 
ATOM     56  N   UNL A   1      43.580  29.776  28.578  1.00  0.00    -0.354 N 
ATOM     57  N   UNL A   1      46.237  29.012  27.609  1.00  0.00    -0.248 NA
ATOM     58  C   UNL A   1      48.423  29.588  27.022  1.00  0.00     0.031 C 
ATOM     59  C   UNL A   1      43.288  31.841  29.340  1.00  0.00     0.029 A 
ATOM     60  C   UNL A   1      44.229  30.980  28.800  1.00  0.00     0.049 A 
ATOM     61  H   UNL A   1      43.998  28.972  28.194  1.00  0.00     0.167 HD
ATOM     62  C   UNL A   1      46.467  30.339  27.955  1.00  0.00     0.074 A 
ATOM     63  C   UNL A   1      47.844  30.627  27.610  1.00  0.00     0.031 C 
ATOM     64  C   UNL A   1      45.612  31.240  28.498  1.00  0.00     0.034 A 
BRANCH  51  65
ATOM     65  C   UNL A   1      39.860  29.117  29.254  1.00  0.00     0.023 A 
ATOM     66  C   UNL A   1      38.863  29.219  28.262  1.00  0.00     0.012 A 
ATOM     67  C   UNL A   1      39.497  29.230  30.610  1.00  0.00     0.148 A 
ATOM     68  C   UNL A   1      37.536  29.467  28.610  1.00  0.00     0.002 A 
ATOM     69  C   UNL A   1      38.164  29.428  30.953  1.00  0.00     0.091 A 
ATOM     70  F   UNL A   1      40.461  29.148  31.540  1.00  0.00    -0.205 F 
ATOM     71  C   UNL A   1      37.186  29.560  29.954  1.00  0.00     0.022 A 
BRANCH  69  72
ATOM     72  S   UNL A   1      37.598  29.479  32.656  1.00  0.00     0.127 S 
ATOM     73  O   UNL A   1      37.512  28.056  32.981  1.00  0.00    -0.237 OA
ATOM     74  O   UNL A   1      38.690  30.190  33.321  1.00  0.00    -0.237 OA
ATOM     75  O   UNL A   1      36.328  30.191  32.639  1.00  0.00    -0.744 OA
ENDBRANCH  69  72
ENDBRANCH  51  65
BRANCH  52  76
ATOM     76  C   UNL A   1      49.061  26.885  26.077  1.00  0.00     0.023 A 
ATOM     77  C   UNL A   1      49.970  26.163  26.876  1.00  0.00     0.012 A 
ATOM     78  C   UNL A   1      49.450  27.284  24.784  1.00  0.00     0.148 A 
ATOM     79  C   UNL A   1      51.254  25.877  26.410  1.00  0.00     0.002 A 
ATOM     80  C   UNL A   1      50.709  26.945  24.305  1.00  0.00     0.091 A 
ATOM     81  F   UNL A   1      48.574  27.977  24.044  1.00  0.00    -0.205 F 
ATOM     82  C   UNL A   1      51.620  26.259  25.123  1.00  0.00     0.022 A 
BRANCH  80  83
ATOM     83  S   UNL A   1      51.221  27.280  22.615  1.00  0.00     0.127 S 
ATOM     84  O   UNL A   1      50.143  26.660  21.849  1.00  0.00    -0.237 OA
ATOM     85  O   UNL A   1      51.234  28.742  22.591  1.00  0.00    -0.237 OA
ATOM     86  O   UNL A   1      52.533  26.664  22.473  1.00  0.00    -0.744 OA
ENDBRANCH  80  83
ENDBRANCH  52  76
BRANCH  64  87
ATOM     87  C   UNL A   1      46.143  32.619  28.797  1.00  0.00     0.023 A 
ATOM     88  C   UNL A   1      46.748  32.887  30.040  1.00  0.00     0.012 A 
ATOM     89  C   UNL A   1      46.113  33.625  27.810  1.00  0.00     0.148 A 
ATOM     90  C   UNL A   1      47.286  34.145  30.308  1.00  0.00     0.002 A 
ATOM     91  C   UNL A   1      46.699  34.858  28.065  1.00  0.00     0.091 A 
ATOM     92  F   UNL A   1      45.517  33.354  26.639  1.00  0.00    -0.205 F 
ATOM     93  C   UNL A   1      47.275  35.125  29.318  1.00  0.00     0.022 A 
BRANCH  91  94
ATOM     94  S   UNL A   1      46.820  36.146  26.818  1.00  0.00     0.127 S 
ATOM     95  O   UNL A   1      47.968  36.915  27.296  1.00  0.00    -0.237 OA
ATOM     96  O   UNL A   1      47.067  35.374  25.601  1.00  0.00    -0.237 OA
ATOM     97  O   UNL A   1      45.546  36.853  26.841  1.00  0.00    -0.744 OA
ENDBRANCH  91  94
ENDBRANCH  64  87
ENDBRANCH  38  39
ENDBRANCH  30  33
ENDBRANCH  28  29
ENDBRANCH  27  28
ENDBRANCH  26  27
ENDBRANCH   1  26
TORSDOF 20
ENDMDL
MODEL 3
REMARK VINA RESULT:     -11.7      0.903      7.679
REMARK SMILES C=C(C)COc1ccc2c(C)c(CC(=O)NCCCCCCNC(=O)c3ccc(-c4c5nc(c(-c6cccc(S(=O)(=O)[O-])c6F)c6ccc([nH]6)c(-c6cccc(S(=O)(=O)[O-])c6F)c6nc(c(-c7cccc(S(=O)(=O)[O-])c7F)c7ccc4[nH]7)C=C6)C=C5)cc3)c(=O)oc2c1
REMARK SMILES IDX 19 1 18 2 17 3 16 4 14 5 15 6 13 8 12 9 6 10 7 11 93 12 8 13
REMARK SMILES IDX 92 14 9 15 91 16 10 17 89 18 11 19 90 20 5 21 4 22 2 23 1 24
REMARK SMILES IDX 3 25 20 26 21 27 22 28 23 29 24 30 25 32 26 33 27 34 88 35
REMARK SMILES IDX 28 36 87 37 29 38 30 39 31 40 81 41 32 42 86 43 80 44 82 45
REMARK SMILES IDX 33 46 85 47 79 48 78 49 34 51 66 52 46 53 65 54 47 55 50 56
REMARK SMILES IDX 64 57 83 58 48 59 49 60 63 62 84 63 51 64 35 65 36 66 44 67
REMARK SMILES IDX 37 68 39 69 45 70 38 71 40 72 41 73 42 74 43 75 67 76 68 77
REMARK SMILES IDX 76 78 69 79 71 80 77 81 70 82 72 83 73 84 74 85 75 86 52 87
REMARK SMILES IDX 53 88 61 89 54 90 56 91 62 92 55 93 57 94 58 95 59 96 60 97
REMARK H PARENT 16 7 23 31 82 50 50 61
REMARK Flexibility Score: inf
ROOT
ATOM      1  C   UNL A   1      34.679  24.771  25.439  1.00  0.00     0.002 C 
ENDROOT
BRANCH   1   2
ATOM      2  C   UNL A   1      34.309  26.241  25.200  1.00  0.00     0.021 C 
BRANCH   2   3
ATOM      3  C   UNL A   1      33.010  26.671  25.884  1.00  0.00     0.116 C 
BRANCH   3   4
ATOM      4  N   UNL A   1      32.316  27.677  25.101  1.00  0.00    -0.356 N 
ATOM      5  C   UNL A   1      31.087  27.637  24.516  1.00  0.00     0.224 C 
ATOM      6  O   UNL A   1      30.734  28.608  23.841  1.00  0.00    -0.275 OA
ATOM      7  H   UNL A   1      32.812  28.518  24.973  1.00  0.00     0.163 HD
BRANCH   5   8
ATOM      8  C   UNL A   1      30.160  26.445  24.721  1.00  0.00     0.143 C 
BRANCH   8   9
ATOM      9  C   UNL A   1      30.815  25.117  24.424  1.00  0.00     0.051 A 
ATOM     10  C   UNL A   1      32.436  20.397  23.662  1.00  0.00     0.123 A 
ATOM     11  C   UNL A   1      32.181  20.474  25.027  1.00  0.00     0.047 A 
ATOM     12  C   UNL A   1      32.166  21.490  22.854  1.00  0.00     0.094 A 
ATOM     13  C   UNL A   1      31.707  21.670  25.589  1.00  0.00     0.016 A 
ATOM     14  C   UNL A   1      31.736  22.679  23.431  1.00  0.00     0.142 A 
ATOM     15  C   UNL A   1      31.489  22.807  24.794  1.00  0.00     0.021 A 
ATOM     16  O   UNL A   1      31.596  23.754  22.547  1.00  0.00    -0.422 OA
ATOM     17  C   UNL A   1      30.958  24.091  25.293  1.00  0.00    -0.029 A 
ATOM     18  C   UNL A   1      31.325  25.015  23.027  1.00  0.00     0.340 A 
ATOM     19  C   UNL A   1      30.568  24.167  26.745  1.00  0.00     0.046 C 
ATOM     20  O   UNL A   1      31.444  26.001  22.308  1.00  0.00    -0.246 OA
BRANCH  10  21
ATOM     21  O   UNL A   1      32.886  19.213  23.142  1.00  0.00    -0.489 OA
BRANCH  21  22
ATOM     22  C   UNL A   1      32.429  18.068  23.890  1.00  0.00     0.260 C 
BRANCH  22  23
ATOM     23  C   UNL A   1      33.438  16.939  23.921  1.00  0.00    -0.043 C 
ATOM     24  C   UNL A   1      34.265  16.682  22.893  1.00  0.00     0.011 C 
ATOM     25  C   UNL A   1      33.508  16.156  25.203  1.00  0.00     0.042 C 
ENDBRANCH  22  23
ENDBRANCH  21  22
ENDBRANCH  10  21
ENDBRANCH   8   9
ENDBRANCH   5   8
ENDBRANCH   3   4
ENDBRANCH   2   3
ENDBRANCH   1   2
BRANCH   1  26
ATOM     26  C   UNL A   1      35.086  23.992  24.184  1.00  0.00     0.002 C 
BRANCH  26  27
ATOM     27  C   UNL A   1      35.367  22.505  24.411  1.00  0.00     0.021 C 
BRANCH  27  28
ATOM     28  C   UNL A   1      36.017  22.183  25.752  1.00  0.00     0.116 C 
BRANCH  28  29
ATOM     29  N   UNL A   1      36.994  21.109  25.639  1.00  0.00    -0.352 N 
ATOM     30  C   UNL A   1      38.357  21.158  25.794  1.00  0.00     0.251 C 
ATOM     31  H   UNL A   1      36.626  20.222  25.420  1.00  0.00     0.163 HD
ATOM     32  O   UNL A   1      39.050  20.201  25.456  1.00  0.00    -0.269 OA
BRANCH  30  33
ATOM     33  C   UNL A   1      38.988  22.373  26.352  1.00  0.00     0.039 A 
ATOM     34  C   UNL A   1      40.074  22.239  27.218  1.00  0.00     0.014 A 
ATOM     35  C   UNL A   1      38.510  23.642  26.011  1.00  0.00     0.014 A 
ATOM     36  C   UNL A   1      40.724  23.380  27.694  1.00  0.00     0.010 A 
ATOM     37  C   UNL A   1      39.204  24.775  26.423  1.00  0.00     0.010 A 
ATOM     38  C   UNL A   1      40.317  24.657  27.271  1.00  0.00    -0.014 A 
BRANCH  38  39
ATOM     39  C   UNL A   1      41.053  25.879  27.686  1.00  0.00     0.031 A 
ATOM     40  C   UNL A   1      40.344  26.975  28.436  1.00  0.00     0.074 A 
ATOM     41  C   UNL A   1      42.336  26.043  27.305  1.00  0.00     0.049 A 
ATOM     42  N   UNL A   1      40.801  28.139  28.819  1.00  0.00    -0.248 NA
ATOM     43  C   UNL A   1      38.930  26.744  28.778  1.00  0.00     0.031 C 
ATOM     44  C   UNL A   1      43.111  25.088  26.512  1.00  0.00     0.029 A 
ATOM     45  N   UNL A   1      43.205  27.086  27.511  1.00  0.00    -0.354 N 
ATOM     46  C   UNL A   1      39.728  28.792  29.412  1.00  0.00     0.074 A 
ATOM     47  C   UNL A   1      38.587  27.908  29.310  1.00  0.00     0.031 C 
ATOM     48  C   UNL A   1      44.338  25.586  26.297  1.00  0.00     0.029 A 
ATOM     49  C   UNL A   1      44.428  26.911  26.904  1.00  0.00     0.049 A 
ATOM     50  H   UNL A   1      42.976  27.883  28.039  1.00  0.00     0.167 HD
ATOM     51  C   UNL A   1      39.698  30.008  30.009  1.00  0.00     0.034 A 
ATOM     52  C   UNL A   1      45.495  27.730  26.828  1.00  0.00     0.034 A 
ATOM     53  C   UNL A   1      40.842  30.869  30.137  1.00  0.00     0.049 A 
ATOM     54  C   UNL A   1      45.442  29.066  27.518  1.00  0.00     0.074 A 
ATOM     55  C   UNL A   1      40.936  32.078  30.804  1.00  0.00     0.029 A 
ATOM     56  N   UNL A   1      42.086  30.625  29.576  1.00  0.00    -0.354 N 
ATOM     57  N   UNL A   1      44.466  29.598  28.212  1.00  0.00    -0.248 NA
ATOM     58  C   UNL A   1      46.650  29.902  27.443  1.00  0.00     0.031 C 
ATOM     59  C   UNL A   1      42.226  32.583  30.613  1.00  0.00     0.029 A 
ATOM     60  C   UNL A   1      42.948  31.669  29.864  1.00  0.00     0.049 A 
ATOM     61  H   UNL A   1      42.321  29.827  29.050  1.00  0.00     0.167 HD
ATOM     62  C   UNL A   1      44.952  30.811  28.686  1.00  0.00     0.074 A 
ATOM     63  C   UNL A   1      46.317  30.926  28.218  1.00  0.00     0.031 C 
ATOM     64  C   UNL A   1      44.320  31.751  29.433  1.00  0.00     0.034 A 
BRANCH  51  65
ATOM     65  C   UNL A   1      38.392  30.466  30.606  1.00  0.00     0.023 A 
ATOM     66  C   UNL A   1      38.109  30.196  31.961  1.00  0.00     0.012 A 
ATOM     67  C   UNL A   1      37.476  31.219  29.847  1.00  0.00     0.148 A 
ATOM     68  C   UNL A   1      36.919  30.635  32.540  1.00  0.00     0.002 A 
ATOM     69  C   UNL A   1      36.314  31.695  30.444  1.00  0.00     0.091 A 
ATOM     70  F   UNL A   1      37.752  31.451  28.556  1.00  0.00    -0.205 F 
ATOM     71  C   UNL A   1      36.028  31.392  31.785  1.00  0.00     0.022 A 
BRANCH  69  72
ATOM     72  S   UNL A   1      35.142  32.749  29.583  1.00  0.00     0.127 S 
ATOM     73  O   UNL A   1      34.270  33.175  30.677  1.00  0.00    -0.237 OA
ATOM     74  O   UNL A   1      36.009  33.801  29.051  1.00  0.00    -0.237 OA
ATOM     75  O   UNL A   1      34.511  31.912  28.573  1.00  0.00    -0.744 OA
ENDBRANCH  69  72
ENDBRANCH  51  65
BRANCH  52  76
ATOM     76  C   UNL A   1      46.724  27.291  26.107  1.00  0.00     0.023 A 
ATOM     77  C   UNL A   1      46.837  27.528  24.723  1.00  0.00     0.012 A 
ATOM     78  C   UNL A   1      47.783  26.659  26.785  1.00  0.00     0.148 A 
ATOM     79  C   UNL A   1      47.969  27.110  24.021  1.00  0.00     0.002 A 
ATOM     80  C   UNL A   1      48.932  26.299  26.091  1.00  0.00     0.091 A 
ATOM     81  F   UNL A   1      47.651  26.436  28.100  1.00  0.00    -0.205 F 
ATOM     82  C   UNL A   1      49.019  26.505  24.706  1.00  0.00     0.022 A 
BRANCH  80  83
ATOM     83  S   UNL A   1      50.386  25.634  26.911  1.00  0.00     0.127 S 
ATOM     84  O   UNL A   1      49.869  24.388  27.471  1.00  0.00    -0.237 OA
ATOM     85  O   UNL A   1      51.312  25.470  25.791  1.00  0.00    -0.237 OA
ATOM     86  O   UNL A   1      50.787  26.644  27.880  1.00  0.00    -0.744 OA
ENDBRANCH  80  83
ENDBRANCH  52  76
BRANCH  64  87
ATOM     87  C   UNL A   1      45.104  32.974  29.832  1.00  0.00     0.023 A 
ATOM     88  C   UNL A   1      45.878  32.963  31.009  1.00  0.00     0.012 A 
ATOM     89  C   UNL A   1      45.136  34.106  28.993  1.00  0.00     0.148 A 
ATOM     90  C   UNL A   1      46.647  34.072  31.360  1.00  0.00     0.002 A 
ATOM     91  C   UNL A   1      45.946  35.186  29.323  1.00  0.00     0.091 A 
ATOM     92  F   UNL A   1      44.379  34.103  27.886  1.00  0.00    -0.205 F 
ATOM     93  C   UNL A   1      46.692  35.177  30.513  1.00  0.00     0.022 A 
BRANCH  91  94
ATOM     94  S   UNL A   1      46.145  36.609  28.245  1.00  0.00     0.127 S 
ATOM     95  O   UNL A   1      44.884  37.320  28.455  1.00  0.00    -0.237 OA
ATOM     96  O   UNL A   1      47.319  37.267  28.817  1.00  0.00    -0.237 OA
ATOM     97  O   UNL A   1      46.340  36.076  26.903  1.00  0.00    -0.744 OA
ENDBRANCH  91  94
ENDBRANCH  64  87
ENDBRANCH  38  39
ENDBRANCH  30  33
ENDBRANCH  28  29
ENDBRANCH  27  28
ENDBRANCH  26  27
ENDBRANCH   1  26
TORSDOF 20
ENDMDL
