MODEL 1
REMARK VINA RESULT:     -11.4      0.000      0.000
REMARK SMILES Cc1cccc(Nc2ccccc2C(=O)NCCCCCCNC(=O)c2ccc(-c3c4nc(c(-c5cccc(S(=O)(=O)[O-])c5F)c5ccc([nH]5)c(-c5cccc(S(=O)(=O)[O-])c5F)c5nc(c(-c6cccc(S(=O)(=O)[O-])c6F)c6ccc3[nH]6)C=C5)C=C4)cc2)c1C
REMARK SMILES IDX 20 1 19 2 18 3 17 4 16 5 14 6 15 7 13 9 8 10 9 11 10 12
REMARK SMILES IDX 12 13 11 14 7 15 6 17 1 18 2 19 3 20 89 21 4 22 90 23 5 24
REMARK SMILES IDX 21 25 22 26 23 27 24 28 25 30 26 31 27 32 88 33 28 34 87 35
REMARK SMILES IDX 29 36 30 37 31 38 81 39 32 40 86 41 80 42 82 43 33 44 85 45
REMARK SMILES IDX 79 46 78 47 34 49 66 50 46 51 65 52 47 53 50 54 64 55 83 56
REMARK SMILES IDX 48 57 49 58 63 60 84 61 51 62 35 63 36 64 44 65 37 66 39 67
REMARK SMILES IDX 45 68 38 69 40 70 41 71 42 72 43 73 67 74 68 75 76 76 69 77
REMARK SMILES IDX 71 78 77 79 70 80 72 81 73 82 74 83 75 84 52 85 53 86 61 87
REMARK SMILES IDX 54 88 56 89 62 90 55 91 57 92 58 93 59 94 60 95
REMARK H PARENT 16 8 7 16 23 29 82 48 50 59
REMARK Flexibility Score: inf
ROOT
ATOM      1  C   UNL A   1      32.398  27.346  26.520  1.00  0.00     0.002 C 
ENDROOT
BRANCH   1   2
ATOM      2  C   UNL A   1      33.685  26.710  25.982  1.00  0.00     0.002 C 
BRANCH   2   3
ATOM      3  C   UNL A   1      33.681  25.193  25.737  1.00  0.00     0.021 C 
BRANCH   3   4
ATOM      4  C   UNL A   1      34.977  24.450  26.050  1.00  0.00     0.116 C 
BRANCH   4   5
ATOM      5  N   UNL A   1      35.764  24.097  24.894  1.00  0.00    -0.352 N 
ATOM      6  C   UNL A   1      35.480  23.240  23.858  1.00  0.00     0.253 C 
ATOM      7  O   UNL A   1      36.286  23.219  22.921  1.00  0.00    -0.269 OA
ATOM      8  H   UNL A   1      36.642  24.540  24.838  1.00  0.00     0.163 HD
BRANCH   6   9
ATOM      9  C   UNL A   1      34.354  22.249  23.848  1.00  0.00     0.063 A 
ATOM     10  C   UNL A   1      33.062  22.377  23.296  1.00  0.00     0.051 A 
ATOM     11  C   UNL A   1      32.147  21.311  23.487  1.00  0.00     0.027 A 
ATOM     12  C   UNL A   1      32.503  20.122  24.122  1.00  0.00     0.002 A 
ATOM     13  C   UNL A   1      34.699  21.022  24.470  1.00  0.00     0.016 A 
ATOM     14  C   UNL A   1      33.794  19.967  24.593  1.00  0.00     0.001 A 
BRANCH  10  15
ATOM     15  N   UNL A   1      32.587  23.390  22.438  1.00  0.00    -0.355 N 
ATOM     16  H   UNL A   1      32.309  23.045  21.559  1.00  0.00     0.167 HD
BRANCH  15  17
ATOM     17  C   UNL A   1      32.419  24.785  22.556  1.00  0.00     0.042 A 
ATOM     18  C   UNL A   1      29.839  27.579  23.001  1.00  0.00     0.044 C 
ATOM     19  C   UNL A   1      31.124  26.844  22.728  1.00  0.00    -0.046 A 
ATOM     20  C   UNL A   1      32.237  27.581  22.302  1.00  0.00     0.004 A 
ATOM     21  C   UNL A   1      31.231  25.442  22.927  1.00  0.00    -0.025 A 
ATOM     22  C   UNL A   1      33.447  26.950  22.059  1.00  0.00     0.002 A 
ATOM     23  C   UNL A   1      30.092  24.715  23.598  1.00  0.00     0.047 C 
ATOM     24  C   UNL A   1      33.531  25.568  22.176  1.00  0.00     0.026 A 
ENDBRANCH  15  17
ENDBRANCH  10  15
ENDBRANCH   6   9
ENDBRANCH   4   5
ENDBRANCH   3   4
ENDBRANCH   2   3
ENDBRANCH   1   2
BRANCH   1  25
ATOM     25  C   UNL A   1      31.891  28.599  25.803  1.00  0.00     0.021 C 
BRANCH  25  26
ATOM     26  C   UNL A   1      32.935  29.660  25.478  1.00  0.00     0.116 C 
BRANCH  26  27
ATOM     27  N   UNL A   1      32.594  30.969  26.009  1.00  0.00    -0.352 N 
ATOM     28  C   UNL A   1      33.150  31.671  27.053  1.00  0.00     0.251 C 
ATOM     29  H   UNL A   1      31.851  31.425  25.550  1.00  0.00     0.163 HD
ATOM     30  O   UNL A   1      32.615  32.708  27.437  1.00  0.00    -0.269 OA
BRANCH  28  31
ATOM     31  C   UNL A   1      34.376  31.182  27.730  1.00  0.00     0.039 A 
ATOM     32  C   UNL A   1      35.402  32.092  28.010  1.00  0.00     0.014 A 
ATOM     33  C   UNL A   1      34.537  29.834  28.059  1.00  0.00     0.014 A 
ATOM     34  C   UNL A   1      36.559  31.661  28.669  1.00  0.00     0.010 A 
ATOM     35  C   UNL A   1      35.652  29.424  28.787  1.00  0.00     0.010 A 
ATOM     36  C   UNL A   1      36.682  30.328  29.089  1.00  0.00    -0.014 A 
BRANCH  36  37
ATOM     37  C   UNL A   1      37.878  29.845  29.830  1.00  0.00     0.031 A 
ATOM     38  C   UNL A   1      38.157  30.353  31.220  1.00  0.00     0.074 A 
ATOM     39  C   UNL A   1      38.771  29.043  29.218  1.00  0.00     0.049 A 
ATOM     40  N   UNL A   1      39.202  30.151  31.980  1.00  0.00    -0.248 NA
ATOM     41  C   UNL A   1      37.142  31.234  31.822  1.00  0.00     0.031 C 
ATOM     42  C   UNL A   1      38.657  28.543  27.846  1.00  0.00     0.029 A 
ATOM     43  N   UNL A   1      39.972  28.540  29.655  1.00  0.00    -0.354 N 
ATOM     44  C   UNL A   1      38.998  30.920  33.120  1.00  0.00     0.074 A 
ATOM     45  C   UNL A   1      37.741  31.612  32.942  1.00  0.00     0.031 C 
ATOM     46  C   UNL A   1      39.746  27.814  27.552  1.00  0.00     0.029 A 
ATOM     47  C   UNL A   1      40.650  27.820  28.698  1.00  0.00     0.049 A 
ATOM     48  H   UNL A   1      40.315  28.680  30.567  1.00  0.00     0.167 HD
ATOM     49  C   UNL A   1      39.772  31.021  34.227  1.00  0.00     0.034 A 
ATOM     50  C   UNL A   1      41.870  27.246  28.731  1.00  0.00     0.034 A 
ATOM     51  C   UNL A   1      40.988  30.282  34.427  1.00  0.00     0.049 A 
ATOM     52  C   UNL A   1      42.683  27.321  29.994  1.00  0.00     0.074 A 
ATOM     53  C   UNL A   1      41.783  30.225  35.558  1.00  0.00     0.029 A 
ATOM     54  N   UNL A   1      41.587  29.473  33.475  1.00  0.00    -0.354 N 
ATOM     55  N   UNL A   1      42.395  27.921  31.123  1.00  0.00    -0.248 NA
ATOM     56  C   UNL A   1      43.972  26.612  30.002  1.00  0.00     0.031 C 
ATOM     57  C   UNL A   1      42.877  29.400  35.281  1.00  0.00     0.029 A 
ATOM     58  C   UNL A   1      42.750  28.922  33.986  1.00  0.00     0.049 A 
ATOM     59  H   UNL A   1      41.238  29.314  32.568  1.00  0.00     0.167 HD
ATOM     60  C   UNL A   1      43.447  27.634  31.987  1.00  0.00     0.074 A 
ATOM     61  C   UNL A   1      44.372  26.794  31.255  1.00  0.00     0.031 C 
ATOM     62  C   UNL A   1      43.633  28.040  33.268  1.00  0.00     0.034 A 
BRANCH  49  63
ATOM     63  C   UNL A   1      39.301  31.931  35.332  1.00  0.00     0.023 A 
ATOM     64  C   UNL A   1      38.373  31.455  36.281  1.00  0.00     0.012 A 
ATOM     65  C   UNL A   1      39.812  33.238  35.463  1.00  0.00     0.148 A 
ATOM     66  C   UNL A   1      37.929  32.276  37.316  1.00  0.00     0.002 A 
ATOM     67  C   UNL A   1      39.400  34.035  36.525  1.00  0.00     0.091 A 
ATOM     68  F   UNL A   1      40.676  33.683  34.539  1.00  0.00    -0.205 F 
ATOM     69  C   UNL A   1      38.450  33.561  37.444  1.00  0.00     0.022 A 
BRANCH  67  70
ATOM     70  S   UNL A   1      40.074  35.673  36.820  1.00  0.00     0.127 S 
ATOM     71  O   UNL A   1      39.630  36.394  35.628  1.00  0.00    -0.237 OA
ATOM     72  O   UNL A   1      39.400  36.068  38.057  1.00  0.00    -0.237 OA
ATOM     73  O   UNL A   1      41.515  35.495  36.946  1.00  0.00    -0.744 OA
ENDBRANCH  67  70
ENDBRANCH  49  63
BRANCH  50  74
ATOM     74  C   UNL A   1      42.363  26.496  27.541  1.00  0.00     0.023 A 
ATOM     75  C   UNL A   1      43.180  27.153  26.600  1.00  0.00     0.012 A 
ATOM     76  C   UNL A   1      42.073  25.130  27.364  1.00  0.00     0.148 A 
ATOM     77  C   UNL A   1      43.680  26.470  25.491  1.00  0.00     0.002 A 
ATOM     78  C   UNL A   1      42.619  24.441  26.286  1.00  0.00     0.091 A 
ATOM     79  F   UNL A   1      41.285  24.526  28.265  1.00  0.00    -0.205 F 
ATOM     80  C   UNL A   1      43.409  25.111  25.341  1.00  0.00     0.022 A 
BRANCH  78  81
ATOM     81  S   UNL A   1      42.436  22.664  26.085  1.00  0.00     0.127 S 
ATOM     82  O   UNL A   1      43.129  22.434  24.821  1.00  0.00    -0.237 OA
ATOM     83  O   UNL A   1      43.125  22.155  27.271  1.00  0.00    -0.237 OA
ATOM     84  O   UNL A   1      40.999  22.415  26.073  1.00  0.00    -0.744 OA
ENDBRANCH  78  81
ENDBRANCH  50  74
BRANCH  62  85
ATOM     85  C   UNL A   1      44.864  27.559  33.990  1.00  0.00     0.023 A 
ATOM     86  C   UNL A   1      46.030  28.347  33.989  1.00  0.00     0.012 A 
ATOM     87  C   UNL A   1      44.824  26.377  34.757  1.00  0.00     0.148 A 
ATOM     88  C   UNL A   1      47.147  27.956  34.727  1.00  0.00     0.002 A 
ATOM     89  C   UNL A   1      45.924  26.020  35.527  1.00  0.00     0.091 A 
ATOM     90  F   UNL A   1      43.709  25.634  34.729  1.00  0.00    -0.205 F 
ATOM     91  C   UNL A   1      47.089  26.803  35.505  1.00  0.00     0.022 A 
BRANCH  89  92
ATOM     92  S   UNL A   1      45.906  24.607  36.637  1.00  0.00     0.127 S 
ATOM     93  O   UNL A   1      45.741  23.496  35.702  1.00  0.00    -0.237 OA
ATOM     94  O   UNL A   1      47.227  24.688  37.261  1.00  0.00    -0.237 OA
ATOM     95  O   UNL A   1      44.791  24.825  37.549  1.00  0.00    -0.744 OA
ENDBRANCH  89  92
ENDBRANCH  62  85
ENDBRANCH  36  37
ENDBRANCH  28  31
ENDBRANCH  26  27
ENDBRANCH  25  26
ENDBRANCH   1  25
TORSDOF 18
ENDMDL
MODEL 2
REMARK VINA RESULT:     -11.3      2.462      7.937
REMARK SMILES Cc1cccc(Nc2ccccc2C(=O)NCCCCCCNC(=O)c2ccc(-c3c4nc(c(-c5cccc(S(=O)(=O)[O-])c5F)c5ccc([nH]5)c(-c5cccc(S(=O)(=O)[O-])c5F)c5nc(c(-c6cccc(S(=O)(=O)[O-])c6F)c6ccc3[nH]6)C=C5)C=C4)cc2)c1C
REMARK SMILES IDX 20 1 19 2 18 3 17 4 16 5 14 6 15 7 13 9 8 10 9 11 10 12
REMARK SMILES IDX 12 13 11 14 7 15 6 17 1 18 2 19 3 20 89 21 4 22 90 23 5 24
REMARK SMILES IDX 21 25 22 26 23 27 24 28 25 30 26 31 27 32 88 33 28 34 87 35
REMARK SMILES IDX 29 36 30 37 31 38 81 39 32 40 86 41 80 42 82 43 33 44 85 45
REMARK SMILES IDX 79 46 78 47 34 49 66 50 46 51 65 52 47 53 50 54 64 55 83 56
REMARK SMILES IDX 48 57 49 58 63 60 84 61 51 62 35 63 36 64 44 65 37 66 39 67
REMARK SMILES IDX 45 68 38 69 40 70 41 71 42 72 43 73 67 74 68 75 76 76 69 77
REMARK SMILES IDX 71 78 77 79 70 80 72 81 73 82 74 83 75 84 52 85 53 86 61 87
REMARK SMILES IDX 54 88 56 89 62 90 55 91 57 92 58 93 59 94 60 95
REMARK H PARENT 16 8 7 16 23 29 82 48 50 59
REMARK Flexibility Score: inf
ROOT
ATOM      1  C   UNL A   1      31.422  30.455  25.976  1.00  0.00     0.002 C 
ENDROOT
BRANCH   1   2
ATOM      2  C   UNL A   1      31.926  29.420  26.989  1.00  0.00     0.002 C 
BRANCH   2   3
ATOM      3  C   UNL A   1      31.276  28.028  26.966  1.00  0.00     0.021 C 
BRANCH   3   4
ATOM      4  C   UNL A   1      32.214  26.844  26.742  1.00  0.00     0.116 C 
BRANCH   4   5
ATOM      5  N   UNL A   1      31.622  25.551  26.983  1.00  0.00    -0.352 N 
ATOM      6  C   UNL A   1      32.082  24.295  26.670  1.00  0.00     0.253 C 
ATOM      7  O   UNL A   1      31.430  23.342  27.110  1.00  0.00    -0.269 OA
ATOM      8  H   UNL A   1      30.753  25.572  27.445  1.00  0.00     0.163 HD
BRANCH   6   9
ATOM      9  C   UNL A   1      33.220  24.005  25.736  1.00  0.00     0.063 A 
ATOM     10  C   UNL A   1      33.297  24.202  24.341  1.00  0.00     0.051 A 
ATOM     11  C   UNL A   1      34.472  23.773  23.672  1.00  0.00     0.027 A 
ATOM     12  C   UNL A   1      35.571  23.247  24.349  1.00  0.00     0.002 A 
ATOM     13  C   UNL A   1      34.359  23.489  26.405  1.00  0.00     0.016 A 
ATOM     14  C   UNL A   1      35.524  23.129  25.727  1.00  0.00     0.001 A 
BRANCH  10  15
ATOM     15  N   UNL A   1      32.398  24.911  23.518  1.00  0.00    -0.355 N 
ATOM     16  H   UNL A   1      31.917  24.327  22.888  1.00  0.00     0.167 HD
BRANCH  15  17
ATOM     17  C   UNL A   1      32.034  26.267  23.395  1.00  0.00     0.042 A 
ATOM     18  C   UNL A   1      29.080  28.666  22.967  1.00  0.00     0.044 C 
ATOM     19  C   UNL A   1      30.476  28.108  23.031  1.00  0.00    -0.046 A 
ATOM     20  C   UNL A   1      31.547  28.949  22.695  1.00  0.00     0.004 A 
ATOM     21  C   UNL A   1      30.723  26.775  23.454  1.00  0.00    -0.025 A 
ATOM     22  C   UNL A   1      32.852  28.486  22.760  1.00  0.00     0.002 A 
ATOM     23  C   UNL A   1      29.580  25.972  24.023  1.00  0.00     0.047 C 
ATOM     24  C   UNL A   1      33.088  27.158  23.096  1.00  0.00     0.026 A 
ENDBRANCH  15  17
ENDBRANCH  10  15
ENDBRANCH   6   9
ENDBRANCH   4   5
ENDBRANCH   3   4
ENDBRANCH   2   3
ENDBRANCH   1   2
BRANCH   1  25
ATOM     25  C   UNL A   1      31.398  31.916  26.430  1.00  0.00     0.021 C 
BRANCH  25  26
ATOM     26  C   UNL A   1      32.600  32.393  27.235  1.00  0.00     0.116 C 
BRANCH  26  27
ATOM     27  N   UNL A   1      32.490  33.783  27.645  1.00  0.00    -0.352 N 
ATOM     28  C   UNL A   1      33.217  34.490  28.573  1.00  0.00     0.251 C 
ATOM     29  H   UNL A   1      31.787  34.298  27.186  1.00  0.00     0.163 HD
ATOM     30  O   UNL A   1      32.865  35.627  28.879  1.00  0.00    -0.269 OA
BRANCH  28  31
ATOM     31  C   UNL A   1      34.408  33.890  29.223  1.00  0.00     0.039 A 
ATOM     32  C   UNL A   1      35.679  34.356  28.867  1.00  0.00     0.014 A 
ATOM     33  C   UNL A   1      34.286  32.853  30.150  1.00  0.00     0.014 A 
ATOM     34  C   UNL A   1      36.817  33.824  29.481  1.00  0.00     0.010 A 
ATOM     35  C   UNL A   1      35.413  32.382  30.820  1.00  0.00     0.010 A 
ATOM     36  C   UNL A   1      36.693  32.851  30.484  1.00  0.00    -0.014 A 
BRANCH  36  37
ATOM     37  C   UNL A   1      37.879  32.294  31.190  1.00  0.00     0.031 A 
ATOM     38  C   UNL A   1      38.650  31.154  30.580  1.00  0.00     0.074 A 
ATOM     39  C   UNL A   1      38.195  32.733  32.424  1.00  0.00     0.049 A 
ATOM     40  N   UNL A   1      39.630  30.452  31.088  1.00  0.00    -0.248 NA
ATOM     41  C   UNL A   1      38.241  30.721  29.233  1.00  0.00     0.031 C 
ATOM     42  C   UNL A   1      37.481  33.779  33.158  1.00  0.00     0.029 A 
ATOM     43  N   UNL A   1      39.174  32.326  33.297  1.00  0.00    -0.354 N 
ATOM     44  C   UNL A   1      39.916  29.464  30.154  1.00  0.00     0.074 A 
ATOM     45  C   UNL A   1      38.991  29.641  29.057  1.00  0.00     0.031 C 
ATOM     46  C   UNL A   1      38.038  33.924  34.372  1.00  0.00     0.029 A 
ATOM     47  C   UNL A   1      39.127  32.962  34.516  1.00  0.00     0.049 A 
ATOM     48  H   UNL A   1      39.847  31.643  33.072  1.00  0.00     0.167 HD
ATOM     49  C   UNL A   1      40.879  28.513  30.190  1.00  0.00     0.034 A 
ATOM     50  C   UNL A   1      39.863  32.781  35.631  1.00  0.00     0.034 A 
ATOM     51  C   UNL A   1      41.838  28.381  31.252  1.00  0.00     0.049 A 
ATOM     52  C   UNL A   1      40.967  31.760  35.625  1.00  0.00     0.074 A 
ATOM     53  C   UNL A   1      42.923  27.526  31.329  1.00  0.00     0.029 A 
ATOM     54  N   UNL A   1      41.827  29.121  32.424  1.00  0.00    -0.354 N 
ATOM     55  N   UNL A   1      41.327  30.944  34.664  1.00  0.00    -0.248 NA
ATOM     56  C   UNL A   1      41.789  31.656  36.840  1.00  0.00     0.031 C 
ATOM     57  C   UNL A   1      43.555  27.733  32.559  1.00  0.00     0.029 A 
ATOM     58  C   UNL A   1      42.879  28.735  33.237  1.00  0.00     0.049 A 
ATOM     59  H   UNL A   1      41.168  29.818  32.646  1.00  0.00     0.167 HD
ATOM     60  C   UNL A   1      42.437  30.256  35.143  1.00  0.00     0.074 A 
ATOM     61  C   UNL A   1      42.699  30.761  36.474  1.00  0.00     0.031 C 
ATOM     62  C   UNL A   1      43.165  29.285  34.537  1.00  0.00     0.034 A 
BRANCH  49  63
ATOM     63  C   UNL A   1      40.974  27.566  29.022  1.00  0.00     0.023 A 
ATOM     64  C   UNL A   1      40.156  26.418  28.985  1.00  0.00     0.012 A 
ATOM     65  C   UNL A   1      41.834  27.834  27.938  1.00  0.00     0.148 A 
ATOM     66  C   UNL A   1      40.221  25.531  27.911  1.00  0.00     0.002 A 
ATOM     67  C   UNL A   1      41.859  26.971  26.849  1.00  0.00     0.091 A 
ATOM     68  F   UNL A   1      42.621  28.918  27.999  1.00  0.00    -0.205 F 
ATOM     69  C   UNL A   1      41.064  25.813  26.840  1.00  0.00     0.022 A 
BRANCH  67  70
ATOM     70  S   UNL A   1      42.851  27.291  25.387  1.00  0.00     0.127 S 
ATOM     71  O   UNL A   1      42.689  26.043  24.641  1.00  0.00    -0.237 OA
ATOM     72  O   UNL A   1      42.172  28.445  24.797  1.00  0.00    -0.237 OA
ATOM     73  O   UNL A   1      44.199  27.564  25.869  1.00  0.00    -0.744 OA
ENDBRANCH  67  70
ENDBRANCH  49  63
BRANCH  50  74
ATOM     74  C   UNL A   1      39.611  33.635  36.826  1.00  0.00     0.023 A 
ATOM     75  C   UNL A   1      39.989  34.992  36.799  1.00  0.00     0.012 A 
ATOM     76  C   UNL A   1      38.956  33.128  37.965  1.00  0.00     0.148 A 
ATOM     77  C   UNL A   1      39.740  35.823  37.892  1.00  0.00     0.002 A 
ATOM     78  C   UNL A   1      38.662  33.973  39.029  1.00  0.00     0.091 A 
ATOM     79  F   UNL A   1      38.615  31.831  37.976  1.00  0.00    -0.205 F 
ATOM     80  C   UNL A   1      39.067  35.316  39.001  1.00  0.00     0.022 A 
BRANCH  78  81
ATOM     81  S   UNL A   1      37.682  33.444  40.439  1.00  0.00     0.127 S 
ATOM     82  O   UNL A   1      37.626  34.665  41.239  1.00  0.00    -0.237 OA
ATOM     83  O   UNL A   1      36.422  33.063  39.803  1.00  0.00    -0.237 OA
ATOM     84  O   UNL A   1      38.415  32.332  41.033  1.00  0.00    -0.744 OA
ENDBRANCH  78  81
ENDBRANCH  50  74
BRANCH  62  85
ATOM     85  C   UNL A   1      44.345  28.719  35.280  1.00  0.00     0.023 A 
ATOM     86  C   UNL A   1      45.624  29.280  35.097  1.00  0.00     0.012 A 
ATOM     87  C   UNL A   1      44.164  27.704  36.240  1.00  0.00     0.148 A 
ATOM     88  C   UNL A   1      46.709  28.825  35.844  1.00  0.00     0.002 A 
ATOM     89  C   UNL A   1      45.240  27.289  37.015  1.00  0.00     0.091 A 
ATOM     90  F   UNL A   1      42.942  27.173  36.386  1.00  0.00    -0.205 F 
ATOM     91  C   UNL A   1      46.515  27.842  36.811  1.00  0.00     0.022 A 
BRANCH  89  92
ATOM     92  S   UNL A   1      45.066  26.101  38.351  1.00  0.00     0.127 S 
ATOM     93  O   UNL A   1      44.665  24.896  37.627  1.00  0.00    -0.237 OA
ATOM     94  O   UNL A   1      46.420  26.058  38.905  1.00  0.00    -0.237 OA
ATOM     95  O   UNL A   1      44.061  26.651  39.251  1.00  0.00    -0.744 OA
ENDBRANCH  89  92
ENDBRANCH  62  85
ENDBRANCH  36  37
ENDBRANCH  28  31
ENDBRANCH  26  27
ENDBRANCH  25  26
ENDBRANCH   1  25
TORSDOF 18
ENDMDL
MODEL 3
REMARK VINA RESULT:     -11.2      0.625      7.721
REMARK SMILES Cc1cccc(Nc2ccccc2C(=O)NCCCCCCNC(=O)c2ccc(-c3c4nc(c(-c5cccc(S(=O)(=O)[O-])c5F)c5ccc([nH]5)c(-c5cccc(S(=O)(=O)[O-])c5F)c5nc(c(-c6cccc(S(=O)(=O)[O-])c6F)c6ccc3[nH]6)C=C5)C=C4)cc2)c1C
REMARK SMILES IDX 20 1 19 2 18 3 17 4 16 5 14 6 15 7 13 9 8 10 9 11 10 12
REMARK SMILES IDX 12 13 11 14 7 15 6 17 1 18 2 19 3 20 89 21 4 22 90 23 5 24
REMARK SMILES IDX 21 25 22 26 23 27 24 28 25 30 26 31 27 32 88 33 28 34 87 35
REMARK SMILES IDX 29 36 30 37 31 38 81 39 32 40 86 41 80 42 82 43 33 44 85 45
REMARK SMILES IDX 79 46 78 47 34 49 66 50 46 51 65 52 47 53 50 54 64 55 83 56
REMARK SMILES IDX 48 57 49 58 63 60 84 61 51 62 35 63 36 64 44 65 37 66 39 67
REMARK SMILES IDX 45 68 38 69 40 70 41 71 42 72 43 73 67 74 68 75 76 76 69 77
REMARK SMILES IDX 71 78 77 79 70 80 72 81 73 82 74 83 75 84 52 85 53 86 61 87
REMARK SMILES IDX 54 88 56 89 62 90 55 91 57 92 58 93 59 94 60 95
REMARK H PARENT 16 8 7 16 23 29 82 48 50 59
REMARK Flexibility Score: inf
ROOT
ATOM      1  C   UNL A   1      32.704  26.923  26.218  1.00  0.00     0.002 C 
ENDROOT
BRANCH   1   2
ATOM      2  C   UNL A   1      33.991  26.262  25.709  1.00  0.00     0.002 C 
BRANCH   2   3
ATOM      3  C   UNL A   1      34.064  24.728  25.744  1.00  0.00     0.021 C 
BRANCH   3   4
ATOM      4  C   UNL A   1      35.445  24.117  25.968  1.00  0.00     0.116 C 
BRANCH   4   5
ATOM      5  N   UNL A   1      36.117  23.687  24.766  1.00  0.00    -0.352 N 
ATOM      6  C   UNL A   1      35.720  22.789  23.804  1.00  0.00     0.253 C 
ATOM      7  O   UNL A   1      36.437  22.700  22.802  1.00  0.00    -0.269 OA
ATOM      8  H   UNL A   1      36.996  24.102  24.610  1.00  0.00     0.163 HD
BRANCH   6   9
ATOM      9  C   UNL A   1      34.575  21.830  23.945  1.00  0.00     0.063 A 
ATOM     10  C   UNL A   1      33.258  21.941  23.451  1.00  0.00     0.051 A 
ATOM     11  C   UNL A   1      32.332  20.920  23.787  1.00  0.00     0.027 A 
ATOM     12  C   UNL A   1      32.698  19.785  24.510  1.00  0.00     0.002 A 
ATOM     13  C   UNL A   1      34.927  20.656  24.658  1.00  0.00     0.016 A 
ATOM     14  C   UNL A   1      34.009  19.640  24.926  1.00  0.00     0.001 A 
BRANCH  10  15
ATOM     15  N   UNL A   1      32.758  22.882  22.529  1.00  0.00    -0.355 N 
ATOM     16  H   UNL A   1      32.803  22.566  21.598  1.00  0.00     0.167 HD
BRANCH  15  17
ATOM     17  C   UNL A   1      32.206  24.175  22.641  1.00  0.00     0.042 A 
ATOM     18  C   UNL A   1      29.357  26.216  24.186  1.00  0.00     0.044 C 
ATOM     19  C   UNL A   1      30.531  25.806  23.337  1.00  0.00    -0.046 A 
ATOM     20  C   UNL A   1      30.997  26.701  22.365  1.00  0.00     0.004 A 
ATOM     21  C   UNL A   1      31.183  24.559  23.529  1.00  0.00    -0.025 A 
ATOM     22  C   UNL A   1      32.088  26.375  21.574  1.00  0.00     0.002 A 
ATOM     23  C   UNL A   1      30.807  23.719  24.724  1.00  0.00     0.047 C 
ATOM     24  C   UNL A   1      32.676  25.123  21.706  1.00  0.00     0.026 A 
ENDBRANCH  15  17
ENDBRANCH  10  15
ENDBRANCH   6   9
ENDBRANCH   4   5
ENDBRANCH   3   4
ENDBRANCH   2   3
ENDBRANCH   1   2
BRANCH   1  25
ATOM     25  C   UNL A   1      32.193  28.137  25.439  1.00  0.00     0.021 C 
BRANCH  25  26
ATOM     26  C   UNL A   1      33.165  29.299  25.285  1.00  0.00     0.116 C 
BRANCH  26  27
ATOM     27  N   UNL A   1      32.640  30.549  25.808  1.00  0.00    -0.352 N 
ATOM     28  C   UNL A   1      33.085  31.327  26.850  1.00  0.00     0.251 C 
ATOM     29  H   UNL A   1      31.841  30.892  25.344  1.00  0.00     0.163 HD
ATOM     30  O   UNL A   1      32.406  32.279  27.228  1.00  0.00    -0.269 OA
BRANCH  28  31
ATOM     31  C   UNL A   1      34.365  31.020  27.535  1.00  0.00     0.039 A 
ATOM     32  C   UNL A   1      35.329  32.028  27.650  1.00  0.00     0.014 A 
ATOM     33  C   UNL A   1      34.636  29.744  28.033  1.00  0.00     0.014 A 
ATOM     34  C   UNL A   1      36.534  31.772  28.311  1.00  0.00     0.010 A 
ATOM     35  C   UNL A   1      35.800  29.513  28.761  1.00  0.00     0.010 A 
ATOM     36  C   UNL A   1      36.770  30.520  28.898  1.00  0.00    -0.014 A 
BRANCH  36  37
ATOM     37  C   UNL A   1      38.021  30.225  29.647  1.00  0.00     0.031 A 
ATOM     38  C   UNL A   1      39.028  29.259  29.078  1.00  0.00     0.074 A 
ATOM     39  C   UNL A   1      38.203  30.733  30.882  1.00  0.00     0.049 A 
ATOM     40  N   UNL A   1      40.113  28.779  29.627  1.00  0.00    -0.248 NA
ATOM     41  C   UNL A   1      38.758  28.736  27.729  1.00  0.00     0.031 C 
ATOM     42  C   UNL A   1      37.267  31.620  31.576  1.00  0.00     0.029 A 
ATOM     43  N   UNL A   1      39.216  30.545  31.789  1.00  0.00    -0.354 N 
ATOM     44  C   UNL A   1      40.625  27.860  28.719  1.00  0.00     0.074 A 
ATOM     45  C   UNL A   1      39.717  27.831  27.593  1.00  0.00     0.031 C 
ATOM     46  C   UNL A   1      37.745  31.889  32.802  1.00  0.00     0.029 A 
ATOM     47  C   UNL A   1      39.002  31.172  32.995  1.00  0.00     0.049 A 
ATOM     48  H   UNL A   1      40.021  30.012  31.595  1.00  0.00     0.167 HD
ATOM     49  C   UNL A   1      41.760  27.126  28.799  1.00  0.00     0.034 A 
ATOM     50  C   UNL A   1      39.724  31.158  34.133  1.00  0.00     0.034 A 
ATOM     51  C   UNL A   1      42.692  27.205  29.890  1.00  0.00     0.049 A 
ATOM     52  C   UNL A   1      41.013  30.384  34.176  1.00  0.00     0.074 A 
ATOM     53  C   UNL A   1      43.926  26.591  30.012  1.00  0.00     0.029 A 
ATOM     54  N   UNL A   1      42.493  27.941  31.047  1.00  0.00    -0.354 N 
ATOM     55  N   UNL A   1      41.562  29.648  33.240  1.00  0.00    -0.248 NA
ATOM     56  C   UNL A   1      41.800  30.464  35.415  1.00  0.00     0.031 C 
ATOM     57  C   UNL A   1      44.463  26.937  31.256  1.00  0.00     0.029 A 
ATOM     58  C   UNL A   1      43.576  27.787  31.897  1.00  0.00     0.049 A 
ATOM     59  H   UNL A   1      41.700  28.491  31.238  1.00  0.00     0.167 HD
ATOM     60  C   UNL A   1      42.773  29.207  33.762  1.00  0.00     0.074 A 
ATOM     61  C   UNL A   1      42.885  29.770  35.091  1.00  0.00     0.031 C 
ATOM     62  C   UNL A   1      43.702  28.399  33.194  1.00  0.00     0.034 A 
BRANCH  49  63
ATOM     63  C   UNL A   1      42.083  26.205  27.650  1.00  0.00     0.023 A 
ATOM     64  C   UNL A   1      42.829  26.690  26.556  1.00  0.00     0.012 A 
ATOM     65  C   UNL A   1      41.695  24.851  27.675  1.00  0.00     0.148 A 
ATOM     66  C   UNL A   1      43.147  25.854  25.486  1.00  0.00     0.002 A 
ATOM     67  C   UNL A   1      42.056  24.012  26.626  1.00  0.00     0.091 A 
ATOM     68  F   UNL A   1      40.967  24.412  28.712  1.00  0.00    -0.205 F 
ATOM     69  C   UNL A   1      42.770  24.514  25.526  1.00  0.00     0.022 A 
BRANCH  67  70
ATOM     70  S   UNL A   1      41.687  22.255  26.626  1.00  0.00     0.127 S 
ATOM     71  O   UNL A   1      42.326  21.820  25.384  1.00  0.00    -0.237 OA
ATOM     72  O   UNL A   1      42.352  21.797  27.846  1.00  0.00    -0.237 OA
ATOM     73  O   UNL A   1      40.233  22.151  26.654  1.00  0.00    -0.744 OA
ENDBRANCH  67  70
ENDBRANCH  49  63
BRANCH  50  74
ATOM     74  C   UNL A   1      39.266  31.956  35.305  1.00  0.00     0.023 A 
ATOM     75  C   UNL A   1      38.415  31.361  36.257  1.00  0.00     0.012 A 
ATOM     76  C   UNL A   1      39.708  33.278  35.510  1.00  0.00     0.148 A 
ATOM     77  C   UNL A   1      37.994  32.075  37.380  1.00  0.00     0.002 A 
ATOM     78  C   UNL A   1      39.328  33.965  36.657  1.00  0.00     0.091 A 
ATOM     79  F   UNL A   1      40.509  33.829  34.587  1.00  0.00    -0.205 F 
ATOM     80  C   UNL A   1      38.459  33.372  37.585  1.00  0.00     0.022 A 
BRANCH  78  81
ATOM     81  S   UNL A   1      39.985  35.585  37.073  1.00  0.00     0.127 S 
ATOM     82  O   UNL A   1      39.300  35.871  38.330  1.00  0.00    -0.237 OA
ATOM     83  O   UNL A   1      41.416  35.307  37.196  1.00  0.00    -0.237 OA
ATOM     84  O   UNL A   1      39.637  36.450  35.952  1.00  0.00    -0.744 OA
ENDBRANCH  78  81
ENDBRANCH  50  74
BRANCH  62  85
ATOM     85  C   UNL A   1      44.950  28.095  33.981  1.00  0.00     0.023 A 
ATOM     86  C   UNL A   1      46.044  28.980  33.929  1.00  0.00     0.012 A 
ATOM     87  C   UNL A   1      44.992  26.989  34.853  1.00  0.00     0.148 A 
ATOM     88  C   UNL A   1      47.170  28.758  34.721  1.00  0.00     0.002 A 
ATOM     89  C   UNL A   1      46.097  26.801  35.673  1.00  0.00     0.091 A 
ATOM     90  F   UNL A   1      43.946  26.150  34.873  1.00  0.00    -0.205 F 
ATOM     91  C   UNL A   1      47.191  27.679  35.601  1.00  0.00     0.022 A 
BRANCH  89  92
ATOM     92  S   UNL A   1      46.172  25.498  36.908  1.00  0.00     0.127 S 
ATOM     93  O   UNL A   1      45.857  24.314  36.111  1.00  0.00    -0.237 OA
ATOM     94  O   UNL A   1      47.562  25.579  37.359  1.00  0.00    -0.237 OA
ATOM     95  O   UNL A   1      45.186  25.847  37.922  1.00  0.00    -0.744 OA
ENDBRANCH  89  92
ENDBRANCH  62  85
ENDBRANCH  36  37
ENDBRANCH  28  31
ENDBRANCH  26  27
ENDBRANCH  25  26
ENDBRANCH   1  25
TORSDOF 18
ENDMDL
