MODEL 1
REMARK VINA RESULT:      -9.6      0.000      0.000
REMARK SMILES COC[C@@H](C)CC(=O)N1CC(CC(=O)NCCCCCCNC(=O)c2ccc(-c3c4nc(c(-c5cccc(S(=O)(=O)[O-])c5F)c5ccc([nH]5)c(-c5cccc(S(=O)(=O)[O-])c5F)c5nc(c(-c6cccc(S(=O)(=O)[O-])c6F)c6ccc3[nH]6)C=C5)C=C4)cc2)C1
REMARK SMILES IDX 17 1 16 2 15 3 13 4 14 5 12 7 11 8 7 9 8 10 9 11 10 12 88 13
REMARK SMILES IDX 6 14 4 15 5 16 3 17 2 18 1 19 18 20 19 21 20 22 21 23 22 24
REMARK SMILES IDX 23 25 24 27 25 28 26 29 87 30 27 31 86 32 28 33 29 34 30 35
REMARK SMILES IDX 80 36 31 37 85 38 79 39 81 40 32 41 84 42 78 43 77 44 33 46
REMARK SMILES IDX 65 47 45 48 64 49 46 50 49 51 63 52 82 53 47 54 48 55 62 57
REMARK SMILES IDX 83 58 50 59 34 60 35 61 43 62 36 63 38 64 44 65 37 66 39 67
REMARK SMILES IDX 40 68 41 69 42 70 66 71 67 72 75 73 68 74 70 75 76 76 69 77
REMARK SMILES IDX 71 78 72 79 73 80 74 81 51 82 52 83 60 84 53 85 55 86 61 87
REMARK SMILES IDX 54 88 56 89 57 90 58 91 59 92
REMARK H PARENT 15 6 22 26 81 45 49 56
REMARK Flexibility Score: inf
ROOT
ATOM      1  C   UNL A   1      33.948  26.312  25.571  1.00  0.00     0.021 C 
ENDROOT
BRANCH   1   2
ATOM      2  C   UNL A   1      33.709  26.610  24.086  1.00  0.00     0.116 C 
BRANCH   2   3
ATOM      3  N   UNL A   1      33.564  25.385  23.319  1.00  0.00    -0.356 N 
ATOM      4  C   UNL A   1      32.494  24.556  23.148  1.00  0.00     0.220 C 
ATOM      5  O   UNL A   1      32.664  23.516  22.509  1.00  0.00    -0.275 OA
ATOM      6  H   UNL A   1      34.376  25.104  22.840  1.00  0.00     0.163 HD
BRANCH   4   7
ATOM      7  C   UNL A   1      31.135  24.879  23.747  1.00  0.00     0.107 C 
BRANCH   7   8
ATOM      8  C   UNL A   1      30.414  25.999  23.005  1.00  0.00     0.037 C 
ATOM      9  C   UNL A   1      29.937  29.245  22.575  1.00  0.00     0.222 C 
ATOM     10  O   UNL A   1      29.607  29.432  21.406  1.00  0.00    -0.275 OA
ATOM     11  N   UNL A   1      30.534  28.081  23.003  1.00  0.00    -0.342 N 
ATOM     12  C   UNL A   1      31.210  27.052  22.217  1.00  0.00     0.125 C 
ATOM     13  C   UNL A   1      29.942  27.124  23.915  1.00  0.00     0.125 C 
BRANCH   9  14
ATOM     14  C   UNL A   1      29.868  30.356  23.625  1.00  0.00     0.106 C 
BRANCH  14  15
ATOM     15  C   UNL A   1      28.624  31.264  23.637  1.00  0.00     0.021 C 
ATOM     16  C   UNL A   1      27.361  30.400  23.497  1.00  0.00     0.010 C 
BRANCH  15  17
ATOM     17  C   UNL A   1      28.648  32.283  22.492  1.00  0.00     0.163 C 
BRANCH  17  18
ATOM     18  O   UNL A   1      27.770  31.934  21.429  1.00  0.00    -0.384 OA
ATOM     19  C   UNL A   1      27.706  32.915  20.410  1.00  0.00     0.194 C 
ENDBRANCH  17  18
ENDBRANCH  15  17
ENDBRANCH  14  15
ENDBRANCH   9  14
ENDBRANCH   7   8
ENDBRANCH   4   7
ENDBRANCH   2   3
ENDBRANCH   1   2
BRANCH   1  20
ATOM     20  C   UNL A   1      32.753  26.580  26.493  1.00  0.00     0.002 C 
BRANCH  20  21
ATOM     21  C   UNL A   1      32.187  28.005  26.445  1.00  0.00     0.002 C 
BRANCH  21  22
ATOM     22  C   UNL A   1      33.213  29.134  26.285  1.00  0.00     0.021 C 
BRANCH  22  23
ATOM     23  C   UNL A   1      34.047  29.442  27.527  1.00  0.00     0.116 C 
BRANCH  23  24
ATOM     24  N   UNL A   1      33.864  30.794  28.024  1.00  0.00    -0.352 N 
ATOM     25  C   UNL A   1      34.696  31.574  28.797  1.00  0.00     0.251 C 
ATOM     26  H   UNL A   1      33.014  31.219  27.769  1.00  0.00     0.163 HD
ATOM     27  O   UNL A   1      34.307  32.673  29.180  1.00  0.00    -0.269 OA
BRANCH  25  28
ATOM     28  C   UNL A   1      36.043  31.096  29.194  1.00  0.00     0.039 A 
ATOM     29  C   UNL A   1      36.146  30.061  30.124  1.00  0.00     0.014 A 
ATOM     30  C   UNL A   1      37.205  31.686  28.698  1.00  0.00     0.014 A 
ATOM     31  C   UNL A   1      37.409  29.593  30.509  1.00  0.00     0.010 A 
ATOM     32  C   UNL A   1      38.462  31.167  29.017  1.00  0.00     0.010 A 
ATOM     33  C   UNL A   1      38.582  30.118  29.939  1.00  0.00    -0.014 A 
BRANCH  33  34
ATOM     34  C   UNL A   1      39.918  29.568  30.310  1.00  0.00     0.031 A 
ATOM     35  C   UNL A   1      40.713  30.145  31.454  1.00  0.00     0.074 A 
ATOM     36  C   UNL A   1      40.439  28.551  29.592  1.00  0.00     0.049 A 
ATOM     37  N   UNL A   1      41.860  29.747  31.943  1.00  0.00    -0.248 NA
ATOM     38  C   UNL A   1      40.164  31.336  32.122  1.00  0.00     0.031 C 
ATOM     39  C   UNL A   1      39.824  27.951  28.407  1.00  0.00     0.029 A 
ATOM     40  N   UNL A   1      41.607  27.844  29.750  1.00  0.00    -0.354 N 
ATOM     41  C   UNL A   1      42.180  30.644  32.956  1.00  0.00     0.074 A 
ATOM     42  C   UNL A   1      41.128  31.637  32.980  1.00  0.00     0.031 C 
ATOM     43  C   UNL A   1      40.603  26.952  27.961  1.00  0.00     0.029 A 
ATOM     44  C   UNL A   1      41.788  26.856  28.808  1.00  0.00     0.049 A 
ATOM     45  H   UNL A   1      42.255  28.028  30.468  1.00  0.00     0.167 HD
ATOM     46  C   UNL A   1      43.233  30.631  33.811  1.00  0.00     0.034 A 
ATOM     47  C   UNL A   1      42.789  25.969  28.644  1.00  0.00     0.034 A 
ATOM     48  C   UNL A   1      44.264  29.628  33.810  1.00  0.00     0.049 A 
ATOM     49  C   UNL A   1      43.927  25.949  29.629  1.00  0.00     0.074 A 
ATOM     50  C   UNL A   1      45.325  29.485  34.688  1.00  0.00     0.029 A 
ATOM     51  N   UNL A   1      44.377  28.606  32.880  1.00  0.00    -0.354 N 
ATOM     52  N   UNL A   1      44.122  26.708  30.679  1.00  0.00    -0.248 NA
ATOM     53  C   UNL A   1      44.960  24.922  29.431  1.00  0.00     0.031 C 
ATOM     54  C   UNL A   1      46.099  28.396  34.269  1.00  0.00     0.029 A 
ATOM     55  C   UNL A   1      45.494  27.834  33.155  1.00  0.00     0.049 A 
ATOM     56  H   UNL A   1      43.754  28.451  32.134  1.00  0.00     0.167 HD
ATOM     57  C   UNL A   1      45.275  26.225  31.290  1.00  0.00     0.074 A 
ATOM     58  C   UNL A   1      45.722  25.095  30.502  1.00  0.00     0.031 C 
ATOM     59  C   UNL A   1      45.909  26.682  32.397  1.00  0.00     0.034 A 
BRANCH  46  60
ATOM     60  C   UNL A   1      43.300  31.716  34.857  1.00  0.00     0.023 A 
ATOM     61  C   UNL A   1      44.031  32.894  34.595  1.00  0.00     0.012 A 
ATOM     62  C   UNL A   1      42.597  31.599  36.072  1.00  0.00     0.148 A 
ATOM     63  C   UNL A   1      44.093  33.919  35.539  1.00  0.00     0.002 A 
ATOM     64  C   UNL A   1      42.623  32.646  36.987  1.00  0.00     0.091 A 
ATOM     65  F   UNL A   1      41.921  30.466  36.313  1.00  0.00    -0.205 F 
ATOM     66  C   UNL A   1      43.382  33.799  36.729  1.00  0.00     0.022 A 
BRANCH  64  67
ATOM     67  S   UNL A   1      41.673  32.625  38.512  1.00  0.00     0.127 S 
ATOM     68  O   UNL A   1      42.375  31.600  39.283  1.00  0.00    -0.237 OA
ATOM     69  O   UNL A   1      41.854  33.990  39.005  1.00  0.00    -0.237 OA
ATOM     70  O   UNL A   1      40.307  32.293  38.130  1.00  0.00    -0.744 OA
ENDBRANCH  64  67
ENDBRANCH  46  60
BRANCH  47  71
ATOM     71  C   UNL A   1      42.728  24.975  27.533  1.00  0.00     0.023 A 
ATOM     72  C   UNL A   1      43.314  25.281  26.290  1.00  0.00     0.012 A 
ATOM     73  C   UNL A   1      42.106  23.725  27.710  1.00  0.00     0.148 A 
ATOM     74  C   UNL A   1      43.250  24.374  25.230  1.00  0.00     0.002 A 
ATOM     75  C   UNL A   1      42.098  22.802  26.671  1.00  0.00     0.091 A 
ATOM     76  F   UNL A   1      41.547  23.457  28.899  1.00  0.00    -0.205 F 
ATOM     77  C   UNL A   1      42.652  23.132  25.423  1.00  0.00     0.022 A 
BRANCH  75  78
ATOM     78  S   UNL A   1      41.470  21.132  26.872  1.00  0.00     0.127 S 
ATOM     79  O   UNL A   1      41.659  20.579  25.533  1.00  0.00    -0.237 OA
ATOM     80  O   UNL A   1      42.368  20.594  27.894  1.00  0.00    -0.237 OA
ATOM     81  O   UNL A   1      40.088  21.279  27.305  1.00  0.00    -0.744 OA
ENDBRANCH  75  78
ENDBRANCH  47  71
BRANCH  59  82
ATOM     82  C   UNL A   1      47.132  25.933  32.864  1.00  0.00     0.023 A 
ATOM     83  C   UNL A   1      48.415  26.340  32.448  1.00  0.00     0.012 A 
ATOM     84  C   UNL A   1      47.008  24.857  33.765  1.00  0.00     0.148 A 
ATOM     85  C   UNL A   1      49.552  25.660  32.887  1.00  0.00     0.002 A 
ATOM     86  C   UNL A   1      48.148  24.219  34.240  1.00  0.00     0.091 A 
ATOM     87  F   UNL A   1      45.779  24.470  34.136  1.00  0.00    -0.205 F 
ATOM     88  C   UNL A   1      49.419  24.608  33.790  1.00  0.00     0.022 A 
BRANCH  86  89
ATOM     89  S   UNL A   1      48.077  22.921  35.480  1.00  0.00     0.127 S 
ATOM     90  O   UNL A   1      47.359  23.586  36.566  1.00  0.00    -0.237 OA
ATOM     91  O   UNL A   1      47.314  21.878  34.793  1.00  0.00    -0.237 OA
ATOM     92  O   UNL A   1      49.459  22.566  35.769  1.00  0.00    -0.744 OA
ENDBRANCH  86  89
ENDBRANCH  59  82
ENDBRANCH  33  34
ENDBRANCH  25  28
ENDBRANCH  23  24
ENDBRANCH  22  23
ENDBRANCH  21  22
ENDBRANCH  20  21
ENDBRANCH   1  20
TORSDOF 21
ENDMDL
MODEL 2
REMARK VINA RESULT:      -9.4      1.772      4.022
REMARK SMILES COC[C@@H](C)CC(=O)N1CC(CC(=O)NCCCCCCNC(=O)c2ccc(-c3c4nc(c(-c5cccc(S(=O)(=O)[O-])c5F)c5ccc([nH]5)c(-c5cccc(S(=O)(=O)[O-])c5F)c5nc(c(-c6cccc(S(=O)(=O)[O-])c6F)c6ccc3[nH]6)C=C5)C=C4)cc2)C1
REMARK SMILES IDX 17 1 16 2 15 3 13 4 14 5 12 7 11 8 7 9 8 10 9 11 10 12 88 13
REMARK SMILES IDX 6 14 4 15 5 16 3 17 2 18 1 19 18 20 19 21 20 22 21 23 22 24
REMARK SMILES IDX 23 25 24 27 25 28 26 29 87 30 27 31 86 32 28 33 29 34 30 35
REMARK SMILES IDX 80 36 31 37 85 38 79 39 81 40 32 41 84 42 78 43 77 44 33 46
REMARK SMILES IDX 65 47 45 48 64 49 46 50 49 51 63 52 82 53 47 54 48 55 62 57
REMARK SMILES IDX 83 58 50 59 34 60 35 61 43 62 36 63 38 64 44 65 37 66 39 67
REMARK SMILES IDX 40 68 41 69 42 70 66 71 67 72 75 73 68 74 70 75 76 76 69 77
REMARK SMILES IDX 71 78 72 79 73 80 74 81 51 82 52 83 60 84 53 85 55 86 61 87
REMARK SMILES IDX 54 88 56 89 57 90 58 91 59 92
REMARK H PARENT 15 6 22 26 81 45 49 56
REMARK Flexibility Score: inf
ROOT
ATOM      1  C   UNL A   1      32.528  26.727  26.427  1.00  0.00     0.021 C 
ENDROOT
BRANCH   1   2
ATOM      2  C   UNL A   1      32.552  25.721  25.271  1.00  0.00     0.116 C 
BRANCH   2   3
ATOM      3  N   UNL A   1      31.685  26.145  24.184  1.00  0.00    -0.356 N 
ATOM      4  C   UNL A   1      31.843  26.074  22.832  1.00  0.00     0.220 C 
ATOM      5  O   UNL A   1      30.982  26.596  22.120  1.00  0.00    -0.275 OA
ATOM      6  H   UNL A   1      30.837  26.552  24.474  1.00  0.00     0.163 HD
BRANCH   4   7
ATOM      7  C   UNL A   1      33.053  25.400  22.208  1.00  0.00     0.107 C 
BRANCH   7   8
ATOM      8  C   UNL A   1      32.901  23.886  22.111  1.00  0.00     0.037 C 
ATOM      9  C   UNL A   1      32.899  20.949  23.636  1.00  0.00     0.222 C 
ATOM     10  O   UNL A   1      32.153  20.195  23.015  1.00  0.00    -0.275 OA
ATOM     11  N   UNL A   1      32.870  22.317  23.484  1.00  0.00    -0.342 N 
ATOM     12  C   UNL A   1      31.816  23.157  22.921  1.00  0.00     0.125 C 
ATOM     13  C   UNL A   1      33.937  23.119  22.920  1.00  0.00     0.125 C 
BRANCH   9  14
ATOM     14  C   UNL A   1      33.811  20.445  24.758  1.00  0.00     0.106 C 
BRANCH  14  15
ATOM     15  C   UNL A   1      35.270  20.932  24.778  1.00  0.00     0.021 C 
ATOM     16  C   UNL A   1      36.212  19.718  24.813  1.00  0.00     0.010 C 
BRANCH  15  17
ATOM     17  C   UNL A   1      35.564  21.813  25.999  1.00  0.00     0.163 C 
BRANCH  17  18
ATOM     18  O   UNL A   1      36.919  22.236  26.056  1.00  0.00    -0.384 OA
ATOM     19  C   UNL A   1      37.120  23.546  25.557  1.00  0.00     0.194 C 
ENDBRANCH  17  18
ENDBRANCH  15  17
ENDBRANCH  14  15
ENDBRANCH   9  14
ENDBRANCH   7   8
ENDBRANCH   4   7
ENDBRANCH   2   3
ENDBRANCH   1   2
BRANCH   1  20
ATOM     20  C   UNL A   1      31.369  27.730  26.397  1.00  0.00     0.002 C 
BRANCH  20  21
ATOM     21  C   UNL A   1      31.706  29.114  25.829  1.00  0.00     0.002 C 
BRANCH  21  22
ATOM     22  C   UNL A   1      33.168  29.341  25.427  1.00  0.00     0.021 C 
BRANCH  22  23
ATOM     23  C   UNL A   1      34.150  29.499  26.587  1.00  0.00     0.116 C 
BRANCH  23  24
ATOM     24  N   UNL A   1      33.921  30.697  27.377  1.00  0.00    -0.352 N 
ATOM     25  C   UNL A   1      34.680  31.252  28.383  1.00  0.00     0.251 C 
ATOM     26  H   UNL A   1      33.096  31.186  27.160  1.00  0.00     0.163 HD
ATOM     27  O   UNL A   1      34.257  32.235  28.984  1.00  0.00    -0.269 OA
BRANCH  25  28
ATOM     28  C   UNL A   1      35.988  30.667  28.767  1.00  0.00     0.039 A 
ATOM     29  C   UNL A   1      37.075  30.814  27.904  1.00  0.00     0.014 A 
ATOM     30  C   UNL A   1      36.146  29.935  29.944  1.00  0.00     0.014 A 
ATOM     31  C   UNL A   1      38.319  30.273  28.250  1.00  0.00     0.010 A 
ATOM     32  C   UNL A   1      37.404  29.466  30.329  1.00  0.00     0.010 A 
ATOM     33  C   UNL A   1      38.508  29.618  29.480  1.00  0.00    -0.014 A 
BRANCH  33  34
ATOM     34  C   UNL A   1      39.854  29.101  29.865  1.00  0.00     0.031 A 
ATOM     35  C   UNL A   1      40.650  29.742  30.974  1.00  0.00     0.074 A 
ATOM     36  C   UNL A   1      40.383  28.059  29.191  1.00  0.00     0.049 A 
ATOM     37  N   UNL A   1      41.806  29.382  31.472  1.00  0.00    -0.248 NA
ATOM     38  C   UNL A   1      40.091  30.956  31.590  1.00  0.00     0.031 C 
ATOM     39  C   UNL A   1      39.766  27.396  28.040  1.00  0.00     0.029 A 
ATOM     40  N   UNL A   1      41.561  27.375  29.372  1.00  0.00    -0.354 N 
ATOM     41  C   UNL A   1      42.122  30.329  32.439  1.00  0.00     0.074 A 
ATOM     42  C   UNL A   1      41.058  31.309  32.425  1.00  0.00     0.031 C 
ATOM     43  C   UNL A   1      40.555  26.387  27.636  1.00  0.00     0.029 A 
ATOM     44  C   UNL A   1      41.747  26.346  28.476  1.00  0.00     0.049 A 
ATOM     45  H   UNL A   1      42.212  27.600  30.075  1.00  0.00     0.167 HD
ATOM     46  C   UNL A   1      43.181  30.369  33.285  1.00  0.00     0.034 A 
ATOM     47  C   UNL A   1      42.759  25.465  28.346  1.00  0.00     0.034 A 
ATOM     48  C   UNL A   1      44.226  29.381  33.322  1.00  0.00     0.049 A 
ATOM     49  C   UNL A   1      43.903  25.506  29.321  1.00  0.00     0.074 A 
ATOM     50  C   UNL A   1      45.295  29.292  34.197  1.00  0.00     0.029 A 
ATOM     51  N   UNL A   1      44.345  28.317  32.441  1.00  0.00    -0.354 N 
ATOM     52  N   UNL A   1      44.097  26.315  30.333  1.00  0.00    -0.248 NA
ATOM     53  C   UNL A   1      44.948  24.484  29.163  1.00  0.00     0.031 C 
ATOM     54  C   UNL A   1      46.079  28.195  33.823  1.00  0.00     0.029 A 
ATOM     55  C   UNL A   1      45.474  27.574  32.742  1.00  0.00     0.049 A 
ATOM     56  H   UNL A   1      43.718  28.120  31.708  1.00  0.00     0.167 HD
ATOM     57  C   UNL A   1      45.261  25.876  30.956  1.00  0.00     0.074 A 
ATOM     58  C   UNL A   1      45.716  24.716  30.219  1.00  0.00     0.031 C 
ATOM     59  C   UNL A   1      45.897  26.393  32.036  1.00  0.00     0.034 A 
BRANCH  46  60
ATOM     60  C   UNL A   1      43.243  31.503  34.279  1.00  0.00     0.023 A 
ATOM     61  C   UNL A   1      43.916  32.695  33.937  1.00  0.00     0.012 A 
ATOM     62  C   UNL A   1      42.588  31.416  35.522  1.00  0.00     0.148 A 
ATOM     63  C   UNL A   1      43.972  33.764  34.831  1.00  0.00     0.002 A 
ATOM     64  C   UNL A   1      42.605  32.504  36.389  1.00  0.00     0.091 A 
ATOM     65  F   UNL A   1      41.967  30.270  35.839  1.00  0.00    -0.205 F 
ATOM     66  C   UNL A   1      43.308  33.671  36.052  1.00  0.00     0.022 A 
BRANCH  64  67
ATOM     67  S   UNL A   1      41.712  32.517  37.947  1.00  0.00     0.127 S 
ATOM     68  O   UNL A   1      42.441  31.508  38.714  1.00  0.00    -0.237 OA
ATOM     69  O   UNL A   1      41.911  33.892  38.404  1.00  0.00    -0.237 OA
ATOM     70  O   UNL A   1      40.333  32.178  37.623  1.00  0.00    -0.744 OA
ENDBRANCH  64  67
ENDBRANCH  46  60
BRANCH  47  71
ATOM     71  C   UNL A   1      42.701  24.419  27.284  1.00  0.00     0.023 A 
ATOM     72  C   UNL A   1      43.266  24.677  26.019  1.00  0.00     0.012 A 
ATOM     73  C   UNL A   1      42.105  23.167  27.527  1.00  0.00     0.148 A 
ATOM     74  C   UNL A   1      43.206  23.721  25.004  1.00  0.00     0.002 A 
ATOM     75  C   UNL A   1      42.101  22.198  26.532  1.00  0.00     0.091 A 
ATOM     76  F   UNL A   1      41.566  22.945  28.734  1.00  0.00    -0.205 F 
ATOM     77  C   UNL A   1      42.633  22.478  25.263  1.00  0.00     0.022 A 
BRANCH  75  78
ATOM     78  S   UNL A   1      41.507  20.527  26.819  1.00  0.00     0.127 S 
ATOM     79  O   UNL A   1      40.080  20.751  27.039  1.00  0.00    -0.237 OA
ATOM     80  O   UNL A   1      41.841  19.868  25.556  1.00  0.00    -0.237 OA
ATOM     81  O   UNL A   1      42.253  20.035  27.969  1.00  0.00    -0.744 OA
ENDBRANCH  75  78
ENDBRANCH  47  71
BRANCH  59  82
ATOM     82  C   UNL A   1      47.133  25.682  32.527  1.00  0.00     0.023 A 
ATOM     83  C   UNL A   1      48.401  26.033  32.023  1.00  0.00     0.012 A 
ATOM     84  C   UNL A   1      47.039  24.701  33.535  1.00  0.00     0.148 A 
ATOM     85  C   UNL A   1      49.550  25.389  32.483  1.00  0.00     0.002 A 
ATOM     86  C   UNL A   1      48.193  24.103  34.027  1.00  0.00     0.091 A 
ATOM     87  F   UNL A   1      45.823  24.365  33.990  1.00  0.00    -0.205 F 
ATOM     88  C   UNL A   1      49.448  24.433  33.491  1.00  0.00     0.022 A 
BRANCH  86  89
ATOM     89  S   UNL A   1      48.164  22.935  35.392  1.00  0.00     0.127 S 
ATOM     90  O   UNL A   1      47.402  21.826  34.819  1.00  0.00    -0.237 OA
ATOM     91  O   UNL A   1      49.587  22.658  35.592  1.00  0.00    -0.237 OA
ATOM     92  O   UNL A   1      47.522  23.629  36.500  1.00  0.00    -0.744 OA
ENDBRANCH  86  89
ENDBRANCH  59  82
ENDBRANCH  33  34
ENDBRANCH  25  28
ENDBRANCH  23  24
ENDBRANCH  22  23
ENDBRANCH  21  22
ENDBRANCH  20  21
ENDBRANCH   1  20
TORSDOF 21
ENDMDL
MODEL 3
REMARK VINA RESULT:      -8.8      2.924      8.557
REMARK SMILES COC[C@@H](C)CC(=O)N1CC(CC(=O)NCCCCCCNC(=O)c2ccc(-c3c4nc(c(-c5cccc(S(=O)(=O)[O-])c5F)c5ccc([nH]5)c(-c5cccc(S(=O)(=O)[O-])c5F)c5nc(c(-c6cccc(S(=O)(=O)[O-])c6F)c6ccc3[nH]6)C=C5)C=C4)cc2)C1
REMARK SMILES IDX 17 1 16 2 15 3 13 4 14 5 12 7 11 8 7 9 8 10 9 11 10 12 88 13
REMARK SMILES IDX 6 14 4 15 5 16 3 17 2 18 1 19 18 20 19 21 20 22 21 23 22 24
REMARK SMILES IDX 23 25 24 27 25 28 26 29 87 30 27 31 86 32 28 33 29 34 30 35
REMARK SMILES IDX 80 36 31 37 85 38 79 39 81 40 32 41 84 42 78 43 77 44 33 46
REMARK SMILES IDX 65 47 45 48 64 49 46 50 49 51 63 52 82 53 47 54 48 55 62 57
REMARK SMILES IDX 83 58 50 59 34 60 35 61 43 62 36 63 38 64 44 65 37 66 39 67
REMARK SMILES IDX 40 68 41 69 42 70 66 71 67 72 75 73 68 74 70 75 76 76 69 77
REMARK SMILES IDX 71 78 72 79 73 80 74 81 51 82 52 83 60 84 53 85 55 86 61 87
REMARK SMILES IDX 54 88 56 89 57 90 58 91 59 92
REMARK H PARENT 15 6 22 26 81 45 49 56
REMARK Flexibility Score: inf
ROOT
ATOM      1  C   UNL A   1      36.435  20.673  25.022  1.00  0.00     0.021 C 
ENDROOT
BRANCH   1   2
ATOM      2  C   UNL A   1      35.136  20.945  25.790  1.00  0.00     0.116 C 
BRANCH   2   3
ATOM      3  N   UNL A   1      34.065  20.070  25.342  1.00  0.00    -0.356 N 
ATOM      4  C   UNL A   1      32.735  20.304  25.156  1.00  0.00     0.220 C 
ATOM      5  O   UNL A   1      32.016  19.351  24.850  1.00  0.00    -0.275 OA
ATOM      6  H   UNL A   1      34.349  19.150  25.136  1.00  0.00     0.163 HD
BRANCH   4   7
ATOM      7  C   UNL A   1      32.138  21.689  25.345  1.00  0.00     0.107 C 
BRANCH   7   8
ATOM      8  C   UNL A   1      32.115  22.503  24.055  1.00  0.00     0.037 C 
ATOM      9  C   UNL A   1      33.280  25.068  22.320  1.00  0.00     0.222 C 
ATOM     10  O   UNL A   1      33.202  24.789  21.125  1.00  0.00    -0.275 OA
ATOM     11  N   UNL A   1      33.206  24.118  23.312  1.00  0.00    -0.342 N 
ATOM     12  C   UNL A   1      33.392  22.672  23.216  1.00  0.00     0.125 C 
ATOM     13  C   UNL A   1      32.139  24.007  24.287  1.00  0.00     0.125 C 
BRANCH   9  14
ATOM     14  C   UNL A   1      33.635  26.476  22.802  1.00  0.00     0.106 C 
BRANCH  14  15
ATOM     15  C   UNL A   1      32.724  27.640  22.374  1.00  0.00     0.021 C 
ATOM     16  C   UNL A   1      33.204  28.937  23.043  1.00  0.00     0.010 C 
BRANCH  15  17
ATOM     17  C   UNL A   1      31.262  27.398  22.769  1.00  0.00     0.163 C 
BRANCH  17  18
ATOM     18  O   UNL A   1      30.354  28.208  22.033  1.00  0.00    -0.384 OA
ATOM     19  C   UNL A   1      29.175  28.523  22.750  1.00  0.00     0.194 C 
ENDBRANCH  17  18
ENDBRANCH  15  17
ENDBRANCH  14  15
ENDBRANCH   9  14
ENDBRANCH   7   8
ENDBRANCH   4   7
ENDBRANCH   2   3
ENDBRANCH   1   2
BRANCH   1  20
ATOM     20  C   UNL A   1      37.448  21.822  25.024  1.00  0.00     0.002 C 
BRANCH  20  21
ATOM     21  C   UNL A   1      38.864  21.456  25.487  1.00  0.00     0.002 C 
BRANCH  21  22
ATOM     22  C   UNL A   1      39.571  22.489  26.374  1.00  0.00     0.021 C 
BRANCH  22  23
ATOM     23  C   UNL A   1      41.025  22.172  26.718  1.00  0.00     0.116 C 
BRANCH  23  24
ATOM     24  N   UNL A   1      41.971  22.656  25.728  1.00  0.00    -0.352 N 
ATOM     25  C   UNL A   1      42.675  23.838  25.679  1.00  0.00     0.251 C 
ATOM     26  H   UNL A   1      42.134  22.044  24.975  1.00  0.00     0.163 HD
ATOM     27  O   UNL A   1      43.368  24.087  24.697  1.00  0.00    -0.269 OA
BRANCH  25  28
ATOM     28  C   UNL A   1      42.590  24.826  26.783  1.00  0.00     0.039 A 
ATOM     29  C   UNL A   1      41.764  24.552  27.874  1.00  0.00     0.014 A 
ATOM     30  C   UNL A   1      43.277  26.039  26.735  1.00  0.00     0.014 A 
ATOM     31  C   UNL A   1      41.673  25.469  28.928  1.00  0.00     0.010 A 
ATOM     32  C   UNL A   1      43.252  26.917  27.821  1.00  0.00     0.010 A 
ATOM     33  C   UNL A   1      42.438  26.649  28.930  1.00  0.00    -0.014 A 
BRANCH  33  34
ATOM     34  C   UNL A   1      42.380  27.587  30.088  1.00  0.00     0.031 A 
ATOM     35  C   UNL A   1      43.237  27.375  31.311  1.00  0.00     0.074 A 
ATOM     36  C   UNL A   1      41.527  28.632  30.055  1.00  0.00     0.049 A 
ATOM     37  N   UNL A   1      43.351  28.126  32.378  1.00  0.00    -0.248 NA
ATOM     38  C   UNL A   1      44.053  26.151  31.357  1.00  0.00     0.031 C 
ATOM     39  C   UNL A   1      40.576  28.912  28.977  1.00  0.00     0.029 A 
ATOM     40  N   UNL A   1      41.315  29.650  30.954  1.00  0.00    -0.354 N 
ATOM     41  C   UNL A   1      44.230  27.462  33.226  1.00  0.00     0.074 A 
ATOM     42  C   UNL A   1      44.583  26.221  32.570  1.00  0.00     0.031 C 
ATOM     43  C   UNL A   1      39.905  30.040  29.262  1.00  0.00     0.029 A 
ATOM     44  C   UNL A   1      40.351  30.549  30.555  1.00  0.00     0.049 A 
ATOM     45  H   UNL A   1      41.806  29.730  31.803  1.00  0.00     0.167 HD
ATOM     46  C   UNL A   1      44.726  27.856  34.424  1.00  0.00     0.034 A 
ATOM     47  C   UNL A   1      39.882  31.661  31.155  1.00  0.00     0.034 A 
ATOM     48  C   UNL A   1      44.401  29.102  35.065  1.00  0.00     0.049 A 
ATOM     49  C   UNL A   1      40.477  32.098  32.467  1.00  0.00     0.074 A 
ATOM     50  C   UNL A   1      44.916  29.626  36.239  1.00  0.00     0.029 A 
ATOM     51  N   UNL A   1      43.469  30.017  34.598  1.00  0.00    -0.354 N 
ATOM     52  N   UNL A   1      41.427  31.535  33.171  1.00  0.00    -0.248 NA
ATOM     53  C   UNL A   1      39.963  33.348  33.045  1.00  0.00     0.031 C 
ATOM     54  C   UNL A   1      44.270  30.839  36.500  1.00  0.00     0.029 A 
ATOM     55  C   UNL A   1      43.385  31.094  35.464  1.00  0.00     0.049 A 
ATOM     56  H   UNL A   1      42.945  29.914  33.771  1.00  0.00     0.167 HD
ATOM     57  C   UNL A   1      41.654  32.381  34.251  1.00  0.00     0.074 A 
ATOM     58  C   UNL A   1      40.755  33.505  34.097  1.00  0.00     0.031 C 
ATOM     59  C   UNL A   1      42.524  32.234  35.281  1.00  0.00     0.034 A 
BRANCH  46  60
ATOM     60  C   UNL A   1      45.716  26.945  35.108  1.00  0.00     0.023 A 
ATOM     61  C   UNL A   1      47.098  27.195  34.982  1.00  0.00     0.012 A 
ATOM     62  C   UNL A   1      45.281  25.880  35.921  1.00  0.00     0.148 A 
ATOM     63  C   UNL A   1      48.032  26.378  35.620  1.00  0.00     0.002 A 
ATOM     64  C   UNL A   1      46.216  25.100  36.594  1.00  0.00     0.091 A 
ATOM     65  F   UNL A   1      43.964  25.645  36.018  1.00  0.00    -0.205 F 
ATOM     66  C   UNL A   1      47.590  25.337  36.433  1.00  0.00     0.022 A 
BRANCH  64  67
ATOM     67  S   UNL A   1      45.748  23.790  37.731  1.00  0.00     0.127 S 
ATOM     68  O   UNL A   1      44.693  24.438  38.509  1.00  0.00    -0.237 OA
ATOM     69  O   UNL A   1      45.279  22.745  36.820  1.00  0.00    -0.237 OA
ATOM     70  O   UNL A   1      46.954  23.452  38.474  1.00  0.00    -0.744 OA
ENDBRANCH  64  67
ENDBRANCH  46  60
BRANCH  47  71
ATOM     71  C   UNL A   1      38.831  32.480  30.486  1.00  0.00     0.023 A 
ATOM     72  C   UNL A   1      39.201  33.617  29.741  1.00  0.00     0.012 A 
ATOM     73  C   UNL A   1      37.471  32.129  30.571  1.00  0.00     0.148 A 
ATOM     74  C   UNL A   1      38.232  34.410  29.124  1.00  0.00     0.002 A 
ATOM     75  C   UNL A   1      36.516  32.887  29.905  1.00  0.00     0.091 A 
ATOM     76  F   UNL A   1      37.139  31.048  31.292  1.00  0.00    -0.205 F 
ATOM     77  C   UNL A   1      36.892  34.040  29.197  1.00  0.00     0.022 A 
BRANCH  75  78
ATOM     78  S   UNL A   1      34.787  32.410  29.833  1.00  0.00     0.127 S 
ATOM     79  O   UNL A   1      34.432  32.353  31.249  1.00  0.00    -0.237 OA
ATOM     80  O   UNL A   1      34.198  33.527  29.093  1.00  0.00    -0.237 OA
ATOM     81  O   UNL A   1      34.757  31.138  29.124  1.00  0.00    -0.744 OA
ENDBRANCH  75  78
ENDBRANCH  47  71
BRANCH  59  82
ATOM     82  C   UNL A   1      42.589  33.339  36.305  1.00  0.00     0.023 A 
ATOM     83  C   UNL A   1      43.549  34.364  36.183  1.00  0.00     0.012 A 
ATOM     84  C   UNL A   1      41.656  33.391  37.360  1.00  0.00     0.148 A 
ATOM     85  C   UNL A   1      43.607  35.396  37.120  1.00  0.00     0.002 A 
ATOM     86  C   UNL A   1      41.685  34.451  38.258  1.00  0.00     0.091 A 
ATOM     87  F   UNL A   1      40.762  32.398  37.473  1.00  0.00    -0.205 F 
ATOM     88  C   UNL A   1      42.670  35.446  38.149  1.00  0.00     0.022 A 
BRANCH  86  89
ATOM     89  S   UNL A   1      40.457  34.649  39.553  1.00  0.00     0.127 S 
ATOM     90  O   UNL A   1      40.702  33.467  40.379  1.00  0.00    -0.237 OA
ATOM     91  O   UNL A   1      40.857  35.916  40.168  1.00  0.00    -0.237 OA
ATOM     92  O   UNL A   1      39.166  34.686  38.880  1.00  0.00    -0.744 OA
ENDBRANCH  86  89
ENDBRANCH  59  82
ENDBRANCH  33  34
ENDBRANCH  25  28
ENDBRANCH  23  24
ENDBRANCH  22  23
ENDBRANCH  21  22
ENDBRANCH  20  21
ENDBRANCH   1  20
TORSDOF 21
ENDMDL
