MODEL 1
REMARK VINA RESULT:      -9.5      0.000      0.000
REMARK SMILES CN(C[C@H]1C[C@H](O)C1)C(=O)NCCOCC(=O)NCCCCCCNC(=O)c1ccc(-c2c3nc(c(-c4cccc(S(=O)(=O)[O-])c4F)c4ccc([nH]4)c(-c4cccc(S(=O)(=O)[O-])c4F)c4nc(c(-c5cccc(S(=O)(=O)[O-])c5F)c5ccc2[nH]5)C=C4)C=C3)cc1
REMARK SMILES IDX 19 1 18 2 16 3 17 4 15 6 14 7 13 8 12 9 11 10 9 11 10 12
REMARK SMILES IDX 2 14 1 15 3 16 4 17 8 18 5 19 6 20 7 21 20 23 21 24 22 25
REMARK SMILES IDX 23 26 24 27 25 28 26 29 27 31 28 32 29 33 90 34 30 35 89 36
REMARK SMILES IDX 31 37 32 38 33 39 83 40 34 41 88 42 82 43 84 44 35 45 87 46
REMARK SMILES IDX 81 47 80 48 36 50 68 51 48 52 67 53 49 54 52 55 66 56 85 57
REMARK SMILES IDX 50 58 51 59 65 61 86 62 53 63 37 64 38 65 46 66 39 67 41 68
REMARK SMILES IDX 47 69 40 70 42 71 43 72 44 73 45 74 69 75 70 76 78 77 71 78
REMARK SMILES IDX 73 79 79 80 72 81 74 82 75 83 76 84 77 85 54 86 55 87 63 88
REMARK SMILES IDX 56 89 58 90 64 91 57 92 59 93 60 94 61 95 62 96
REMARK H PARENT 18 5 11 13 7 22 25 30 84 49 52 60
REMARK Flexibility Score: inf
ROOT
ATOM      1  C   UNL A   1      35.593  23.540  25.600  1.00  0.00     0.116 C 
ENDROOT
BRANCH   1   2
ATOM      2  N   UNL A   1      34.702  23.332  24.474  1.00  0.00    -0.354 N 
ATOM      3  C   UNL A   1      33.502  22.686  24.454  1.00  0.00     0.245 C 
ATOM      4  O   UNL A   1      32.865  22.650  23.402  1.00  0.00    -0.272 OA
ATOM      5  H   UNL A   1      35.003  23.708  23.615  1.00  0.00     0.163 HD
BRANCH   3   6
ATOM      6  C   UNL A   1      32.979  22.029  25.741  1.00  0.00     0.260 C 
BRANCH   6   7
ATOM      7  O   UNL A   1      32.329  22.833  26.711  1.00  0.00    -0.370 OA
BRANCH   7   8
ATOM      8  C   UNL A   1      30.937  23.057  26.487  1.00  0.00     0.182 C 
BRANCH   8   9
ATOM      9  C   UNL A   1      30.618  24.373  25.762  1.00  0.00     0.146 C 
BRANCH   9  10
ATOM     10  N   UNL A   1      30.808  25.554  26.587  1.00  0.00    -0.336 N 
ATOM     11  C   UNL A   1      31.434  26.736  26.529  1.00  0.00     0.317 C 
ATOM     12  O   UNL A   1      31.193  27.485  27.484  1.00  0.00    -0.249 OA
ATOM     13  H   UNL A   1      30.335  25.457  27.444  1.00  0.00     0.165 HD
BRANCH  11  14
ATOM     14  N   UNL A   1      32.269  27.130  25.521  1.00  0.00    -0.328 N 
ATOM     15  C   UNL A   1      33.689  27.099  25.866  1.00  0.00     0.148 C 
BRANCH  14  16
ATOM     16  C   UNL A   1      31.967  27.522  24.146  1.00  0.00     0.124 C 
BRANCH  16  17
ATOM     17  C   UNL A   1      32.375  26.425  23.176  1.00  0.00     0.014 C 
ATOM     18  C   UNL A   1      33.557  26.596  22.175  1.00  0.00     0.037 C 
ATOM     19  C   UNL A   1      31.477  26.211  21.927  1.00  0.00     0.037 C 
ATOM     20  C   UNL A   1      32.746  25.746  21.173  1.00  0.00     0.115 C 
BRANCH  20  21
ATOM     21  O   UNL A   1      33.008  24.328  21.162  1.00  0.00    -0.393 OA
ATOM     22  H   UNL A   1      33.958  24.174  21.294  1.00  0.00     0.210 HD
ENDBRANCH  20  21
ENDBRANCH  16  17
ENDBRANCH  14  16
ENDBRANCH  11  14
ENDBRANCH   9  10
ENDBRANCH   8   9
ENDBRANCH   7   8
ENDBRANCH   6   7
ENDBRANCH   3   6
ENDBRANCH   1   2
BRANCH   1  23
ATOM     23  C   UNL A   1      37.011  23.061  25.289  1.00  0.00     0.021 C 
BRANCH  23  24
ATOM     24  C   UNL A   1      37.099  21.930  24.255  1.00  0.00     0.002 C 
BRANCH  24  25
ATOM     25  C   UNL A   1      36.938  20.512  24.815  1.00  0.00     0.002 C 
BRANCH  25  26
ATOM     26  C   UNL A   1      38.237  19.721  24.976  1.00  0.00     0.021 C 
BRANCH  26  27
ATOM     27  C   UNL A   1      39.168  20.232  26.071  1.00  0.00     0.116 C 
BRANCH  27  28
ATOM     28  N   UNL A   1      40.434  19.515  26.097  1.00  0.00    -0.352 N 
ATOM     29  C   UNL A   1      41.708  20.007  26.248  1.00  0.00     0.251 C 
ATOM     30  H   UNL A   1      40.368  18.538  25.990  1.00  0.00     0.163 HD
ATOM     31  O   UNL A   1      42.673  19.274  26.061  1.00  0.00    -0.269 OA
BRANCH  29  32
ATOM     32  C   UNL A   1      41.912  21.424  26.620  1.00  0.00     0.039 A 
ATOM     33  C   UNL A   1      42.100  21.750  27.965  1.00  0.00     0.014 A 
ATOM     34  C   UNL A   1      41.911  22.431  25.649  1.00  0.00     0.014 A 
ATOM     35  C   UNL A   1      42.341  23.077  28.331  1.00  0.00     0.010 A 
ATOM     36  C   UNL A   1      42.227  23.739  26.006  1.00  0.00     0.010 A 
ATOM     37  C   UNL A   1      42.436  24.079  27.351  1.00  0.00    -0.014 A 
BRANCH  37  38
ATOM     38  C   UNL A   1      42.763  25.483  27.715  1.00  0.00     0.031 A 
ATOM     39  C   UNL A   1      44.185  25.975  27.648  1.00  0.00     0.074 A 
ATOM     40  C   UNL A   1      41.794  26.292  28.183  1.00  0.00     0.049 A 
ATOM     41  N   UNL A   1      44.666  27.149  27.967  1.00  0.00    -0.248 NA
ATOM     42  C   UNL A   1      45.203  25.017  27.185  1.00  0.00     0.031 C 
ATOM     43  C   UNL A   1      40.392  25.910  28.372  1.00  0.00     0.029 A 
ATOM     44  N   UNL A   1      41.842  27.596  28.611  1.00  0.00    -0.354 N 
ATOM     45  C   UNL A   1      46.041  27.060  27.780  1.00  0.00     0.074 A 
ATOM     46  C   UNL A   1      46.321  25.708  27.352  1.00  0.00     0.031 C 
ATOM     47  C   UNL A   1      39.714  26.957  28.871  1.00  0.00     0.029 A 
ATOM     48  C   UNL A   1      40.634  28.072  29.068  1.00  0.00     0.049 A 
ATOM     49  H   UNL A   1      42.663  28.138  28.591  1.00  0.00     0.167 HD
ATOM     50  C   UNL A   1      46.981  28.024  27.923  1.00  0.00     0.034 A 
ATOM     51  C   UNL A   1      40.307  29.268  29.596  1.00  0.00     0.034 A 
ATOM     52  C   UNL A   1      46.694  29.379  28.310  1.00  0.00     0.049 A 
ATOM     53  C   UNL A   1      41.364  30.332  29.709  1.00  0.00     0.074 A 
ATOM     54  C   UNL A   1      47.565  30.452  28.397  1.00  0.00     0.029 A 
ATOM     55  N   UNL A   1      45.445  29.848  28.688  1.00  0.00    -0.354 N 
ATOM     56  N   UNL A   1      42.630  30.276  29.375  1.00  0.00    -0.248 NA
ATOM     57  C   UNL A   1      40.939  31.637  30.237  1.00  0.00     0.031 C 
ATOM     58  C   UNL A   1      46.847  31.561  28.858  1.00  0.00     0.029 A 
ATOM     59  C   UNL A   1      45.523  31.190  29.020  1.00  0.00     0.049 A 
ATOM     60  H   UNL A   1      44.624  29.305  28.714  1.00  0.00     0.167 HD
ATOM     61  C   UNL A   1      43.145  31.546  29.615  1.00  0.00     0.074 A 
ATOM     62  C   UNL A   1      42.046  32.355  30.104  1.00  0.00     0.031 C 
ATOM     63  C   UNL A   1      44.413  31.997  29.457  1.00  0.00     0.034 A 
BRANCH  50  64
ATOM     64  C   UNL A   1      48.411  27.661  27.611  1.00  0.00     0.023 A 
ATOM     65  C   UNL A   1      49.235  27.136  28.628  1.00  0.00     0.012 A 
ATOM     66  C   UNL A   1      48.922  27.782  26.304  1.00  0.00     0.148 A 
ATOM     67  C   UNL A   1      50.555  26.774  28.358  1.00  0.00     0.002 A 
ATOM     68  C   UNL A   1      50.222  27.374  26.032  1.00  0.00     0.091 A 
ATOM     69  F   UNL A   1      48.131  28.301  25.354  1.00  0.00    -0.205 F 
ATOM     70  C   UNL A   1      51.043  26.882  27.060  1.00  0.00     0.022 A 
BRANCH  68  71
ATOM     71  S   UNL A   1      50.920  27.396  24.376  1.00  0.00     0.127 S 
ATOM     72  O   UNL A   1      49.910  26.653  23.622  1.00  0.00    -0.237 OA
ATOM     73  O   UNL A   1      50.968  28.829  24.082  1.00  0.00    -0.237 OA
ATOM     74  O   UNL A   1      52.221  26.752  24.480  1.00  0.00    -0.744 OA
ENDBRANCH  68  71
ENDBRANCH  50  64
BRANCH  51  75
ATOM     75  C   UNL A   1      38.899  29.542  30.002  1.00  0.00     0.023 A 
ATOM     76  C   UNL A   1      38.477  29.215  31.306  1.00  0.00     0.012 A 
ATOM     77  C   UNL A   1      37.985  30.143  29.116  1.00  0.00     0.148 A 
ATOM     78  C   UNL A   1      37.162  29.448  31.708  1.00  0.00     0.002 A 
ATOM     79  C   UNL A   1      36.692  30.426  29.541  1.00  0.00     0.091 A 
ATOM     80  F   UNL A   1      38.403  30.439  27.877  1.00  0.00    -0.205 F 
ATOM     81  C   UNL A   1      36.273  30.062  30.830  1.00  0.00     0.022 A 
BRANCH  79  82
ATOM     82  S   UNL A   1      35.520  31.332  28.525  1.00  0.00     0.127 S 
ATOM     83  O   UNL A   1      34.564  31.806  29.523  1.00  0.00    -0.237 OA
ATOM     84  O   UNL A   1      36.368  32.372  27.941  1.00  0.00    -0.237 OA
ATOM     85  O   UNL A   1      35.004  30.367  27.563  1.00  0.00    -0.744 OA
ENDBRANCH  79  82
ENDBRANCH  51  75
BRANCH  63  86
ATOM     86  C   UNL A   1      44.685  33.446  29.774  1.00  0.00     0.023 A 
ATOM     87  C   UNL A   1      45.075  33.822  31.074  1.00  0.00     0.012 A 
ATOM     88  C   UNL A   1      44.620  34.424  28.761  1.00  0.00     0.148 A 
ATOM     89  C   UNL A   1      45.361  35.155  31.371  1.00  0.00     0.002 A 
ATOM     90  C   UNL A   1      44.957  35.741  29.051  1.00  0.00     0.091 A 
ATOM     91  F   UNL A   1      44.229  34.049  27.534  1.00  0.00    -0.205 F 
ATOM     92  C   UNL A   1      45.314  36.110  30.358  1.00  0.00     0.022 A 
BRANCH  90  93
ATOM     93  S   UNL A   1      45.021  37.018  27.790  1.00  0.00     0.127 S 
ATOM     94  O   UNL A   1      45.983  36.454  26.844  1.00  0.00    -0.237 OA
ATOM     95  O   UNL A   1      43.639  37.049  27.311  1.00  0.00    -0.237 OA
ATOM     96  O   UNL A   1      45.452  38.232  28.469  1.00  0.00    -0.744 OA
ENDBRANCH  90  93
ENDBRANCH  63  86
ENDBRANCH  37  38
ENDBRANCH  29  32
ENDBRANCH  27  28
ENDBRANCH  26  27
ENDBRANCH  25  26
ENDBRANCH  24  25
ENDBRANCH  23  24
ENDBRANCH   1  23
TORSDOF 24
ENDMDL
MODEL 2
REMARK VINA RESULT:      -9.4      5.868      9.264
REMARK SMILES CN(C[C@H]1C[C@H](O)C1)C(=O)NCCOCC(=O)NCCCCCCNC(=O)c1ccc(-c2c3nc(c(-c4cccc(S(=O)(=O)[O-])c4F)c4ccc([nH]4)c(-c4cccc(S(=O)(=O)[O-])c4F)c4nc(c(-c5cccc(S(=O)(=O)[O-])c5F)c5ccc2[nH]5)C=C4)C=C3)cc1
REMARK SMILES IDX 19 1 18 2 16 3 17 4 15 6 14 7 13 8 12 9 11 10 9 11 10 12
REMARK SMILES IDX 2 14 1 15 3 16 4 17 8 18 5 19 6 20 7 21 20 23 21 24 22 25
REMARK SMILES IDX 23 26 24 27 25 28 26 29 27 31 28 32 29 33 90 34 30 35 89 36
REMARK SMILES IDX 31 37 32 38 33 39 83 40 34 41 88 42 82 43 84 44 35 45 87 46
REMARK SMILES IDX 81 47 80 48 36 50 68 51 48 52 67 53 49 54 52 55 66 56 85 57
REMARK SMILES IDX 50 58 51 59 65 61 86 62 53 63 37 64 38 65 46 66 39 67 41 68
REMARK SMILES IDX 47 69 40 70 42 71 43 72 44 73 45 74 69 75 70 76 78 77 71 78
REMARK SMILES IDX 73 79 79 80 72 81 74 82 75 83 76 84 77 85 54 86 55 87 63 88
REMARK SMILES IDX 56 89 58 90 64 91 57 92 59 93 60 94 61 95 62 96
REMARK H PARENT 18 5 11 13 7 22 25 30 84 49 52 60
REMARK Flexibility Score: inf
ROOT
ATOM      1  C   UNL A   1      33.823  28.753  25.551  1.00  0.00     0.116 C 
ENDROOT
BRANCH   1   2
ATOM      2  N   UNL A   1      33.176  29.140  24.312  1.00  0.00    -0.354 N 
ATOM      3  C   UNL A   1      32.559  28.342  23.397  1.00  0.00     0.245 C 
ATOM      4  O   UNL A   1      32.024  28.863  22.419  1.00  0.00    -0.272 OA
ATOM      5  H   UNL A   1      33.183  30.104  24.108  1.00  0.00     0.163 HD
BRANCH   3   6
ATOM      6  C   UNL A   1      32.542  26.821  23.613  1.00  0.00     0.260 C 
BRANCH   6   7
ATOM      7  O   UNL A   1      31.367  26.092  23.301  1.00  0.00    -0.370 OA
BRANCH   7   8
ATOM      8  C   UNL A   1      30.388  26.036  24.337  1.00  0.00     0.182 C 
BRANCH   8   9
ATOM      9  C   UNL A   1      30.966  25.801  25.740  1.00  0.00     0.146 C 
BRANCH   9  10
ATOM     10  N   UNL A   1      30.307  24.730  26.470  1.00  0.00    -0.336 N 
ATOM     11  C   UNL A   1      30.526  23.452  26.802  1.00  0.00     0.317 C 
ATOM     12  O   UNL A   1      29.678  22.974  27.567  1.00  0.00    -0.249 OA
ATOM     13  H   UNL A   1      29.443  25.036  26.827  1.00  0.00     0.165 HD
BRANCH  11  14
ATOM     14  N   UNL A   1      31.581  22.700  26.366  1.00  0.00    -0.328 N 
ATOM     15  C   UNL A   1      32.769  22.775  27.214  1.00  0.00     0.148 C 
BRANCH  14  16
ATOM     16  C   UNL A   1      31.685  21.798  25.220  1.00  0.00     0.124 C 
BRANCH  16  17
ATOM     17  C   UNL A   1      32.040  22.573  23.962  1.00  0.00     0.014 C 
ATOM     18  C   UNL A   1      32.233  21.877  22.582  1.00  0.00     0.037 C 
ATOM     19  C   UNL A   1      33.510  23.053  23.814  1.00  0.00     0.037 C 
ATOM     20  C   UNL A   1      33.334  22.917  22.283  1.00  0.00     0.115 C 
BRANCH  20  21
ATOM     21  O   UNL A   1      32.930  24.104  21.571  1.00  0.00    -0.393 OA
ATOM     22  H   UNL A   1      32.272  23.869  20.897  1.00  0.00     0.210 HD
ENDBRANCH  20  21
ENDBRANCH  16  17
ENDBRANCH  14  16
ENDBRANCH  11  14
ENDBRANCH   9  10
ENDBRANCH   8   9
ENDBRANCH   7   8
ENDBRANCH   6   7
ENDBRANCH   3   6
ENDBRANCH   1   2
BRANCH   1  23
ATOM     23  C   UNL A   1      32.846  28.779  26.726  1.00  0.00     0.021 C 
BRANCH  23  24
ATOM     24  C   UNL A   1      32.524  30.178  27.268  1.00  0.00     0.002 C 
BRANCH  24  25
ATOM     25  C   UNL A   1      31.531  30.996  26.434  1.00  0.00     0.002 C 
BRANCH  25  26
ATOM     26  C   UNL A   1      31.403  32.469  26.829  1.00  0.00     0.021 C 
BRANCH  26  27
ATOM     27  C   UNL A   1      32.718  33.160  27.171  1.00  0.00     0.116 C 
BRANCH  27  28
ATOM     28  N   UNL A   1      32.513  34.450  27.809  1.00  0.00    -0.352 N 
ATOM     29  C   UNL A   1      33.110  34.969  28.932  1.00  0.00     0.251 C 
ATOM     30  H   UNL A   1      31.852  35.036  27.373  1.00  0.00     0.163 HD
ATOM     31  O   UNL A   1      32.680  36.004  29.432  1.00  0.00    -0.269 OA
BRANCH  29  32
ATOM     32  C   UNL A   1      34.259  34.269  29.548  1.00  0.00     0.039 A 
ATOM     33  C   UNL A   1      35.545  34.529  29.067  1.00  0.00     0.014 A 
ATOM     34  C   UNL A   1      34.071  33.353  30.588  1.00  0.00     0.014 A 
ATOM     35  C   UNL A   1      36.647  33.913  29.666  1.00  0.00     0.010 A 
ATOM     36  C   UNL A   1      35.175  32.800  31.232  1.00  0.00     0.010 A 
ATOM     37  C   UNL A   1      36.474  33.066  30.774  1.00  0.00    -0.014 A 
BRANCH  37  38
ATOM     38  C   UNL A   1      37.640  32.459  31.468  1.00  0.00     0.031 A 
ATOM     39  C   UNL A   1      38.394  31.320  30.835  1.00  0.00     0.074 A 
ATOM     40  C   UNL A   1      37.972  32.880  32.704  1.00  0.00     0.049 A 
ATOM     41  N   UNL A   1      39.406  30.638  31.307  1.00  0.00    -0.248 NA
ATOM     42  C   UNL A   1      37.937  30.871  29.509  1.00  0.00     0.031 C 
ATOM     43  C   UNL A   1      37.271  33.922  33.459  1.00  0.00     0.029 A 
ATOM     44  N   UNL A   1      38.967  32.468  33.555  1.00  0.00    -0.354 N 
ATOM     45  C   UNL A   1      39.682  29.660  30.359  1.00  0.00     0.074 A 
ATOM     46  C   UNL A   1      38.710  29.815  29.299  1.00  0.00     0.031 C 
ATOM     47  C   UNL A   1      37.861  34.070  34.656  1.00  0.00     0.029 A 
ATOM     48  C   UNL A   1      38.959  33.116  34.769  1.00  0.00     0.049 A 
ATOM     49  H   UNL A   1      39.625  31.774  33.318  1.00  0.00     0.167 HD
ATOM     50  C   UNL A   1      40.672  28.736  30.354  1.00  0.00     0.034 A 
ATOM     51  C   UNL A   1      39.741  32.953  35.854  1.00  0.00     0.034 A 
ATOM     52  C   UNL A   1      41.661  28.611  31.392  1.00  0.00     0.049 A 
ATOM     53  C   UNL A   1      40.857  31.945  35.809  1.00  0.00     0.074 A 
ATOM     54  C   UNL A   1      42.756  27.766  31.437  1.00  0.00     0.029 A 
ATOM     55  N   UNL A   1      41.670  29.340  32.571  1.00  0.00    -0.354 N 
ATOM     56  N   UNL A   1      41.200  31.138  34.835  1.00  0.00    -0.248 NA
ATOM     57  C   UNL A   1      41.715  31.850  36.998  1.00  0.00     0.031 C 
ATOM     58  C   UNL A   1      43.410  27.963  32.658  1.00  0.00     0.029 A 
ATOM     59  C   UNL A   1      42.744  28.957  33.356  1.00  0.00     0.049 A 
ATOM     60  H   UNL A   1      41.010  30.029  32.812  1.00  0.00     0.167 HD
ATOM     61  C   UNL A   1      42.336  30.468  35.276  1.00  0.00     0.074 A 
ATOM     62  C   UNL A   1      42.633  30.980  36.598  1.00  0.00     0.031 C 
ATOM     63  C   UNL A   1      43.059  29.508  34.649  1.00  0.00     0.034 A 
BRANCH  50  64
ATOM     64  C   UNL A   1      40.766  27.814  29.166  1.00  0.00     0.023 A 
ATOM     65  C   UNL A   1      39.947  26.668  29.105  1.00  0.00     0.012 A 
ATOM     66  C   UNL A   1      41.619  28.110  28.084  1.00  0.00     0.148 A 
ATOM     67  C   UNL A   1      40.002  25.811  28.006  1.00  0.00     0.002 A 
ATOM     68  C   UNL A   1      41.633  27.278  26.971  1.00  0.00     0.091 A 
ATOM     69  F   UNL A   1      42.405  29.193  28.167  1.00  0.00    -0.205 F 
ATOM     70  C   UNL A   1      40.835  26.123  26.936  1.00  0.00     0.022 A 
BRANCH  68  71
ATOM     71  S   UNL A   1      42.610  27.634  25.506  1.00  0.00     0.127 S 
ATOM     72  O   UNL A   1      43.965  27.666  26.057  1.00  0.00    -0.237 OA
ATOM     73  O   UNL A   1      42.324  26.476  24.657  1.00  0.00    -0.237 OA
ATOM     74  O   UNL A   1      42.115  28.902  24.991  1.00  0.00    -0.744 OA
ENDBRANCH  68  71
ENDBRANCH  50  64
BRANCH  51  75
ATOM     75  C   UNL A   1      39.533  33.810  37.057  1.00  0.00     0.023 A 
ATOM     76  C   UNL A   1      40.010  35.136  37.054  1.00  0.00     0.012 A 
ATOM     77  C   UNL A   1      38.851  33.328  38.190  1.00  0.00     0.148 A 
ATOM     78  C   UNL A   1      39.841  35.954  38.171  1.00  0.00     0.002 A 
ATOM     79  C   UNL A   1      38.635  34.167  39.277  1.00  0.00     0.091 A 
ATOM     80  F   UNL A   1      38.413  32.061  38.176  1.00  0.00    -0.205 F 
ATOM     81  C   UNL A   1      39.146  35.474  39.277  1.00  0.00     0.022 A 
BRANCH  79  82
ATOM     82  S   UNL A   1      37.637  33.678  40.689  1.00  0.00     0.127 S 
ATOM     83  O   UNL A   1      36.457  33.113  40.039  1.00  0.00    -0.237 OA
ATOM     84  O   UNL A   1      38.505  32.703  41.348  1.00  0.00    -0.237 OA
ATOM     85  O   UNL A   1      37.414  34.898  41.454  1.00  0.00    -0.744 OA
ENDBRANCH  79  82
ENDBRANCH  51  75
BRANCH  63  86
ATOM     86  C   UNL A   1      44.274  28.970  35.361  1.00  0.00     0.023 A 
ATOM     87  C   UNL A   1      44.162  27.834  36.187  1.00  0.00     0.012 A 
ATOM     88  C   UNL A   1      45.541  29.552  35.155  1.00  0.00     0.148 A 
ATOM     89  C   UNL A   1      45.285  27.308  36.825  1.00  0.00     0.002 A 
ATOM     90  C   UNL A   1      46.663  28.991  35.752  1.00  0.00     0.091 A 
ATOM     91  F   UNL A   1      45.624  30.644  34.380  1.00  0.00    -0.205 F 
ATOM     92  C   UNL A   1      46.535  27.878  36.598  1.00  0.00     0.022 A 
BRANCH  90  93
ATOM     93  S   UNL A   1      48.325  29.597  35.438  1.00  0.00     0.127 S 
ATOM     94  O   UNL A   1      48.437  29.421  33.990  1.00  0.00    -0.237 OA
ATOM     95  O   UNL A   1      48.235  30.989  35.879  1.00  0.00    -0.237 OA
ATOM     96  O   UNL A   1      49.214  28.765  36.238  1.00  0.00    -0.744 OA
ENDBRANCH  90  93
ENDBRANCH  63  86
ENDBRANCH  37  38
ENDBRANCH  29  32
ENDBRANCH  27  28
ENDBRANCH  26  27
ENDBRANCH  25  26
ENDBRANCH  24  25
ENDBRANCH  23  24
ENDBRANCH   1  23
TORSDOF 24
ENDMDL
MODEL 3
REMARK VINA RESULT:      -9.2      2.351      7.953
REMARK SMILES CN(C[C@H]1C[C@H](O)C1)C(=O)NCCOCC(=O)NCCCCCCNC(=O)c1ccc(-c2c3nc(c(-c4cccc(S(=O)(=O)[O-])c4F)c4ccc([nH]4)c(-c4cccc(S(=O)(=O)[O-])c4F)c4nc(c(-c5cccc(S(=O)(=O)[O-])c5F)c5ccc2[nH]5)C=C4)C=C3)cc1
REMARK SMILES IDX 19 1 18 2 16 3 17 4 15 6 14 7 13 8 12 9 11 10 9 11 10 12
REMARK SMILES IDX 2 14 1 15 3 16 4 17 8 18 5 19 6 20 7 21 20 23 21 24 22 25
REMARK SMILES IDX 23 26 24 27 25 28 26 29 27 31 28 32 29 33 90 34 30 35 89 36
REMARK SMILES IDX 31 37 32 38 33 39 83 40 34 41 88 42 82 43 84 44 35 45 87 46
REMARK SMILES IDX 81 47 80 48 36 50 68 51 48 52 67 53 49 54 52 55 66 56 85 57
REMARK SMILES IDX 50 58 51 59 65 61 86 62 53 63 37 64 38 65 46 66 39 67 41 68
REMARK SMILES IDX 47 69 40 70 42 71 43 72 44 73 45 74 69 75 70 76 78 77 71 78
REMARK SMILES IDX 73 79 79 80 72 81 74 82 75 83 76 84 77 85 54 86 55 87 63 88
REMARK SMILES IDX 56 89 58 90 64 91 57 92 59 93 60 94 61 95 62 96
REMARK H PARENT 18 5 11 13 7 22 25 30 84 49 52 60
REMARK Flexibility Score: inf
ROOT
ATOM      1  C   UNL A   1      34.646  22.662  26.436  1.00  0.00     0.116 C 
ENDROOT
BRANCH   1   2
ATOM      2  N   UNL A   1      34.562  23.970  25.816  1.00  0.00    -0.354 N 
ATOM      3  C   UNL A   1      33.933  24.318  24.659  1.00  0.00     0.245 C 
ATOM      4  O   UNL A   1      33.935  25.499  24.313  1.00  0.00    -0.272 OA
ATOM      5  H   UNL A   1      35.019  24.700  26.294  1.00  0.00     0.163 HD
BRANCH   3   6
ATOM      6  C   UNL A   1      33.236  23.232  23.824  1.00  0.00     0.260 C 
BRANCH   6   7
ATOM      7  O   UNL A   1      32.002  22.701  24.276  1.00  0.00    -0.370 OA
BRANCH   7   8
ATOM      8  C   UNL A   1      30.937  23.644  24.399  1.00  0.00     0.182 C 
BRANCH   8   9
ATOM      9  C   UNL A   1      30.376  24.141  23.059  1.00  0.00     0.146 C 
BRANCH   9  10
ATOM     10  N   UNL A   1      31.109  25.266  22.502  1.00  0.00    -0.336 N 
ATOM     11  C   UNL A   1      31.195  26.592  22.661  1.00  0.00     0.317 C 
ATOM     12  O   UNL A   1      32.092  27.125  21.995  1.00  0.00    -0.249 OA
ATOM     13  H   UNL A   1      31.726  24.962  21.798  1.00  0.00     0.165 HD
BRANCH  11  14
ATOM     14  N   UNL A   1      30.391  27.336  23.478  1.00  0.00    -0.328 N 
ATOM     15  C   UNL A   1      30.987  27.672  24.770  1.00  0.00     0.148 C 
BRANCH  14  16
ATOM     16  C   UNL A   1      29.058  27.888  23.241  1.00  0.00     0.124 C 
BRANCH  16  17
ATOM     17  C   UNL A   1      29.140  29.381  22.973  1.00  0.00     0.014 C 
ATOM     18  C   UNL A   1      27.916  30.206  22.474  1.00  0.00     0.037 C 
ATOM     19  C   UNL A   1      29.850  29.831  21.666  1.00  0.00     0.037 C 
ATOM     20  C   UNL A   1      28.905  31.057  21.650  1.00  0.00     0.115 C 
BRANCH  20  21
ATOM     21  O   UNL A   1      29.399  32.262  22.270  1.00  0.00    -0.393 OA
ATOM     22  H   UNL A   1      29.781  32.841  21.592  1.00  0.00     0.210 HD
ENDBRANCH  20  21
ENDBRANCH  16  17
ENDBRANCH  14  16
ENDBRANCH  11  14
ENDBRANCH   9  10
ENDBRANCH   8   9
ENDBRANCH   7   8
ENDBRANCH   6   7
ENDBRANCH   3   6
ENDBRANCH   1   2
BRANCH   1  23
ATOM     23  C   UNL A   1      36.005  22.008  26.185  1.00  0.00     0.021 C 
BRANCH  23  24
ATOM     24  C   UNL A   1      36.015  20.943  25.080  1.00  0.00     0.002 C 
BRANCH  24  25
ATOM     25  C   UNL A   1      37.380  20.675  24.436  1.00  0.00     0.002 C 
BRANCH  25  26
ATOM     26  C   UNL A   1      38.224  19.595  25.116  1.00  0.00     0.021 C 
BRANCH  26  27
ATOM     27  C   UNL A   1      39.468  20.108  25.832  1.00  0.00     0.116 C 
BRANCH  27  28
ATOM     28  N   UNL A   1      40.497  19.087  25.949  1.00  0.00    -0.352 N 
ATOM     29  C   UNL A   1      41.853  19.235  26.116  1.00  0.00     0.251 C 
ATOM     30  H   UNL A   1      40.176  18.157  25.900  1.00  0.00     0.163 HD
ATOM     31  O   UNL A   1      42.593  18.262  26.010  1.00  0.00    -0.269 OA
BRANCH  29  32
ATOM     32  C   UNL A   1      42.419  20.570  26.406  1.00  0.00     0.039 A 
ATOM     33  C   UNL A   1      42.929  21.332  25.351  1.00  0.00     0.014 A 
ATOM     34  C   UNL A   1      42.457  21.069  27.712  1.00  0.00     0.014 A 
ATOM     35  C   UNL A   1      43.425  22.615  25.598  1.00  0.00     0.010 A 
ATOM     36  C   UNL A   1      42.881  22.375  27.944  1.00  0.00     0.010 A 
ATOM     37  C   UNL A   1      43.378  23.159  26.892  1.00  0.00    -0.014 A 
BRANCH  37  38
ATOM     38  C   UNL A   1      43.836  24.548  27.160  1.00  0.00     0.031 A 
ATOM     39  C   UNL A   1      42.872  25.578  27.686  1.00  0.00     0.074 A 
ATOM     40  C   UNL A   1      45.099  24.904  26.853  1.00  0.00     0.049 A 
ATOM     41  N   UNL A   1      43.077  26.846  27.937  1.00  0.00    -0.248 NA
ATOM     42  C   UNL A   1      41.492  25.135  27.940  1.00  0.00     0.031 C 
ATOM     43  C   UNL A   1      46.106  24.019  26.263  1.00  0.00     0.029 A 
ATOM     44  N   UNL A   1      45.745  26.109  26.971  1.00  0.00    -0.354 N 
ATOM     45  C   UNL A   1      41.850  27.358  28.341  1.00  0.00     0.074 A 
ATOM     46  C   UNL A   1      40.897  26.272  28.270  1.00  0.00     0.031 C 
ATOM     47  C   UNL A   1      47.243  24.709  26.077  1.00  0.00     0.029 A 
ATOM     48  C   UNL A   1      47.039  26.090  26.501  1.00  0.00     0.049 A 
ATOM     49  H   UNL A   1      45.323  26.911  27.355  1.00  0.00     0.167 HD
ATOM     50  C   UNL A   1      41.548  28.609  28.762  1.00  0.00     0.034 A 
ATOM     51  C   UNL A   1      47.954  27.075  26.414  1.00  0.00     0.034 A 
ATOM     52  C   UNL A   1      42.507  29.676  28.870  1.00  0.00     0.049 A 
ATOM     53  C   UNL A   1      47.603  28.447  26.923  1.00  0.00     0.074 A 
ATOM     54  C   UNL A   1      42.319  30.953  29.368  1.00  0.00     0.029 A 
ATOM     55  N   UNL A   1      43.830  29.597  28.462  1.00  0.00    -0.354 N 
ATOM     56  N   UNL A   1      46.480  28.869  27.451  1.00  0.00    -0.248 NA
ATOM     57  C   UNL A   1      48.658  29.469  26.857  1.00  0.00     0.031 C 
ATOM     58  C   UNL A   1      43.521  31.657  29.233  1.00  0.00     0.029 A 
ATOM     59  C   UNL A   1      44.467  30.806  28.686  1.00  0.00     0.049 A 
ATOM     60  H   UNL A   1      44.252  28.799  28.071  1.00  0.00     0.167 HD
ATOM     61  C   UNL A   1      46.704  30.192  27.817  1.00  0.00     0.074 A 
ATOM     62  C   UNL A   1      48.077  30.494  27.467  1.00  0.00     0.031 C 
ATOM     63  C   UNL A   1      45.848  31.079  28.379  1.00  0.00     0.034 A 
BRANCH  50  64
ATOM     64  C   UNL A   1      40.128  28.883  29.186  1.00  0.00     0.023 A 
ATOM     65  C   UNL A   1      39.127  29.055  28.207  1.00  0.00     0.012 A 
ATOM     66  C   UNL A   1      39.770  28.913  30.549  1.00  0.00     0.148 A 
ATOM     67  C   UNL A   1      37.803  29.289  28.575  1.00  0.00     0.002 A 
ATOM     68  C   UNL A   1      38.441  29.098  30.908  1.00  0.00     0.091 A 
ATOM     69  F   UNL A   1      40.736  28.767  31.467  1.00  0.00    -0.205 F 
ATOM     70  C   UNL A   1      37.459  29.299  29.924  1.00  0.00     0.022 A 
BRANCH  68  71
ATOM     71  S   UNL A   1      37.880  29.046  32.614  1.00  0.00     0.127 S 
ATOM     72  O   UNL A   1      38.050  27.630  32.936  1.00  0.00    -0.237 OA
ATOM     73  O   UNL A   1      38.831  29.940  33.277  1.00  0.00    -0.237 OA
ATOM     74  O   UNL A   1      36.505  29.523  32.600  1.00  0.00    -0.744 OA
ENDBRANCH  68  71
ENDBRANCH  50  64
BRANCH  51  75
ATOM     75  C   UNL A   1      49.312  26.784  25.875  1.00  0.00     0.023 A 
ATOM     76  C   UNL A   1      50.249  26.108  26.683  1.00  0.00     0.012 A 
ATOM     77  C   UNL A   1      49.674  27.151  24.565  1.00  0.00     0.148 A 
ATOM     78  C   UNL A   1      51.532  25.835  26.208  1.00  0.00     0.002 A 
ATOM     79  C   UNL A   1      50.934  26.824  24.078  1.00  0.00     0.091 A 
ATOM     80  F   UNL A   1      48.773  27.800  23.815  1.00  0.00    -0.205 F 
ATOM     81  C   UNL A   1      51.871  26.183  24.904  1.00  0.00     0.022 A 
BRANCH  79  82
ATOM     82  S   UNL A   1      51.413  27.115  22.370  1.00  0.00     0.127 S 
ATOM     83  O   UNL A   1      50.282  26.544  21.642  1.00  0.00    -0.237 OA
ATOM     84  O   UNL A   1      51.503  28.574  22.327  1.00  0.00    -0.237 OA
ATOM     85  O   UNL A   1      52.687  26.429  22.197  1.00  0.00    -0.744 OA
ENDBRANCH  79  82
ENDBRANCH  51  75
BRANCH  63  86
ATOM     86  C   UNL A   1      46.374  32.456  28.696  1.00  0.00     0.023 A 
ATOM     87  C   UNL A   1      47.047  32.690  29.912  1.00  0.00     0.012 A 
ATOM     88  C   UNL A   1      46.261  33.500  27.757  1.00  0.00     0.148 A 
ATOM     89  C   UNL A   1      47.567  33.952  30.203  1.00  0.00     0.002 A 
ATOM     90  C   UNL A   1      46.827  34.739  28.030  1.00  0.00     0.091 A 
ATOM     91  F   UNL A   1      45.601  33.262  26.614  1.00  0.00    -0.205 F 
ATOM     92  C   UNL A   1      47.468  34.971  29.258  1.00  0.00     0.022 A 
BRANCH  90  93
ATOM     93  S   UNL A   1      46.835  36.079  26.834  1.00  0.00     0.127 S 
ATOM     94  O   UNL A   1      45.405  36.304  26.629  1.00  0.00    -0.237 OA
ATOM     95  O   UNL A   1      47.522  37.144  27.567  1.00  0.00    -0.237 OA
ATOM     96  O   UNL A   1      47.561  35.579  25.675  1.00  0.00    -0.744 OA
ENDBRANCH  90  93
ENDBRANCH  63  86
ENDBRANCH  37  38
ENDBRANCH  29  32
ENDBRANCH  27  28
ENDBRANCH  26  27
ENDBRANCH  25  26
ENDBRANCH  24  25
ENDBRANCH  23  24
ENDBRANCH   1  23
TORSDOF 24
ENDMDL
