MODEL 1
REMARK VINA RESULT:      -9.8      0.000      0.000
REMARK SMILES CS(=O)(=O)c1ccc(-c2cc(Cl)cc3c2O[C@H](C(F)(F)F)C(C(=O)NCCCCCCNC(=O)c2ccc(-c4c5nc(c(-c6cccc(S(=O)(=O)[O-])c6F)c6ccc([nH]6)c(-c6cccc(S(=O)(=O)[O-])c6F)c6nc(c(-c7cccc(S(=O)(=O)[O-])c7F)c7ccc4[nH]7)C=C6)C=C5)cc2)=C3)cc1
REMARK SMILES IDX 29 1 28 2 27 3 26 4 25 5 23 6 24 7 22 9 9 10 10 11 15 12
REMARK SMILES IDX 11 13 14 14 16 15 12 16 13 17 98 18 17 19 8 20 5 21 6 22
REMARK SMILES IDX 100 23 7 24 99 25 2 26 1 27 3 28 4 29 18 30 19 31 20 32
REMARK SMILES IDX 21 33 30 34 31 35 32 36 33 37 34 39 35 40 36 41 97 42 37 43
REMARK SMILES IDX 96 44 38 45 39 46 40 47 90 48 41 49 95 50 89 51 91 52 42 53
REMARK SMILES IDX 94 54 88 55 87 56 43 58 75 59 55 60 74 61 56 62 59 63 73 64
REMARK SMILES IDX 92 65 57 66 58 67 72 69 93 70 60 71 44 72 45 73 53 74 46 75
REMARK SMILES IDX 48 76 54 77 47 78 49 79 50 80 51 81 52 82 76 83 77 84 85 85
REMARK SMILES IDX 78 86 80 87 86 88 79 89 81 90 82 91 83 92 84 93 61 94 62 95
REMARK SMILES IDX 70 96 63 97 65 98 71 99 64 100 66 101 67 102 68 103 69 104
REMARK H PARENT 25 8 32 38 91 57 59 68
REMARK Flexibility Score: inf
ROOT
ATOM      1  C   UNL A   1      37.088  33.744  30.571  1.00  0.00     0.002 C 
ENDROOT
BRANCH   1   2
ATOM      2  C   UNL A   1      38.496  33.624  29.981  1.00  0.00     0.002 C 
BRANCH   2   3
ATOM      3  C   UNL A   1      39.485  34.708  30.445  1.00  0.00     0.021 C 
BRANCH   3   4
ATOM      4  C   UNL A   1      40.475  34.256  31.529  1.00  0.00     0.116 C 
BRANCH   4   5
ATOM      5  N   UNL A   1      40.056  34.773  32.818  1.00  0.00    -0.352 N 
ATOM      6  C   UNL A   1      39.004  34.322  33.546  1.00  0.00     0.251 C 
ATOM      7  O   UNL A   1      38.191  35.116  34.006  1.00  0.00    -0.270 OA
ATOM      8  H   UNL A   1      40.580  35.516  33.198  1.00  0.00     0.163 HD
BRANCH   6   9
ATOM      9  C   UNL A   1      39.011  32.870  33.894  1.00  0.00     0.067 C 
ATOM     10  C   UNL A   1      37.970  33.162  37.816  1.00  0.00     0.026 A 
ATOM     11  C   UNL A   1      38.748  34.224  38.351  1.00  0.00     0.033 A 
ATOM     12  C   UNL A   1      38.363  32.684  36.551  1.00  0.00     0.135 A 
ATOM     13  C   UNL A   1      39.941  34.650  37.771  1.00  0.00     0.042 A 
ATOM     14  C   UNL A   1      39.639  33.043  36.045  1.00  0.00     0.019 A 
ATOM     15  O   UNL A   1      37.540  31.927  35.723  1.00  0.00    -0.475 OA
ATOM     16  Cl  UNL A   1      40.809  35.958  38.469  1.00  0.00    -0.084 Cl
ATOM     17  C   UNL A   1      40.436  34.006  36.657  1.00  0.00     0.032 A 
ATOM     18  C   UNL A   1      40.027  32.534  34.712  1.00  0.00     0.025 C 
ATOM     19  C   UNL A   1      37.659  32.283  34.268  1.00  0.00     0.314 C 
BRANCH  10  20
ATOM     20  C   UNL A   1      37.014  32.556  38.788  1.00  0.00    -0.015 A 
ATOM     21  C   UNL A   1      35.316  32.459  41.070  1.00  0.00     0.067 A 
ATOM     22  C   UNL A   1      34.783  32.787  39.825  1.00  0.00     0.021 A 
ATOM     23  C   UNL A   1      36.659  32.080  41.166  1.00  0.00     0.021 A 
ATOM     24  C   UNL A   1      35.624  32.812  38.697  1.00  0.00     0.010 A 
ATOM     25  C   UNL A   1      37.493  32.114  40.035  1.00  0.00     0.010 A 
BRANCH  21  26
ATOM     26  S   UNL A   1      34.351  32.567  42.568  1.00  0.00     0.175 S 
ATOM     27  C   UNL A   1      35.201  33.637  43.698  1.00  0.00     0.163 C 
ATOM     28  O   UNL A   1      34.369  31.246  43.177  1.00  0.00    -0.224 OA
ATOM     29  O   UNL A   1      33.103  33.204  42.211  1.00  0.00    -0.224 OA
ENDBRANCH  21  26
ENDBRANCH  10  20
BRANCH  19  30
ATOM     30  C   UNL A   1      37.403  31.072  33.340  1.00  0.00     0.429 C 
ATOM     31  F   UNL A   1      38.017  31.197  32.142  1.00  0.00    -0.167 F 
ATOM     32  F   UNL A   1      37.833  29.920  33.907  1.00  0.00    -0.167 F 
ATOM     33  F   UNL A   1      36.080  30.893  33.077  1.00  0.00    -0.167 F 
ENDBRANCH  19  30
ENDBRANCH   6   9
ENDBRANCH   4   5
ENDBRANCH   3   4
ENDBRANCH   2   3
ENDBRANCH   1   2
BRANCH   1  34
ATOM     34  C   UNL A   1      35.968  33.301  29.631  1.00  0.00     0.021 C 
BRANCH  34  35
ATOM     35  C   UNL A   1      35.140  32.124  30.138  1.00  0.00     0.116 C 
BRANCH  35  36
ATOM     36  N   UNL A   1      34.511  31.383  29.056  1.00  0.00    -0.352 N 
ATOM     37  C   UNL A   1      35.053  30.431  28.229  1.00  0.00     0.251 C 
ATOM     38  H   UNL A   1      33.563  31.593  28.895  1.00  0.00     0.163 HD
ATOM     39  O   UNL A   1      34.420  30.032  27.255  1.00  0.00    -0.269 OA
BRANCH  37  40
ATOM     40  C   UNL A   1      36.408  29.907  28.501  1.00  0.00     0.039 A 
ATOM     41  C   UNL A   1      37.420  30.147  27.569  1.00  0.00     0.014 A 
ATOM     42  C   UNL A   1      36.682  29.187  29.668  1.00  0.00     0.014 A 
ATOM     43  C   UNL A   1      38.719  29.708  27.834  1.00  0.00     0.010 A 
ATOM     44  C   UNL A   1      37.994  28.823  29.966  1.00  0.00     0.010 A 
ATOM     45  C   UNL A   1      39.024  29.071  29.048  1.00  0.00    -0.014 A 
BRANCH  45  46
ATOM     46  C   UNL A   1      40.421  28.686  29.372  1.00  0.00     0.031 A 
ATOM     47  C   UNL A   1      41.076  27.515  28.691  1.00  0.00     0.074 A 
ATOM     48  C   UNL A   1      41.083  29.358  30.335  1.00  0.00     0.049 A 
ATOM     49  N   UNL A   1      42.289  27.049  28.841  1.00  0.00    -0.248 NA
ATOM     50  C   UNL A   1      40.256  26.751  27.736  1.00  0.00     0.031 C 
ATOM     51  C   UNL A   1      40.525  30.447  31.139  1.00  0.00     0.029 A 
ATOM     52  N   UNL A   1      42.359  29.210  30.817  1.00  0.00    -0.354 N 
ATOM     53  C   UNL A   1      42.368  25.922  28.033  1.00  0.00     0.074 A 
ATOM     54  C   UNL A   1      41.070  25.754  27.418  1.00  0.00     0.031 C 
ATOM     55  C   UNL A   1      41.455  30.874  32.008  1.00  0.00     0.029 A 
ATOM     56  C   UNL A   1      42.664  30.073  31.843  1.00  0.00     0.049 A 
ATOM     57  H   UNL A   1      42.996  28.548  30.462  1.00  0.00     0.167 HD
ATOM     58  C   UNL A   1      43.431  25.115  27.802  1.00  0.00     0.034 A 
ATOM     59  C   UNL A   1      43.786  30.201  32.578  1.00  0.00     0.034 A 
ATOM     60  C   UNL A   1      44.729  25.303  28.392  1.00  0.00     0.049 A 
ATOM     61  C   UNL A   1      44.970  29.329  32.263  1.00  0.00     0.074 A 
ATOM     62  C   UNL A   1      45.898  24.606  28.141  1.00  0.00     0.029 A 
ATOM     63  N   UNL A   1      45.028  26.241  29.369  1.00  0.00    -0.354 N 
ATOM     64  N   UNL A   1      45.082  28.387  31.359  1.00  0.00    -0.248 NA
ATOM     65  C   UNL A   1      46.193  29.566  33.042  1.00  0.00     0.031 C 
ATOM     66  C   UNL A   1      46.892  25.095  28.996  1.00  0.00     0.029 A 
ATOM     67  C   UNL A   1      46.356  26.128  29.748  1.00  0.00     0.049 A 
ATOM     68  H   UNL A   1      44.390  26.894  29.738  1.00  0.00     0.167 HD
ATOM     69  C   UNL A   1      46.394  27.936  31.441  1.00  0.00     0.074 A 
ATOM     70  C   UNL A   1      47.045  28.733  32.462  1.00  0.00     0.031 C 
ATOM     71  C   UNL A   1      47.003  26.944  30.744  1.00  0.00     0.034 A 
BRANCH  58  72
ATOM     72  C   UNL A   1      43.243  23.966  26.842  1.00  0.00     0.023 A 
ATOM     73  C   UNL A   1      43.787  24.040  25.544  1.00  0.00     0.012 A 
ATOM     74  C   UNL A   1      42.573  22.793  27.243  1.00  0.00     0.148 A 
ATOM     75  C   UNL A   1      43.630  22.985  24.645  1.00  0.00     0.002 A 
ATOM     76  C   UNL A   1      42.463  21.726  26.359  1.00  0.00     0.091 A 
ATOM     77  F   UNL A   1      42.043  22.748  28.473  1.00  0.00    -0.205 F 
ATOM     78  C   UNL A   1      42.979  21.825  25.056  1.00  0.00     0.022 A 
BRANCH  76  79
ATOM     79  S   UNL A   1      41.718  20.159  26.821  1.00  0.00     0.127 S 
ATOM     80  O   UNL A   1      40.448  20.598  27.400  1.00  0.00    -0.237 OA
ATOM     81  O   UNL A   1      41.596  19.484  25.529  1.00  0.00    -0.237 OA
ATOM     82  O   UNL A   1      42.644  19.531  27.750  1.00  0.00    -0.744 OA
ENDBRANCH  76  79
ENDBRANCH  58  72
BRANCH  59  83
ATOM     83  C   UNL A   1      43.851  31.232  33.651  1.00  0.00     0.023 A 
ATOM     84  C   UNL A   1      44.092  32.578  33.316  1.00  0.00     0.012 A 
ATOM     85  C   UNL A   1      43.636  30.887  35.000  1.00  0.00     0.148 A 
ATOM     86  C   UNL A   1      44.147  33.558  34.307  1.00  0.00     0.002 A 
ATOM     87  C   UNL A   1      43.634  31.876  35.975  1.00  0.00     0.091 A 
ATOM     88  F   UNL A   1      43.418  29.599  35.298  1.00  0.00    -0.205 F 
ATOM     89  C   UNL A   1      43.907  33.210  35.634  1.00  0.00     0.022 A 
BRANCH  87  90
ATOM     90  S   UNL A   1      43.195  31.542  37.684  1.00  0.00     0.127 S 
ATOM     91  O   UNL A   1      44.239  30.602  38.083  1.00  0.00    -0.237 OA
ATOM     92  O   UNL A   1      43.297  32.872  38.286  1.00  0.00    -0.237 OA
ATOM     93  O   UNL A   1      41.842  31.004  37.646  1.00  0.00    -0.744 OA
ENDBRANCH  87  90
ENDBRANCH  59  83
BRANCH  71  94
ATOM     94  C   UNL A   1      48.455  26.674  31.044  1.00  0.00     0.023 A 
ATOM     95  C   UNL A   1      49.458  27.473  30.456  1.00  0.00     0.012 A 
ATOM     96  C   UNL A   1      48.826  25.656  31.944  1.00  0.00     0.148 A 
ATOM     97  C   UNL A   1      50.804  27.232  30.724  1.00  0.00     0.002 A 
ATOM     98  C   UNL A   1      50.168  25.457  32.248  1.00  0.00     0.091 A 
ATOM     99  F   UNL A   1      47.862  24.892  32.480  1.00  0.00    -0.205 F 
ATOM    100  C   UNL A   1      51.159  26.232  31.626  1.00  0.00     0.022 A 
BRANCH  98 101
ATOM    101  S   UNL A   1      50.709  24.260  33.473  1.00  0.00     0.127 S 
ATOM    102  O   UNL A   1      52.121  24.606  33.624  1.00  0.00    -0.237 OA
ATOM    103  O   UNL A   1      49.872  24.597  34.626  1.00  0.00    -0.237 OA
ATOM    104  O   UNL A   1      50.443  22.948  32.898  1.00  0.00    -0.744 OA
ENDBRANCH  98 101
ENDBRANCH  71  94
ENDBRANCH  45  46
ENDBRANCH  37  40
ENDBRANCH  35  36
ENDBRANCH  34  35
ENDBRANCH   1  34
TORSDOF 19
ENDMDL
MODEL 2
REMARK VINA RESULT:      -9.7      4.198      7.597
REMARK SMILES CS(=O)(=O)c1ccc(-c2cc(Cl)cc3c2O[C@H](C(F)(F)F)C(C(=O)NCCCCCCNC(=O)c2ccc(-c4c5nc(c(-c6cccc(S(=O)(=O)[O-])c6F)c6ccc([nH]6)c(-c6cccc(S(=O)(=O)[O-])c6F)c6nc(c(-c7cccc(S(=O)(=O)[O-])c7F)c7ccc4[nH]7)C=C6)C=C5)cc2)=C3)cc1
REMARK SMILES IDX 29 1 28 2 27 3 26 4 25 5 23 6 24 7 22 9 9 10 10 11 15 12
REMARK SMILES IDX 11 13 14 14 16 15 12 16 13 17 98 18 17 19 8 20 5 21 6 22
REMARK SMILES IDX 100 23 7 24 99 25 2 26 1 27 3 28 4 29 18 30 19 31 20 32
REMARK SMILES IDX 21 33 30 34 31 35 32 36 33 37 34 39 35 40 36 41 97 42 37 43
REMARK SMILES IDX 96 44 38 45 39 46 40 47 90 48 41 49 95 50 89 51 91 52 42 53
REMARK SMILES IDX 94 54 88 55 87 56 43 58 75 59 55 60 74 61 56 62 59 63 73 64
REMARK SMILES IDX 92 65 57 66 58 67 72 69 93 70 60 71 44 72 45 73 53 74 46 75
REMARK SMILES IDX 48 76 54 77 47 78 49 79 50 80 51 81 52 82 76 83 77 84 85 85
REMARK SMILES IDX 78 86 80 87 86 88 79 89 81 90 82 91 83 92 84 93 61 94 62 95
REMARK SMILES IDX 70 96 63 97 65 98 71 99 64 100 66 101 67 102 68 103 69 104
REMARK H PARENT 25 8 32 38 91 57 59 68
REMARK Flexibility Score: inf
ROOT
ATOM      1  C   UNL A   1      39.352  33.479  34.265  1.00  0.00     0.002 C 
ENDROOT
BRANCH   1   2
ATOM      2  C   UNL A   1      39.535  34.643  33.288  1.00  0.00     0.002 C 
BRANCH   2   3
ATOM      3  C   UNL A   1      39.777  34.228  31.827  1.00  0.00     0.021 C 
BRANCH   3   4
ATOM      4  C   UNL A   1      38.571  34.420  30.894  1.00  0.00     0.116 C 
BRANCH   4   5
ATOM      5  N   UNL A   1      37.671  33.291  31.020  1.00  0.00    -0.352 N 
ATOM      6  C   UNL A   1      36.325  33.332  30.860  1.00  0.00     0.251 C 
ATOM      7  O   UNL A   1      35.591  32.822  31.698  1.00  0.00    -0.270 OA
ATOM      8  H   UNL A   1      38.071  32.418  31.243  1.00  0.00     0.163 HD
BRANCH   6   9
ATOM      9  C   UNL A   1      35.828  33.850  29.550  1.00  0.00     0.067 C 
ATOM     10  C   UNL A   1      34.592  30.335  27.915  1.00  0.00     0.026 A 
ATOM     11  C   UNL A   1      35.621  29.393  28.183  1.00  0.00     0.033 A 
ATOM     12  C   UNL A   1      34.919  31.688  28.130  1.00  0.00     0.135 A 
ATOM     13  C   UNL A   1      36.934  29.771  28.454  1.00  0.00     0.042 A 
ATOM     14  C   UNL A   1      36.283  32.051  28.282  1.00  0.00     0.019 A 
ATOM     15  O   UNL A   1      33.973  32.698  28.274  1.00  0.00    -0.475 OA
ATOM     16  Cl  UNL A   1      38.114  28.568  28.792  1.00  0.00    -0.084 Cl
ATOM     17  C   UNL A   1      37.291  31.102  28.425  1.00  0.00     0.032 A 
ATOM     18  C   UNL A   1      36.602  33.476  28.513  1.00  0.00     0.025 C 
ATOM     19  C   UNL A   1      34.331  33.714  29.321  1.00  0.00     0.314 C 
BRANCH  10  20
ATOM     20  C   UNL A   1      33.407  29.761  27.212  1.00  0.00    -0.015 A 
ATOM     21  C   UNL A   1      31.820  28.967  24.987  1.00  0.00     0.067 A 
ATOM     22  C   UNL A   1      32.663  28.043  25.600  1.00  0.00     0.021 A 
ATOM     23  C   UNL A   1      31.686  30.247  25.536  1.00  0.00     0.021 A 
ATOM     24  C   UNL A   1      33.429  28.436  26.713  1.00  0.00     0.010 A 
ATOM     25  C   UNL A   1      32.460  30.633  26.645  1.00  0.00     0.010 A 
BRANCH  21  26
ATOM     26  S   UNL A   1      30.947  28.592  23.477  1.00  0.00     0.175 S 
ATOM     27  C   UNL A   1      29.873  27.214  23.786  1.00  0.00     0.163 C 
ATOM     28  O   UNL A   1      31.939  28.120  22.522  1.00  0.00    -0.224 OA
ATOM     29  O   UNL A   1      30.118  29.740  23.181  1.00  0.00    -0.224 OA
ENDBRANCH  21  26
ENDBRANCH  10  20
BRANCH  19  30
ATOM     30  C   UNL A   1      33.779  35.122  28.992  1.00  0.00     0.429 C 
ATOM     31  F   UNL A   1      32.548  35.081  28.436  1.00  0.00    -0.167 F 
ATOM     32  F   UNL A   1      33.706  35.891  30.104  1.00  0.00    -0.167 F 
ATOM     33  F   UNL A   1      34.575  35.797  28.118  1.00  0.00    -0.167 F 
ENDBRANCH  19  30
ENDBRANCH   6   9
ENDBRANCH   4   5
ENDBRANCH   3   4
ENDBRANCH   2   3
ENDBRANCH   1   2
BRANCH   1  34
ATOM     34  C   UNL A   1      37.908  33.004  34.422  1.00  0.00     0.021 C 
BRANCH  34  35
ATOM     35  C   UNL A   1      37.750  31.499  34.616  1.00  0.00     0.116 C 
BRANCH  35  36
ATOM     36  N   UNL A   1      36.903  30.896  33.599  1.00  0.00    -0.352 N 
ATOM     37  C   UNL A   1      37.247  30.045  32.578  1.00  0.00     0.251 C 
ATOM     38  H   UNL A   1      35.948  31.131  33.651  1.00  0.00     0.163 HD
ATOM     39  O   UNL A   1      36.426  29.770  31.707  1.00  0.00    -0.269 OA
BRANCH  37  40
ATOM     40  C   UNL A   1      38.612  29.483  32.519  1.00  0.00     0.039 A 
ATOM     41  C   UNL A   1      39.691  30.354  32.352  1.00  0.00     0.014 A 
ATOM     42  C   UNL A   1      38.831  28.106  32.632  1.00  0.00     0.014 A 
ATOM     43  C   UNL A   1      40.992  29.848  32.350  1.00  0.00     0.010 A 
ATOM     44  C   UNL A   1      40.132  27.615  32.711  1.00  0.00     0.010 A 
ATOM     45  C   UNL A   1      41.226  28.479  32.561  1.00  0.00    -0.014 A 
BRANCH  45  46
ATOM     46  C   UNL A   1      42.612  27.952  32.651  1.00  0.00     0.031 A 
ATOM     47  C   UNL A   1      43.374  27.572  31.411  1.00  0.00     0.074 A 
ATOM     48  C   UNL A   1      43.163  27.754  33.865  1.00  0.00     0.049 A 
ATOM     49  N   UNL A   1      44.594  27.111  31.305  1.00  0.00    -0.248 NA
ATOM     50  C   UNL A   1      42.670  27.701  30.125  1.00  0.00     0.031 C 
ATOM     51  C   UNL A   1      42.491  27.988  35.146  1.00  0.00     0.029 A 
ATOM     52  N   UNL A   1      44.404  27.290  34.222  1.00  0.00    -0.354 N 
ATOM     53  C   UNL A   1      44.791  26.861  29.953  1.00  0.00     0.074 A 
ATOM     54  C   UNL A   1      43.554  27.191  29.280  1.00  0.00     0.031 C 
ATOM     55  C   UNL A   1      43.329  27.674  36.146  1.00  0.00     0.029 A 
ATOM     56  C   UNL A   1      44.585  27.191  35.582  1.00  0.00     0.049 A 
ATOM     57  H   UNL A   1      45.098  27.050  33.567  1.00  0.00     0.167 HD
ATOM     58  C   UNL A   1      45.908  26.423  29.324  1.00  0.00     0.034 A 
ATOM     59  C   UNL A   1      45.639  26.753  36.297  1.00  0.00     0.034 A 
ATOM     60  C   UNL A   1      47.145  26.125  29.993  1.00  0.00     0.049 A 
ATOM     61  C   UNL A   1      46.886  26.323  35.574  1.00  0.00     0.074 A 
ATOM     62  C   UNL A   1      48.364  25.778  29.435  1.00  0.00     0.029 A 
ATOM     63  N   UNL A   1      47.321  26.115  31.369  1.00  0.00    -0.354 N 
ATOM     64  N   UNL A   1      47.115  26.273  34.284  1.00  0.00    -0.248 NA
ATOM     65  C   UNL A   1      48.033  25.931  36.405  1.00  0.00     0.031 C 
ATOM     66  C   UNL A   1      49.263  25.517  30.475  1.00  0.00     0.029 A 
ATOM     67  C   UNL A   1      48.619  25.746  31.680  1.00  0.00     0.049 A 
ATOM     68  H   UNL A   1      46.624  26.338  32.028  1.00  0.00     0.167 HD
ATOM     69  C   UNL A   1      48.437  25.869  34.148  1.00  0.00     0.074 A 
ATOM     70  C   UNL A   1      48.967  25.720  35.489  1.00  0.00     0.031 C 
ATOM     71  C   UNL A   1      49.147  25.629  33.016  1.00  0.00     0.034 A 
BRANCH  58  72
ATOM     72  C   UNL A   1      45.851  26.268  27.824  1.00  0.00     0.023 A 
ATOM     73  C   UNL A   1      46.068  27.386  26.994  1.00  0.00     0.012 A 
ATOM     74  C   UNL A   1      45.635  25.006  27.236  1.00  0.00     0.148 A 
ATOM     75  C   UNL A   1      46.028  27.261  25.605  1.00  0.00     0.002 A 
ATOM     76  C   UNL A   1      45.646  24.879  25.853  1.00  0.00     0.091 A 
ATOM     77  F   UNL A   1      45.410  23.956  28.040  1.00  0.00    -0.205 F 
ATOM     78  C   UNL A   1      45.828  26.007  25.036  1.00  0.00     0.022 A 
BRANCH  76  79
ATOM     79  S   UNL A   1      45.482  23.294  25.024  1.00  0.00     0.127 S 
ATOM     80  O   UNL A   1      44.031  23.191  24.872  1.00  0.00    -0.237 OA
ATOM     81  O   UNL A   1      46.210  23.523  23.776  1.00  0.00    -0.237 OA
ATOM     82  O   UNL A   1      46.089  22.312  25.911  1.00  0.00    -0.744 OA
ENDBRANCH  76  79
ENDBRANCH  58  72
BRANCH  59  83
ATOM     83  C   UNL A   1      45.571  26.747  37.785  1.00  0.00     0.023 A 
ATOM     84  C   UNL A   1      45.162  25.582  38.462  1.00  0.00     0.012 A 
ATOM     85  C   UNL A   1      45.949  27.880  38.532  1.00  0.00     0.148 A 
ATOM     86  C   UNL A   1      45.100  25.555  39.856  1.00  0.00     0.002 A 
ATOM     87  C   UNL A   1      45.943  27.827  39.920  1.00  0.00     0.091 A 
ATOM     88  F   UNL A   1      46.327  28.980  37.867  1.00  0.00    -0.205 F 
ATOM     89  C   UNL A   1      45.501  26.672  40.584  1.00  0.00     0.022 A 
BRANCH  87  90
ATOM     90  S   UNL A   1      46.577  29.165  40.937  1.00  0.00     0.127 S 
ATOM     91  O   UNL A   1      45.788  30.299  40.464  1.00  0.00    -0.237 OA
ATOM     92  O   UNL A   1      46.246  28.700  42.284  1.00  0.00    -0.237 OA
ATOM     93  O   UNL A   1      48.005  29.229  40.659  1.00  0.00    -0.744 OA
ENDBRANCH  87  90
ENDBRANCH  59  83
BRANCH  71  94
ATOM     94  C   UNL A   1      50.583  25.201  33.175  1.00  0.00     0.023 A 
ATOM     95  C   UNL A   1      51.588  26.166  33.392  1.00  0.00     0.012 A 
ATOM     96  C   UNL A   1      50.932  23.836  33.152  1.00  0.00     0.148 A 
ATOM     97  C   UNL A   1      52.920  25.783  33.538  1.00  0.00     0.002 A 
ATOM     98  C   UNL A   1      52.256  23.458  33.352  1.00  0.00     0.091 A 
ATOM     99  F   UNL A   1      49.969  22.931  32.925  1.00  0.00    -0.205 F 
ATOM    100  C   UNL A   1      53.252  24.430  33.528  1.00  0.00     0.022 A 
BRANCH  98 101
ATOM    101  S   UNL A   1      52.758  21.737  33.453  1.00  0.00     0.127 S 
ATOM    102  O   UNL A   1      54.200  21.860  33.668  1.00  0.00    -0.237 OA
ATOM    103  O   UNL A   1      52.007  21.263  34.617  1.00  0.00    -0.237 OA
ATOM    104  O   UNL A   1      52.363  21.127  32.191  1.00  0.00    -0.744 OA
ENDBRANCH  98 101
ENDBRANCH  71  94
ENDBRANCH  45  46
ENDBRANCH  37  40
ENDBRANCH  35  36
ENDBRANCH  34  35
ENDBRANCH   1  34
TORSDOF 19
ENDMDL
MODEL 3
REMARK VINA RESULT:      -9.6      6.124     11.383
REMARK SMILES CS(=O)(=O)c1ccc(-c2cc(Cl)cc3c2O[C@H](C(F)(F)F)C(C(=O)NCCCCCCNC(=O)c2ccc(-c4c5nc(c(-c6cccc(S(=O)(=O)[O-])c6F)c6ccc([nH]6)c(-c6cccc(S(=O)(=O)[O-])c6F)c6nc(c(-c7cccc(S(=O)(=O)[O-])c7F)c7ccc4[nH]7)C=C6)C=C5)cc2)=C3)cc1
REMARK SMILES IDX 29 1 28 2 27 3 26 4 25 5 23 6 24 7 22 9 9 10 10 11 15 12
REMARK SMILES IDX 11 13 14 14 16 15 12 16 13 17 98 18 17 19 8 20 5 21 6 22
REMARK SMILES IDX 100 23 7 24 99 25 2 26 1 27 3 28 4 29 18 30 19 31 20 32
REMARK SMILES IDX 21 33 30 34 31 35 32 36 33 37 34 39 35 40 36 41 97 42 37 43
REMARK SMILES IDX 96 44 38 45 39 46 40 47 90 48 41 49 95 50 89 51 91 52 42 53
REMARK SMILES IDX 94 54 88 55 87 56 43 58 75 59 55 60 74 61 56 62 59 63 73 64
REMARK SMILES IDX 92 65 57 66 58 67 72 69 93 70 60 71 44 72 45 73 53 74 46 75
REMARK SMILES IDX 48 76 54 77 47 78 49 79 50 80 51 81 52 82 76 83 77 84 85 85
REMARK SMILES IDX 78 86 80 87 86 88 79 89 81 90 82 91 83 92 84 93 61 94 62 95
REMARK SMILES IDX 70 96 63 97 65 98 71 99 64 100 66 101 67 102 68 103 69 104
REMARK H PARENT 25 8 32 38 91 57 59 68
REMARK Flexibility Score: inf
ROOT
ATOM      1  C   UNL A   1      37.662  34.486  34.225  1.00  0.00     0.002 C 
ENDROOT
BRANCH   1   2
ATOM      2  C   UNL A   1      39.020  34.352  33.530  1.00  0.00     0.002 C 
BRANCH   2   3
ATOM      3  C   UNL A   1      38.969  34.419  31.994  1.00  0.00     0.021 C 
BRANCH   3   4
ATOM      4  C   UNL A   1      37.557  34.537  31.400  1.00  0.00     0.116 C 
BRANCH   4   5
ATOM      5  N   UNL A   1      37.025  33.213  31.140  1.00  0.00    -0.352 N 
ATOM      6  C   UNL A   1      35.764  32.936  30.724  1.00  0.00     0.251 C 
ATOM      7  O   UNL A   1      35.105  32.074  31.294  1.00  0.00    -0.270 OA
ATOM      8  H   UNL A   1      37.631  32.449  31.277  1.00  0.00     0.163 HD
BRANCH   6   9
ATOM      9  C   UNL A   1      35.324  33.592  29.457  1.00  0.00     0.067 C 
ATOM     10  C   UNL A   1      34.262  30.266  27.367  1.00  0.00     0.026 A 
ATOM     11  C   UNL A   1      35.299  29.319  27.582  1.00  0.00     0.033 A 
ATOM     12  C   UNL A   1      34.544  31.591  27.753  1.00  0.00     0.135 A 
ATOM     13  C   UNL A   1      36.587  29.687  27.966  1.00  0.00     0.042 A 
ATOM     14  C   UNL A   1      35.889  31.959  28.019  1.00  0.00     0.019 A 
ATOM     15  O   UNL A   1      33.566  32.560  27.958  1.00  0.00    -0.475 OA
ATOM     16  Cl  UNL A   1      37.777  28.476  28.228  1.00  0.00    -0.084 Cl
ATOM     17  C   UNL A   1      36.911  31.020  28.108  1.00  0.00     0.032 A 
ATOM     18  C   UNL A   1      36.160  33.354  28.428  1.00  0.00     0.025 C 
ATOM     19  C   UNL A   1      33.844  33.455  29.132  1.00  0.00     0.314 C 
BRANCH  10  20
ATOM     20  C   UNL A   1      33.130  29.755  26.539  1.00  0.00    -0.015 A 
ATOM     21  C   UNL A   1      31.678  27.873  24.976  1.00  0.00     0.067 A 
ATOM     22  C   UNL A   1      31.426  27.977  26.342  1.00  0.00     0.021 A 
ATOM     23  C   UNL A   1      32.568  28.765  24.369  1.00  0.00     0.021 A 
ATOM     24  C   UNL A   1      32.132  28.925  27.106  1.00  0.00     0.010 A 
ATOM     25  C   UNL A   1      33.274  29.704  25.141  1.00  0.00     0.010 A 
BRANCH  21  26
ATOM     26  S   UNL A   1      30.945  26.588  23.977  1.00  0.00     0.175 S 
ATOM     27  C   UNL A   1      29.192  26.851  23.934  1.00  0.00     0.163 C 
ATOM     28  O   UNL A   1      31.144  25.335  24.689  1.00  0.00    -0.224 OA
ATOM     29  O   UNL A   1      31.452  26.767  22.634  1.00  0.00    -0.224 OA
ENDBRANCH  21  26
ENDBRANCH  10  20
BRANCH  19  30
ATOM     30  C   UNL A   1      33.276  34.881  28.936  1.00  0.00     0.429 C 
ATOM     31  F   UNL A   1      32.302  34.927  28.000  1.00  0.00    -0.167 F 
ATOM     32  F   UNL A   1      32.764  35.368  30.091  1.00  0.00    -0.167 F 
ATOM     33  F   UNL A   1      34.230  35.768  28.543  1.00  0.00    -0.167 F 
ENDBRANCH  19  30
ENDBRANCH   6   9
ENDBRANCH   4   5
ENDBRANCH   3   4
ENDBRANCH   2   3
ENDBRANCH   1   2
BRANCH   1  34
ATOM     34  C   UNL A   1      37.091  33.172  34.757  1.00  0.00     0.021 C 
BRANCH  34  35
ATOM     35  C   UNL A   1      38.038  31.981  34.660  1.00  0.00     0.116 C 
BRANCH  35  36
ATOM     36  N   UNL A   1      37.415  30.829  34.026  1.00  0.00    -0.352 N 
ATOM     37  C   UNL A   1      37.760  30.190  32.861  1.00  0.00     0.251 C 
ATOM     38  H   UNL A   1      36.638  30.455  34.501  1.00  0.00     0.163 HD
ATOM     39  O   UNL A   1      37.015  29.337  32.387  1.00  0.00    -0.269 OA
BRANCH  37  40
ATOM     40  C   UNL A   1      39.016  30.549  32.170  1.00  0.00     0.039 A 
ATOM     41  C   UNL A   1      38.996  30.710  30.783  1.00  0.00     0.014 A 
ATOM     42  C   UNL A   1      40.205  30.731  32.883  1.00  0.00     0.014 A 
ATOM     43  C   UNL A   1      40.159  31.103  30.119  1.00  0.00     0.010 A 
ATOM     44  C   UNL A   1      41.341  31.202  32.228  1.00  0.00     0.010 A 
ATOM     45  C   UNL A   1      41.333  31.383  30.839  1.00  0.00    -0.014 A 
BRANCH  45  46
ATOM     46  C   UNL A   1      42.544  31.890  30.144  1.00  0.00     0.031 A 
ATOM     47  C   UNL A   1      42.694  33.351  29.821  1.00  0.00     0.074 A 
ATOM     48  C   UNL A   1      43.488  31.014  29.744  1.00  0.00     0.049 A 
ATOM     49  N   UNL A   1      43.687  33.966  29.233  1.00  0.00    -0.248 NA
ATOM     50  C   UNL A   1      41.572  34.235  30.179  1.00  0.00     0.031 C 
ATOM     51  C   UNL A   1      43.414  29.561  29.908  1.00  0.00     0.029 A 
ATOM     52  N   UNL A   1      44.681  31.215  29.097  1.00  0.00    -0.354 N 
ATOM     53  C   UNL A   1      43.300  35.296  29.118  1.00  0.00     0.074 A 
ATOM     54  C   UNL A   1      41.966  35.393  29.668  1.00  0.00     0.031 C 
ATOM     55  C   UNL A   1      44.517  29.003  29.384  1.00  0.00     0.029 A 
ATOM     56  C   UNL A   1      45.362  30.051  28.823  1.00  0.00     0.049 A 
ATOM     57  H   UNL A   1      45.019  32.107  28.853  1.00  0.00     0.167 HD
ATOM     58  C   UNL A   1      44.000  36.345  28.625  1.00  0.00     0.034 A 
ATOM     59  C   UNL A   1      46.530  29.848  28.183  1.00  0.00     0.034 A 
ATOM     60  C   UNL A   1      45.338  36.249  28.107  1.00  0.00     0.049 A 
ATOM     61  C   UNL A   1      47.312  31.036  27.694  1.00  0.00     0.074 A 
ATOM     62  C   UNL A   1      46.172  37.269  27.684  1.00  0.00     0.029 A 
ATOM     63  N   UNL A   1      46.033  35.064  27.919  1.00  0.00    -0.354 N 
ATOM     64  N   UNL A   1      47.009  32.309  27.765  1.00  0.00    -0.248 NA
ATOM     65  C   UNL A   1      48.616  30.761  27.076  1.00  0.00     0.031 C 
ATOM     66  C   UNL A   1      47.354  36.697  27.201  1.00  0.00     0.029 A 
ATOM     67  C   UNL A   1      47.276  35.324  27.365  1.00  0.00     0.049 A 
ATOM     68  H   UNL A   1      45.693  34.169  28.147  1.00  0.00     0.167 HD
ATOM     69  C   UNL A   1      48.093  32.989  27.225  1.00  0.00     0.074 A 
ATOM     70  C   UNL A   1      49.074  31.986  26.861  1.00  0.00     0.031 C 
ATOM     71  C   UNL A   1      48.258  34.322  27.034  1.00  0.00     0.034 A 
BRANCH  58  72
ATOM     72  C   UNL A   1      43.339  37.701  28.651  1.00  0.00     0.023 A 
ATOM     73  C   UNL A   1      42.526  38.106  27.572  1.00  0.00     0.012 A 
ATOM     74  C   UNL A   1      43.479  38.552  29.765  1.00  0.00     0.148 A 
ATOM     75  C   UNL A   1      41.900  39.353  27.581  1.00  0.00     0.002 A 
ATOM     76  C   UNL A   1      42.813  39.771  29.789  1.00  0.00     0.091 A 
ATOM     77  F   UNL A   1      44.272  38.160  30.772  1.00  0.00    -0.205 F 
ATOM     78  C   UNL A   1      42.035  40.179  28.694  1.00  0.00     0.022 A 
BRANCH  76  79
ATOM     79  S   UNL A   1      42.854  40.868  31.210  1.00  0.00     0.127 S 
ATOM     80  O   UNL A   1      42.642  39.930  32.312  1.00  0.00    -0.237 OA
ATOM     81  O   UNL A   1      44.206  41.421  31.133  1.00  0.00    -0.237 OA
ATOM     82  O   UNL A   1      41.788  41.837  31.001  1.00  0.00    -0.744 OA
ENDBRANCH  76  79
ENDBRANCH  58  72
BRANCH  59  83
ATOM     83  C   UNL A   1      47.047  28.462  28.015  1.00  0.00     0.023 A 
ATOM     84  C   UNL A   1      47.830  27.878  29.029  1.00  0.00     0.012 A 
ATOM     85  C   UNL A   1      46.732  27.705  26.868  1.00  0.00     0.148 A 
ATOM     86  C   UNL A   1      48.315  26.577  28.892  1.00  0.00     0.002 A 
ATOM     87  C   UNL A   1      47.168  26.391  26.765  1.00  0.00     0.091 A 
ATOM     88  F   UNL A   1      45.993  28.284  25.911  1.00  0.00    -0.205 F 
ATOM     89  C   UNL A   1      47.975  25.831  27.767  1.00  0.00     0.022 A 
BRANCH  87  90
ATOM     90  S   UNL A   1      46.662  25.312  25.422  1.00  0.00     0.127 S 
ATOM     91  O   UNL A   1      47.391  25.879  24.292  1.00  0.00    -0.237 OA
ATOM     92  O   UNL A   1      47.149  24.011  25.882  1.00  0.00    -0.237 OA
ATOM     93  O   UNL A   1      45.211  25.419  25.355  1.00  0.00    -0.744 OA
ENDBRANCH  87  90
ENDBRANCH  59  83
BRANCH  71  94
ATOM     94  C   UNL A   1      49.557  34.781  26.422  1.00  0.00     0.023 A 
ATOM     95  C   UNL A   1      49.656  34.964  25.028  1.00  0.00     0.012 A 
ATOM     96  C   UNL A   1      50.670  35.074  27.235  1.00  0.00     0.148 A 
ATOM     97  C   UNL A   1      50.852  35.385  24.450  1.00  0.00     0.002 A 
ATOM     98  C   UNL A   1      51.842  35.546  26.657  1.00  0.00     0.091 A 
ATOM     99  F   UNL A   1      50.567  34.877  28.558  1.00  0.00    -0.205 F 
ATOM    100  C   UNL A   1      51.941  35.686  25.264  1.00  0.00     0.022 A 
BRANCH  98 101
ATOM    101  S   UNL A   1      53.261  36.052  27.636  1.00  0.00     0.127 S 
ATOM    102  O   UNL A   1      52.682  37.098  28.479  1.00  0.00    -0.237 OA
ATOM    103  O   UNL A   1      53.603  34.818  28.345  1.00  0.00    -0.237 OA
ATOM    104  O   UNL A   1      54.268  36.500  26.684  1.00  0.00    -0.744 OA
ENDBRANCH  98 101
ENDBRANCH  71  94
ENDBRANCH  45  46
ENDBRANCH  37  40
ENDBRANCH  35  36
ENDBRANCH  34  35
ENDBRANCH   1  34
TORSDOF 19
ENDMDL
