MODEL 1
REMARK VINA RESULT:     -12.2      0.000      0.000
REMARK SMILES CC(=O)Nc1cccc(-c2cc(F)ccc2C(=O)NCCCCCCNC(=O)c2ccc(-c3c4nc(c(-c5cccc(S(=O)(=O)[O-])c5F)c5ccc([nH]5)c(-c5cccc(S(=O)(=O)[O-])c5F)c5nc(c(-c6cccc(S(=O)(=O)[O-])c6F)c6ccc3[nH]6)C=C5)C=C4)cc2)c1
REMARK SMILES IDX 23 1 22 2 21 3 20 4 19 5 17 6 18 7 16 9 10 10 11 11 12 12
REMARK SMILES IDX 15 13 13 14 14 15 9 16 5 17 6 18 92 19 7 20 8 21 4 22 1 23
REMARK SMILES IDX 2 24 3 25 24 27 25 28 26 29 27 30 28 32 29 33 30 34 91 35
REMARK SMILES IDX 31 36 90 37 32 38 33 39 34 40 84 41 35 42 89 43 83 44 85 45
REMARK SMILES IDX 36 46 88 47 82 48 81 49 37 51 69 52 49 53 68 54 50 55 53 56
REMARK SMILES IDX 67 57 86 58 51 59 52 60 66 62 87 63 54 64 38 65 39 66 47 67
REMARK SMILES IDX 40 68 42 69 48 70 41 71 43 72 44 73 45 74 46 75 70 76 71 77
REMARK SMILES IDX 79 78 72 79 74 80 80 81 73 82 75 83 76 84 77 85 78 86 55 87
REMARK SMILES IDX 56 88 64 89 57 90 59 91 65 92 58 93 60 94 61 95 62 96 63 97
REMARK H PARENT 19 8 4 26 26 31 85 50 53 61
REMARK Flexibility Score: inf
ROOT
ATOM      1  C   UNL A   1      31.564  27.338  25.559  1.00  0.00     0.002 C 
ENDROOT
BRANCH   1   2
ATOM      2  C   UNL A   1      30.866  26.594  24.413  1.00  0.00     0.002 C 
BRANCH   2   3
ATOM      3  C   UNL A   1      31.670  25.602  23.563  1.00  0.00     0.021 C 
BRANCH   3   4
ATOM      4  C   UNL A   1      31.048  24.249  23.237  1.00  0.00     0.116 C 
BRANCH   4   5
ATOM      5  N   UNL A   1      30.508  23.493  24.336  1.00  0.00    -0.352 N 
ATOM      6  C   UNL A   1      31.115  22.890  25.414  1.00  0.00     0.251 C 
ATOM      7  O   UNL A   1      30.343  22.465  26.283  1.00  0.00    -0.269 OA
ATOM      8  H   UNL A   1      29.530  23.387  24.312  1.00  0.00     0.163 HD
BRANCH   6   9
ATOM      9  C   UNL A   1      32.589  22.618  25.613  1.00  0.00     0.047 A 
ATOM     10  C   UNL A   1      33.380  21.502  25.235  1.00  0.00    -0.003 A 
ATOM     11  C   UNL A   1      34.781  21.553  25.476  1.00  0.00     0.048 A 
ATOM     12  C   UNL A   1      35.389  22.657  26.055  1.00  0.00     0.123 A 
ATOM     13  C   UNL A   1      33.259  23.729  26.201  1.00  0.00     0.017 A 
ATOM     14  F   UNL A   1      36.715  22.662  26.247  1.00  0.00    -0.207 F 
ATOM     15  C   UNL A   1      34.639  23.753  26.420  1.00  0.00     0.040 A 
BRANCH  10  16
ATOM     16  C   UNL A   1      32.912  20.272  24.578  1.00  0.00    -0.015 A 
ATOM     17  C   UNL A   1      32.447  17.881  24.613  1.00  0.00     0.041 A 
ATOM     18  C   UNL A   1      32.150  17.933  23.243  1.00  0.00     0.026 A 
ATOM     19  C   UNL A   1      32.791  19.061  25.279  1.00  0.00     0.034 A 
ATOM     20  C   UNL A   1      32.207  19.135  22.542  1.00  0.00     0.003 A 
ATOM     21  C   UNL A   1      32.584  20.296  23.208  1.00  0.00     0.009 A 
BRANCH  17  22
ATOM     22  N   UNL A   1      32.544  16.596  25.178  1.00  0.00    -0.326 N 
ATOM     23  C   UNL A   1      34.986  16.115  25.084  1.00  0.00     0.114 C 
ATOM     24  C   UNL A   1      33.556  15.687  25.237  1.00  0.00     0.221 C 
ATOM     25  O   UNL A   1      33.277  14.506  25.456  1.00  0.00    -0.275 OA
ATOM     26  H   UNL A   1      31.718  16.296  25.620  1.00  0.00     0.169 HD
ENDBRANCH  17  22
ENDBRANCH  10  16
ENDBRANCH   6   9
ENDBRANCH   4   5
ENDBRANCH   3   4
ENDBRANCH   2   3
ENDBRANCH   1   2
BRANCH   1  27
ATOM     27  C   UNL A   1      33.078  27.539  25.484  1.00  0.00     0.021 C 
BRANCH  27  28
ATOM     28  C   UNL A   1      33.791  28.072  26.719  1.00  0.00     0.116 C 
BRANCH  28  29
ATOM     29  N   UNL A   1      33.623  29.499  26.901  1.00  0.00    -0.352 N 
ATOM     30  C   UNL A   1      34.396  30.419  27.566  1.00  0.00     0.251 C 
ATOM     31  H   UNL A   1      32.818  29.873  26.477  1.00  0.00     0.163 HD
ATOM     32  O   UNL A   1      33.963  31.565  27.688  1.00  0.00    -0.269 OA
BRANCH  30  33
ATOM     33  C   UNL A   1      35.728  30.084  28.144  1.00  0.00     0.039 A 
ATOM     34  C   UNL A   1      36.855  30.230  27.324  1.00  0.00     0.014 A 
ATOM     35  C   UNL A   1      35.886  29.535  29.419  1.00  0.00     0.014 A 
ATOM     36  C   UNL A   1      38.120  29.829  27.773  1.00  0.00     0.010 A 
ATOM     37  C   UNL A   1      37.161  29.205  29.895  1.00  0.00     0.010 A 
ATOM     38  C   UNL A   1      38.287  29.307  29.064  1.00  0.00    -0.014 A 
BRANCH  38  39
ATOM     39  C   UNL A   1      39.611  28.797  29.519  1.00  0.00     0.031 A 
ATOM     40  C   UNL A   1      40.341  29.479  30.649  1.00  0.00     0.074 A 
ATOM     41  C   UNL A   1      40.190  27.753  28.895  1.00  0.00     0.049 A 
ATOM     42  N   UNL A   1      41.498  29.181  31.187  1.00  0.00    -0.248 NA
ATOM     43  C   UNL A   1      39.704  30.669  31.232  1.00  0.00     0.031 C 
ATOM     44  C   UNL A   1      39.641  27.054  27.733  1.00  0.00     0.029 A 
ATOM     45  N   UNL A   1      41.382  27.115  29.137  1.00  0.00    -0.354 N 
ATOM     46  C   UNL A   1      41.746  30.169  32.133  1.00  0.00     0.074 A 
ATOM     47  C   UNL A   1      40.637  31.095  32.072  1.00  0.00     0.031 C 
ATOM     48  C   UNL A   1      40.496  26.088  27.359  1.00  0.00     0.029 A 
ATOM     49  C   UNL A   1      41.657  26.102  28.247  1.00  0.00     0.049 A 
ATOM     50  H   UNL A   1      41.984  27.359  29.876  1.00  0.00     0.167 HD
ATOM     51  C   UNL A   1      42.779  30.282  33.002  1.00  0.00     0.034 A 
ATOM     52  C   UNL A   1      42.718  25.274  28.158  1.00  0.00     0.034 A 
ATOM     53  C   UNL A   1      43.850  29.328  33.111  1.00  0.00     0.049 A 
ATOM     54  C   UNL A   1      43.806  25.352  29.193  1.00  0.00     0.074 A 
ATOM     55  C   UNL A   1      44.883  29.293  34.032  1.00  0.00     0.029 A 
ATOM     56  N   UNL A   1      44.029  28.239  32.272  1.00  0.00    -0.354 N 
ATOM     57  N   UNL A   1      43.930  26.185  30.198  1.00  0.00    -0.248 NA
ATOM     58  C   UNL A   1      44.874  24.344  29.116  1.00  0.00     0.031 C 
ATOM     59  C   UNL A   1      45.694  28.189  33.740  1.00  0.00     0.029 A 
ATOM     60  C   UNL A   1      45.155  27.527  32.648  1.00  0.00     0.049 A 
ATOM     61  H   UNL A   1      43.440  28.006  31.518  1.00  0.00     0.167 HD
ATOM     62  C   UNL A   1      45.067  25.783  30.891  1.00  0.00     0.074 A 
ATOM     63  C   UNL A   1      45.584  24.619  30.202  1.00  0.00     0.031 C 
ATOM     64  C   UNL A   1      45.635  26.337  31.991  1.00  0.00     0.034 A 
BRANCH  51  65
ATOM     65  C   UNL A   1      42.768  31.459  33.946  1.00  0.00     0.023 A 
ATOM     66  C   UNL A   1      43.391  32.665  33.561  1.00  0.00     0.012 A 
ATOM     67  C   UNL A   1      42.126  31.383  35.197  1.00  0.00     0.148 A 
ATOM     68  C   UNL A   1      43.419  33.758  34.427  1.00  0.00     0.002 A 
ATOM     69  C   UNL A   1      42.119  32.493  36.035  1.00  0.00     0.091 A 
ATOM     70  F   UNL A   1      41.559  30.224  35.560  1.00  0.00    -0.205 F 
ATOM     71  C   UNL A   1      42.776  33.676  35.659  1.00  0.00     0.022 A 
BRANCH  69  72
ATOM     72  S   UNL A   1      41.247  32.500  37.605  1.00  0.00     0.127 S 
ATOM     73  O   UNL A   1      42.045  31.560  38.392  1.00  0.00    -0.237 OA
ATOM     74  O   UNL A   1      41.364  33.897  38.025  1.00  0.00    -0.237 OA
ATOM     75  O   UNL A   1      39.886  32.077  37.302  1.00  0.00    -0.744 OA
ENDBRANCH  69  72
ENDBRANCH  51  65
BRANCH  52  76
ATOM     76  C   UNL A   1      42.742  24.238  27.087  1.00  0.00     0.023 A 
ATOM     77  C   UNL A   1      43.490  24.470  25.916  1.00  0.00     0.012 A 
ATOM     78  C   UNL A   1      42.090  23.003  27.255  1.00  0.00     0.148 A 
ATOM     79  C   UNL A   1      43.572  23.494  24.922  1.00  0.00     0.002 A 
ATOM     80  C   UNL A   1      42.220  22.015  26.286  1.00  0.00     0.091 A 
ATOM     81  F   UNL A   1      41.377  22.809  28.373  1.00  0.00    -0.205 F 
ATOM     82  C   UNL A   1      42.949  22.263  25.112  1.00  0.00     0.022 A 
BRANCH  80  83
ATOM     83  S   UNL A   1      41.570  20.354  26.505  1.00  0.00     0.127 S 
ATOM     84  O   UNL A   1      42.106  19.993  27.815  1.00  0.00    -0.237 OA
ATOM     85  O   UNL A   1      40.128  20.589  26.470  1.00  0.00    -0.237 OA
ATOM     86  O   UNL A   1      42.081  19.579  25.381  1.00  0.00    -0.744 OA
ENDBRANCH  80  83
ENDBRANCH  52  76
BRANCH  64  87
ATOM     87  C   UNL A   1      46.871  25.680  32.549  1.00  0.00     0.023 A 
ATOM     88  C   UNL A   1      48.142  26.051  32.065  1.00  0.00     0.012 A 
ATOM     89  C   UNL A   1      46.780  24.752  33.605  1.00  0.00     0.148 A 
ATOM     90  C   UNL A   1      49.298  25.483  32.599  1.00  0.00     0.002 A 
ATOM     91  C   UNL A   1      47.940  24.225  34.164  1.00  0.00     0.091 A 
ATOM     92  F   UNL A   1      45.563  24.393  34.041  1.00  0.00    -0.205 F 
ATOM     93  C   UNL A   1      49.198  24.581  33.654  1.00  0.00     0.022 A 
BRANCH  91  94
ATOM     94  S   UNL A   1      47.898  23.130  35.588  1.00  0.00     0.127 S 
ATOM     95  O   UNL A   1      47.363  24.010  36.626  1.00  0.00    -0.237 OA
ATOM     96  O   UNL A   1      46.983  22.077  35.151  1.00  0.00    -0.237 OA
ATOM     97  O   UNL A   1      49.272  22.687  35.784  1.00  0.00    -0.744 OA
ENDBRANCH  91  94
ENDBRANCH  64  87
ENDBRANCH  38  39
ENDBRANCH  30  33
ENDBRANCH  28  29
ENDBRANCH  27  28
ENDBRANCH   1  27
TORSDOF 18
ENDMDL
MODEL 2
REMARK VINA RESULT:     -12.0      1.690      2.144
REMARK SMILES CC(=O)Nc1cccc(-c2cc(F)ccc2C(=O)NCCCCCCNC(=O)c2ccc(-c3c4nc(c(-c5cccc(S(=O)(=O)[O-])c5F)c5ccc([nH]5)c(-c5cccc(S(=O)(=O)[O-])c5F)c5nc(c(-c6cccc(S(=O)(=O)[O-])c6F)c6ccc3[nH]6)C=C5)C=C4)cc2)c1
REMARK SMILES IDX 23 1 22 2 21 3 20 4 19 5 17 6 18 7 16 9 10 10 11 11 12 12
REMARK SMILES IDX 15 13 13 14 14 15 9 16 5 17 6 18 92 19 7 20 8 21 4 22 1 23
REMARK SMILES IDX 2 24 3 25 24 27 25 28 26 29 27 30 28 32 29 33 30 34 91 35
REMARK SMILES IDX 31 36 90 37 32 38 33 39 34 40 84 41 35 42 89 43 83 44 85 45
REMARK SMILES IDX 36 46 88 47 82 48 81 49 37 51 69 52 49 53 68 54 50 55 53 56
REMARK SMILES IDX 67 57 86 58 51 59 52 60 66 62 87 63 54 64 38 65 39 66 47 67
REMARK SMILES IDX 40 68 42 69 48 70 41 71 43 72 44 73 45 74 46 75 70 76 71 77
REMARK SMILES IDX 79 78 72 79 74 80 80 81 73 82 75 83 76 84 77 85 78 86 55 87
REMARK SMILES IDX 56 88 64 89 57 90 59 91 65 92 58 93 60 94 61 95 62 96 63 97
REMARK H PARENT 19 8 4 26 26 31 85 50 53 61
REMARK Flexibility Score: inf
ROOT
ATOM      1  C   UNL A   1      31.489  27.736  26.370  1.00  0.00     0.002 C 
ENDROOT
BRANCH   1   2
ATOM      2  C   UNL A   1      30.820  26.387  26.076  1.00  0.00     0.002 C 
BRANCH   2   3
ATOM      3  C   UNL A   1      30.271  26.112  24.670  1.00  0.00     0.021 C 
BRANCH   3   4
ATOM      4  C   UNL A   1      30.639  24.799  23.987  1.00  0.00     0.116 C 
BRANCH   4   5
ATOM      5  N   UNL A   1      30.449  23.590  24.745  1.00  0.00    -0.352 N 
ATOM      6  C   UNL A   1      31.343  22.776  25.402  1.00  0.00     0.251 C 
ATOM      7  O   UNL A   1      30.832  21.901  26.113  1.00  0.00    -0.269 OA
ATOM      8  H   UNL A   1      29.513  23.292  24.802  1.00  0.00     0.163 HD
BRANCH   6   9
ATOM      9  C   UNL A   1      32.850  22.775  25.289  1.00  0.00     0.047 A 
ATOM     10  C   UNL A   1      33.734  21.808  24.741  1.00  0.00    -0.003 A 
ATOM     11  C   UNL A   1      35.122  22.113  24.689  1.00  0.00     0.048 A 
ATOM     12  C   UNL A   1      35.629  23.321  25.143  1.00  0.00     0.123 A 
ATOM     13  C   UNL A   1      33.417  24.001  25.740  1.00  0.00     0.017 A 
ATOM     14  F   UNL A   1      36.943  23.566  25.057  1.00  0.00    -0.207 F 
ATOM     15  C   UNL A   1      34.786  24.276  25.669  1.00  0.00     0.040 A 
BRANCH  10  16
ATOM     16  C   UNL A   1      33.368  20.499  24.180  1.00  0.00    -0.015 A 
ATOM     17  C   UNL A   1      33.676  18.087  24.019  1.00  0.00     0.041 A 
ATOM     18  C   UNL A   1      32.736  18.051  22.978  1.00  0.00     0.026 A 
ATOM     19  C   UNL A   1      33.958  19.309  24.638  1.00  0.00     0.034 A 
ATOM     20  C   UNL A   1      32.097  19.211  22.549  1.00  0.00     0.003 A 
ATOM     21  C   UNL A   1      32.411  20.426  23.149  1.00  0.00     0.009 A 
BRANCH  17  22
ATOM     22  N   UNL A   1      34.398  16.901  24.244  1.00  0.00    -0.326 N 
ATOM     23  C   UNL A   1      32.762  15.454  25.441  1.00  0.00     0.114 C 
ATOM     24  C   UNL A   1      34.157  15.804  25.015  1.00  0.00     0.221 C 
ATOM     25  O   UNL A   1      35.107  15.081  25.327  1.00  0.00    -0.275 OA
ATOM     26  H   UNL A   1      35.245  16.854  23.746  1.00  0.00     0.169 HD
ENDBRANCH  17  22
ENDBRANCH  10  16
ENDBRANCH   6   9
ENDBRANCH   4   5
ENDBRANCH   3   4
ENDBRANCH   2   3
ENDBRANCH   1   2
BRANCH   1  27
ATOM     27  C   UNL A   1      33.014  27.826  26.298  1.00  0.00     0.021 C 
BRANCH  27  28
ATOM     28  C   UNL A   1      33.626  28.976  25.509  1.00  0.00     0.116 C 
BRANCH  28  29
ATOM     29  N   UNL A   1      33.179  30.277  25.962  1.00  0.00    -0.352 N 
ATOM     30  C   UNL A   1      33.604  31.062  27.006  1.00  0.00     0.251 C 
ATOM     31  H   UNL A   1      32.446  30.664  25.432  1.00  0.00     0.163 HD
ATOM     32  O   UNL A   1      32.964  32.082  27.265  1.00  0.00    -0.269 OA
BRANCH  30  33
ATOM     33  C   UNL A   1      34.797  30.727  27.831  1.00  0.00     0.039 A 
ATOM     34  C   UNL A   1      35.967  31.472  27.629  1.00  0.00     0.014 A 
ATOM     35  C   UNL A   1      34.831  29.642  28.712  1.00  0.00     0.014 A 
ATOM     36  C   UNL A   1      37.152  31.135  28.295  1.00  0.00     0.010 A 
ATOM     37  C   UNL A   1      35.995  29.353  29.435  1.00  0.00     0.010 A 
ATOM     38  C   UNL A   1      37.180  30.067  29.204  1.00  0.00    -0.014 A 
BRANCH  38  39
ATOM     39  C   UNL A   1      38.455  29.646  29.851  1.00  0.00     0.031 A 
ATOM     40  C   UNL A   1      38.836  30.189  31.206  1.00  0.00     0.074 A 
ATOM     41  C   UNL A   1      39.301  28.814  29.213  1.00  0.00     0.049 A 
ATOM     42  N   UNL A   1      39.899  29.939  31.929  1.00  0.00    -0.248 NA
ATOM     43  C   UNL A   1      37.919  31.165  31.815  1.00  0.00     0.031 C 
ATOM     44  C   UNL A   1      39.104  28.282  27.864  1.00  0.00     0.029 A 
ATOM     45  N   UNL A   1      40.509  28.292  29.606  1.00  0.00    -0.354 N 
ATOM     46  C   UNL A   1      39.800  30.757  33.049  1.00  0.00     0.074 A 
ATOM     47  C   UNL A   1      38.593  31.537  32.893  1.00  0.00     0.031 C 
ATOM     48  C   UNL A   1      40.156  27.512  27.540  1.00  0.00     0.029 A 
ATOM     49  C   UNL A   1      41.106  27.503  28.651  1.00  0.00     0.049 A 
ATOM     50  H   UNL A   1      40.910  28.465  30.488  1.00  0.00     0.167 HD
ATOM     51  C   UNL A   1      40.615  30.831  34.129  1.00  0.00     0.034 A 
ATOM     52  C   UNL A   1      42.281  26.840  28.667  1.00  0.00     0.034 A 
ATOM     53  C   UNL A   1      41.781  30.011  34.319  1.00  0.00     0.049 A 
ATOM     54  C   UNL A   1      43.122  26.856  29.913  1.00  0.00     0.074 A 
ATOM     55  C   UNL A   1      42.609  29.931  35.426  1.00  0.00     0.029 A 
ATOM     56  N   UNL A   1      42.288  29.127  33.379  1.00  0.00    -0.354 N 
ATOM     57  N   UNL A   1      42.917  27.497  31.039  1.00  0.00    -0.248 NA
ATOM     58  C   UNL A   1      44.330  26.017  29.915  1.00  0.00     0.031 C 
ATOM     59  C   UNL A   1      43.624  29.008  35.149  1.00  0.00     0.029 A 
ATOM     60  C   UNL A   1      43.417  28.499  33.876  1.00  0.00     0.049 A 
ATOM     61  H   UNL A   1      41.900  28.968  32.488  1.00  0.00     0.167 HD
ATOM     62  C   UNL A   1      43.947  27.114  31.891  1.00  0.00     0.074 A 
ATOM     63  C   UNL A   1      44.764  26.169  31.159  1.00  0.00     0.031 C 
ATOM     64  C   UNL A   1      44.197  27.519  33.162  1.00  0.00     0.034 A 
BRANCH  51  65
ATOM     65  C   UNL A   1      40.236  31.802  35.220  1.00  0.00     0.023 A 
ATOM     66  C   UNL A   1      40.860  33.066  35.274  1.00  0.00     0.012 A 
ATOM     67  C   UNL A   1      39.252  31.478  36.174  1.00  0.00     0.148 A 
ATOM     68  C   UNL A   1      40.549  33.971  36.289  1.00  0.00     0.002 A 
ATOM     69  C   UNL A   1      38.914  32.405  37.155  1.00  0.00     0.091 A 
ATOM     70  F   UNL A   1      38.684  30.265  36.126  1.00  0.00    -0.205 F 
ATOM     71  C   UNL A   1      39.570  33.644  37.223  1.00  0.00     0.022 A 
BRANCH  69  72
ATOM     72  S   UNL A   1      37.609  32.097  38.351  1.00  0.00     0.127 S 
ATOM     73  O   UNL A   1      37.301  30.690  38.098  1.00  0.00    -0.237 OA
ATOM     74  O   UNL A   1      38.282  32.354  39.625  1.00  0.00    -0.237 OA
ATOM     75  O   UNL A   1      36.550  33.045  38.030  1.00  0.00    -0.744 OA
ENDBRANCH  69  72
ENDBRANCH  51  65
BRANCH  52  76
ATOM     76  C   UNL A   1      42.676  26.032  27.479  1.00  0.00     0.023 A 
ATOM     77  C   UNL A   1      43.570  26.575  26.536  1.00  0.00     0.012 A 
ATOM     78  C   UNL A   1      42.226  24.708  27.318  1.00  0.00     0.148 A 
ATOM     79  C   UNL A   1      43.996  25.820  25.443  1.00  0.00     0.002 A 
ATOM     80  C   UNL A   1      42.696  23.942  26.257  1.00  0.00     0.091 A 
ATOM     81  F   UNL A   1      41.368  24.215  28.222  1.00  0.00    -0.205 F 
ATOM     82  C   UNL A   1      43.569  24.500  25.311  1.00  0.00     0.022 A 
BRANCH  80  83
ATOM     83  S   UNL A   1      42.313  22.196  26.081  1.00  0.00     0.127 S 
ATOM     84  O   UNL A   1      40.861  22.223  25.921  1.00  0.00    -0.237 OA
ATOM     85  O   UNL A   1      43.061  21.844  24.876  1.00  0.00    -0.237 OA
ATOM     86  O   UNL A   1      42.800  21.560  27.299  1.00  0.00    -0.744 OA
ENDBRANCH  80  83
ENDBRANCH  52  76
BRANCH  64  87
ATOM     87  C   UNL A   1      45.389  26.925  33.866  1.00  0.00     0.023 A 
ATOM     88  C   UNL A   1      46.652  27.538  33.745  1.00  0.00     0.012 A 
ATOM     89  C   UNL A   1      45.245  25.805  34.708  1.00  0.00     0.148 A 
ATOM     90  C   UNL A   1      47.758  27.025  34.423  1.00  0.00     0.002 A 
ATOM     91  C   UNL A   1      46.342  25.327  35.417  1.00  0.00     0.091 A 
ATOM     92  F   UNL A   1      44.041  25.220  34.797  1.00  0.00    -0.205 F 
ATOM     93  C   UNL A   1      47.601  25.929  35.267  1.00  0.00     0.022 A 
BRANCH  91  94
ATOM     94  S   UNL A   1      46.200  23.980  36.598  1.00  0.00     0.127 S 
ATOM     95  O   UNL A   1      47.550  23.929  37.157  1.00  0.00    -0.237 OA
ATOM     96  O   UNL A   1      45.177  24.474  37.520  1.00  0.00    -0.237 OA
ATOM     97  O   UNL A   1      45.794  22.817  35.821  1.00  0.00    -0.744 OA
ENDBRANCH  91  94
ENDBRANCH  64  87
ENDBRANCH  38  39
ENDBRANCH  30  33
ENDBRANCH  28  29
ENDBRANCH  27  28
ENDBRANCH   1  27
TORSDOF 18
ENDMDL
MODEL 3
REMARK VINA RESULT:     -12.0      2.715      3.841
REMARK SMILES CC(=O)Nc1cccc(-c2cc(F)ccc2C(=O)NCCCCCCNC(=O)c2ccc(-c3c4nc(c(-c5cccc(S(=O)(=O)[O-])c5F)c5ccc([nH]5)c(-c5cccc(S(=O)(=O)[O-])c5F)c5nc(c(-c6cccc(S(=O)(=O)[O-])c6F)c6ccc3[nH]6)C=C5)C=C4)cc2)c1
REMARK SMILES IDX 23 1 22 2 21 3 20 4 19 5 17 6 18 7 16 9 10 10 11 11 12 12
REMARK SMILES IDX 15 13 13 14 14 15 9 16 5 17 6 18 92 19 7 20 8 21 4 22 1 23
REMARK SMILES IDX 2 24 3 25 24 27 25 28 26 29 27 30 28 32 29 33 30 34 91 35
REMARK SMILES IDX 31 36 90 37 32 38 33 39 34 40 84 41 35 42 89 43 83 44 85 45
REMARK SMILES IDX 36 46 88 47 82 48 81 49 37 51 69 52 49 53 68 54 50 55 53 56
REMARK SMILES IDX 67 57 86 58 51 59 52 60 66 62 87 63 54 64 38 65 39 66 47 67
REMARK SMILES IDX 40 68 42 69 48 70 41 71 43 72 44 73 45 74 46 75 70 76 71 77
REMARK SMILES IDX 79 78 72 79 74 80 80 81 73 82 75 83 76 84 77 85 78 86 55 87
REMARK SMILES IDX 56 88 64 89 57 90 59 91 65 92 58 93 60 94 61 95 62 96 63 97
REMARK H PARENT 19 8 4 26 26 31 85 50 53 61
REMARK Flexibility Score: inf
ROOT
ATOM      1  C   UNL A   1      30.703  30.430  24.202  1.00  0.00     0.002 C 
ENDROOT
BRANCH   1   2
ATOM      2  C   UNL A   1      30.742  28.934  23.863  1.00  0.00     0.002 C 
BRANCH   2   3
ATOM      3  C   UNL A   1      29.425  28.177  23.653  1.00  0.00     0.021 C 
BRANCH   3   4
ATOM      4  C   UNL A   1      29.470  26.659  23.511  1.00  0.00     0.116 C 
BRANCH   4   5
ATOM      5  N   UNL A   1      29.303  25.883  24.712  1.00  0.00    -0.352 N 
ATOM      6  C   UNL A   1      30.050  25.814  25.865  1.00  0.00     0.251 C 
ATOM      7  O   UNL A   1      29.533  25.173  26.789  1.00  0.00    -0.269 OA
ATOM      8  H   UNL A   1      28.513  25.296  24.706  1.00  0.00     0.163 HD
BRANCH   6   9
ATOM      9  C   UNL A   1      31.443  26.352  26.099  1.00  0.00     0.047 A 
ATOM     10  C   UNL A   1      32.683  25.987  25.511  1.00  0.00    -0.003 A 
ATOM     11  C   UNL A   1      33.843  26.733  25.861  1.00  0.00     0.048 A 
ATOM     12  C   UNL A   1      33.793  27.802  26.743  1.00  0.00     0.123 A 
ATOM     13  C   UNL A   1      31.442  27.458  26.996  1.00  0.00     0.017 A 
ATOM     14  F   UNL A   1      34.911  28.482  27.029  1.00  0.00    -0.207 F 
ATOM     15  C   UNL A   1      32.597  28.176  27.316  1.00  0.00     0.040 A 
BRANCH  10  16
ATOM     16  C   UNL A   1      32.913  24.914  24.532  1.00  0.00    -0.015 A 
ATOM     17  C   UNL A   1      33.228  22.561  23.982  1.00  0.00     0.041 A 
ATOM     18  C   UNL A   1      33.494  22.923  22.653  1.00  0.00     0.026 A 
ATOM     19  C   UNL A   1      32.902  23.560  24.905  1.00  0.00     0.034 A 
ATOM     20  C   UNL A   1      33.451  24.255  22.250  1.00  0.00     0.003 A 
ATOM     21  C   UNL A   1      33.160  25.242  23.184  1.00  0.00     0.009 A 
BRANCH  17  22
ATOM     22  N   UNL A   1      33.483  21.221  24.324  1.00  0.00    -0.326 N 
ATOM     23  C   UNL A   1      35.637  21.348  25.565  1.00  0.00     0.114 C 
ATOM     24  C   UNL A   1      34.580  20.587  24.822  1.00  0.00     0.221 C 
ATOM     25  O   UNL A   1      34.670  19.365  24.683  1.00  0.00    -0.275 OA
ATOM     26  H   UNL A   1      32.715  20.623  24.174  1.00  0.00     0.169 HD
ENDBRANCH  17  22
ENDBRANCH  10  16
ENDBRANCH   6   9
ENDBRANCH   4   5
ENDBRANCH   3   4
ENDBRANCH   2   3
ENDBRANCH   1   2
BRANCH   1  27
ATOM     27  C   UNL A   1      30.759  30.846  25.672  1.00  0.00     0.021 C 
BRANCH  27  28
ATOM     28  C   UNL A   1      32.098  31.303  26.235  1.00  0.00     0.116 C 
BRANCH  28  29
ATOM     29  N   UNL A   1      32.067  32.655  26.753  1.00  0.00    -0.352 N 
ATOM     30  C   UNL A   1      32.912  33.308  27.617  1.00  0.00     0.251 C 
ATOM     31  H   UNL A   1      31.311  33.197  26.432  1.00  0.00     0.163 HD
ATOM     32  O   UNL A   1      32.589  34.429  28.010  1.00  0.00    -0.269 OA
BRANCH  30  33
ATOM     33  C   UNL A   1      34.191  32.714  28.094  1.00  0.00     0.039 A 
ATOM     34  C   UNL A   1      34.158  31.416  28.621  1.00  0.00     0.014 A 
ATOM     35  C   UNL A   1      35.392  33.430  28.136  1.00  0.00     0.014 A 
ATOM     36  C   UNL A   1      35.306  30.845  29.184  1.00  0.00     0.010 A 
ATOM     37  C   UNL A   1      36.556  32.831  28.630  1.00  0.00     0.010 A 
ATOM     38  C   UNL A   1      36.519  31.549  29.199  1.00  0.00    -0.014 A 
BRANCH  38  39
ATOM     39  C   UNL A   1      37.722  30.985  29.873  1.00  0.00     0.031 A 
ATOM     40  C   UNL A   1      38.061  31.387  31.288  1.00  0.00     0.074 A 
ATOM     41  C   UNL A   1      38.545  30.148  29.211  1.00  0.00     0.049 A 
ATOM     42  N   UNL A   1      39.061  31.002  32.041  1.00  0.00    -0.248 NA
ATOM     43  C   UNL A   1      37.179  32.374  31.929  1.00  0.00     0.031 C 
ATOM     44  C   UNL A   1      38.391  29.743  27.814  1.00  0.00     0.029 A 
ATOM     45  N   UNL A   1      39.690  29.509  29.621  1.00  0.00    -0.354 N 
ATOM     46  C   UNL A   1      38.953  31.731  33.221  1.00  0.00     0.074 A 
ATOM     47  C   UNL A   1      37.813  32.607  33.069  1.00  0.00     0.031 C 
ATOM     48  C   UNL A   1      39.405  28.928  27.480  1.00  0.00     0.029 A 
ATOM     49  C   UNL A   1      40.286  28.759  28.634  1.00  0.00     0.049 A 
ATOM     50  H   UNL A   1      40.050  29.581  30.534  1.00  0.00     0.167 HD
ATOM     51  C   UNL A   1      39.708  31.657  34.344  1.00  0.00     0.034 A 
ATOM     52  C   UNL A   1      41.411  28.014  28.654  1.00  0.00     0.034 A 
ATOM     53  C   UNL A   1      40.802  30.741  34.523  1.00  0.00     0.049 A 
ATOM     54  C   UNL A   1      42.177  27.867  29.940  1.00  0.00     0.074 A 
ATOM     55  C   UNL A   1      41.557  30.511  35.660  1.00  0.00     0.029 A 
ATOM     56  N   UNL A   1      41.301  29.902  33.538  1.00  0.00    -0.354 N 
ATOM     57  N   UNL A   1      41.951  28.427  31.103  1.00  0.00    -0.248 NA
ATOM     58  C   UNL A   1      43.323  26.944  29.932  1.00  0.00     0.031 C 
ATOM     59  C   UNL A   1      42.521  29.543  35.358  1.00  0.00     0.029 A 
ATOM     60  C   UNL A   1      42.354  29.156  34.038  1.00  0.00     0.049 A 
ATOM     61  H   UNL A   1      40.956  29.846  32.619  1.00  0.00     0.167 HD
ATOM     62  C   UNL A   1      42.901  27.902  31.973  1.00  0.00     0.074 A 
ATOM     63  C   UNL A   1      43.694  26.963  31.205  1.00  0.00     0.031 C 
ATOM     64  C   UNL A   1      43.105  28.183  33.284  1.00  0.00     0.034 A 
BRANCH  51  65
ATOM     65  C   UNL A   1      39.333  32.561  35.492  1.00  0.00     0.023 A 
ATOM     66  C   UNL A   1      39.764  33.905  35.489  1.00  0.00     0.012 A 
ATOM     67  C   UNL A   1      38.542  32.094  36.559  1.00  0.00     0.148 A 
ATOM     68  C   UNL A   1      39.456  34.754  36.552  1.00  0.00     0.002 A 
ATOM     69  C   UNL A   1      38.200  32.960  37.592  1.00  0.00     0.091 A 
ATOM     70  F   UNL A   1      38.160  30.809  36.561  1.00  0.00    -0.205 F 
ATOM     71  C   UNL A   1      38.667  34.284  37.599  1.00  0.00     0.022 A 
BRANCH  69  72
ATOM     72  S   UNL A   1      37.122  32.461  38.940  1.00  0.00     0.127 S 
ATOM     73  O   UNL A   1      35.802  32.784  38.400  1.00  0.00    -0.237 OA
ATOM     74  O   UNL A   1      37.400  31.028  39.051  1.00  0.00    -0.237 OA
ATOM     75  O   UNL A   1      37.545  33.245  40.093  1.00  0.00    -0.744 OA
ENDBRANCH  69  72
ENDBRANCH  51  65
BRANCH  52  76
ATOM     76  C   UNL A   1      41.817  27.279  27.424  1.00  0.00     0.023 A 
ATOM     77  C   UNL A   1      42.390  27.988  26.350  1.00  0.00     0.012 A 
ATOM     78  C   UNL A   1      41.704  25.878  27.342  1.00  0.00     0.148 A 
ATOM     79  C   UNL A   1      42.827  27.315  25.208  1.00  0.00     0.002 A 
ATOM     80  C   UNL A   1      42.191  25.209  26.225  1.00  0.00     0.091 A 
ATOM     81  F   UNL A   1      41.148  25.226  28.373  1.00  0.00    -0.205 F 
ATOM     82  C   UNL A   1      42.739  25.926  25.151  1.00  0.00     0.022 A 
BRANCH  80  83
ATOM     83  S   UNL A   1      42.248  23.416  26.121  1.00  0.00     0.127 S 
ATOM     84  O   UNL A   1      43.014  23.071  27.316  1.00  0.00    -0.237 OA
ATOM     85  O   UNL A   1      40.829  23.067  26.174  1.00  0.00    -0.237 OA
ATOM     86  O   UNL A   1      42.895  23.115  24.850  1.00  0.00    -0.744 OA
ENDBRANCH  80  83
ENDBRANCH  52  76
BRANCH  64  87
ATOM     87  C   UNL A   1      44.211  27.448  33.996  1.00  0.00     0.023 A 
ATOM     88  C   UNL A   1      45.531  27.940  33.937  1.00  0.00     0.012 A 
ATOM     89  C   UNL A   1      43.932  26.315  34.785  1.00  0.00     0.148 A 
ATOM     90  C   UNL A   1      46.559  27.295  34.624  1.00  0.00     0.002 A 
ATOM     91  C   UNL A   1      44.955  25.705  35.505  1.00  0.00     0.091 A 
ATOM     92  F   UNL A   1      42.676  25.847  34.815  1.00  0.00    -0.205 F 
ATOM     93  C   UNL A   1      46.271  26.187  35.416  1.00  0.00     0.022 A 
BRANCH  91  94
ATOM     94  S   UNL A   1      44.646  24.332  36.622  1.00  0.00     0.127 S 
ATOM     95  O   UNL A   1      43.598  24.877  37.483  1.00  0.00    -0.237 OA
ATOM     96  O   UNL A   1      44.200  23.278  35.711  1.00  0.00    -0.237 OA
ATOM     97  O   UNL A   1      45.921  24.061  37.273  1.00  0.00    -0.744 OA
ENDBRANCH  91  94
ENDBRANCH  64  87
ENDBRANCH  38  39
ENDBRANCH  30  33
ENDBRANCH  28  29
ENDBRANCH  27  28
ENDBRANCH   1  27
TORSDOF 18
ENDMDL
