MODEL 1
REMARK VINA RESULT:     -10.8      0.000      0.000
REMARK SMILES CCOc1cc(NC(=O)c2c(C(=O)NCCCCCCNC(=O)c3ccc(-c4c5nc(c(-c6cccc(S(=O)(=O)[O-])c6F)c6ccc([nH]6)c(-c6cccc(S(=O)(=O)[O-])c6F)c6nc(c(-c7cccc(S(=O)(=O)[O-])c7F)c7ccc4[nH]7)C=C6)C=C5)cc3)cnn2C)ccc1OC(F)F
REMARK SMILES IDX 17 1 16 2 15 3 14 4 12 5 13 6 11 8 10 9 89 10 87 11 88 12
REMARK SMILES IDX 90 13 8 14 7 15 9 17 6 18 4 19 5 20 93 21 92 22 91 23 3 24
REMARK SMILES IDX 2 25 1 26 94 27 95 28 96 29 97 30 18 31 19 32 20 33 21 34
REMARK SMILES IDX 22 35 23 37 24 38 25 39 86 40 26 41 85 42 27 43 28 44 29 45
REMARK SMILES IDX 79 46 30 47 84 48 78 49 80 50 31 51 83 52 77 53 76 54 32 56
REMARK SMILES IDX 64 57 44 58 63 59 45 60 48 61 62 62 81 63 46 64 47 65 61 67
REMARK SMILES IDX 82 68 49 69 33 70 34 71 42 72 35 73 37 74 43 75 36 76 38 77
REMARK SMILES IDX 39 78 40 79 41 80 65 81 66 82 74 83 67 84 69 85 75 86 68 87
REMARK SMILES IDX 70 88 71 89 72 90 73 91 50 92 51 93 59 94 52 95 54 96 60 97
REMARK SMILES IDX 53 98 55 99 56 100 57 101 58 102
REMARK H PARENT 14 7 7 16 21 36 80 55 48 66
REMARK Flexibility Score: inf
ROOT
ATOM      1  C   UNL A   1      33.756  30.333  27.264  1.00  0.00     0.002 C 
ENDROOT
BRANCH   1   2
ATOM      2  C   UNL A   1      34.376  28.935  27.179  1.00  0.00     0.021 C 
BRANCH   2   3
ATOM      3  C   UNL A   1      33.495  27.808  26.642  1.00  0.00     0.116 C 
BRANCH   3   4
ATOM      4  N   UNL A   1      34.198  26.829  25.852  1.00  0.00    -0.352 N 
ATOM      5  C   UNL A   1      33.790  26.036  24.811  1.00  0.00     0.255 C 
ATOM      6  O   UNL A   1      34.625  25.233  24.387  1.00  0.00    -0.269 OA
ATOM      7  H   UNL A   1      35.142  26.708  26.106  1.00  0.00     0.163 HD
BRANCH   5   8
ATOM      8  C   UNL A   1      32.447  26.050  24.243  1.00  0.00     0.090 A 
ATOM      9  C   UNL A   1      31.181  25.721  24.725  1.00  0.00     0.138 A 
ATOM     10  N   UNL A   1      30.293  26.136  23.756  1.00  0.00    -0.262 N 
ATOM     11  C   UNL A   1      32.179  26.548  22.937  1.00  0.00     0.149 A 
ATOM     12  N   UNL A   1      30.886  26.538  22.618  1.00  0.00    -0.180 NA
ATOM     13  C   UNL A   1      28.848  26.164  23.826  1.00  0.00     0.174 C 
BRANCH   9  14
ATOM     14  C   UNL A   1      30.752  25.238  26.001  1.00  0.00     0.274 C 
ATOM     15  N   UNL A   1      31.274  24.077  26.532  1.00  0.00    -0.321 N 
ATOM     16  H   UNL A   1      30.833  23.814  27.373  1.00  0.00     0.170 HD
ATOM     17  O   UNL A   1      29.909  25.839  26.662  1.00  0.00    -0.267 OA
BRANCH  15  18
ATOM     18  C   UNL A   1      32.295  23.179  26.152  1.00  0.00     0.045 A 
ATOM     19  C   UNL A   1      33.306  21.394  24.821  1.00  0.00     0.163 A 
ATOM     20  C   UNL A   1      32.245  22.280  25.085  1.00  0.00     0.076 A 
ATOM     21  C   UNL A   1      34.482  21.472  25.567  1.00  0.00     0.168 A 
ATOM     22  C   UNL A   1      34.562  22.408  26.600  1.00  0.00     0.053 A 
ATOM     23  C   UNL A   1      33.472  23.229  26.908  1.00  0.00     0.030 A 
BRANCH  19  24
ATOM     24  O   UNL A   1      33.229  20.506  23.777  1.00  0.00    -0.490 OA
BRANCH  24  25
ATOM     25  C   UNL A   1      32.404  19.367  24.058  1.00  0.00     0.226 C 
ATOM     26  C   UNL A   1      32.225  18.569  22.779  1.00  0.00     0.049 C 
ENDBRANCH  24  25
ENDBRANCH  19  24
BRANCH  21  27
ATOM     27  O   UNL A   1      35.628  20.764  25.352  1.00  0.00    -0.431 OA
BRANCH  27  28
ATOM     28  C   UNL A   1      36.738  21.464  24.804  1.00  0.00     0.542 C 
ATOM     29  F   UNL A   1      37.726  20.621  24.418  1.00  0.00    -0.167 F 
ATOM     30  F   UNL A   1      36.343  22.197  23.736  1.00  0.00    -0.167 F 
ENDBRANCH  27  28
ENDBRANCH  21  27
ENDBRANCH  15  18
ENDBRANCH   9  14
ENDBRANCH   5   8
ENDBRANCH   3   4
ENDBRANCH   2   3
ENDBRANCH   1   2
BRANCH   1  31
ATOM     31  C   UNL A   1      32.248  30.464  27.038  1.00  0.00     0.002 C 
BRANCH  31  32
ATOM     32  C   UNL A   1      31.656  31.874  26.978  1.00  0.00     0.021 C 
BRANCH  32  33
ATOM     33  C   UNL A   1      32.616  33.027  26.702  1.00  0.00     0.116 C 
BRANCH  33  34
ATOM     34  N   UNL A   1      32.427  34.176  27.567  1.00  0.00    -0.352 N 
ATOM     35  C   UNL A   1      33.127  34.555  28.690  1.00  0.00     0.251 C 
ATOM     36  H   UNL A   1      31.686  34.772  27.314  1.00  0.00     0.163 HD
ATOM     37  O   UNL A   1      32.766  35.551  29.312  1.00  0.00    -0.269 OA
BRANCH  35  38
ATOM     38  C   UNL A   1      34.279  33.759  29.185  1.00  0.00     0.039 A 
ATOM     39  C   UNL A   1      35.569  34.180  28.839  1.00  0.00     0.014 A 
ATOM     40  C   UNL A   1      34.117  32.604  29.956  1.00  0.00     0.014 A 
ATOM     41  C   UNL A   1      36.688  33.498  29.326  1.00  0.00     0.010 A 
ATOM     42  C   UNL A   1      35.234  31.948  30.480  1.00  0.00     0.010 A 
ATOM     43  C   UNL A   1      36.529  32.395  30.179  1.00  0.00    -0.014 A 
BRANCH  43  44
ATOM     44  C   UNL A   1      37.706  31.731  30.796  1.00  0.00     0.031 A 
ATOM     45  C   UNL A   1      38.113  32.040  32.208  1.00  0.00     0.074 A 
ATOM     46  C   UNL A   1      38.455  30.892  30.054  1.00  0.00     0.049 A 
ATOM     47  N   UNL A   1      39.134  31.582  32.886  1.00  0.00    -0.248 NA
ATOM     48  C   UNL A   1      37.276  32.994  32.951  1.00  0.00     0.031 C 
ATOM     49  C   UNL A   1      38.206  30.554  28.651  1.00  0.00     0.029 A 
ATOM     50  N   UNL A   1      39.588  30.185  30.370  1.00  0.00    -0.354 N 
ATOM     51  C   UNL A   1      39.085  32.214  34.121  1.00  0.00     0.074 A 
ATOM     52  C   UNL A   1      37.934  33.092  34.099  1.00  0.00     0.031 C 
ATOM     53  C   UNL A   1      39.153  29.701  28.230  1.00  0.00     0.029 A 
ATOM     54  C   UNL A   1      40.084  29.442  29.325  1.00  0.00     0.049 A 
ATOM     55  H   UNL A   1      40.006  30.209  31.261  1.00  0.00     0.167 HD
ATOM     56  C   UNL A   1      39.906  32.059  35.186  1.00  0.00     0.034 A 
ATOM     57  C   UNL A   1      41.162  28.636  29.256  1.00  0.00     0.034 A 
ATOM     58  C   UNL A   1      41.009  31.139  35.244  1.00  0.00     0.049 A 
ATOM     59  C   UNL A   1      42.022  28.437  30.471  1.00  0.00     0.074 A 
ATOM     60  C   UNL A   1      41.843  30.862  36.313  1.00  0.00     0.029 A 
ATOM     61  N   UNL A   1      41.429  30.343  34.191  1.00  0.00    -0.354 N 
ATOM     62  N   UNL A   1      41.876  28.942  31.671  1.00  0.00    -0.248 NA
ATOM     63  C   UNL A   1      43.180  27.541  30.331  1.00  0.00     0.031 C 
ATOM     64  C   UNL A   1      42.759  29.882  35.911  1.00  0.00     0.029 A 
ATOM     65  C   UNL A   1      42.508  29.570  34.585  1.00  0.00     0.049 A 
ATOM     66  H   UNL A   1      41.021  30.328  33.295  1.00  0.00     0.167 HD
ATOM     67  C   UNL A   1      42.909  28.412  32.433  1.00  0.00     0.074 A 
ATOM     68  C   UNL A   1      43.667  27.535  31.565  1.00  0.00     0.031 C 
ATOM     69  C   UNL A   1      43.216  28.653  33.731  1.00  0.00     0.034 A 
BRANCH  56  70
ATOM     70  C   UNL A   1      39.585  32.851  36.419  1.00  0.00     0.023 A 
ATOM     71  C   UNL A   1      40.212  34.099  36.604  1.00  0.00     0.012 A 
ATOM     72  C   UNL A   1      38.649  32.397  37.364  1.00  0.00     0.148 A 
ATOM     73  C   UNL A   1      39.914  34.881  37.719  1.00  0.00     0.002 A 
ATOM     74  C   UNL A   1      38.349  33.190  38.467  1.00  0.00     0.091 A 
ATOM     75  F   UNL A   1      38.079  31.195  37.190  1.00  0.00    -0.205 F 
ATOM     76  C   UNL A   1      38.978  34.431  38.648  1.00  0.00     0.022 A 
BRANCH  74  77
ATOM     77  S   UNL A   1      37.133  32.636  39.666  1.00  0.00     0.127 S 
ATOM     78  O   UNL A   1      35.918  32.554  38.859  1.00  0.00    -0.237 OA
ATOM     79  O   UNL A   1      37.657  31.338  40.099  1.00  0.00    -0.237 OA
ATOM     80  O   UNL A   1      37.159  33.663  40.699  1.00  0.00    -0.744 OA
ENDBRANCH  74  77
ENDBRANCH  56  70
BRANCH  57  81
ATOM     81  C   UNL A   1      41.431  27.888  28.000  1.00  0.00     0.023 A 
ATOM     82  C   UNL A   1      41.958  28.580  26.893  1.00  0.00     0.012 A 
ATOM     83  C   UNL A   1      41.231  26.500  27.912  1.00  0.00     0.148 A 
ATOM     84  C   UNL A   1      42.274  27.900  25.716  1.00  0.00     0.002 A 
ATOM     85  C   UNL A   1      41.584  25.823  26.748  1.00  0.00     0.091 A 
ATOM     86  F   UNL A   1      40.718  25.852  28.968  1.00  0.00    -0.205 F 
ATOM     87  C   UNL A   1      42.097  26.520  25.645  1.00  0.00     0.022 A 
BRANCH  85  88
ATOM     88  S   UNL A   1      41.463  24.035  26.690  1.00  0.00     0.127 S 
ATOM     89  O   UNL A   1      40.020  23.815  26.712  1.00  0.00    -0.237 OA
ATOM     90  O   UNL A   1      42.112  23.696  25.423  1.00  0.00    -0.237 OA
ATOM     91  O   UNL A   1      42.207  23.606  27.870  1.00  0.00    -0.744 OA
ENDBRANCH  85  88
ENDBRANCH  57  81
BRANCH  69  92
ATOM     92  C   UNL A   1      44.424  27.966  34.298  1.00  0.00     0.023 A 
ATOM     93  C   UNL A   1      45.647  28.664  34.339  1.00  0.00     0.012 A 
ATOM     94  C   UNL A   1      44.342  26.678  34.853  1.00  0.00     0.148 A 
ATOM     95  C   UNL A   1      46.774  28.083  34.919  1.00  0.00     0.002 A 
ATOM     96  C   UNL A   1      45.468  26.113  35.448  1.00  0.00     0.091 A 
ATOM     97  F   UNL A   1      43.177  26.015  34.793  1.00  0.00    -0.205 F 
ATOM     98  C   UNL A   1      46.684  26.811  35.482  1.00  0.00     0.022 A 
BRANCH  96  99
ATOM     99  S   UNL A   1      45.358  24.496  36.221  1.00  0.00     0.127 S 
ATOM    100  O   UNL A   1      46.640  24.391  36.912  1.00  0.00    -0.237 OA
ATOM    101  O   UNL A   1      44.201  24.626  37.109  1.00  0.00    -0.237 OA
ATOM    102  O   UNL A   1      45.148  23.583  35.103  1.00  0.00    -0.744 OA
ENDBRANCH  96  99
ENDBRANCH  69  92
ENDBRANCH  43  44
ENDBRANCH  35  38
ENDBRANCH  33  34
ENDBRANCH  32  33
ENDBRANCH  31  32
ENDBRANCH   1  31
TORSDOF 22
ENDMDL
MODEL 2
REMARK VINA RESULT:     -10.7      2.564      3.736
REMARK SMILES CCOc1cc(NC(=O)c2c(C(=O)NCCCCCCNC(=O)c3ccc(-c4c5nc(c(-c6cccc(S(=O)(=O)[O-])c6F)c6ccc([nH]6)c(-c6cccc(S(=O)(=O)[O-])c6F)c6nc(c(-c7cccc(S(=O)(=O)[O-])c7F)c7ccc4[nH]7)C=C6)C=C5)cc3)cnn2C)ccc1OC(F)F
REMARK SMILES IDX 17 1 16 2 15 3 14 4 12 5 13 6 11 8 10 9 89 10 87 11 88 12
REMARK SMILES IDX 90 13 8 14 7 15 9 17 6 18 4 19 5 20 93 21 92 22 91 23 3 24
REMARK SMILES IDX 2 25 1 26 94 27 95 28 96 29 97 30 18 31 19 32 20 33 21 34
REMARK SMILES IDX 22 35 23 37 24 38 25 39 86 40 26 41 85 42 27 43 28 44 29 45
REMARK SMILES IDX 79 46 30 47 84 48 78 49 80 50 31 51 83 52 77 53 76 54 32 56
REMARK SMILES IDX 64 57 44 58 63 59 45 60 48 61 62 62 81 63 46 64 47 65 61 67
REMARK SMILES IDX 82 68 49 69 33 70 34 71 42 72 35 73 37 74 43 75 36 76 38 77
REMARK SMILES IDX 39 78 40 79 41 80 65 81 66 82 74 83 67 84 69 85 75 86 68 87
REMARK SMILES IDX 70 88 71 89 72 90 73 91 50 92 51 93 59 94 52 95 54 96 60 97
REMARK SMILES IDX 53 98 55 99 56 100 57 101 58 102
REMARK H PARENT 14 7 7 16 21 36 80 55 48 66
REMARK Flexibility Score: inf
ROOT
ATOM      1  C   UNL A   1      34.630  33.943  28.998  1.00  0.00     0.002 C 
ENDROOT
BRANCH   1   2
ATOM      2  C   UNL A   1      34.998  32.695  28.188  1.00  0.00     0.021 C 
BRANCH   2   3
ATOM      3  C   UNL A   1      33.899  31.663  27.951  1.00  0.00     0.116 C 
BRANCH   3   4
ATOM      4  N   UNL A   1      34.377  30.318  27.753  1.00  0.00    -0.352 N 
ATOM      5  C   UNL A   1      34.028  29.351  26.847  1.00  0.00     0.255 C 
ATOM      6  O   UNL A   1      34.581  28.258  26.987  1.00  0.00    -0.269 OA
ATOM      7  H   UNL A   1      35.084  30.045  28.382  1.00  0.00     0.163 HD
BRANCH   5   8
ATOM      8  C   UNL A   1      33.024  29.525  25.804  1.00  0.00     0.090 A 
ATOM      9  C   UNL A   1      32.896  29.076  24.490  1.00  0.00     0.138 A 
ATOM     10  N   UNL A   1      31.624  29.429  24.097  1.00  0.00    -0.262 N 
ATOM     11  C   UNL A   1      31.805  30.222  26.029  1.00  0.00     0.149 A 
ATOM     12  N   UNL A   1      30.988  30.222  24.977  1.00  0.00    -0.180 NA
ATOM     13  C   UNL A   1      30.936  29.066  22.877  1.00  0.00     0.174 C 
BRANCH   9  14
ATOM     14  C   UNL A   1      33.746  28.253  23.686  1.00  0.00     0.274 C 
ATOM     15  N   UNL A   1      33.880  26.905  23.945  1.00  0.00    -0.321 N 
ATOM     16  H   UNL A   1      34.558  26.476  23.372  1.00  0.00     0.170 HD
ATOM     17  O   UNL A   1      34.380  28.719  22.742  1.00  0.00    -0.267 OA
BRANCH  15  18
ATOM     18  C   UNL A   1      33.272  25.998  24.839  1.00  0.00     0.045 A 
ATOM     19  C   UNL A   1      33.218  24.148  26.438  1.00  0.00     0.163 A 
ATOM     20  C   UNL A   1      33.928  25.037  25.609  1.00  0.00     0.076 A 
ATOM     21  C   UNL A   1      31.837  24.285  26.584  1.00  0.00     0.168 A 
ATOM     22  C   UNL A   1      31.179  25.282  25.861  1.00  0.00     0.053 A 
ATOM     23  C   UNL A   1      31.883  26.107  24.977  1.00  0.00     0.030 A 
BRANCH  19  24
ATOM     24  O   UNL A   1      33.881  23.199  27.174  1.00  0.00    -0.490 OA
BRANCH  24  25
ATOM     25  C   UNL A   1      33.979  21.930  26.511  1.00  0.00     0.226 C 
ATOM     26  C   UNL A   1      35.375  21.794  25.929  1.00  0.00     0.049 C 
ENDBRANCH  24  25
ENDBRANCH  19  24
BRANCH  21  27
ATOM     27  O   UNL A   1      31.037  23.578  27.434  1.00  0.00    -0.431 OA
BRANCH  27  28
ATOM     28  C   UNL A   1      29.895  22.937  26.877  1.00  0.00     0.542 C 
ATOM     29  F   UNL A   1      30.242  21.953  26.012  1.00  0.00    -0.167 F 
ATOM     30  F   UNL A   1      29.134  22.407  27.863  1.00  0.00    -0.167 F 
ENDBRANCH  27  28
ENDBRANCH  21  27
ENDBRANCH  15  18
ENDBRANCH   9  14
ENDBRANCH   5   8
ENDBRANCH   3   4
ENDBRANCH   2   3
ENDBRANCH   1   2
BRANCH   1  31
ATOM     31  C   UNL A   1      33.256  34.574  28.758  1.00  0.00     0.002 C 
BRANCH  31  32
ATOM     32  C   UNL A   1      33.163  36.101  28.756  1.00  0.00     0.021 C 
BRANCH  32  33
ATOM     33  C   UNL A   1      33.370  36.818  30.087  1.00  0.00     0.116 C 
BRANCH  33  34
ATOM     34  N   UNL A   1      32.363  36.515  31.086  1.00  0.00    -0.352 N 
ATOM     35  C   UNL A   1      32.417  35.646  32.152  1.00  0.00     0.251 C 
ATOM     36  H   UNL A   1      31.515  37.003  30.986  1.00  0.00     0.163 HD
ATOM     37  O   UNL A   1      31.421  35.501  32.857  1.00  0.00    -0.269 OA
BRANCH  35  38
ATOM     38  C   UNL A   1      33.638  34.849  32.436  1.00  0.00     0.039 A 
ATOM     39  C   UNL A   1      34.881  35.484  32.323  1.00  0.00     0.014 A 
ATOM     40  C   UNL A   1      33.586  33.496  32.787  1.00  0.00     0.014 A 
ATOM     41  C   UNL A   1      36.056  34.793  32.634  1.00  0.00     0.010 A 
ATOM     42  C   UNL A   1      34.755  32.819  33.141  1.00  0.00     0.010 A 
ATOM     43  C   UNL A   1      35.999  33.464  33.078  1.00  0.00    -0.014 A 
BRANCH  43  44
ATOM     44  C   UNL A   1      37.227  32.754  33.522  1.00  0.00     0.031 A 
ATOM     45  C   UNL A   1      37.964  33.186  34.757  1.00  0.00     0.074 A 
ATOM     46  C   UNL A   1      37.720  31.754  32.766  1.00  0.00     0.049 A 
ATOM     47  N   UNL A   1      39.070  32.704  35.263  1.00  0.00    -0.248 NA
ATOM     48  C   UNL A   1      37.395  34.310  35.516  1.00  0.00     0.031 C 
ATOM     49  C   UNL A   1      37.137  31.276  31.511  1.00  0.00     0.029 A 
ATOM     50  N   UNL A   1      38.834  30.969  32.935  1.00  0.00    -0.354 N 
ATOM     51  C   UNL A   1      39.349  33.484  36.377  1.00  0.00     0.074 A 
ATOM     52  C   UNL A   1      38.298  34.474  36.473  1.00  0.00     0.031 C 
ATOM     53  C   UNL A   1      37.894  30.279  31.026  1.00  0.00     0.029 A 
ATOM     54  C   UNL A   1      39.022  30.054  31.926  1.00  0.00     0.049 A 
ATOM     55  H   UNL A   1      39.442  31.055  33.704  1.00  0.00     0.167 HD
ATOM     56  C   UNL A   1      40.373  33.369  37.256  1.00  0.00     0.034 A 
ATOM     57  C   UNL A   1      39.989  29.132  31.747  1.00  0.00     0.034 A 
ATOM     58  C   UNL A   1      41.383  32.347  37.211  1.00  0.00     0.049 A 
ATOM     59  C   UNL A   1      41.079  28.989  32.769  1.00  0.00     0.074 A 
ATOM     60  C   UNL A   1      42.410  32.112  38.108  1.00  0.00     0.029 A 
ATOM     61  N   UNL A   1      41.490  31.387  36.218  1.00  0.00    -0.354 N 
ATOM     62  N   UNL A   1      41.247  29.649  33.888  1.00  0.00    -0.248 NA
ATOM     63  C   UNL A   1      42.100  27.961  32.517  1.00  0.00     0.031 C 
ATOM     64  C   UNL A   1      43.130  30.995  37.667  1.00  0.00     0.029 A 
ATOM     65  C   UNL A   1      42.564  30.554  36.482  1.00  0.00     0.049 A 
ATOM     66  H   UNL A   1      40.893  31.309  35.440  1.00  0.00     0.167 HD
ATOM     67  C   UNL A   1      42.378  29.105  34.482  1.00  0.00     0.074 A 
ATOM     68  C   UNL A   1      42.848  28.050  33.608  1.00  0.00     0.031 C 
ATOM     69  C   UNL A   1      42.986  29.468  35.638  1.00  0.00     0.034 A 
BRANCH  56  70
ATOM     70  C   UNL A   1      40.401  34.336  38.402  1.00  0.00     0.023 A 
ATOM     71  C   UNL A   1      41.207  35.487  38.298  1.00  0.00     0.012 A 
ATOM     72  C   UNL A   1      39.616  34.141  39.552  1.00  0.00     0.148 A 
ATOM     73  C   UNL A   1      41.234  36.427  39.327  1.00  0.00     0.002 A 
ATOM     74  C   UNL A   1      39.639  35.091  40.568  1.00  0.00     0.091 A 
ATOM     75  F   UNL A   1      38.874  33.027  39.651  1.00  0.00    -0.205 F 
ATOM     76  C   UNL A   1      40.446  36.234  40.460  1.00  0.00     0.022 A 
BRANCH  74  77
ATOM     77  S   UNL A   1      38.618  34.868  42.028  1.00  0.00     0.127 S 
ATOM     78  O   UNL A   1      37.275  34.807  41.458  1.00  0.00    -0.237 OA
ATOM     79  O   UNL A   1      39.097  33.599  42.581  1.00  0.00    -0.237 OA
ATOM     80  O   UNL A   1      38.922  36.029  42.854  1.00  0.00    -0.744 OA
ENDBRANCH  74  77
ENDBRANCH  56  70
BRANCH  57  81
ATOM     81  C   UNL A   1      39.908  28.212  30.582  1.00  0.00     0.023 A 
ATOM     82  C   UNL A   1      38.998  27.139  30.621  1.00  0.00     0.012 A 
ATOM     83  C   UNL A   1      40.672  28.423  29.422  1.00  0.00     0.148 A 
ATOM     84  C   UNL A   1      38.856  26.288  29.524  1.00  0.00     0.002 A 
ATOM     85  C   UNL A   1      40.499  27.593  28.318  1.00  0.00     0.091 A 
ATOM     86  F   UNL A   1      41.546  29.441  29.400  1.00  0.00    -0.205 F 
ATOM     87  C   UNL A   1      39.598  26.520  28.367  1.00  0.00     0.022 A 
BRANCH  85  88
ATOM     88  S   UNL A   1      41.369  27.953  26.792  1.00  0.00     0.127 S 
ATOM     89  O   UNL A   1      42.756  28.045  27.234  1.00  0.00    -0.237 OA
ATOM     90  O   UNL A   1      41.070  26.790  25.955  1.00  0.00    -0.237 OA
ATOM     91  O   UNL A   1      40.747  29.190  26.330  1.00  0.00    -0.744 OA
ENDBRANCH  85  88
ENDBRANCH  57  81
BRANCH  69  92
ATOM     92  C   UNL A   1      44.231  28.725  36.030  1.00  0.00     0.023 A 
ATOM     93  C   UNL A   1      45.481  29.232  35.623  1.00  0.00     0.012 A 
ATOM     94  C   UNL A   1      44.178  27.586  36.851  1.00  0.00     0.148 A 
ATOM     95  C   UNL A   1      46.661  28.607  36.024  1.00  0.00     0.002 A 
ATOM     96  C   UNL A   1      45.363  26.980  37.263  1.00  0.00     0.091 A 
ATOM     97  F   UNL A   1      42.981  27.102  37.218  1.00  0.00    -0.205 F 
ATOM     98  C   UNL A   1      46.604  27.486  36.852  1.00  0.00     0.022 A 
BRANCH  96  99
ATOM     99  S   UNL A   1      45.309  25.565  38.367  1.00  0.00     0.127 S 
ATOM    100  O   UNL A   1      44.529  26.074  39.492  1.00  0.00    -0.237 OA
ATOM    101  O   UNL A   1      44.628  24.543  37.571  1.00  0.00    -0.237 OA
ATOM    102  O   UNL A   1      46.714  25.271  38.634  1.00  0.00    -0.744 OA
ENDBRANCH  96  99
ENDBRANCH  69  92
ENDBRANCH  43  44
ENDBRANCH  35  38
ENDBRANCH  33  34
ENDBRANCH  32  33
ENDBRANCH  31  32
ENDBRANCH   1  31
TORSDOF 22
ENDMDL
MODEL 3
REMARK VINA RESULT:     -10.3      2.561      4.093
REMARK SMILES CCOc1cc(NC(=O)c2c(C(=O)NCCCCCCNC(=O)c3ccc(-c4c5nc(c(-c6cccc(S(=O)(=O)[O-])c6F)c6ccc([nH]6)c(-c6cccc(S(=O)(=O)[O-])c6F)c6nc(c(-c7cccc(S(=O)(=O)[O-])c7F)c7ccc4[nH]7)C=C6)C=C5)cc3)cnn2C)ccc1OC(F)F
REMARK SMILES IDX 17 1 16 2 15 3 14 4 12 5 13 6 11 8 10 9 89 10 87 11 88 12
REMARK SMILES IDX 90 13 8 14 7 15 9 17 6 18 4 19 5 20 93 21 92 22 91 23 3 24
REMARK SMILES IDX 2 25 1 26 94 27 95 28 96 29 97 30 18 31 19 32 20 33 21 34
REMARK SMILES IDX 22 35 23 37 24 38 25 39 86 40 26 41 85 42 27 43 28 44 29 45
REMARK SMILES IDX 79 46 30 47 84 48 78 49 80 50 31 51 83 52 77 53 76 54 32 56
REMARK SMILES IDX 64 57 44 58 63 59 45 60 48 61 62 62 81 63 46 64 47 65 61 67
REMARK SMILES IDX 82 68 49 69 33 70 34 71 42 72 35 73 37 74 43 75 36 76 38 77
REMARK SMILES IDX 39 78 40 79 41 80 65 81 66 82 74 83 67 84 69 85 75 86 68 87
REMARK SMILES IDX 70 88 71 89 72 90 73 91 50 92 51 93 59 94 52 95 54 96 60 97
REMARK SMILES IDX 53 98 55 99 56 100 57 101 58 102
REMARK H PARENT 14 7 7 16 21 36 80 55 48 66
REMARK Flexibility Score: inf
ROOT
ATOM      1  C   UNL A   1      34.784  31.284  27.731  1.00  0.00     0.002 C 
ENDROOT
BRANCH   1   2
ATOM      2  C   UNL A   1      35.031  29.773  27.688  1.00  0.00     0.021 C 
BRANCH   2   3
ATOM      3  C   UNL A   1      34.216  28.957  26.686  1.00  0.00     0.116 C 
BRANCH   3   4
ATOM      4  N   UNL A   1      32.922  28.544  27.167  1.00  0.00    -0.352 N 
ATOM      5  C   UNL A   1      32.214  27.385  26.993  1.00  0.00     0.255 C 
ATOM      6  O   UNL A   1      31.081  27.367  27.483  1.00  0.00    -0.269 OA
ATOM      7  H   UNL A   1      32.464  29.218  27.722  1.00  0.00     0.163 HD
BRANCH   5   8
ATOM      8  C   UNL A   1      32.689  26.235  26.233  1.00  0.00     0.090 A 
ATOM      9  C   UNL A   1      32.094  25.069  25.753  1.00  0.00     0.138 A 
ATOM     10  N   UNL A   1      33.036  24.475  24.943  1.00  0.00    -0.262 N 
ATOM     11  C   UNL A   1      34.016  26.155  25.724  1.00  0.00     0.149 A 
ATOM     12  N   UNL A   1      34.245  25.060  25.001  1.00  0.00    -0.180 NA
ATOM     13  C   UNL A   1      32.872  23.321  24.085  1.00  0.00     0.174 C 
BRANCH   9  14
ATOM     14  C   UNL A   1      30.751  24.586  25.850  1.00  0.00     0.274 C 
ATOM     15  N   UNL A   1      29.714  25.239  25.217  1.00  0.00    -0.321 N 
ATOM     16  H   UNL A   1      28.835  24.852  25.434  1.00  0.00     0.170 HD
ATOM     17  O   UNL A   1      30.480  23.576  26.496  1.00  0.00    -0.267 OA
BRANCH  15  18
ATOM     18  C   UNL A   1      29.621  26.334  24.330  1.00  0.00     0.045 A 
ATOM     19  C   UNL A   1      30.484  28.079  22.850  1.00  0.00     0.163 A 
ATOM     20  C   UNL A   1      30.686  26.962  23.682  1.00  0.00     0.076 A 
ATOM     21  C   UNL A   1      29.189  28.518  22.575  1.00  0.00     0.168 A 
ATOM     22  C   UNL A   1      28.113  27.859  23.174  1.00  0.00     0.053 A 
ATOM     23  C   UNL A   1      28.328  26.802  24.064  1.00  0.00     0.030 A 
BRANCH  19  24
ATOM     24  O   UNL A   1      31.547  28.692  22.236  1.00  0.00    -0.490 OA
BRANCH  24  25
ATOM     25  C   UNL A   1      32.610  29.029  23.140  1.00  0.00     0.226 C 
ATOM     26  C   UNL A   1      33.896  28.404  22.631  1.00  0.00     0.049 C 
ENDBRANCH  24  25
ENDBRANCH  19  24
BRANCH  21  27
ATOM     27  O   UNL A   1      28.835  29.507  21.704  1.00  0.00    -0.431 OA
BRANCH  27  28
ATOM     28  C   UNL A   1      29.169  30.844  22.059  1.00  0.00     0.542 C 
ATOM     29  F   UNL A   1      28.461  31.748  21.339  1.00  0.00    -0.167 F 
ATOM     30  F   UNL A   1      28.932  31.047  23.376  1.00  0.00    -0.167 F 
ENDBRANCH  27  28
ENDBRANCH  21  27
ENDBRANCH  15  18
ENDBRANCH   9  14
ENDBRANCH   5   8
ENDBRANCH   3   4
ENDBRANCH   2   3
ENDBRANCH   1   2
BRANCH   1  31
ATOM     31  C   UNL A   1      33.367  31.771  28.042  1.00  0.00     0.002 C 
BRANCH  31  32
ATOM     32  C   UNL A   1      32.881  33.044  27.345  1.00  0.00     0.021 C 
BRANCH  32  33
ATOM     33  C   UNL A   1      33.547  34.358  27.740  1.00  0.00     0.116 C 
BRANCH  33  34
ATOM     34  N   UNL A   1      32.969  34.986  28.913  1.00  0.00    -0.352 N 
ATOM     35  C   UNL A   1      33.335  34.880  30.235  1.00  0.00     0.251 C 
ATOM     36  H   UNL A   1      32.200  35.574  28.737  1.00  0.00     0.163 HD
ATOM     37  O   UNL A   1      32.672  35.466  31.089  1.00  0.00    -0.269 OA
BRANCH  35  38
ATOM     38  C   UNL A   1      34.485  34.038  30.652  1.00  0.00     0.039 A 
ATOM     39  C   UNL A   1      35.763  34.399  30.205  1.00  0.00     0.014 A 
ATOM     40  C   UNL A   1      34.331  32.898  31.447  1.00  0.00     0.014 A 
ATOM     41  C   UNL A   1      36.884  33.671  30.615  1.00  0.00     0.010 A 
ATOM     42  C   UNL A   1      35.455  32.198  31.894  1.00  0.00     0.010 A 
ATOM     43  C   UNL A   1      36.742  32.584  31.491  1.00  0.00    -0.014 A 
BRANCH  43  44
ATOM     44  C   UNL A   1      37.932  31.874  32.025  1.00  0.00     0.031 A 
ATOM     45  C   UNL A   1      38.525  32.253  33.352  1.00  0.00     0.074 A 
ATOM     46  C   UNL A   1      38.525  30.924  31.276  1.00  0.00     0.049 A 
ATOM     47  N   UNL A   1      39.583  31.764  33.947  1.00  0.00    -0.248 NA
ATOM     48  C   UNL A   1      37.853  33.325  34.102  1.00  0.00     0.031 C 
ATOM     49  C   UNL A   1      38.089  30.503  29.944  1.00  0.00     0.029 A 
ATOM     50  N   UNL A   1      39.633  30.151  31.522  1.00  0.00    -0.354 N 
ATOM     51  C   UNL A   1      39.725  32.489  35.123  1.00  0.00     0.074 A 
ATOM     52  C   UNL A   1      38.647  33.454  35.157  1.00  0.00     0.031 C 
ATOM     53  C   UNL A   1      38.915  29.547  29.492  1.00  0.00     0.029 A 
ATOM     54  C   UNL A   1      39.948  29.294  30.494  1.00  0.00     0.049 A 
ATOM     55  H   UNL A   1      40.154  30.207  32.356  1.00  0.00     0.167 HD
ATOM     56  C   UNL A   1      40.653  32.346  36.098  1.00  0.00     0.034 A 
ATOM     57  C   UNL A   1      40.948  28.400  30.372  1.00  0.00     0.034 A 
ATOM     58  C   UNL A   1      41.686  31.346  36.109  1.00  0.00     0.049 A 
ATOM     59  C   UNL A   1      41.929  28.223  31.496  1.00  0.00     0.074 A 
ATOM     60  C   UNL A   1      42.618  31.082  37.097  1.00  0.00     0.029 A 
ATOM     61  N   UNL A   1      41.919  30.442  35.086  1.00  0.00    -0.354 N 
ATOM     62  N   UNL A   1      41.962  28.825  32.658  1.00  0.00    -0.248 NA
ATOM     63  C   UNL A   1      42.994  27.227  31.302  1.00  0.00     0.031 C 
ATOM     64  C   UNL A   1      43.406  30.003  36.679  1.00  0.00     0.029 A 
ATOM     65  C   UNL A   1      42.978  29.615  35.420  1.00  0.00     0.049 A 
ATOM     66  H   UNL A   1      41.409  30.394  34.246  1.00  0.00     0.167 HD
ATOM     67  C   UNL A   1      43.037  28.271  33.341  1.00  0.00     0.074 A 
ATOM     68  C   UNL A   1      43.621  27.272  32.470  1.00  0.00     0.031 C 
ATOM     69  C   UNL A   1      43.511  28.582  34.572  1.00  0.00     0.034 A 
BRANCH  56  70
ATOM     70  C   UNL A   1      40.538  33.251  37.289  1.00  0.00     0.023 A 
ATOM     71  C   UNL A   1      41.387  34.373  37.372  1.00  0.00     0.012 A 
ATOM     72  C   UNL A   1      39.582  33.030  38.295  1.00  0.00     0.148 A 
ATOM     73  C   UNL A   1      41.288  35.257  38.444  1.00  0.00     0.002 A 
ATOM     74  C   UNL A   1      39.482  33.925  39.356  1.00  0.00     0.091 A 
ATOM     75  F   UNL A   1      38.798  31.943  38.220  1.00  0.00    -0.205 F 
ATOM     76  C   UNL A   1      40.331  35.038  39.434  1.00  0.00     0.022 A 
BRANCH  74  77
ATOM     77  S   UNL A   1      38.245  33.669  40.631  1.00  0.00     0.127 S 
ATOM     78  O   UNL A   1      38.128  35.001  41.219  1.00  0.00    -0.237 OA
ATOM     79  O   UNL A   1      37.067  33.238  39.874  1.00  0.00    -0.237 OA
ATOM     80  O   UNL A   1      38.818  32.632  41.480  1.00  0.00    -0.744 OA
ENDBRANCH  74  77
ENDBRANCH  56  70
BRANCH  57  81
ATOM     81  C   UNL A   1      41.012  27.541  29.160  1.00  0.00     0.023 A 
ATOM     82  C   UNL A   1      40.178  26.410  29.080  1.00  0.00     0.012 A 
ATOM     83  C   UNL A   1      41.837  27.866  28.070  1.00  0.00     0.148 A 
ATOM     84  C   UNL A   1      40.172  25.613  27.935  1.00  0.00     0.002 A 
ATOM     85  C   UNL A   1      41.798  27.088  26.917  1.00  0.00     0.091 A 
ATOM     86  F   UNL A   1      42.636  28.940  28.161  1.00  0.00    -0.205 F 
ATOM     87  C   UNL A   1      40.973  25.956  26.848  1.00  0.00     0.022 A 
BRANCH  85  88
ATOM     88  S   UNL A   1      42.742  27.588  25.477  1.00  0.00     0.127 S 
ATOM     89  O   UNL A   1      42.608  26.433  24.595  1.00  0.00    -0.237 OA
ATOM     90  O   UNL A   1      42.042  28.789  25.019  1.00  0.00    -0.237 OA
ATOM     91  O   UNL A   1      44.073  27.848  26.016  1.00  0.00    -0.744 OA
ENDBRANCH  85  88
ENDBRANCH  57  81
BRANCH  69  92
ATOM     92  C   UNL A   1      44.725  27.842  35.055  1.00  0.00     0.023 A 
ATOM     93  C   UNL A   1      45.997  28.410  34.843  1.00  0.00     0.012 A 
ATOM     94  C   UNL A   1      44.613  26.642  35.776  1.00  0.00     0.148 A 
ATOM     95  C   UNL A   1      47.141  27.785  35.336  1.00  0.00     0.002 A 
ATOM     96  C   UNL A   1      45.760  26.035  36.283  1.00  0.00     0.091 A 
ATOM     97  F   UNL A   1      43.398  26.101  35.958  1.00  0.00    -0.205 F 
ATOM     98  C   UNL A   1      47.024  26.602  36.065  1.00  0.00     0.022 A 
BRANCH  96  99
ATOM     99  S   UNL A   1      45.623  24.537  37.264  1.00  0.00     0.127 S 
ATOM    100  O   UNL A   1      44.766  24.962  38.367  1.00  0.00    -0.237 OA
ATOM    101  O   UNL A   1      44.997  23.588  36.342  1.00  0.00    -0.237 OA
ATOM    102  O   UNL A   1      47.004  24.210  37.605  1.00  0.00    -0.744 OA
ENDBRANCH  96  99
ENDBRANCH  69  92
ENDBRANCH  43  44
ENDBRANCH  35  38
ENDBRANCH  33  34
ENDBRANCH  32  33
ENDBRANCH  31  32
ENDBRANCH   1  31
TORSDOF 22
ENDMDL
