MODEL 1
REMARK VINA RESULT:     -12.0      0.000      0.000
REMARK SMILES O=C(NCCCCCCNC(=O)c1cc(-c2ccccc2)nc(Nc2nc3ccccc3s2)n1)c1ccc(-c2c3nc(c(-c4cccc(S(=O)(=O)[O-])c4F)c4ccc([nH]4)c(-c4cccc(S(=O)(=O)[O-])c4F)c4nc(c(-c5cccc(S(=O)(=O)[O-])c5F)c5ccc2[nH]5)C=C4)C=C3)cc1
REMARK SMILES IDX 6 1 5 2 4 3 3 4 1 5 2 6 35 8 36 9 97 10 37 11 96 12 38 13
REMARK SMILES IDX 39 14 40 15 90 16 41 17 95 18 89 19 91 20 42 21 94 22 88 23
REMARK SMILES IDX 87 24 43 26 75 27 55 28 74 29 56 30 59 31 73 32 92 33 57 34
REMARK SMILES IDX 58 35 72 37 93 38 60 39 44 40 45 41 53 42 46 43 48 44 54 45
REMARK SMILES IDX 47 46 49 47 50 48 51 49 52 50 76 51 77 52 85 53 78 54 80 55
REMARK SMILES IDX 86 56 79 57 81 58 82 59 83 60 84 61 61 62 62 63 70 64 63 65
REMARK SMILES IDX 65 66 71 67 64 68 66 69 67 70 68 71 69 72 7 73 8 74 9 75
REMARK SMILES IDX 10 76 11 77 12 79 13 80 14 81 34 82 15 83 23 84 22 85 16 86
REMARK SMILES IDX 17 87 21 88 18 89 20 90 19 91 24 92 25 94 26 95 33 96 27 97
REMARK SMILES IDX 32 98 28 99 31 100 29 101 30 102
REMARK H PARENT 3 7 91 25 59 36 10 78 24 93
REMARK Flexibility Score: inf
ROOT
ATOM      1  C   UNL A   1      35.170  32.413  28.001  1.00  0.00     0.002 C 
ENDROOT
BRANCH   1   2
ATOM      2  C   UNL A   1      33.874  33.215  27.912  1.00  0.00     0.021 C 
BRANCH   2   3
ATOM      3  C   UNL A   1      34.011  34.706  28.179  1.00  0.00     0.116 C 
BRANCH   3   4
ATOM      4  N   UNL A   1      33.160  35.173  29.259  1.00  0.00    -0.352 N 
ATOM      5  O   UNL A   1      32.415  35.326  31.381  1.00  0.00    -0.269 OA
ATOM      6  C   UNL A   1      33.298  34.974  30.617  1.00  0.00     0.251 C 
ATOM      7  H   UNL A   1      32.377  35.704  28.984  1.00  0.00     0.163 HD
BRANCH   6   8
ATOM      8  C   UNL A   1      34.515  34.294  31.129  1.00  0.00     0.039 A 
ATOM      9  C   UNL A   1      35.763  34.912  31.045  1.00  0.00     0.014 A 
ATOM     10  C   UNL A   1      34.403  33.015  31.683  1.00  0.00     0.014 A 
ATOM     11  C   UNL A   1      36.910  34.196  31.365  1.00  0.00     0.010 A 
ATOM     12  C   UNL A   1      35.554  32.331  32.095  1.00  0.00     0.010 A 
ATOM     13  C   UNL A   1      36.821  32.901  31.908  1.00  0.00    -0.014 A 
BRANCH  13  14
ATOM     14  C   UNL A   1      38.071  32.225  32.342  1.00  0.00     0.031 A 
ATOM     15  C   UNL A   1      38.726  32.531  33.661  1.00  0.00     0.074 A 
ATOM     16  C   UNL A   1      38.595  31.281  31.534  1.00  0.00     0.049 A 
ATOM     17  N   UNL A   1      39.760  31.951  34.216  1.00  0.00    -0.248 NA
ATOM     18  C   UNL A   1      38.162  33.631  34.459  1.00  0.00     0.031 C 
ATOM     19  C   UNL A   1      38.086  30.945  30.201  1.00  0.00     0.029 A 
ATOM     20  N   UNL A   1      39.649  30.423  31.711  1.00  0.00    -0.354 N 
ATOM     21  C   UNL A   1      39.990  32.625  35.408  1.00  0.00     0.074 A 
ATOM     22  C   UNL A   1      38.994  33.674  35.493  1.00  0.00     0.031 C 
ATOM     23  C   UNL A   1      38.799  29.926  29.701  1.00  0.00     0.029 A 
ATOM     24  C   UNL A   1      39.841  29.565  30.654  1.00  0.00     0.049 A 
ATOM     25  H   UNL A   1      40.214  30.421  32.518  1.00  0.00     0.167 HD
ATOM     26  C   UNL A   1      40.929  32.381  36.355  1.00  0.00     0.034 A 
ATOM     27  C   UNL A   1      40.754  28.593  30.467  1.00  0.00     0.034 A 
ATOM     28  C   UNL A   1      41.897  31.318  36.280  1.00  0.00     0.049 A 
ATOM     29  C   UNL A   1      41.739  28.304  31.560  1.00  0.00     0.074 A 
ATOM     30  C   UNL A   1      42.866  30.968  37.205  1.00  0.00     0.029 A 
ATOM     31  N   UNL A   1      42.022  30.431  35.221  1.00  0.00    -0.354 N 
ATOM     32  N   UNL A   1      41.855  28.875  32.735  1.00  0.00    -0.248 NA
ATOM     33  C   UNL A   1      42.700  27.220  31.319  1.00  0.00     0.031 C 
ATOM     34  C   UNL A   1      43.578  29.871  36.705  1.00  0.00     0.029 A 
ATOM     35  C   UNL A   1      43.047  29.532  35.471  1.00  0.00     0.049 A 
ATOM     36  H   UNL A   1      41.465  30.438  34.410  1.00  0.00     0.167 HD
ATOM     37  C   UNL A   1      42.897  28.217  33.375  1.00  0.00     0.074 A 
ATOM     38  C   UNL A   1      43.345  27.172  32.476  1.00  0.00     0.031 C 
ATOM     39  C   UNL A   1      43.454  28.475  34.584  1.00  0.00     0.034 A 
BRANCH  26  40
ATOM     40  C   UNL A   1      40.922  33.240  37.594  1.00  0.00     0.023 A 
ATOM     41  C   UNL A   1      41.866  34.279  37.714  1.00  0.00     0.012 A 
ATOM     42  C   UNL A   1      39.939  33.083  38.591  1.00  0.00     0.148 A 
ATOM     43  C   UNL A   1      41.846  35.137  38.813  1.00  0.00     0.002 A 
ATOM     44  C   UNL A   1      39.903  33.963  39.667  1.00  0.00     0.091 A 
ATOM     45  F   UNL A   1      39.060  32.078  38.469  1.00  0.00    -0.205 F 
ATOM     46  C   UNL A   1      40.859  34.986  39.784  1.00  0.00     0.022 A 
BRANCH  44  47
ATOM     47  S   UNL A   1      38.629  33.900  40.934  1.00  0.00     0.127 S 
ATOM     48  O   UNL A   1      37.456  33.515  40.151  1.00  0.00    -0.237 OA
ATOM     49  O   UNL A   1      39.133  32.857  41.827  1.00  0.00    -0.237 OA
ATOM     50  O   UNL A   1      38.581  35.232  41.521  1.00  0.00    -0.744 OA
ENDBRANCH  44  47
ENDBRANCH  26  40
BRANCH  27  51
ATOM     51  C   UNL A   1      40.729  27.795  29.209  1.00  0.00     0.023 A 
ATOM     52  C   UNL A   1      39.745  26.805  29.031  1.00  0.00     0.012 A 
ATOM     53  C   UNL A   1      41.635  28.058  28.165  1.00  0.00     0.148 A 
ATOM     54  C   UNL A   1      39.679  26.076  27.842  1.00  0.00     0.002 A 
ATOM     55  C   UNL A   1      41.523  27.375  26.960  1.00  0.00     0.091 A 
ATOM     56  F   UNL A   1      42.582  28.989  28.359  1.00  0.00    -0.205 F 
ATOM     57  C   UNL A   1      40.556  26.372  26.801  1.00  0.00     0.022 A 
BRANCH  55  58
ATOM     58  S   UNL A   1      42.513  27.830  25.532  1.00  0.00     0.127 S 
ATOM     59  O   UNL A   1      42.275  26.706  24.630  1.00  0.00    -0.237 OA
ATOM     60  O   UNL A   1      41.903  29.093  25.117  1.00  0.00    -0.237 OA
ATOM     61  O   UNL A   1      43.870  27.968  26.045  1.00  0.00    -0.744 OA
ENDBRANCH  55  58
ENDBRANCH  27  51
BRANCH  39  62
ATOM     62  C   UNL A   1      44.617  27.612  34.996  1.00  0.00     0.023 A 
ATOM     63  C   UNL A   1      45.930  28.075  34.779  1.00  0.00     0.012 A 
ATOM     64  C   UNL A   1      44.416  26.369  35.625  1.00  0.00     0.148 A 
ATOM     65  C   UNL A   1      47.026  27.297  35.149  1.00  0.00     0.002 A 
ATOM     66  C   UNL A   1      45.514  25.618  36.029  1.00  0.00     0.091 A 
ATOM     67  F   UNL A   1      43.159  25.934  35.800  1.00  0.00    -0.205 F 
ATOM     68  C   UNL A   1      46.818  26.074  35.782  1.00  0.00     0.022 A 
BRANCH  66  69
ATOM     69  S   UNL A   1      45.329  24.070  36.920  1.00  0.00     0.127 S 
ATOM     70  O   UNL A   1      46.720  23.706  37.182  1.00  0.00    -0.237 OA
ATOM     71  O   UNL A   1      44.572  24.476  38.106  1.00  0.00    -0.237 OA
ATOM     72  O   UNL A   1      44.601  23.184  36.021  1.00  0.00    -0.744 OA
ENDBRANCH  66  69
ENDBRANCH  39  62
ENDBRANCH  13  14
ENDBRANCH   6   8
ENDBRANCH   3   4
ENDBRANCH   2   3
ENDBRANCH   1   2
BRANCH   1  73
ATOM     73  C   UNL A   1      35.039  30.984  28.535  1.00  0.00     0.002 C 
BRANCH  73  74
ATOM     74  C   UNL A   1      35.496  29.864  27.595  1.00  0.00     0.021 C 
BRANCH  74  75
ATOM     75  C   UNL A   1      34.406  29.239  26.729  1.00  0.00     0.116 C 
BRANCH  75  76
ATOM     76  N   UNL A   1      33.221  28.879  27.486  1.00  0.00    -0.351 N 
ATOM     77  C   UNL A   1      32.301  27.892  27.224  1.00  0.00     0.270 C 
ATOM     78  H   UNL A   1      33.055  29.413  28.297  1.00  0.00     0.163 HD
ATOM     79  O   UNL A   1      31.339  27.730  27.970  1.00  0.00    -0.268 OA
BRANCH  77  80
ATOM     80  C   UNL A   1      32.501  27.012  26.049  1.00  0.00     0.134 A 
ATOM     81  C   UNL A   1      33.480  26.058  26.064  1.00  0.00     0.063 A 
ATOM     82  N   UNL A   1      31.702  27.246  25.004  1.00  0.00    -0.207 NA
ATOM     83  C   UNL A   1      33.636  25.364  24.887  1.00  0.00     0.077 A 
ATOM     84  C   UNL A   1      31.893  26.520  23.900  1.00  0.00     0.230 A 
ATOM     85  N   UNL A   1      32.844  25.575  23.805  1.00  0.00    -0.213 NA
BRANCH  83  86
ATOM     86  C   UNL A   1      34.746  24.412  24.738  1.00  0.00     0.000 A 
ATOM     87  C   UNL A   1      34.961  23.741  23.523  1.00  0.00     0.010 A 
ATOM     88  C   UNL A   1      35.688  24.228  25.768  1.00  0.00     0.010 A 
ATOM     89  C   UNL A   1      36.097  22.950  23.331  1.00  0.00     0.001 A 
ATOM     90  C   UNL A   1      36.820  23.433  25.579  1.00  0.00     0.001 A 
ATOM     91  C   UNL A   1      37.029  22.803  24.356  1.00  0.00     0.000 A 
ENDBRANCH  83  86
BRANCH  84  92
ATOM     92  N   UNL A   1      31.028  26.676  22.820  1.00  0.00    -0.300 N 
ATOM     93  H   UNL A   1      31.036  25.995  22.108  1.00  0.00     0.172 HD
BRANCH  92  94
ATOM     94  C   UNL A   1      30.181  27.720  22.703  1.00  0.00     0.190 A 
ATOM     95  N   UNL A   1      30.416  28.809  22.008  1.00  0.00    -0.220 NA
ATOM     96  S   UNL A   1      28.651  27.716  23.502  1.00  0.00    -0.097 S 
ATOM     97  C   UNL A   1      29.480  29.780  22.275  1.00  0.00     0.084 A 
ATOM     98  C   UNL A   1      28.435  29.382  23.107  1.00  0.00     0.056 A 
ATOM     99  C   UNL A   1      29.518  31.106  21.803  1.00  0.00     0.030 A 
ATOM    100  C   UNL A   1      27.428  30.279  23.499  1.00  0.00     0.021 A 
ATOM    101  C   UNL A   1      28.529  32.011  22.198  1.00  0.00     0.002 A 
ATOM    102  C   UNL A   1      27.501  31.600  23.040  1.00  0.00     0.002 A 
ENDBRANCH  92  94
ENDBRANCH  84  92
ENDBRANCH  77  80
ENDBRANCH  75  76
ENDBRANCH  74  75
ENDBRANCH  73  74
ENDBRANCH   1  73
TORSDOF 19
ENDMDL
MODEL 2
REMARK VINA RESULT:     -11.6      0.981      4.056
REMARK SMILES O=C(NCCCCCCNC(=O)c1cc(-c2ccccc2)nc(Nc2nc3ccccc3s2)n1)c1ccc(-c2c3nc(c(-c4cccc(S(=O)(=O)[O-])c4F)c4ccc([nH]4)c(-c4cccc(S(=O)(=O)[O-])c4F)c4nc(c(-c5cccc(S(=O)(=O)[O-])c5F)c5ccc2[nH]5)C=C4)C=C3)cc1
REMARK SMILES IDX 6 1 5 2 4 3 3 4 1 5 2 6 35 8 36 9 97 10 37 11 96 12 38 13
REMARK SMILES IDX 39 14 40 15 90 16 41 17 95 18 89 19 91 20 42 21 94 22 88 23
REMARK SMILES IDX 87 24 43 26 75 27 55 28 74 29 56 30 59 31 73 32 92 33 57 34
REMARK SMILES IDX 58 35 72 37 93 38 60 39 44 40 45 41 53 42 46 43 48 44 54 45
REMARK SMILES IDX 47 46 49 47 50 48 51 49 52 50 76 51 77 52 85 53 78 54 80 55
REMARK SMILES IDX 86 56 79 57 81 58 82 59 83 60 84 61 61 62 62 63 70 64 63 65
REMARK SMILES IDX 65 66 71 67 64 68 66 69 67 70 68 71 69 72 7 73 8 74 9 75
REMARK SMILES IDX 10 76 11 77 12 79 13 80 14 81 34 82 15 83 23 84 22 85 16 86
REMARK SMILES IDX 17 87 21 88 18 89 20 90 19 91 24 92 25 94 26 95 33 96 27 97
REMARK SMILES IDX 32 98 28 99 31 100 29 101 30 102
REMARK H PARENT 3 7 91 25 59 36 10 78 24 93
REMARK Flexibility Score: inf
ROOT
ATOM      1  C   UNL A   1      35.078  32.049  27.912  1.00  0.00     0.002 C 
ENDROOT
BRANCH   1   2
ATOM      2  C   UNL A   1      33.702  32.694  28.058  1.00  0.00     0.021 C 
BRANCH   2   3
ATOM      3  C   UNL A   1      33.683  34.213  27.990  1.00  0.00     0.116 C 
BRANCH   3   4
ATOM      4  N   UNL A   1      33.036  34.828  29.135  1.00  0.00    -0.352 N 
ATOM      5  O   UNL A   1      32.656  35.231  31.320  1.00  0.00    -0.269 OA
ATOM      6  C   UNL A   1      33.389  34.760  30.467  1.00  0.00     0.251 C 
ATOM      7  H   UNL A   1      32.237  35.366  28.934  1.00  0.00     0.163 HD
BRANCH   6   8
ATOM      8  C   UNL A   1      34.651  34.077  30.848  1.00  0.00     0.039 A 
ATOM      9  C   UNL A   1      34.624  32.912  31.617  1.00  0.00     0.014 A 
ATOM     10  C   UNL A   1      35.874  34.622  30.445  1.00  0.00     0.014 A 
ATOM     11  C   UNL A   1      35.811  32.385  32.112  1.00  0.00     0.010 A 
ATOM     12  C   UNL A   1      37.072  34.031  30.866  1.00  0.00     0.010 A 
ATOM     13  C   UNL A   1      37.052  32.928  31.732  1.00  0.00    -0.014 A 
BRANCH  13  14
ATOM     14  C   UNL A   1      38.294  32.256  32.195  1.00  0.00     0.031 A 
ATOM     15  C   UNL A   1      38.934  32.587  33.515  1.00  0.00     0.074 A 
ATOM     16  C   UNL A   1      38.823  31.294  31.413  1.00  0.00     0.049 A 
ATOM     17  N   UNL A   1      39.959  32.013  34.094  1.00  0.00    -0.248 NA
ATOM     18  C   UNL A   1      38.366  33.705  34.284  1.00  0.00     0.031 C 
ATOM     19  C   UNL A   1      38.329  30.933  30.081  1.00  0.00     0.029 A 
ATOM     20  N   UNL A   1      39.871  30.436  31.620  1.00  0.00    -0.354 N 
ATOM     21  C   UNL A   1      40.177  32.711  35.275  1.00  0.00     0.074 A 
ATOM     22  C   UNL A   1      39.185  33.765  35.327  1.00  0.00     0.031 C 
ATOM     23  C   UNL A   1      39.043  29.901  29.611  1.00  0.00     0.029 A 
ATOM     24  C   UNL A   1      40.072  29.555  30.583  1.00  0.00     0.049 A 
ATOM     25  H   UNL A   1      40.427  30.448  32.433  1.00  0.00     0.167 HD
ATOM     26  C   UNL A   1      41.105  32.482  36.238  1.00  0.00     0.034 A 
ATOM     27  C   UNL A   1      40.983  28.576  30.426  1.00  0.00     0.034 A 
ATOM     28  C   UNL A   1      42.069  31.414  36.196  1.00  0.00     0.049 A 
ATOM     29  C   UNL A   1      41.955  28.306  31.537  1.00  0.00     0.074 A 
ATOM     30  C   UNL A   1      43.026  31.079  37.140  1.00  0.00     0.029 A 
ATOM     31  N   UNL A   1      42.203  30.505  35.157  1.00  0.00    -0.354 N 
ATOM     32  N   UNL A   1      42.059  28.900  32.701  1.00  0.00    -0.248 NA
ATOM     33  C   UNL A   1      42.913  27.213  31.329  1.00  0.00     0.031 C 
ATOM     34  C   UNL A   1      43.739  29.970  36.670  1.00  0.00     0.029 A 
ATOM     35  C   UNL A   1      43.221  29.608  35.437  1.00  0.00     0.049 A 
ATOM     36  H   UNL A   1      41.655  30.499  34.339  1.00  0.00     0.167 HD
ATOM     37  C   UNL A   1      43.090  28.251  33.367  1.00  0.00     0.074 A 
ATOM     38  C   UNL A   1      43.544  27.187  32.494  1.00  0.00     0.031 C 
ATOM     39  C   UNL A   1      43.635  28.531  34.577  1.00  0.00     0.034 A 
BRANCH  26  40
ATOM     40  C   UNL A   1      41.087  33.366  37.459  1.00  0.00     0.023 A 
ATOM     41  C   UNL A   1      41.945  34.483  37.511  1.00  0.00     0.012 A 
ATOM     42  C   UNL A   1      40.170  33.151  38.508  1.00  0.00     0.148 A 
ATOM     43  C   UNL A   1      41.907  35.361  38.593  1.00  0.00     0.002 A 
ATOM     44  C   UNL A   1      40.114  34.050  39.568  1.00  0.00     0.091 A 
ATOM     45  F   UNL A   1      39.374  32.074  38.451  1.00  0.00    -0.205 F 
ATOM     46  C   UNL A   1      40.985  35.151  39.616  1.00  0.00     0.022 A 
BRANCH  44  47
ATOM     47  S   UNL A   1      38.914  33.910  40.899  1.00  0.00     0.127 S 
ATOM     48  O   UNL A   1      37.660  33.812  40.155  1.00  0.00    -0.237 OA
ATOM     49  O   UNL A   1      39.329  32.673  41.560  1.00  0.00    -0.237 OA
ATOM     50  O   UNL A   1      39.070  35.113  41.707  1.00  0.00    -0.744 OA
ENDBRANCH  44  47
ENDBRANCH  26  40
BRANCH  27  51
ATOM     51  C   UNL A   1      40.970  27.753  29.185  1.00  0.00     0.023 A 
ATOM     52  C   UNL A   1      40.029  26.716  29.046  1.00  0.00     0.012 A 
ATOM     53  C   UNL A   1      41.842  28.036  28.117  1.00  0.00     0.148 A 
ATOM     54  C   UNL A   1      39.973  25.961  27.873  1.00  0.00     0.002 A 
ATOM     55  C   UNL A   1      41.738  27.325  26.928  1.00  0.00     0.091 A 
ATOM     56  F   UNL A   1      42.749  29.012  28.274  1.00  0.00    -0.205 F 
ATOM     57  C   UNL A   1      40.815  26.276  26.808  1.00  0.00     0.022 A 
BRANCH  55  58
ATOM     58  S   UNL A   1      42.677  27.795  25.471  1.00  0.00     0.127 S 
ATOM     59  O   UNL A   1      42.533  26.614  24.625  1.00  0.00    -0.237 OA
ATOM     60  O   UNL A   1      41.957  28.980  25.003  1.00  0.00    -0.237 OA
ATOM     61  O   UNL A   1      44.019  28.075  25.965  1.00  0.00    -0.744 OA
ENDBRANCH  55  58
ENDBRANCH  27  51
BRANCH  39  62
ATOM     62  C   UNL A   1      44.789  27.672  35.020  1.00  0.00     0.023 A 
ATOM     63  C   UNL A   1      46.106  28.115  34.789  1.00  0.00     0.012 A 
ATOM     64  C   UNL A   1      44.575  26.454  35.691  1.00  0.00     0.148 A 
ATOM     65  C   UNL A   1      47.194  27.340  35.186  1.00  0.00     0.002 A 
ATOM     66  C   UNL A   1      45.665  25.707  36.123  1.00  0.00     0.091 A 
ATOM     67  F   UNL A   1      43.314  26.037  35.881  1.00  0.00    -0.205 F 
ATOM     68  C   UNL A   1      46.975  26.142  35.861  1.00  0.00     0.022 A 
BRANCH  66  69
ATOM     69  S   UNL A   1      45.465  24.193  37.068  1.00  0.00     0.127 S 
ATOM     70  O   UNL A   1      46.853  23.825  37.343  1.00  0.00    -0.237 OA
ATOM     71  O   UNL A   1      44.712  24.648  38.238  1.00  0.00    -0.237 OA
ATOM     72  O   UNL A   1      44.729  23.283  36.199  1.00  0.00    -0.744 OA
ENDBRANCH  66  69
ENDBRANCH  39  62
ENDBRANCH  13  14
ENDBRANCH   6   8
ENDBRANCH   3   4
ENDBRANCH   2   3
ENDBRANCH   1   2
BRANCH   1  73
ATOM     73  C   UNL A   1      35.219  30.633  28.476  1.00  0.00     0.002 C 
BRANCH  73  74
ATOM     74  C   UNL A   1      35.570  29.533  27.469  1.00  0.00     0.021 C 
BRANCH  74  75
ATOM     75  C   UNL A   1      34.393  28.928  26.711  1.00  0.00     0.116 C 
BRANCH  75  76
ATOM     76  N   UNL A   1      33.300  28.540  27.583  1.00  0.00    -0.351 N 
ATOM     77  C   UNL A   1      32.086  27.989  27.246  1.00  0.00     0.270 C 
ATOM     78  H   UNL A   1      33.447  28.691  28.545  1.00  0.00     0.163 HD
ATOM     79  O   UNL A   1      31.261  27.730  28.118  1.00  0.00    -0.268 OA
BRANCH  77  80
ATOM     80  C   UNL A   1      31.800  27.687  25.824  1.00  0.00     0.134 A 
ATOM     81  C   UNL A   1      30.996  28.517  25.094  1.00  0.00     0.063 A 
ATOM     82  N   UNL A   1      32.342  26.562  25.347  1.00  0.00    -0.207 NA
ATOM     83  C   UNL A   1      30.724  28.090  23.815  1.00  0.00     0.077 A 
ATOM     84  C   UNL A   1      32.055  26.218  24.090  1.00  0.00     0.230 A 
ATOM     85  N   UNL A   1      31.256  26.953  23.298  1.00  0.00    -0.213 NA
BRANCH  83  86
ATOM     86  C   UNL A   1      29.761  28.827  22.984  1.00  0.00     0.000 A 
ATOM     87  C   UNL A   1      28.379  28.679  23.183  1.00  0.00     0.010 A 
ATOM     88  C   UNL A   1      30.194  29.780  22.043  1.00  0.00     0.010 A 
ATOM     89  C   UNL A   1      27.464  29.485  22.498  1.00  0.00     0.001 A 
ATOM     90  C   UNL A   1      29.281  30.581  21.354  1.00  0.00     0.001 A 
ATOM     91  C   UNL A   1      27.917  30.440  21.591  1.00  0.00     0.000 A 
ENDBRANCH  83  86
BRANCH  84  92
ATOM     92  N   UNL A   1      32.665  25.098  23.530  1.00  0.00    -0.300 N 
ATOM     93  H   UNL A   1      32.408  24.828  22.619  1.00  0.00     0.172 HD
BRANCH  92  94
ATOM     94  C   UNL A   1      33.592  24.366  24.181  1.00  0.00     0.190 A 
ATOM     95  N   UNL A   1      34.826  24.748  24.419  1.00  0.00    -0.220 NA
ATOM     96  S   UNL A   1      33.222  22.788  24.774  1.00  0.00    -0.097 S 
ATOM     97  C   UNL A   1      35.589  23.702  24.881  1.00  0.00     0.084 A 
ATOM     98  C   UNL A   1      34.893  22.519  25.114  1.00  0.00     0.056 A 
ATOM     99  C   UNL A   1      36.980  23.739  25.102  1.00  0.00     0.030 A 
ATOM    100  C   UNL A   1      35.549  21.355  25.548  1.00  0.00     0.021 A 
ATOM    101  C   UNL A   1      37.645  22.584  25.521  1.00  0.00     0.002 A 
ATOM    102  C   UNL A   1      36.936  21.406  25.735  1.00  0.00     0.002 A 
ENDBRANCH  92  94
ENDBRANCH  84  92
ENDBRANCH  77  80
ENDBRANCH  75  76
ENDBRANCH  74  75
ENDBRANCH  73  74
ENDBRANCH   1  73
TORSDOF 19
ENDMDL
MODEL 3
REMARK VINA RESULT:     -11.6      1.563      8.433
REMARK SMILES O=C(NCCCCCCNC(=O)c1cc(-c2ccccc2)nc(Nc2nc3ccccc3s2)n1)c1ccc(-c2c3nc(c(-c4cccc(S(=O)(=O)[O-])c4F)c4ccc([nH]4)c(-c4cccc(S(=O)(=O)[O-])c4F)c4nc(c(-c5cccc(S(=O)(=O)[O-])c5F)c5ccc2[nH]5)C=C4)C=C3)cc1
REMARK SMILES IDX 6 1 5 2 4 3 3 4 1 5 2 6 35 8 36 9 97 10 37 11 96 12 38 13
REMARK SMILES IDX 39 14 40 15 90 16 41 17 95 18 89 19 91 20 42 21 94 22 88 23
REMARK SMILES IDX 87 24 43 26 75 27 55 28 74 29 56 30 59 31 73 32 92 33 57 34
REMARK SMILES IDX 58 35 72 37 93 38 60 39 44 40 45 41 53 42 46 43 48 44 54 45
REMARK SMILES IDX 47 46 49 47 50 48 51 49 52 50 76 51 77 52 85 53 78 54 80 55
REMARK SMILES IDX 86 56 79 57 81 58 82 59 83 60 84 61 61 62 62 63 70 64 63 65
REMARK SMILES IDX 65 66 71 67 64 68 66 69 67 70 68 71 69 72 7 73 8 74 9 75
REMARK SMILES IDX 10 76 11 77 12 79 13 80 14 81 34 82 15 83 23 84 22 85 16 86
REMARK SMILES IDX 17 87 21 88 18 89 20 90 19 91 24 92 25 94 26 95 33 96 27 97
REMARK SMILES IDX 32 98 28 99 31 100 29 101 30 102
REMARK H PARENT 3 7 91 25 59 36 10 78 24 93
REMARK Flexibility Score: inf
ROOT
ATOM      1  C   UNL A   1      34.791  32.961  28.170  1.00  0.00     0.002 C 
ENDROOT
BRANCH   1   2
ATOM      2  C   UNL A   1      33.556  33.849  28.039  1.00  0.00     0.021 C 
BRANCH   2   3
ATOM      3  C   UNL A   1      33.742  35.292  28.478  1.00  0.00     0.116 C 
BRANCH   3   4
ATOM      4  N   UNL A   1      32.874  35.671  29.580  1.00  0.00    -0.352 N 
ATOM      5  O   UNL A   1      32.074  35.624  31.686  1.00  0.00    -0.269 OA
ATOM      6  C   UNL A   1      32.968  35.326  30.912  1.00  0.00     0.251 C 
ATOM      7  H   UNL A   1      32.115  36.250  29.342  1.00  0.00     0.163 HD
BRANCH   6   8
ATOM      8  C   UNL A   1      34.150  34.560  31.381  1.00  0.00     0.039 A 
ATOM      9  C   UNL A   1      34.004  33.272  31.897  1.00  0.00     0.014 A 
ATOM     10  C   UNL A   1      35.417  35.149  31.319  1.00  0.00     0.014 A 
ATOM     11  C   UNL A   1      35.089  32.639  32.492  1.00  0.00     0.010 A 
ATOM     12  C   UNL A   1      36.528  34.467  31.832  1.00  0.00     0.010 A 
ATOM     13  C   UNL A   1      36.368  33.221  32.455  1.00  0.00    -0.014 A 
BRANCH  13  14
ATOM     14  C   UNL A   1      37.516  32.451  33.001  1.00  0.00     0.031 A 
ATOM     15  C   UNL A   1      38.169  31.338  32.228  1.00  0.00     0.074 A 
ATOM     16  C   UNL A   1      37.999  32.803  34.210  1.00  0.00     0.049 A 
ATOM     17  N   UNL A   1      39.238  30.647  32.533  1.00  0.00    -0.248 NA
ATOM     18  C   UNL A   1      37.545  30.938  30.956  1.00  0.00     0.031 C 
ATOM     19  C   UNL A   1      37.407  33.821  35.082  1.00  0.00     0.029 A 
ATOM     20  N   UNL A   1      39.095  32.367  34.907  1.00  0.00    -0.354 N 
ATOM     21  C   UNL A   1      39.402  29.717  31.514  1.00  0.00     0.074 A 
ATOM     22  C   UNL A   1      38.311  29.920  30.584  1.00  0.00     0.031 C 
ATOM     23  C   UNL A   1      38.170  33.963  36.175  1.00  0.00     0.029 A 
ATOM     24  C   UNL A   1      39.277  33.018  36.105  1.00  0.00     0.049 A 
ATOM     25  H   UNL A   1      39.694  31.657  34.582  1.00  0.00     0.167 HD
ATOM     26  C   UNL A   1      40.382  28.793  31.357  1.00  0.00     0.034 A 
ATOM     27  C   UNL A   1      40.228  32.874  37.047  1.00  0.00     0.034 A 
ATOM     28  C   UNL A   1      41.482  28.616  32.270  1.00  0.00     0.049 A 
ATOM     29  C   UNL A   1      41.335  31.888  36.814  1.00  0.00     0.074 A 
ATOM     30  C   UNL A   1      42.543  27.731  32.179  1.00  0.00     0.029 A 
ATOM     31  N   UNL A   1      41.665  29.334  33.442  1.00  0.00    -0.354 N 
ATOM     32  N   UNL A   1      41.537  31.107  35.781  1.00  0.00    -0.248 NA
ATOM     33  C   UNL A   1      42.360  31.783  37.859  1.00  0.00     0.031 C 
ATOM     34  C   UNL A   1      43.367  27.913  33.296  1.00  0.00     0.029 A 
ATOM     35  C   UNL A   1      42.823  28.918  34.080  1.00  0.00     0.049 A 
ATOM     36  H   UNL A   1      41.061  30.037  33.773  1.00  0.00     0.167 HD
ATOM     37  C   UNL A   1      42.715  30.422  36.047  1.00  0.00     0.074 A 
ATOM     38  C   UNL A   1      43.205  30.917  37.318  1.00  0.00     0.031 C 
ATOM     39  C   UNL A   1      43.318  29.448  35.323  1.00  0.00     0.034 A 
BRANCH  26  40
ATOM     40  C   UNL A   1      40.352  27.936  30.117  1.00  0.00     0.023 A 
ATOM     41  C   UNL A   1      39.415  26.887  30.030  1.00  0.00     0.012 A 
ATOM     42  C   UNL A   1      41.178  28.217  29.010  1.00  0.00     0.148 A 
ATOM     43  C   UNL A   1      39.313  26.118  28.871  1.00  0.00     0.002 A 
ATOM     44  C   UNL A   1      41.046  27.469  27.845  1.00  0.00     0.091 A 
ATOM     45  F   UNL A   1      42.076  29.208  29.117  1.00  0.00    -0.205 F 
ATOM     46  C   UNL A   1      40.119  26.415  27.776  1.00  0.00     0.022 A 
BRANCH  44  47
ATOM     47  S   UNL A   1      41.987  27.816  26.354  1.00  0.00     0.127 S 
ATOM     48  O   UNL A   1      41.595  29.196  26.074  1.00  0.00    -0.237 OA
ATOM     49  O   UNL A   1      43.367  27.657  26.814  1.00  0.00    -0.237 OA
ATOM     50  O   UNL A   1      41.557  26.832  25.370  1.00  0.00    -0.744 OA
ENDBRANCH  44  47
ENDBRANCH  26  40
BRANCH  27  51
ATOM     51  C   UNL A   1      40.189  33.729  38.266  1.00  0.00     0.023 A 
ATOM     52  C   UNL A   1      40.972  34.898  38.322  1.00  0.00     0.012 A 
ATOM     53  C   UNL A   1      39.334  33.424  39.341  1.00  0.00     0.148 A 
ATOM     54  C   UNL A   1      40.917  35.735  39.438  1.00  0.00     0.002 A 
ATOM     55  C   UNL A   1      39.235  34.294  40.419  1.00  0.00     0.091 A 
ATOM     56  F   UNL A   1      38.612  32.294  39.282  1.00  0.00    -0.205 F 
ATOM     57  C   UNL A   1      40.038  35.443  40.478  1.00  0.00     0.022 A 
BRANCH  55  58
ATOM     58  S   UNL A   1      38.002  34.057  41.703  1.00  0.00     0.127 S 
ATOM     59  O   UNL A   1      37.866  35.407  42.243  1.00  0.00    -0.237 OA
ATOM     60  O   UNL A   1      36.847  33.578  40.943  1.00  0.00    -0.237 OA
ATOM     61  O   UNL A   1      38.578  33.060  42.596  1.00  0.00    -0.744 OA
ENDBRANCH  55  58
ENDBRANCH  27  51
BRANCH  39  62
ATOM     62  C   UNL A   1      44.575  28.851  35.897  1.00  0.00     0.023 A 
ATOM     63  C   UNL A   1      45.823  29.401  35.546  1.00  0.00     0.012 A 
ATOM     64  C   UNL A   1      44.523  27.777  36.805  1.00  0.00     0.148 A 
ATOM     65  C   UNL A   1      47.003  28.868  36.061  1.00  0.00     0.002 A 
ATOM     66  C   UNL A   1      45.701  27.277  37.347  1.00  0.00     0.091 A 
ATOM     67  F   UNL A   1      43.327  27.249  37.109  1.00  0.00    -0.205 F 
ATOM     68  C   UNL A   1      46.943  27.813  36.968  1.00  0.00     0.022 A 
BRANCH  66  69
ATOM     69  S   UNL A   1      45.702  25.972  38.581  1.00  0.00     0.127 S 
ATOM     70  O   UNL A   1      47.128  25.829  38.867  1.00  0.00    -0.237 OA
ATOM     71  O   UNL A   1      44.919  26.565  39.668  1.00  0.00    -0.237 OA
ATOM     72  O   UNL A   1      45.065  24.828  37.942  1.00  0.00    -0.744 OA
ENDBRANCH  66  69
ENDBRANCH  39  62
ENDBRANCH  13  14
ENDBRANCH   6   8
ENDBRANCH   3   4
ENDBRANCH   2   3
ENDBRANCH   1   2
BRANCH   1  73
ATOM     73  C   UNL A   1      34.529  31.497  28.535  1.00  0.00     0.002 C 
BRANCH  73  74
ATOM     74  C   UNL A   1      35.353  30.451  27.777  1.00  0.00     0.021 C 
BRANCH  74  75
ATOM     75  C   UNL A   1      34.555  29.448  26.951  1.00  0.00     0.116 C 
BRANCH  75  76
ATOM     76  N   UNL A   1      33.495  28.810  27.710  1.00  0.00    -0.351 N 
ATOM     77  C   UNL A   1      32.394  28.130  27.244  1.00  0.00     0.270 C 
ATOM     78  H   UNL A   1      33.575  28.871  28.690  1.00  0.00     0.163 HD
ATOM     79  O   UNL A   1      31.579  27.659  28.033  1.00  0.00    -0.268 OA
BRANCH  77  80
ATOM     80  C   UNL A   1      32.220  27.952  25.783  1.00  0.00     0.134 A 
ATOM     81  C   UNL A   1      31.239  28.635  25.120  1.00  0.00     0.063 A 
ATOM     82  N   UNL A   1      33.045  27.077  25.202  1.00  0.00    -0.207 NA
ATOM     83  C   UNL A   1      31.109  28.322  23.787  1.00  0.00     0.077 A 
ATOM     84  C   UNL A   1      32.879  26.836  23.899  1.00  0.00     0.230 A 
ATOM     85  N   UNL A   1      31.928  27.437  23.163  1.00  0.00    -0.213 NA
BRANCH  83  86
ATOM     86  C   UNL A   1      30.001  28.887  23.005  1.00  0.00     0.000 A 
ATOM     87  C   UNL A   1      28.671  28.528  23.278  1.00  0.00     0.010 A 
ATOM     88  C   UNL A   1      30.229  29.884  22.037  1.00  0.00     0.010 A 
ATOM     89  C   UNL A   1      27.607  29.171  22.638  1.00  0.00     0.001 A 
ATOM     90  C   UNL A   1      29.168  30.523  21.393  1.00  0.00     0.001 A 
ATOM     91  C   UNL A   1      27.857  30.173  21.703  1.00  0.00     0.000 A 
ENDBRANCH  83  86
BRANCH  84  92
ATOM     92  N   UNL A   1      33.769  25.994  23.239  1.00  0.00    -0.300 N 
ATOM     93  H   UNL A   1      34.395  26.387  22.588  1.00  0.00     0.172 HD
BRANCH  92  94
ATOM     94  C   UNL A   1      33.814  24.662  23.451  1.00  0.00     0.190 A 
ATOM     95  N   UNL A   1      33.021  23.781  22.885  1.00  0.00    -0.220 NA
ATOM     96  S   UNL A   1      34.961  23.973  24.541  1.00  0.00    -0.097 S 
ATOM     97  C   UNL A   1      33.148  22.547  23.477  1.00  0.00     0.084 A 
ATOM     98  C   UNL A   1      34.150  22.453  24.441  1.00  0.00     0.056 A 
ATOM     99  C   UNL A   1      32.350  21.420  23.202  1.00  0.00     0.030 A 
ATOM    100  C   UNL A   1      34.369  21.265  25.158  1.00  0.00     0.021 A 
ATOM    101  C   UNL A   1      32.549  20.237  23.917  1.00  0.00     0.002 A 
ATOM    102  C   UNL A   1      33.544  20.166  24.887  1.00  0.00     0.002 A 
ENDBRANCH  92  94
ENDBRANCH  84  92
ENDBRANCH  77  80
ENDBRANCH  75  76
ENDBRANCH  74  75
ENDBRANCH  73  74
ENDBRANCH   1  73
TORSDOF 19
ENDMDL
