MODEL 1
REMARK VINA RESULT:     -11.3      0.000      0.000
REMARK SMILES C[C@@H]1CCC[C@H](S[C@@H]2CCC[C@]([NH2+]C3CC3)(C(=O)NCCCCCCNC(=O)c3ccc(-c4c5nc(c(-c6cccc(S(=O)(=O)[O-])c6F)c6ccc([nH]6)c(-c6cccc(S(=O)(=O)[O-])c6F)c6nc(c(-c7cccc(S(=O)(=O)[O-])c7F)c7ccc4[nH]7)C=C6)C=C5)cc3)C2)C1
REMARK SMILES IDX 23 1 22 2 21 3 20 4 19 5 17 6 18 7 12 9 8 10 9 11 92 12
REMARK SMILES IDX 10 13 11 14 7 15 6 16 1 17 2 18 3 19 93 20 4 21 5 22 13 23
REMARK SMILES IDX 14 26 15 27 16 28 24 29 25 30 26 31 27 32 28 34 29 35 30 36
REMARK SMILES IDX 91 37 31 38 90 39 32 40 33 41 34 42 84 43 35 44 89 45 83 46
REMARK SMILES IDX 85 47 36 48 88 49 82 50 81 51 37 53 69 54 49 55 68 56 50 57
REMARK SMILES IDX 53 58 67 59 86 60 51 61 52 62 66 64 87 65 54 66 38 67 39 68
REMARK SMILES IDX 47 69 40 70 42 71 48 72 41 73 43 74 44 75 45 76 46 77 70 78
REMARK SMILES IDX 71 79 79 80 72 81 74 82 80 83 73 84 75 85 76 86 77 87 78 88
REMARK SMILES IDX 55 89 56 90 64 91 57 92 59 93 65 94 58 95 60 96 61 97 62 98
REMARK SMILES IDX 63 99
REMARK H PARENT 19 8 13 24 13 25 26 33 85 52 53 63
REMARK Flexibility Score: inf
ROOT
ATOM      1  C   UNL A   1      32.524  27.539  24.556  1.00  0.00     0.002 C 
ENDROOT
BRANCH   1   2
ATOM      2  C   UNL A   1      32.229  26.752  25.837  1.00  0.00     0.002 C 
BRANCH   2   3
ATOM      3  C   UNL A   1      30.777  26.801  26.314  1.00  0.00     0.021 C 
BRANCH   3   4
ATOM      4  C   UNL A   1      29.842  25.801  25.642  1.00  0.00     0.116 C 
BRANCH   4   5
ATOM      5  N   UNL A   1      29.517  24.679  26.499  1.00  0.00    -0.351 N 
ATOM      6  C   UNL A   1      30.050  23.429  26.623  1.00  0.00     0.281 C 
ATOM      7  O   UNL A   1      29.524  22.718  27.486  1.00  0.00    -0.268 OA
ATOM      8  H   UNL A   1      28.765  24.853  27.111  1.00  0.00     0.163 HD
BRANCH   6   9
ATOM      9  C   UNL A   1      31.262  22.936  25.764  1.00  0.00     0.176 C 
ATOM     10  C   UNL A   1      33.808  23.407  25.390  1.00  0.00     0.053 C 
ATOM     11  C   UNL A   1      33.573  23.831  23.942  1.00  0.00     0.015 C 
ATOM     12  C   UNL A   1      32.594  23.516  26.307  1.00  0.00     0.093 C 
ATOM     13  C   UNL A   1      32.262  23.271  23.399  1.00  0.00     0.008 C 
ATOM     14  C   UNL A   1      31.087  23.534  24.337  1.00  0.00     0.079 C 
BRANCH  10  15
ATOM     15  S   UNL A   1      35.368  24.073  26.146  1.00  0.00    -0.155 SA
BRANCH  15  16
ATOM     16  C   UNL A   1      36.837  23.755  25.054  1.00  0.00     0.047 C 
ATOM     17  C   UNL A   1      36.145  20.300  25.003  1.00  0.00     0.007 C 
ATOM     18  C   UNL A   1      37.276  21.228  24.550  1.00  0.00    -0.013 C 
ATOM     19  C   UNL A   1      38.496  21.304  25.494  1.00  0.00     0.003 C 
ATOM     20  C   UNL A   1      36.713  22.572  24.082  1.00  0.00     0.017 C 
ATOM     21  C   UNL A   1      38.799  22.617  26.220  1.00  0.00     0.001 C 
ATOM     22  C   UNL A   1      38.260  23.876  25.569  1.00  0.00     0.014 C 
ENDBRANCH  15  16
ENDBRANCH  10  15
BRANCH   9  23
ATOM     23  N   UNL A   1      31.316  21.458  25.744  1.00  0.00    -0.331 N 
ATOM     24  H   UNL A   1      30.562  21.156  25.127  1.00  0.00     0.347 HD
ATOM     25  H   UNL A   1      31.272  21.236  26.739  1.00  0.00     0.347 HD
BRANCH  23  26
ATOM     26  C   UNL A   1      32.513  20.712  25.322  1.00  0.00     0.183 C 
ATOM     27  C   UNL A   1      32.822  19.258  25.551  1.00  0.00     0.071 C 
ATOM     28  C   UNL A   1      32.469  19.728  24.178  1.00  0.00     0.071 C 
ENDBRANCH  23  26
ENDBRANCH   9  23
ENDBRANCH   6   9
ENDBRANCH   4   5
ENDBRANCH   3   4
ENDBRANCH   2   3
ENDBRANCH   1   2
BRANCH   1  29
ATOM     29  C   UNL A   1      33.467  28.734  24.718  1.00  0.00     0.021 C 
BRANCH  29  30
ATOM     30  C   UNL A   1      34.045  28.921  26.114  1.00  0.00     0.116 C 
BRANCH  30  31
ATOM     31  N   UNL A   1      33.956  30.296  26.567  1.00  0.00    -0.352 N 
ATOM     32  C   UNL A   1      34.723  30.952  27.495  1.00  0.00     0.251 C 
ATOM     33  H   UNL A   1      33.244  30.833  26.149  1.00  0.00     0.163 HD
ATOM     34  O   UNL A   1      34.383  32.064  27.887  1.00  0.00    -0.269 OA
BRANCH  32  35
ATOM     35  C   UNL A   1      35.943  30.312  28.037  1.00  0.00     0.039 A 
ATOM     36  C   UNL A   1      37.127  30.411  27.304  1.00  0.00     0.014 A 
ATOM     37  C   UNL A   1      35.924  29.608  29.246  1.00  0.00     0.014 A 
ATOM     38  C   UNL A   1      38.297  29.838  27.802  1.00  0.00     0.010 A 
ATOM     39  C   UNL A   1      37.110  29.108  29.780  1.00  0.00     0.010 A 
ATOM     40  C   UNL A   1      38.306  29.203  29.056  1.00  0.00    -0.014 A 
BRANCH  40  41
ATOM     41  C   UNL A   1      39.574  28.665  29.612  1.00  0.00     0.031 A 
ATOM     42  C   UNL A   1      40.196  29.259  30.846  1.00  0.00     0.074 A 
ATOM     43  C   UNL A   1      40.187  27.646  28.978  1.00  0.00     0.049 A 
ATOM     44  N   UNL A   1      41.241  28.849  31.518  1.00  0.00    -0.248 NA
ATOM     45  C   UNL A   1      39.584  30.486  31.381  1.00  0.00     0.031 C 
ATOM     46  C   UNL A   1      39.739  27.048  27.719  1.00  0.00     0.029 A 
ATOM     47  N   UNL A   1      41.314  26.935  29.303  1.00  0.00    -0.354 N 
ATOM     48  C   UNL A   1      41.425  29.774  32.541  1.00  0.00     0.074 A 
ATOM     49  C   UNL A   1      40.412  30.792  32.370  1.00  0.00     0.031 C 
ATOM     50  C   UNL A   1      40.559  26.035  27.398  1.00  0.00     0.029 A 
ATOM     51  C   UNL A   1      41.600  25.924  28.415  1.00  0.00     0.049 A 
ATOM     52  H   UNL A   1      41.864  27.129  30.095  1.00  0.00     0.167 HD
ATOM     53  C   UNL A   1      42.330  29.760  33.549  1.00  0.00     0.034 A 
ATOM     54  C   UNL A   1      42.578  24.999  28.428  1.00  0.00     0.034 A 
ATOM     55  C   UNL A   1      43.322  28.731  33.726  1.00  0.00     0.049 A 
ATOM     56  C   UNL A   1      43.538  24.969  29.585  1.00  0.00     0.074 A 
ATOM     57  C   UNL A   1      44.229  28.575  34.759  1.00  0.00     0.029 A 
ATOM     58  N   UNL A   1      43.547  27.688  32.839  1.00  0.00    -0.354 N 
ATOM     59  N   UNL A   1      43.585  25.746  30.641  1.00  0.00    -0.248 NA
ATOM     60  C   UNL A   1      44.552  23.907  29.573  1.00  0.00     0.031 C 
ATOM     61  C   UNL A   1      45.022  27.455  34.481  1.00  0.00     0.029 A 
ATOM     62  C   UNL A   1      44.588  26.894  33.291  1.00  0.00     0.049 A 
ATOM     63  H   UNL A   1      43.042  27.536  32.008  1.00  0.00     0.167 HD
ATOM     64  C   UNL A   1      44.613  25.251  31.433  1.00  0.00     0.074 A 
ATOM     65  C   UNL A   1      45.141  24.087  30.748  1.00  0.00     0.031 C 
ATOM     66  C   UNL A   1      45.088  25.723  32.614  1.00  0.00     0.034 A 
BRANCH  53  67
ATOM     67  C   UNL A   1      42.255  30.874  34.564  1.00  0.00     0.023 A 
ATOM     68  C   UNL A   1      41.496  30.695  35.741  1.00  0.00     0.012 A 
ATOM     69  C   UNL A   1      42.948  32.085  34.371  1.00  0.00     0.148 A 
ATOM     70  C   UNL A   1      41.389  31.717  36.683  1.00  0.00     0.002 A 
ATOM     71  C   UNL A   1      42.875  33.082  35.340  1.00  0.00     0.091 A 
ATOM     72  F   UNL A   1      43.645  32.252  33.239  1.00  0.00    -0.205 F 
ATOM     73  C   UNL A   1      42.085  32.905  36.487  1.00  0.00     0.022 A 
BRANCH  71  74
ATOM     74  S   UNL A   1      43.801  34.617  35.216  1.00  0.00     0.127 S 
ATOM     75  O   UNL A   1      43.083  35.309  34.147  1.00  0.00    -0.237 OA
ATOM     76  O   UNL A   1      43.619  35.196  36.547  1.00  0.00    -0.237 OA
ATOM     77  O   UNL A   1      45.171  34.231  34.907  1.00  0.00    -0.744 OA
ENDBRANCH  71  74
ENDBRANCH  53  67
BRANCH  54  78
ATOM     78  C   UNL A   1      42.627  23.964  27.358  1.00  0.00     0.023 A 
ATOM     79  C   UNL A   1      43.241  24.271  26.129  1.00  0.00     0.012 A 
ATOM     80  C   UNL A   1      42.125  22.666  27.572  1.00  0.00     0.148 A 
ATOM     81  C   UNL A   1      43.331  23.312  25.120  1.00  0.00     0.002 A 
ATOM     82  C   UNL A   1      42.268  21.699  26.584  1.00  0.00     0.091 A 
ATOM     83  F   UNL A   1      41.540  22.398  28.748  1.00  0.00    -0.205 F 
ATOM     84  C   UNL A   1      42.855  22.025  25.351  1.00  0.00     0.022 A 
BRANCH  82  85
ATOM     85  S   UNL A   1      41.812  19.982  26.841  1.00  0.00     0.127 S 
ATOM     86  O   UNL A   1      43.059  19.412  27.344  1.00  0.00    -0.237 OA
ATOM     87  O   UNL A   1      40.743  20.101  27.833  1.00  0.00    -0.237 OA
ATOM     88  O   UNL A   1      41.375  19.489  25.541  1.00  0.00    -0.744 OA
ENDBRANCH  82  85
ENDBRANCH  54  78
BRANCH  66  89
ATOM     89  C   UNL A   1      46.231  24.969  33.247  1.00  0.00     0.023 A 
ATOM     90  C   UNL A   1      47.555  25.417  33.063  1.00  0.00     0.012 A 
ATOM     91  C   UNL A   1      45.993  23.835  34.047  1.00  0.00     0.148 A 
ATOM     92  C   UNL A   1      48.626  24.720  33.621  1.00  0.00     0.002 A 
ATOM     93  C   UNL A   1      47.061  23.176  34.645  1.00  0.00     0.091 A 
ATOM     94  F   UNL A   1      44.730  23.408  34.198  1.00  0.00    -0.205 F 
ATOM     95  C   UNL A   1      48.379  23.606  34.419  1.00  0.00     0.022 A 
BRANCH  93  96
ATOM     96  S   UNL A   1      46.826  21.792  35.765  1.00  0.00     0.127 S 
ATOM     97  O   UNL A   1      48.171  21.617  36.312  1.00  0.00    -0.237 OA
ATOM     98  O   UNL A   1      45.846  22.320  36.715  1.00  0.00    -0.237 OA
ATOM     99  O   UNL A   1      46.332  20.695  34.942  1.00  0.00    -0.744 OA
ENDBRANCH  93  96
ENDBRANCH  66  89
ENDBRANCH  40  41
ENDBRANCH  32  35
ENDBRANCH  30  31
ENDBRANCH  29  30
ENDBRANCH   1  29
TORSDOF 20
ENDMDL
MODEL 2
REMARK VINA RESULT:     -11.2      2.734      4.034
REMARK SMILES C[C@@H]1CCC[C@H](S[C@@H]2CCC[C@]([NH2+]C3CC3)(C(=O)NCCCCCCNC(=O)c3ccc(-c4c5nc(c(-c6cccc(S(=O)(=O)[O-])c6F)c6ccc([nH]6)c(-c6cccc(S(=O)(=O)[O-])c6F)c6nc(c(-c7cccc(S(=O)(=O)[O-])c7F)c7ccc4[nH]7)C=C6)C=C5)cc3)C2)C1
REMARK SMILES IDX 23 1 22 2 21 3 20 4 19 5 17 6 18 7 12 9 8 10 9 11 92 12
REMARK SMILES IDX 10 13 11 14 7 15 6 16 1 17 2 18 3 19 93 20 4 21 5 22 13 23
REMARK SMILES IDX 14 26 15 27 16 28 24 29 25 30 26 31 27 32 28 34 29 35 30 36
REMARK SMILES IDX 91 37 31 38 90 39 32 40 33 41 34 42 84 43 35 44 89 45 83 46
REMARK SMILES IDX 85 47 36 48 88 49 82 50 81 51 37 53 69 54 49 55 68 56 50 57
REMARK SMILES IDX 53 58 67 59 86 60 51 61 52 62 66 64 87 65 54 66 38 67 39 68
REMARK SMILES IDX 47 69 40 70 42 71 48 72 41 73 43 74 44 75 45 76 46 77 70 78
REMARK SMILES IDX 71 79 79 80 72 81 74 82 80 83 73 84 75 85 76 86 77 87 78 88
REMARK SMILES IDX 55 89 56 90 64 91 57 92 59 93 65 94 58 95 60 96 61 97 62 98
REMARK SMILES IDX 63 99
REMARK H PARENT 19 8 13 24 13 25 26 33 85 52 53 63
REMARK Flexibility Score: inf
ROOT
ATOM      1  C   UNL A   1      31.855  29.763  25.236  1.00  0.00     0.002 C 
ENDROOT
BRANCH   1   2
ATOM      2  C   UNL A   1      33.045  28.911  25.687  1.00  0.00     0.002 C 
BRANCH   2   3
ATOM      3  C   UNL A   1      32.683  27.630  26.440  1.00  0.00     0.021 C 
BRANCH   3   4
ATOM      4  C   UNL A   1      31.452  26.898  25.914  1.00  0.00     0.116 C 
BRANCH   4   5
ATOM      5  N   UNL A   1      31.171  25.681  26.648  1.00  0.00    -0.351 N 
ATOM      6  C   UNL A   1      31.636  24.404  26.528  1.00  0.00     0.281 C 
ATOM      7  O   UNL A   1      31.182  23.601  27.351  1.00  0.00    -0.268 OA
ATOM      8  H   UNL A   1      30.517  25.799  27.375  1.00  0.00     0.163 HD
BRANCH   6   9
ATOM      9  C   UNL A   1      32.693  23.985  25.453  1.00  0.00     0.176 C 
ATOM     10  C   UNL A   1      34.318  22.021  24.863  1.00  0.00     0.053 C 
ATOM     11  C   UNL A   1      35.545  22.914  25.024  1.00  0.00     0.015 C 
ATOM     12  C   UNL A   1      33.069  22.488  25.603  1.00  0.00     0.093 C 
ATOM     13  C   UNL A   1      35.187  24.391  24.884  1.00  0.00     0.008 C 
ATOM     14  C   UNL A   1      33.996  24.783  25.754  1.00  0.00     0.079 C 
BRANCH  10  15
ATOM     15  S   UNL A   1      34.655  20.205  25.054  1.00  0.00    -0.155 SA
BRANCH  15  16
ATOM     16  C   UNL A   1      33.113  19.201  24.800  1.00  0.00     0.047 C 
ATOM     17  C   UNL A   1      34.907  16.198  25.227  1.00  0.00     0.007 C 
ATOM     18  C   UNL A   1      33.501  16.616  24.786  1.00  0.00    -0.013 C 
ATOM     19  C   UNL A   1      33.258  16.639  23.261  1.00  0.00     0.003 C 
ATOM     20  C   UNL A   1      33.047  17.862  25.550  1.00  0.00     0.017 C 
ATOM     21  C   UNL A   1      32.997  17.977  22.566  1.00  0.00     0.001 C 
ATOM     22  C   UNL A   1      32.445  19.085  23.441  1.00  0.00     0.014 C 
ENDBRANCH  15  16
ENDBRANCH  10  15
BRANCH   9  23
ATOM     23  N   UNL A   1      32.182  24.251  24.091  1.00  0.00    -0.331 N 
ATOM     24  H   UNL A   1      31.260  24.671  24.212  1.00  0.00     0.347 HD
ATOM     25  H   UNL A   1      32.264  23.332  23.656  1.00  0.00     0.347 HD
BRANCH  23  26
ATOM     26  C   UNL A   1      32.894  25.105  23.126  1.00  0.00     0.183 C 
ATOM     27  C   UNL A   1      32.511  25.409  21.704  1.00  0.00     0.071 C 
ATOM     28  C   UNL A   1      32.377  26.471  22.745  1.00  0.00     0.071 C 
ENDBRANCH  23  26
ENDBRANCH   9  23
ENDBRANCH   6   9
ENDBRANCH   4   5
ENDBRANCH   3   4
ENDBRANCH   2   3
ENDBRANCH   1   2
BRANCH   1  29
ATOM     29  C   UNL A   1      31.491  30.930  26.158  1.00  0.00     0.021 C 
BRANCH  29  30
ATOM     30  C   UNL A   1      32.642  31.485  26.987  1.00  0.00     0.116 C 
BRANCH  30  31
ATOM     31  N   UNL A   1      32.495  32.903  27.252  1.00  0.00    -0.352 N 
ATOM     32  C   UNL A   1      33.236  33.711  28.076  1.00  0.00     0.251 C 
ATOM     33  H   UNL A   1      31.759  33.349  26.772  1.00  0.00     0.163 HD
ATOM     34  O   UNL A   1      32.849  34.850  28.318  1.00  0.00    -0.269 OA
BRANCH  32  35
ATOM     35  C   UNL A   1      34.484  33.202  28.688  1.00  0.00     0.039 A 
ATOM     36  C   UNL A   1      34.385  32.326  29.770  1.00  0.00     0.014 A 
ATOM     37  C   UNL A   1      35.742  33.592  28.215  1.00  0.00     0.014 A 
ATOM     38  C   UNL A   1      35.544  31.813  30.351  1.00  0.00     0.010 A 
ATOM     39  C   UNL A   1      36.895  33.015  28.744  1.00  0.00     0.010 A 
ATOM     40  C   UNL A   1      36.810  32.132  29.828  1.00  0.00    -0.014 A 
BRANCH  40  41
ATOM     41  C   UNL A   1      38.033  31.517  30.405  1.00  0.00     0.031 A 
ATOM     42  C   UNL A   1      38.558  31.946  31.748  1.00  0.00     0.074 A 
ATOM     43  C   UNL A   1      38.693  30.581  29.697  1.00  0.00     0.049 A 
ATOM     44  N   UNL A   1      39.549  31.446  32.440  1.00  0.00    -0.248 NA
ATOM     45  C   UNL A   1      37.907  33.101  32.386  1.00  0.00     0.031 C 
ATOM     46  C   UNL A   1      38.343  30.149  28.342  1.00  0.00     0.029 A 
ATOM     47  N   UNL A   1      39.792  29.824  30.013  1.00  0.00    -0.354 N 
ATOM     48  C   UNL A   1      39.654  32.233  33.582  1.00  0.00     0.074 A 
ATOM     49  C   UNL A   1      38.656  33.274  33.465  1.00  0.00     0.031 C 
ATOM     50  C   UNL A   1      39.185  29.177  27.959  1.00  0.00     0.029 A 
ATOM     51  C   UNL A   1      40.146  28.931  29.029  1.00  0.00     0.049 A 
ATOM     52  H   UNL A   1      40.280  29.912  30.863  1.00  0.00     0.167 HD
ATOM     53  C   UNL A   1      40.480  32.085  34.646  1.00  0.00     0.034 A 
ATOM     54  C   UNL A   1      41.121  28.003  29.000  1.00  0.00     0.034 A 
ATOM     55  C   UNL A   1      41.456  31.033  34.767  1.00  0.00     0.049 A 
ATOM     56  C   UNL A   1      41.990  27.819  30.214  1.00  0.00     0.074 A 
ATOM     57  C   UNL A   1      42.282  30.741  35.837  1.00  0.00     0.029 A 
ATOM     58  N   UNL A   1      41.749  30.108  33.775  1.00  0.00    -0.354 N 
ATOM     59  N   UNL A   1      41.955  28.457  31.359  1.00  0.00    -0.248 NA
ATOM     60  C   UNL A   1      43.003  26.758  30.145  1.00  0.00     0.031 C 
ATOM     61  C   UNL A   1      43.095  29.658  35.481  1.00  0.00     0.029 A 
ATOM     62  C   UNL A   1      42.754  29.254  34.201  1.00  0.00     0.049 A 
ATOM     63  H   UNL A   1      41.309  30.066  32.896  1.00  0.00     0.167 HD
ATOM     64  C   UNL A   1      42.921  27.857  32.158  1.00  0.00     0.074 A 
ATOM     65  C   UNL A   1      43.501  26.784  31.374  1.00  0.00     0.031 C 
ATOM     66  C   UNL A   1      43.304  28.174  33.421  1.00  0.00     0.034 A 
BRANCH  53  67
ATOM     67  C   UNL A   1      40.327  33.064  35.784  1.00  0.00     0.023 A 
ATOM     68  C   UNL A   1      40.926  34.339  35.693  1.00  0.00     0.012 A 
ATOM     69  C   UNL A   1      39.576  32.739  36.930  1.00  0.00     0.148 A 
ATOM     70  C   UNL A   1      40.821  35.253  36.740  1.00  0.00     0.002 A 
ATOM     71  C   UNL A   1      39.435  33.675  37.950  1.00  0.00     0.091 A 
ATOM     72  F   UNL A   1      39.031  31.517  37.015  1.00  0.00    -0.205 F 
ATOM     73  C   UNL A   1      40.069  34.925  37.863  1.00  0.00     0.022 A 
BRANCH  71  74
ATOM     74  S   UNL A   1      38.419  33.375  39.401  1.00  0.00     0.127 S 
ATOM     75  O   UNL A   1      38.528  34.651  40.106  1.00  0.00    -0.237 OA
ATOM     76  O   UNL A   1      37.105  33.116  38.811  1.00  0.00    -0.237 OA
ATOM     77  O   UNL A   1      39.015  32.230  40.075  1.00  0.00    -0.744 OA
ENDBRANCH  71  74
ENDBRANCH  53  67
BRANCH  54  78
ATOM     78  C   UNL A   1      41.252  27.110  27.816  1.00  0.00     0.023 A 
ATOM     79  C   UNL A   1      41.919  27.580  26.668  1.00  0.00     0.012 A 
ATOM     80  C   UNL A   1      40.775  25.785  27.840  1.00  0.00     0.148 A 
ATOM     81  C   UNL A   1      42.086  26.755  25.555  1.00  0.00     0.002 A 
ATOM     82  C   UNL A   1      40.994  24.952  26.750  1.00  0.00     0.091 A 
ATOM     83  F   UNL A   1      40.138  25.361  28.942  1.00  0.00    -0.205 F 
ATOM     84  C   UNL A   1      41.634  25.440  25.600  1.00  0.00     0.022 A 
BRANCH  82  85
ATOM     85  S   UNL A   1      40.572  23.206  26.769  1.00  0.00     0.127 S 
ATOM     86  O   UNL A   1      40.886  22.837  28.146  1.00  0.00    -0.237 OA
ATOM     87  O   UNL A   1      39.144  23.240  26.448  1.00  0.00    -0.237 OA
ATOM     88  O   UNL A   1      41.404  22.587  25.746  1.00  0.00    -0.744 OA
ENDBRANCH  82  85
ENDBRANCH  54  78
BRANCH  66  89
ATOM     89  C   UNL A   1      44.396  27.336  34.039  1.00  0.00     0.023 A 
ATOM     90  C   UNL A   1      45.738  27.764  33.962  1.00  0.00     0.012 A 
ATOM     91  C   UNL A   1      44.093  26.141  34.720  1.00  0.00     0.148 A 
ATOM     92  C   UNL A   1      46.763  26.991  34.507  1.00  0.00     0.002 A 
ATOM     93  C   UNL A   1      45.114  25.403  35.307  1.00  0.00     0.091 A 
ATOM     94  F   UNL A   1      42.815  25.736  34.768  1.00  0.00    -0.205 F 
ATOM     95  C   UNL A   1      46.451  25.817  35.187  1.00  0.00     0.022 A 
BRANCH  93  96
ATOM     96  S   UNL A   1      44.792  23.930  36.284  1.00  0.00     0.127 S 
ATOM     97  O   UNL A   1      46.133  23.367  36.427  1.00  0.00    -0.237 OA
ATOM     98  O   UNL A   1      44.230  24.488  37.516  1.00  0.00    -0.237 OA
ATOM     99  O   UNL A   1      43.853  23.135  35.503  1.00  0.00    -0.744 OA
ENDBRANCH  93  96
ENDBRANCH  66  89
ENDBRANCH  40  41
ENDBRANCH  32  35
ENDBRANCH  30  31
ENDBRANCH  29  30
ENDBRANCH   1  29
TORSDOF 20
ENDMDL
MODEL 3
REMARK VINA RESULT:     -11.0      1.923      2.493
REMARK SMILES C[C@@H]1CCC[C@H](S[C@@H]2CCC[C@]([NH2+]C3CC3)(C(=O)NCCCCCCNC(=O)c3ccc(-c4c5nc(c(-c6cccc(S(=O)(=O)[O-])c6F)c6ccc([nH]6)c(-c6cccc(S(=O)(=O)[O-])c6F)c6nc(c(-c7cccc(S(=O)(=O)[O-])c7F)c7ccc4[nH]7)C=C6)C=C5)cc3)C2)C1
REMARK SMILES IDX 23 1 22 2 21 3 20 4 19 5 17 6 18 7 12 9 8 10 9 11 92 12
REMARK SMILES IDX 10 13 11 14 7 15 6 16 1 17 2 18 3 19 93 20 4 21 5 22 13 23
REMARK SMILES IDX 14 26 15 27 16 28 24 29 25 30 26 31 27 32 28 34 29 35 30 36
REMARK SMILES IDX 91 37 31 38 90 39 32 40 33 41 34 42 84 43 35 44 89 45 83 46
REMARK SMILES IDX 85 47 36 48 88 49 82 50 81 51 37 53 69 54 49 55 68 56 50 57
REMARK SMILES IDX 53 58 67 59 86 60 51 61 52 62 66 64 87 65 54 66 38 67 39 68
REMARK SMILES IDX 47 69 40 70 42 71 48 72 41 73 43 74 44 75 45 76 46 77 70 78
REMARK SMILES IDX 71 79 79 80 72 81 74 82 80 83 73 84 75 85 76 86 77 87 78 88
REMARK SMILES IDX 55 89 56 90 64 91 57 92 59 93 65 94 58 95 60 96 61 97 62 98
REMARK SMILES IDX 63 99
REMARK H PARENT 19 8 13 24 13 25 26 33 85 52 53 63
REMARK Flexibility Score: inf
ROOT
ATOM      1  C   UNL A   1      32.259  27.619  24.309  1.00  0.00     0.002 C 
ENDROOT
BRANCH   1   2
ATOM      2  C   UNL A   1      32.220  26.778  25.589  1.00  0.00     0.002 C 
BRANCH   2   3
ATOM      3  C   UNL A   1      30.850  26.673  26.259  1.00  0.00     0.021 C 
BRANCH   3   4
ATOM      4  C   UNL A   1      29.893  25.672  25.618  1.00  0.00     0.116 C 
BRANCH   4   5
ATOM      5  N   UNL A   1      29.576  24.564  26.496  1.00  0.00    -0.351 N 
ATOM      6  C   UNL A   1      30.123  23.323  26.648  1.00  0.00     0.281 C 
ATOM      7  O   UNL A   1      29.600  22.622  27.521  1.00  0.00    -0.268 OA
ATOM      8  H   UNL A   1      28.818  24.740  27.099  1.00  0.00     0.163 HD
BRANCH   6   9
ATOM      9  C   UNL A   1      31.347  22.829  25.807  1.00  0.00     0.176 C 
ATOM     10  C   UNL A   1      33.909  23.264  25.504  1.00  0.00     0.053 C 
ATOM     11  C   UNL A   1      33.716  23.725  24.061  1.00  0.00     0.015 C 
ATOM     12  C   UNL A   1      32.676  23.374  26.394  1.00  0.00     0.093 C 
ATOM     13  C   UNL A   1      32.409  23.199  23.475  1.00  0.00     0.008 C 
ATOM     14  C   UNL A   1      31.217  23.461  24.390  1.00  0.00     0.079 C 
BRANCH  10  15
ATOM     15  S   UNL A   1      35.461  23.888  26.311  1.00  0.00    -0.155 SA
BRANCH  15  16
ATOM     16  C   UNL A   1      36.942  23.627  25.220  1.00  0.00     0.047 C 
ATOM     17  C   UNL A   1      36.267  20.175  25.001  1.00  0.00     0.007 C 
ATOM     18  C   UNL A   1      37.398  21.128  24.603  1.00  0.00    -0.013 C 
ATOM     19  C   UNL A   1      38.609  21.165  25.560  1.00  0.00     0.003 C 
ATOM     20  C   UNL A   1      36.833  22.489  24.192  1.00  0.00     0.017 C 
ATOM     21  C   UNL A   1      38.899  22.444  26.349  1.00  0.00     0.001 C 
ATOM     22  C   UNL A   1      38.360  23.730  25.753  1.00  0.00     0.014 C 
ENDBRANCH  15  16
ENDBRANCH  10  15
BRANCH   9  23
ATOM     23  N   UNL A   1      31.378  21.351  25.755  1.00  0.00    -0.331 N 
ATOM     24  H   UNL A   1      30.661  21.077  25.082  1.00  0.00     0.347 HD
ATOM     25  H   UNL A   1      31.265  21.107  26.739  1.00  0.00     0.347 HD
BRANCH  23  26
ATOM     26  C   UNL A   1      32.587  20.593  25.394  1.00  0.00     0.183 C 
ATOM     27  C   UNL A   1      32.832  19.117  25.551  1.00  0.00     0.071 C 
ATOM     28  C   UNL A   1      32.622  19.687  24.187  1.00  0.00     0.071 C 
ENDBRANCH  23  26
ENDBRANCH   9  23
ENDBRANCH   6   9
ENDBRANCH   4   5
ENDBRANCH   3   4
ENDBRANCH   2   3
ENDBRANCH   1   2
BRANCH   1  29
ATOM     29  C   UNL A   1      33.171  28.848  24.354  1.00  0.00     0.021 C 
BRANCH  29  30
ATOM     30  C   UNL A   1      33.715  29.204  25.731  1.00  0.00     0.116 C 
BRANCH  30  31
ATOM     31  N   UNL A   1      33.263  30.506  26.181  1.00  0.00    -0.352 N 
ATOM     32  C   UNL A   1      33.736  31.277  27.212  1.00  0.00     0.251 C 
ATOM     33  H   UNL A   1      32.510  30.890  25.675  1.00  0.00     0.163 HD
ATOM     34  O   UNL A   1      33.107  32.270  27.565  1.00  0.00    -0.269 OA
BRANCH  32  35
ATOM     35  C   UNL A   1      34.986  30.899  27.910  1.00  0.00     0.039 A 
ATOM     36  C   UNL A   1      36.009  31.844  27.998  1.00  0.00     0.014 A 
ATOM     37  C   UNL A   1      35.160  29.624  28.459  1.00  0.00     0.014 A 
ATOM     38  C   UNL A   1      37.188  31.524  28.670  1.00  0.00     0.010 A 
ATOM     39  C   UNL A   1      36.304  29.335  29.200  1.00  0.00     0.010 A 
ATOM     40  C   UNL A   1      37.337  30.275  29.300  1.00  0.00    -0.014 A 
BRANCH  40  41
ATOM     41  C   UNL A   1      38.566  29.974  30.079  1.00  0.00     0.031 A 
ATOM     42  C   UNL A   1      38.750  30.503  31.475  1.00  0.00     0.074 A 
ATOM     43  C   UNL A   1      39.540  29.238  29.508  1.00  0.00     0.049 A 
ATOM     44  N   UNL A   1      39.710  30.254  32.328  1.00  0.00    -0.248 NA
ATOM     45  C   UNL A   1      37.742  31.454  31.970  1.00  0.00     0.031 C 
ATOM     46  C   UNL A   1      39.526  28.750  28.128  1.00  0.00     0.029 A 
ATOM     47  N   UNL A   1      40.726  28.772  30.015  1.00  0.00    -0.354 N 
ATOM     48  C   UNL A   1      39.436  31.028  33.450  1.00  0.00     0.074 A 
ATOM     49  C   UNL A   1      38.245  31.793  33.149  1.00  0.00     0.031 C 
ATOM     50  C   UNL A   1      40.631  28.021  27.909  1.00  0.00     0.029 A 
ATOM     51  C   UNL A   1      41.440  28.005  29.123  1.00  0.00     0.049 A 
ATOM     52  H   UNL A   1      41.036  28.967  30.928  1.00  0.00     0.167 HD
ATOM     53  C   UNL A   1      40.093  31.076  34.634  1.00  0.00     0.034 A 
ATOM     54  C   UNL A   1      42.605  27.347  29.273  1.00  0.00     0.034 A 
ATOM     55  C   UNL A   1      41.265  30.295  34.935  1.00  0.00     0.049 A 
ATOM     56  C   UNL A   1      43.287  27.368  30.613  1.00  0.00     0.074 A 
ATOM     57  C   UNL A   1      41.956  30.203  36.130  1.00  0.00     0.029 A 
ATOM     58  N   UNL A   1      41.930  29.483  34.028  1.00  0.00    -0.354 N 
ATOM     59  N   UNL A   1      42.916  27.964  31.720  1.00  0.00    -0.248 NA
ATOM     60  C   UNL A   1      44.528  26.590  30.733  1.00  0.00     0.031 C 
ATOM     61  C   UNL A   1      43.057  29.358  35.935  1.00  0.00     0.029 A 
ATOM     62  C   UNL A   1      43.032  28.898  34.629  1.00  0.00     0.049 A 
ATOM     63  H   UNL A   1      41.659  29.345  33.092  1.00  0.00     0.167 HD
ATOM     64  C   UNL A   1      43.860  27.611  32.678  1.00  0.00     0.074 A 
ATOM     65  C   UNL A   1      44.802  26.723  32.024  1.00  0.00     0.031 C 
ATOM     66  C   UNL A   1      43.947  27.996  33.975  1.00  0.00     0.034 A 
BRANCH  53  67
ATOM     67  C   UNL A   1      39.526  31.972  35.706  1.00  0.00     0.023 A 
ATOM     68  C   UNL A   1      38.534  31.474  36.580  1.00  0.00     0.012 A 
ATOM     69  C   UNL A   1      39.983  33.294  35.871  1.00  0.00     0.148 A 
ATOM     70  C   UNL A   1      37.975  32.288  37.564  1.00  0.00     0.002 A 
ATOM     71  C   UNL A   1      39.454  34.085  36.887  1.00  0.00     0.091 A 
ATOM     72  F   UNL A   1      40.907  33.763  35.021  1.00  0.00    -0.205 F 
ATOM     73  C   UNL A   1      38.441  33.588  37.723  1.00  0.00     0.022 A 
BRANCH  71  74
ATOM     74  S   UNL A   1      40.047  35.747  37.223  1.00  0.00     0.127 S 
ATOM     75  O   UNL A   1      39.653  36.453  36.005  1.00  0.00    -0.237 OA
ATOM     76  O   UNL A   1      39.281  36.114  38.415  1.00  0.00    -0.237 OA
ATOM     77  O   UNL A   1      41.482  35.621  37.442  1.00  0.00    -0.744 OA
ENDBRANCH  71  74
ENDBRANCH  53  67
BRANCH  54  78
ATOM     78  C   UNL A   1      43.137  26.528  28.149  1.00  0.00     0.023 A 
ATOM     79  C   UNL A   1      44.074  27.097  27.265  1.00  0.00     0.012 A 
ATOM     80  C   UNL A   1      42.768  25.179  27.985  1.00  0.00     0.148 A 
ATOM     81  C   UNL A   1      44.615  26.345  26.222  1.00  0.00     0.002 A 
ATOM     82  C   UNL A   1      43.352  24.420  26.979  1.00  0.00     0.091 A 
ATOM     83  F   UNL A   1      41.869  24.661  28.835  1.00  0.00    -0.205 F 
ATOM     84  C   UNL A   1      44.264  25.005  26.085  1.00  0.00     0.022 A 
BRANCH  82  85
ATOM     85  S   UNL A   1      43.067  22.655  26.812  1.00  0.00     0.127 S 
ATOM     86  O   UNL A   1      42.792  22.264  28.191  1.00  0.00    -0.237 OA
ATOM     87  O   UNL A   1      41.909  22.622  25.917  1.00  0.00    -0.237 OA
ATOM     88  O   UNL A   1      44.288  22.110  26.234  1.00  0.00    -0.744 OA
ENDBRANCH  82  85
ENDBRANCH  54  78
BRANCH  66  89
ATOM     89  C   UNL A   1      45.099  27.446  34.780  1.00  0.00     0.023 A 
ATOM     90  C   UNL A   1      46.317  28.153  34.837  1.00  0.00     0.012 A 
ATOM     91  C   UNL A   1      44.968  26.244  35.502  1.00  0.00     0.148 A 
ATOM     92  C   UNL A   1      47.400  27.649  35.557  1.00  0.00     0.002 A 
ATOM     93  C   UNL A   1      46.033  25.774  36.261  1.00  0.00     0.091 A 
ATOM     94  F   UNL A   1      43.810  25.571  35.423  1.00  0.00    -0.205 F 
ATOM     95  C   UNL A   1      47.255  26.466  36.276  1.00  0.00     0.022 A 
BRANCH  93  96
ATOM     96  S   UNL A   1      45.902  24.310  37.293  1.00  0.00     0.127 S 
ATOM     97  O   UNL A   1      45.564  23.281  36.312  1.00  0.00    -0.237 OA
ATOM     98  O   UNL A   1      47.249  24.199  37.854  1.00  0.00    -0.237 OA
ATOM     99  O   UNL A   1      44.867  24.609  38.275  1.00  0.00    -0.744 OA
ENDBRANCH  93  96
ENDBRANCH  66  89
ENDBRANCH  40  41
ENDBRANCH  32  35
ENDBRANCH  30  31
ENDBRANCH  29  30
ENDBRANCH   1  29
TORSDOF 20
ENDMDL
