MODEL 1
REMARK VINA RESULT:     -12.6      0.000      0.000
REMARK SMILES Cc1c(C(=O)N[C@H]2C=C[C@@H](C(=O)NCCCCCCNC(=O)c3ccc(-c4c5nc(c(-c6cccc(S(=O)(=O)[O-])c6F)c6ccc([nH]6)c(-c6cccc(S(=O)(=O)[O-])c6F)c6nc(c(-c7cccc(S(=O)(=O)[O-])c7F)c7ccc4[nH]7)C=C6)C=C5)cc3)C2)oc2ccccc12
REMARK SMILES IDX 17 1 16 2 15 3 14 4 13 5 11 6 12 7 10 9 7 10 8 11 86 12 9 13
REMARK SMILES IDX 6 14 4 15 5 16 3 18 1 19 2 20 93 21 87 22 88 23 92 24 89 25
REMARK SMILES IDX 91 26 90 27 18 28 19 29 20 30 21 31 22 33 23 34 24 35 85 36
REMARK SMILES IDX 25 37 84 38 26 39 27 40 28 41 78 42 29 43 83 44 77 45 79 46
REMARK SMILES IDX 30 47 82 48 76 49 75 50 31 52 63 53 43 54 62 55 44 56 47 57
REMARK SMILES IDX 61 58 80 59 45 60 46 61 60 63 81 64 48 65 32 66 33 67 41 68
REMARK SMILES IDX 34 69 36 70 42 71 35 72 37 73 38 74 39 75 40 76 64 77 65 78
REMARK SMILES IDX 73 79 66 80 68 81 74 82 67 83 69 84 70 85 71 86 72 87 49 88
REMARK SMILES IDX 50 89 58 90 51 91 53 92 59 93 52 94 54 95 55 96 56 97 57 98
REMARK H PARENT 13 8 6 17 20 32 79 51 47 62
REMARK Flexibility Score: inf
ROOT
ATOM      1  C   UNL A   1      31.863  30.042  27.237  1.00  0.00     0.002 C 
ENDROOT
BRANCH   1   2
ATOM      2  C   UNL A   1      32.765  29.036  26.514  1.00  0.00     0.002 C 
BRANCH   2   3
ATOM      3  C   UNL A   1      33.443  29.576  25.257  1.00  0.00     0.021 C 
BRANCH   3   4
ATOM      4  C   UNL A   1      32.800  29.099  23.967  1.00  0.00     0.116 C 
BRANCH   4   5
ATOM      5  N   UNL A   1      31.516  29.737  23.760  1.00  0.00    -0.356 N 
ATOM      6  C   UNL A   1      30.305  29.163  23.549  1.00  0.00     0.227 C 
ATOM      7  O   UNL A   1      29.336  29.900  23.348  1.00  0.00    -0.274 OA
ATOM      8  H   UNL A   1      31.524  30.720  23.774  1.00  0.00     0.163 HD
BRANCH   6   9
ATOM      9  C   UNL A   1      30.145  27.650  23.522  1.00  0.00     0.103 C 
ATOM     10  C   UNL A   1      29.958  25.631  24.740  1.00  0.00     0.106 C 
ATOM     11  C   UNL A   1      28.601  26.051  24.308  1.00  0.00    -0.006 C 
ATOM     12  C   UNL A   1      30.717  26.953  24.758  1.00  0.00     0.047 C 
ATOM     13  C   UNL A   1      28.726  27.126  23.511  1.00  0.00    -0.016 C 
BRANCH  10  14
ATOM     14  N   UNL A   1      30.071  24.894  25.937  1.00  0.00    -0.343 N 
ATOM     15  C   UNL A   1      31.163  24.143  26.329  1.00  0.00     0.287 C 
ATOM     16  O   UNL A   1      31.066  23.680  27.471  1.00  0.00    -0.266 OA
ATOM     17  H   UNL A   1      29.301  24.918  26.550  1.00  0.00     0.164 HD
BRANCH  15  18
ATOM     18  C   UNL A   1      32.355  23.878  25.487  1.00  0.00     0.195 A 
ATOM     19  C   UNL A   1      31.978  23.075  22.957  1.00  0.00     0.049 C 
ATOM     20  C   UNL A   1      32.724  23.458  24.190  1.00  0.00     0.008 A 
ATOM     21  C   UNL A   1      34.159  23.415  24.161  1.00  0.00     0.024 A 
ATOM     22  O   UNL A   1      33.532  24.105  26.188  1.00  0.00    -0.451 OA
ATOM     23  C   UNL A   1      34.591  23.823  25.403  1.00  0.00     0.135 A 
ATOM     24  C   UNL A   1      35.121  23.067  23.192  1.00  0.00     0.012 A 
ATOM     25  C   UNL A   1      35.930  23.917  25.770  1.00  0.00     0.048 A 
ATOM     26  C   UNL A   1      36.475  23.151  23.522  1.00  0.00     0.001 A 
ATOM     27  C   UNL A   1      36.872  23.569  24.792  1.00  0.00     0.004 A 
ENDBRANCH  15  18
ENDBRANCH  10  14
ENDBRANCH   6   9
ENDBRANCH   4   5
ENDBRANCH   3   4
ENDBRANCH   2   3
ENDBRANCH   1   2
BRANCH   1  28
ATOM     28  C   UNL A   1      31.965  31.484  26.734  1.00  0.00     0.021 C 
BRANCH  28  29
ATOM     29  C   UNL A   1      33.108  32.280  27.344  1.00  0.00     0.116 C 
BRANCH  29  30
ATOM     30  N   UNL A   1      32.726  33.658  27.603  1.00  0.00    -0.352 N 
ATOM     31  C   UNL A   1      33.195  34.494  28.587  1.00  0.00     0.251 C 
ATOM     32  H   UNL A   1      32.048  34.039  26.999  1.00  0.00     0.163 HD
ATOM     33  O   UNL A   1      32.654  35.562  28.816  1.00  0.00    -0.269 OA
BRANCH  31  34
ATOM     34  C   UNL A   1      34.364  34.051  29.372  1.00  0.00     0.039 A 
ATOM     35  C   UNL A   1      34.166  33.232  30.485  1.00  0.00     0.014 A 
ATOM     36  C   UNL A   1      35.652  34.397  28.955  1.00  0.00     0.014 A 
ATOM     37  C   UNL A   1      35.273  32.716  31.159  1.00  0.00     0.010 A 
ATOM     38  C   UNL A   1      36.749  33.822  29.581  1.00  0.00     0.010 A 
ATOM     39  C   UNL A   1      36.571  32.986  30.694  1.00  0.00    -0.014 A 
BRANCH  39  40
ATOM     40  C   UNL A   1      37.771  32.414  31.350  1.00  0.00     0.031 A 
ATOM     41  C   UNL A   1      38.492  31.265  30.705  1.00  0.00     0.074 A 
ATOM     42  C   UNL A   1      38.128  32.838  32.577  1.00  0.00     0.049 A 
ATOM     43  N   UNL A   1      39.465  30.531  31.176  1.00  0.00    -0.248 NA
ATOM     44  C   UNL A   1      38.027  30.862  29.367  1.00  0.00     0.031 C 
ATOM     45  C   UNL A   1      37.452  33.890  33.339  1.00  0.00     0.029 A 
ATOM     46  N   UNL A   1      39.119  32.401  33.420  1.00  0.00    -0.354 N 
ATOM     47  C   UNL A   1      39.696  29.551  30.217  1.00  0.00     0.074 A 
ATOM     48  C   UNL A   1      38.737  29.764  29.156  1.00  0.00     0.031 C 
ATOM     49  C   UNL A   1      38.036  34.004  34.542  1.00  0.00     0.029 A 
ATOM     50  C   UNL A   1      39.103  33.013  34.650  1.00  0.00     0.049 A 
ATOM     51  H   UNL A   1      39.779  31.715  33.167  1.00  0.00     0.167 HD
ATOM     52  C   UNL A   1      40.639  28.580  30.208  1.00  0.00     0.034 A 
ATOM     53  C   UNL A   1      39.848  32.787  35.750  1.00  0.00     0.034 A 
ATOM     54  C   UNL A   1      41.614  28.403  31.248  1.00  0.00     0.049 A 
ATOM     55  C   UNL A   1      40.926  31.741  35.700  1.00  0.00     0.074 A 
ATOM     56  C   UNL A   1      42.672  27.514  31.294  1.00  0.00     0.029 A 
ATOM     57  N   UNL A   1      41.645  29.123  32.433  1.00  0.00    -0.354 N 
ATOM     58  N   UNL A   1      41.237  30.926  34.720  1.00  0.00    -0.248 NA
ATOM     59  C   UNL A   1      41.782  31.607  36.887  1.00  0.00     0.031 C 
ATOM     60  C   UNL A   1      43.331  27.683  32.517  1.00  0.00     0.029 A 
ATOM     61  C   UNL A   1      42.700  28.697  33.221  1.00  0.00     0.049 A 
ATOM     62  H   UNL A   1      41.009  29.835  32.678  1.00  0.00     0.167 HD
ATOM     63  C   UNL A   1      42.343  30.207  35.157  1.00  0.00     0.074 A 
ATOM     64  C   UNL A   1      42.658  30.694  36.486  1.00  0.00     0.031 C 
ATOM     65  C   UNL A   1      43.030  29.226  34.520  1.00  0.00     0.034 A 
BRANCH  52  66
ATOM     66  C   UNL A   1      40.680  27.668  29.009  1.00  0.00     0.023 A 
ATOM     67  C   UNL A   1      39.751  26.611  28.905  1.00  0.00     0.012 A 
ATOM     68  C   UNL A   1      41.622  27.859  27.981  1.00  0.00     0.148 A 
ATOM     69  C   UNL A   1      39.793  25.729  27.826  1.00  0.00     0.002 A 
ATOM     70  C   UNL A   1      41.626  27.006  26.883  1.00  0.00     0.091 A 
ATOM     71  F   UNL A   1      42.516  28.852  28.105  1.00  0.00    -0.205 F 
ATOM     72  C   UNL A   1      40.724  25.932  26.811  1.00  0.00     0.022 A 
BRANCH  70  73
ATOM     73  S   UNL A   1      42.733  27.240  25.488  1.00  0.00     0.127 S 
ATOM     74  O   UNL A   1      44.024  27.394  26.158  1.00  0.00    -0.237 OA
ATOM     75  O   UNL A   1      42.575  25.984  24.753  1.00  0.00    -0.237 OA
ATOM     76  O   UNL A   1      42.241  28.416  24.785  1.00  0.00    -0.744 OA
ENDBRANCH  70  73
ENDBRANCH  52  66
BRANCH  53  77
ATOM     77  C   UNL A   1      39.624  33.619  36.966  1.00  0.00     0.023 A 
ATOM     78  C   UNL A   1      40.044  34.963  36.971  1.00  0.00     0.012 A 
ATOM     79  C   UNL A   1      38.931  33.109  38.081  1.00  0.00     0.148 A 
ATOM     80  C   UNL A   1      39.795  35.780  38.075  1.00  0.00     0.002 A 
ATOM     81  C   UNL A   1      38.638  33.943  39.153  1.00  0.00     0.091 A 
ATOM     82  F   UNL A   1      38.544  31.826  38.056  1.00  0.00    -0.205 F 
ATOM     83  C   UNL A   1      39.082  35.274  39.159  1.00  0.00     0.022 A 
BRANCH  81  84
ATOM     84  S   UNL A   1      37.603  33.424  40.527  1.00  0.00     0.127 S 
ATOM     85  O   UNL A   1      36.369  33.039  39.845  1.00  0.00    -0.237 OA
ATOM     86  O   UNL A   1      38.375  32.310  41.081  1.00  0.00    -0.237 OA
ATOM     87  O   UNL A   1      37.501  34.579  41.407  1.00  0.00    -0.744 OA
ENDBRANCH  81  84
ENDBRANCH  53  77
BRANCH  65  88
ATOM     88  C   UNL A   1      44.221  28.631  35.226  1.00  0.00     0.023 A 
ATOM     89  C   UNL A   1      45.510  29.147  34.988  1.00  0.00     0.012 A 
ATOM     90  C   UNL A   1      44.047  27.620  36.193  1.00  0.00     0.148 A 
ATOM     91  C   UNL A   1      46.611  28.650  35.684  1.00  0.00     0.002 A 
ATOM     92  C   UNL A   1      45.141  27.165  36.917  1.00  0.00     0.091 A 
ATOM     93  F   UNL A   1      42.815  27.130  36.389  1.00  0.00    -0.205 F 
ATOM     94  C   UNL A   1      46.424  27.670  36.658  1.00  0.00     0.022 A 
BRANCH  92  95
ATOM     95  S   UNL A   1      44.981  25.978  38.256  1.00  0.00     0.127 S 
ATOM     96  O   UNL A   1      46.377  25.764  38.633  1.00  0.00    -0.237 OA
ATOM     97  O   UNL A   1      44.190  26.720  39.238  1.00  0.00    -0.237 OA
ATOM     98  O   UNL A   1      44.304  24.819  37.687  1.00  0.00    -0.744 OA
ENDBRANCH  92  95
ENDBRANCH  65  88
ENDBRANCH  39  40
ENDBRANCH  31  34
ENDBRANCH  29  30
ENDBRANCH  28  29
ENDBRANCH   1  28
TORSDOF 18
ENDMDL
MODEL 2
REMARK VINA RESULT:     -12.3      3.983      8.678
REMARK SMILES Cc1c(C(=O)N[C@H]2C=C[C@@H](C(=O)NCCCCCCNC(=O)c3ccc(-c4c5nc(c(-c6cccc(S(=O)(=O)[O-])c6F)c6ccc([nH]6)c(-c6cccc(S(=O)(=O)[O-])c6F)c6nc(c(-c7cccc(S(=O)(=O)[O-])c7F)c7ccc4[nH]7)C=C6)C=C5)cc3)C2)oc2ccccc12
REMARK SMILES IDX 17 1 16 2 15 3 14 4 13 5 11 6 12 7 10 9 7 10 8 11 86 12 9 13
REMARK SMILES IDX 6 14 4 15 5 16 3 18 1 19 2 20 93 21 87 22 88 23 92 24 89 25
REMARK SMILES IDX 91 26 90 27 18 28 19 29 20 30 21 31 22 33 23 34 24 35 85 36
REMARK SMILES IDX 25 37 84 38 26 39 27 40 28 41 78 42 29 43 83 44 77 45 79 46
REMARK SMILES IDX 30 47 82 48 76 49 75 50 31 52 63 53 43 54 62 55 44 56 47 57
REMARK SMILES IDX 61 58 80 59 45 60 46 61 60 63 81 64 48 65 32 66 33 67 41 68
REMARK SMILES IDX 34 69 36 70 42 71 35 72 37 73 38 74 39 75 40 76 64 77 65 78
REMARK SMILES IDX 73 79 66 80 68 81 74 82 67 83 69 84 70 85 71 86 72 87 49 88
REMARK SMILES IDX 50 89 58 90 51 91 53 92 59 93 52 94 54 95 55 96 56 97 57 98
REMARK H PARENT 13 8 6 17 20 32 79 51 47 62
REMARK Flexibility Score: inf
ROOT
ATOM      1  C   UNL A   1      31.855  28.122  25.331  1.00  0.00     0.002 C 
ENDROOT
BRANCH   1   2
ATOM      2  C   UNL A   1      30.690  27.135  25.200  1.00  0.00     0.002 C 
BRANCH   2   3
ATOM      3  C   UNL A   1      30.144  26.979  23.783  1.00  0.00     0.021 C 
BRANCH   3   4
ATOM      4  C   UNL A   1      30.615  25.714  23.086  1.00  0.00     0.116 C 
BRANCH   4   5
ATOM      5  N   UNL A   1      31.791  25.973  22.281  1.00  0.00    -0.356 N 
ATOM      6  C   UNL A   1      33.068  25.563  22.484  1.00  0.00     0.227 C 
ATOM      7  O   UNL A   1      33.936  25.939  21.691  1.00  0.00    -0.274 OA
ATOM      8  H   UNL A   1      31.643  26.520  21.477  1.00  0.00     0.163 HD
BRANCH   6   9
ATOM      9  C   UNL A   1      33.435  24.694  23.679  1.00  0.00     0.103 C 
ATOM     10  C   UNL A   1      35.062  23.367  24.767  1.00  0.00     0.106 C 
ATOM     11  C   UNL A   1      35.037  24.706  25.409  1.00  0.00    -0.006 C 
ATOM     12  C   UNL A   1      34.524  23.665  23.372  1.00  0.00     0.047 C 
ATOM     13  C   UNL A   1      34.027  25.412  24.872  1.00  0.00    -0.016 C 
BRANCH  10  14
ATOM     14  N   UNL A   1      36.281  22.658  24.768  1.00  0.00    -0.343 N 
ATOM     15  C   UNL A   1      36.421  21.283  24.762  1.00  0.00     0.287 C 
ATOM     16  O   UNL A   1      37.591  20.901  24.651  1.00  0.00    -0.266 OA
ATOM     17  H   UNL A   1      37.108  23.192  24.772  1.00  0.00     0.164 HD
BRANCH  15  18
ATOM     18  C   UNL A   1      35.303  20.317  24.890  1.00  0.00     0.195 A 
ATOM     19  C   UNL A   1      32.934  21.214  25.768  1.00  0.00     0.049 C 
ATOM     20  C   UNL A   1      33.947  20.236  25.280  1.00  0.00     0.008 A 
ATOM     21  C   UNL A   1      33.559  18.860  25.146  1.00  0.00     0.024 A 
ATOM     22  O   UNL A   1      35.690  19.038  24.511  1.00  0.00    -0.451 OA
ATOM     23  C   UNL A   1      34.660  18.183  24.671  1.00  0.00     0.135 A 
ATOM     24  C   UNL A   1      32.374  18.136  25.386  1.00  0.00     0.012 A 
ATOM     25  C   UNL A   1      34.682  16.818  24.408  1.00  0.00     0.048 A 
ATOM     26  C   UNL A   1      32.355  16.764  25.132  1.00  0.00     0.001 A 
ATOM     27  C   UNL A   1      33.494  16.116  24.650  1.00  0.00     0.004 A 
ENDBRANCH  15  18
ENDBRANCH  10  14
ENDBRANCH   6   9
ENDBRANCH   4   5
ENDBRANCH   3   4
ENDBRANCH   2   3
ENDBRANCH   1   2
BRANCH   1  28
ATOM     28  C   UNL A   1      31.989  28.789  26.702  1.00  0.00     0.021 C 
BRANCH  28  29
ATOM     29  C   UNL A   1      33.419  29.124  27.097  1.00  0.00     0.116 C 
BRANCH  29  30
ATOM     30  N   UNL A   1      33.651  30.558  27.116  1.00  0.00    -0.352 N 
ATOM     31  C   UNL A   1      34.705  31.236  27.677  1.00  0.00     0.251 C 
ATOM     32  H   UNL A   1      32.968  31.112  26.673  1.00  0.00     0.163 HD
ATOM     33  O   UNL A   1      34.684  32.450  27.792  1.00  0.00    -0.269 OA
BRANCH  31  34
ATOM     34  C   UNL A   1      35.859  30.448  28.153  1.00  0.00     0.039 A 
ATOM     35  C   UNL A   1      37.017  30.398  27.375  1.00  0.00     0.014 A 
ATOM     36  C   UNL A   1      35.805  29.822  29.401  1.00  0.00     0.014 A 
ATOM     37  C   UNL A   1      38.148  29.753  27.875  1.00  0.00     0.010 A 
ATOM     38  C   UNL A   1      36.954  29.247  29.926  1.00  0.00     0.010 A 
ATOM     39  C   UNL A   1      38.132  29.198  29.165  1.00  0.00    -0.014 A 
BRANCH  39  40
ATOM     40  C   UNL A   1      39.330  28.550  29.753  1.00  0.00     0.031 A 
ATOM     41  C   UNL A   1      39.977  29.154  30.966  1.00  0.00     0.074 A 
ATOM     42  C   UNL A   1      39.904  27.508  29.122  1.00  0.00     0.049 A 
ATOM     43  N   UNL A   1      41.104  28.833  31.547  1.00  0.00    -0.248 NA
ATOM     44  C   UNL A   1      39.285  30.296  31.585  1.00  0.00     0.031 C 
ATOM     45  C   UNL A   1      39.413  26.891  27.889  1.00  0.00     0.029 A 
ATOM     46  N   UNL A   1      41.055  26.817  29.406  1.00  0.00    -0.354 N 
ATOM     47  C   UNL A   1      41.280  29.762  32.565  1.00  0.00     0.074 A 
ATOM     48  C   UNL A   1      40.163  30.679  32.500  1.00  0.00     0.031 C 
ATOM     49  C   UNL A   1      40.265  25.925  27.513  1.00  0.00     0.029 A 
ATOM     50  C   UNL A   1      41.378  25.878  28.456  1.00  0.00     0.049 A 
ATOM     51  H   UNL A   1      41.596  26.978  30.212  1.00  0.00     0.167 HD
ATOM     52  C   UNL A   1      42.267  29.831  33.490  1.00  0.00     0.034 A 
ATOM     53  C   UNL A   1      42.461  25.083  28.344  1.00  0.00     0.034 A 
ATOM     54  C   UNL A   1      43.350  28.890  33.572  1.00  0.00     0.049 A 
ATOM     55  C   UNL A   1      43.519  25.136  29.411  1.00  0.00     0.074 A 
ATOM     56  C   UNL A   1      44.349  28.809  34.525  1.00  0.00     0.029 A 
ATOM     57  N   UNL A   1      43.583  27.871  32.660  1.00  0.00    -0.354 N 
ATOM     58  N   UNL A   1      43.589  25.917  30.462  1.00  0.00    -0.248 NA
ATOM     59  C   UNL A   1      44.625  24.175  29.302  1.00  0.00     0.031 C 
ATOM     60  C   UNL A   1      45.198  27.752  34.178  1.00  0.00     0.029 A 
ATOM     61  C   UNL A   1      44.712  27.158  33.023  1.00  0.00     0.049 A 
ATOM     62  H   UNL A   1      43.025  27.682  31.871  1.00  0.00     0.167 HD
ATOM     63  C   UNL A   1      44.726  25.522  31.158  1.00  0.00     0.074 A 
ATOM     64  C   UNL A   1      45.305  24.419  30.415  1.00  0.00     0.031 C 
ATOM     65  C   UNL A   1      45.248  26.031  32.302  1.00  0.00     0.034 A 
BRANCH  52  66
ATOM     66  C   UNL A   1      42.185  30.938  34.508  1.00  0.00     0.023 A 
ATOM     67  C   UNL A   1      41.512  30.715  35.727  1.00  0.00     0.012 A 
ATOM     68  C   UNL A   1      42.782  32.191  34.270  1.00  0.00     0.148 A 
ATOM     69  C   UNL A   1      41.388  31.736  36.669  1.00  0.00     0.002 A 
ATOM     70  C   UNL A   1      42.697  33.188  35.235  1.00  0.00     0.091 A 
ATOM     71  F   UNL A   1      43.396  32.397  33.095  1.00  0.00    -0.205 F 
ATOM     72  C   UNL A   1      41.988  32.968  36.427  1.00  0.00     0.022 A 
BRANCH  70  73
ATOM     73  S   UNL A   1      43.510  34.779  35.047  1.00  0.00     0.127 S 
ATOM     74  O   UNL A   1      42.681  35.415  34.024  1.00  0.00    -0.237 OA
ATOM     75  O   UNL A   1      43.375  35.356  36.386  1.00  0.00    -0.237 OA
ATOM     76  O   UNL A   1      44.880  34.480  34.656  1.00  0.00    -0.744 OA
ENDBRANCH  70  73
ENDBRANCH  52  66
BRANCH  53  77
ATOM     77  C   UNL A   1      42.553  24.132  27.201  1.00  0.00     0.023 A 
ATOM     78  C   UNL A   1      43.272  24.504  26.049  1.00  0.00     0.012 A 
ATOM     79  C   UNL A   1      42.001  22.839  27.282  1.00  0.00     0.148 A 
ATOM     80  C   UNL A   1      43.423  23.611  24.987  1.00  0.00     0.002 A 
ATOM     81  C   UNL A   1      42.202  21.935  26.245  1.00  0.00     0.091 A 
ATOM     82  F   UNL A   1      41.317  22.508  28.386  1.00  0.00    -0.205 F 
ATOM     83  C   UNL A   1      42.899  22.324  25.091  1.00  0.00     0.022 A 
BRANCH  81  84
ATOM     84  S   UNL A   1      41.691  20.216  26.348  1.00  0.00     0.127 S 
ATOM     85  O   UNL A   1      42.381  19.629  25.202  1.00  0.00    -0.237 OA
ATOM     86  O   UNL A   1      42.222  19.823  27.655  1.00  0.00    -0.237 OA
ATOM     87  O   UNL A   1      40.238  20.228  26.270  1.00  0.00    -0.744 OA
ENDBRANCH  81  84
ENDBRANCH  53  77
BRANCH  65  88
ATOM     88  C   UNL A   1      46.490  25.383  32.856  1.00  0.00     0.023 A 
ATOM     89  C   UNL A   1      47.759  25.885  32.508  1.00  0.00     0.012 A 
ATOM     90  C   UNL A   1      46.391  24.336  33.793  1.00  0.00     0.148 A 
ATOM     91  C   UNL A   1      48.914  25.337  33.067  1.00  0.00     0.002 A 
ATOM     92  C   UNL A   1      47.543  23.828  34.383  1.00  0.00     0.091 A 
ATOM     93  F   UNL A   1      45.175  23.860  34.095  1.00  0.00    -0.205 F 
ATOM     94  C   UNL A   1      48.805  24.320  34.013  1.00  0.00     0.022 A 
BRANCH  92  95
ATOM     95  S   UNL A   1      47.492  22.588  35.681  1.00  0.00     0.127 S 
ATOM     96  O   UNL A   1      46.661  23.245  36.689  1.00  0.00    -0.237 OA
ATOM     97  O   UNL A   1      46.853  21.457  35.006  1.00  0.00    -0.237 OA
ATOM     98  O   UNL A   1      48.878  22.355  36.069  1.00  0.00    -0.744 OA
ENDBRANCH  92  95
ENDBRANCH  65  88
ENDBRANCH  39  40
ENDBRANCH  31  34
ENDBRANCH  29  30
ENDBRANCH  28  29
ENDBRANCH   1  28
TORSDOF 18
ENDMDL
MODEL 3
REMARK VINA RESULT:     -12.1      1.674      2.117
REMARK SMILES Cc1c(C(=O)N[C@H]2C=C[C@@H](C(=O)NCCCCCCNC(=O)c3ccc(-c4c5nc(c(-c6cccc(S(=O)(=O)[O-])c6F)c6ccc([nH]6)c(-c6cccc(S(=O)(=O)[O-])c6F)c6nc(c(-c7cccc(S(=O)(=O)[O-])c7F)c7ccc4[nH]7)C=C6)C=C5)cc3)C2)oc2ccccc12
REMARK SMILES IDX 17 1 16 2 15 3 14 4 13 5 11 6 12 7 10 9 7 10 8 11 86 12 9 13
REMARK SMILES IDX 6 14 4 15 5 16 3 18 1 19 2 20 93 21 87 22 88 23 92 24 89 25
REMARK SMILES IDX 91 26 90 27 18 28 19 29 20 30 21 31 22 33 23 34 24 35 85 36
REMARK SMILES IDX 25 37 84 38 26 39 27 40 28 41 78 42 29 43 83 44 77 45 79 46
REMARK SMILES IDX 30 47 82 48 76 49 75 50 31 52 63 53 43 54 62 55 44 56 47 57
REMARK SMILES IDX 61 58 80 59 45 60 46 61 60 63 81 64 48 65 32 66 33 67 41 68
REMARK SMILES IDX 34 69 36 70 42 71 35 72 37 73 38 74 39 75 40 76 64 77 65 78
REMARK SMILES IDX 73 79 66 80 68 81 74 82 67 83 69 84 70 85 71 86 72 87 49 88
REMARK SMILES IDX 50 89 58 90 51 91 53 92 59 93 52 94 54 95 55 96 56 97 57 98
REMARK H PARENT 13 8 6 17 20 32 79 51 47 62
REMARK Flexibility Score: inf
ROOT
ATOM      1  C   UNL A   1      32.070  30.407  26.848  1.00  0.00     0.002 C 
ENDROOT
BRANCH   1   2
ATOM      2  C   UNL A   1      31.961  29.872  25.416  1.00  0.00     0.002 C 
BRANCH   2   3
ATOM      3  C   UNL A   1      33.209  29.156  24.907  1.00  0.00     0.021 C 
BRANCH   3   4
ATOM      4  C   UNL A   1      33.308  29.111  23.392  1.00  0.00     0.116 C 
BRANCH   4   5
ATOM      5  N   UNL A   1      31.994  29.079  22.786  1.00  0.00    -0.356 N 
ATOM      6  C   UNL A   1      31.141  28.032  22.657  1.00  0.00     0.227 C 
ATOM      7  O   UNL A   1      30.077  28.215  22.059  1.00  0.00    -0.274 OA
ATOM      8  H   UNL A   1      31.675  29.934  22.418  1.00  0.00     0.163 HD
BRANCH   6   9
ATOM      9  C   UNL A   1      31.498  26.655  23.198  1.00  0.00     0.103 C 
ATOM     10  C   UNL A   1      30.974  24.884  24.676  1.00  0.00     0.106 C 
ATOM     11  C   UNL A   1      30.500  24.522  23.316  1.00  0.00    -0.006 C 
ATOM     12  C   UNL A   1      30.990  26.408  24.619  1.00  0.00     0.047 C 
ATOM     13  C   UNL A   1      30.912  25.472  22.459  1.00  0.00    -0.016 C 
BRANCH  10  14
ATOM     14  N   UNL A   1      30.269  24.363  25.780  1.00  0.00    -0.343 N 
ATOM     15  C   UNL A   1      30.632  23.258  26.528  1.00  0.00     0.287 C 
ATOM     16  O   UNL A   1      29.913  23.065  27.514  1.00  0.00    -0.266 OA
ATOM     17  H   UNL A   1      29.444  24.829  26.043  1.00  0.00     0.164 HD
BRANCH  15  18
ATOM     18  C   UNL A   1      31.762  22.352  26.207  1.00  0.00     0.195 A 
ATOM     19  C   UNL A   1      34.174  22.901  27.241  1.00  0.00     0.049 C 
ATOM     20  C   UNL A   1      33.143  22.174  26.446  1.00  0.00     0.008 A 
ATOM     21  C   UNL A   1      33.545  21.011  25.707  1.00  0.00     0.024 A 
ATOM     22  O   UNL A   1      31.359  21.312  25.380  1.00  0.00    -0.451 OA
ATOM     23  C   UNL A   1      32.416  20.529  25.083  1.00  0.00     0.135 A 
ATOM     24  C   UNL A   1      34.764  20.330  25.517  1.00  0.00     0.012 A 
ATOM     25  C   UNL A   1      32.397  19.402  24.269  1.00  0.00     0.048 A 
ATOM     26  C   UNL A   1      34.785  19.193  24.707  1.00  0.00     0.001 A 
ATOM     27  C   UNL A   1      33.618  18.737  24.093  1.00  0.00     0.004 A 
ENDBRANCH  15  18
ENDBRANCH  10  14
ENDBRANCH   6   9
ENDBRANCH   4   5
ENDBRANCH   3   4
ENDBRANCH   2   3
ENDBRANCH   1   2
BRANCH   1  28
ATOM     28  C   UNL A   1      31.645  31.866  27.030  1.00  0.00     0.021 C 
BRANCH  28  29
ATOM     29  C   UNL A   1      32.787  32.866  26.930  1.00  0.00     0.116 C 
BRANCH  29  30
ATOM     30  N   UNL A   1      32.486  34.099  27.636  1.00  0.00    -0.352 N 
ATOM     31  C   UNL A   1      33.093  34.598  28.762  1.00  0.00     0.251 C 
ATOM     32  H   UNL A   1      31.756  34.645  27.262  1.00  0.00     0.163 HD
ATOM     33  O   UNL A   1      32.620  35.546  29.366  1.00  0.00    -0.269 OA
BRANCH  31  34
ATOM     34  C   UNL A   1      34.329  33.940  29.230  1.00  0.00     0.039 A 
ATOM     35  C   UNL A   1      35.562  34.535  28.958  1.00  0.00     0.014 A 
ATOM     36  C   UNL A   1      34.248  32.773  29.995  1.00  0.00     0.014 A 
ATOM     37  C   UNL A   1      36.722  33.980  29.498  1.00  0.00     0.010 A 
ATOM     38  C   UNL A   1      35.395  32.268  30.591  1.00  0.00     0.010 A 
ATOM     39  C   UNL A   1      36.643  32.859  30.340  1.00  0.00    -0.014 A 
BRANCH  39  40
ATOM     40  C   UNL A   1      37.846  32.271  30.976  1.00  0.00     0.031 A 
ATOM     41  C   UNL A   1      38.627  31.214  30.248  1.00  0.00     0.074 A 
ATOM     42  C   UNL A   1      38.154  32.590  32.247  1.00  0.00     0.049 A 
ATOM     43  N   UNL A   1      39.615  30.475  30.679  1.00  0.00    -0.248 NA
ATOM     44  C   UNL A   1      38.215  30.922  28.865  1.00  0.00     0.031 C 
ATOM     45  C   UNL A   1      37.418  33.541  33.083  1.00  0.00     0.029 A 
ATOM     46  N   UNL A   1      39.139  32.111  33.075  1.00  0.00    -0.354 N 
ATOM     47  C   UNL A   1      39.909  29.598  29.640  1.00  0.00     0.074 A 
ATOM     48  C   UNL A   1      38.971  29.876  28.574  1.00  0.00     0.031 C 
ATOM     49  C   UNL A   1      37.965  33.562  34.308  1.00  0.00     0.029 A 
ATOM     50  C   UNL A   1      39.066  32.604  34.356  1.00  0.00     0.049 A 
ATOM     51  H   UNL A   1      39.831  31.477  32.779  1.00  0.00     0.167 HD
ATOM     52  C   UNL A   1      40.888  28.666  29.568  1.00  0.00     0.034 A 
ATOM     53  C   UNL A   1      39.789  32.303  35.452  1.00  0.00     0.034 A 
ATOM     54  C   UNL A   1      41.842  28.427  30.617  1.00  0.00     0.049 A 
ATOM     55  C   UNL A   1      40.908  31.305  35.337  1.00  0.00     0.074 A 
ATOM     56  C   UNL A   1      42.932  27.576  30.611  1.00  0.00     0.029 A 
ATOM     57  N   UNL A   1      41.813  29.033  31.864  1.00  0.00    -0.354 N 
ATOM     58  N   UNL A   1      41.276  30.598  34.296  1.00  0.00    -0.248 NA
ATOM     59  C   UNL A   1      41.736  31.090  36.532  1.00  0.00     0.031 C 
ATOM     60  C   UNL A   1      43.551  27.653  31.864  1.00  0.00     0.029 A 
ATOM     61  C   UNL A   1      42.863  28.573  32.640  1.00  0.00     0.049 A 
ATOM     62  H   UNL A   1      41.145  29.696  32.155  1.00  0.00     0.167 HD
ATOM     63  C   UNL A   1      42.397  29.881  34.697  1.00  0.00     0.074 A 
ATOM     64  C   UNL A   1      42.657  30.251  36.075  1.00  0.00     0.031 C 
ATOM     65  C   UNL A   1      43.138  28.989  33.992  1.00  0.00     0.034 A 
BRANCH  52  66
ATOM     66  C   UNL A   1      40.996  27.873  28.292  1.00  0.00     0.023 A 
ATOM     67  C   UNL A   1      41.650  28.435  27.175  1.00  0.00     0.012 A 
ATOM     68  C   UNL A   1      40.466  26.572  28.197  1.00  0.00     0.148 A 
ATOM     69  C   UNL A   1      41.728  27.737  25.970  1.00  0.00     0.002 A 
ATOM     70  C   UNL A   1      40.593  25.863  27.008  1.00  0.00     0.091 A 
ATOM     71  F   UNL A   1      39.825  26.060  29.258  1.00  0.00    -0.205 F 
ATOM     72  C   UNL A   1      41.208  26.449  25.889  1.00  0.00     0.022 A 
BRANCH  70  73
ATOM     73  S   UNL A   1      40.027  24.166  26.836  1.00  0.00     0.127 S 
ATOM     74  O   UNL A   1      38.617  24.358  26.498  1.00  0.00    -0.237 OA
ATOM     75  O   UNL A   1      40.855  23.674  25.734  1.00  0.00    -0.237 OA
ATOM     76  O   UNL A   1      40.290  23.530  28.118  1.00  0.00    -0.744 OA
ENDBRANCH  70  73
ENDBRANCH  52  66
BRANCH  53  77
ATOM     77  C   UNL A   1      39.501  33.008  36.732  1.00  0.00     0.023 A 
ATOM     78  C   UNL A   1      40.057  34.281  36.961  1.00  0.00     0.012 A 
ATOM     79  C   UNL A   1      38.622  32.459  37.686  1.00  0.00     0.148 A 
ATOM     80  C   UNL A   1      39.758  34.988  38.126  1.00  0.00     0.002 A 
ATOM     81  C   UNL A   1      38.284  33.191  38.817  1.00  0.00     0.091 A 
ATOM     82  F   UNL A   1      38.107  31.244  37.449  1.00  0.00    -0.205 F 
ATOM     83  C   UNL A   1      38.862  34.449  39.047  1.00  0.00     0.022 A 
BRANCH  81  84
ATOM     84  S   UNL A   1      37.032  32.645  39.985  1.00  0.00     0.127 S 
ATOM     85  O   UNL A   1      35.851  32.541  39.132  1.00  0.00    -0.237 OA
ATOM     86  O   UNL A   1      37.582  31.365  40.436  1.00  0.00    -0.237 OA
ATOM     87  O   UNL A   1      36.976  33.670  41.017  1.00  0.00    -0.744 OA
ENDBRANCH  81  84
ENDBRANCH  53  77
BRANCH  65  88
ATOM     88  C   UNL A   1      44.331  28.373  34.675  1.00  0.00     0.023 A 
ATOM     89  C   UNL A   1      45.590  28.999  34.591  1.00  0.00     0.012 A 
ATOM     90  C   UNL A   1      44.181  27.223  35.475  1.00  0.00     0.148 A 
ATOM     91  C   UNL A   1      46.688  28.475  35.273  1.00  0.00     0.002 A 
ATOM     92  C   UNL A   1      45.267  26.736  36.191  1.00  0.00     0.091 A 
ATOM     93  F   UNL A   1      42.979  26.632  35.526  1.00  0.00    -0.205 F 
ATOM     94  C   UNL A   1      46.523  27.354  36.083  1.00  0.00     0.022 A 
BRANCH  92  95
ATOM     95  S   UNL A   1      45.126  25.357  37.334  1.00  0.00     0.127 S 
ATOM     96  O   UNL A   1      46.094  24.411  36.781  1.00  0.00    -0.237 OA
ATOM     97  O   UNL A   1      45.523  25.964  38.605  1.00  0.00    -0.237 OA
ATOM     98  O   UNL A   1      43.733  24.929  37.278  1.00  0.00    -0.744 OA
ENDBRANCH  92  95
ENDBRANCH  65  88
ENDBRANCH  39  40
ENDBRANCH  31  34
ENDBRANCH  29  30
ENDBRANCH  28  29
ENDBRANCH   1  28
TORSDOF 18
ENDMDL
