MODEL 1
REMARK VINA RESULT:     -11.9      0.000      0.000
REMARK SMILES O=C(NCCCCCCNC(=O)[C@H]1Cc2[nH]cnc2CN1C(=O)c1ccncc1Cl)c1ccc(-c2c3nc(c(-c4cccc(S(=O)(=O)[O-])c4F)c4ccc([nH]4)c(-c4cccc(S(=O)(=O)[O-])c4F)c4nc(c(-c5cccc(S(=O)(=O)[O-])c5F)c5ccc2[nH]5)C=C4)C=C3)cc1
REMARK SMILES IDX 6 1 5 2 4 3 3 4 1 5 2 6 31 8 32 9 93 10 33 11 92 12 34 13
REMARK SMILES IDX 35 14 36 15 86 16 37 17 91 18 85 19 87 20 38 21 90 22 84 23
REMARK SMILES IDX 83 24 39 26 71 27 51 28 70 29 52 30 55 31 69 32 88 33 53 34
REMARK SMILES IDX 54 35 68 37 89 38 56 39 40 40 41 41 49 42 42 43 44 44 50 45
REMARK SMILES IDX 43 46 45 47 46 48 47 49 48 50 72 51 73 52 81 53 74 54 76 55
REMARK SMILES IDX 82 56 75 57 77 58 78 59 79 60 80 61 57 62 58 63 66 64 59 65
REMARK SMILES IDX 61 66 67 67 60 68 62 69 63 70 64 71 65 72 7 73 8 74 9 75
REMARK SMILES IDX 10 76 11 77 12 79 13 80 14 81 21 82 15 83 20 84 16 85 19 86
REMARK SMILES IDX 17 87 18 89 22 90 23 91 24 92 25 93 29 94 26 95 28 96 30 97
REMARK SMILES IDX 27 98
REMARK H PARENT 3 7 87 25 55 36 10 78 16 88
REMARK Flexibility Score: inf
ROOT
ATOM      1  C   UNL A   1      32.240  29.537  26.938  1.00  0.00     0.002 C 
ENDROOT
BRANCH   1   2
ATOM      2  C   UNL A   1      33.704  29.802  27.314  1.00  0.00     0.021 C 
BRANCH   2   3
ATOM      3  C   UNL A   1      34.058  31.286  27.380  1.00  0.00     0.116 C 
BRANCH   3   4
ATOM      4  N   UNL A   1      34.074  31.807  28.727  1.00  0.00    -0.352 N 
ATOM      5  O   UNL A   1      34.633  32.336  30.795  1.00  0.00    -0.269 OA
ATOM      6  C   UNL A   1      34.994  31.812  29.738  1.00  0.00     0.251 C 
ATOM      7  H   UNL A   1      33.235  32.260  28.972  1.00  0.00     0.163 HD
BRANCH   6   8
ATOM      8  C   UNL A   1      36.344  31.192  29.655  1.00  0.00     0.039 A 
ATOM      9  C   UNL A   1      37.547  31.891  29.540  1.00  0.00     0.014 A 
ATOM     10  C   UNL A   1      36.383  29.789  29.731  1.00  0.00     0.014 A 
ATOM     11  C   UNL A   1      38.751  31.207  29.424  1.00  0.00     0.010 A 
ATOM     12  C   UNL A   1      37.588  29.100  29.650  1.00  0.00     0.010 A 
ATOM     13  C   UNL A   1      38.770  29.812  29.468  1.00  0.00    -0.014 A 
BRANCH  13  14
ATOM     14  C   UNL A   1      40.073  29.154  29.483  1.00  0.00     0.031 A 
ATOM     15  C   UNL A   1      40.675  28.974  30.839  1.00  0.00     0.074 A 
ATOM     16  C   UNL A   1      40.644  28.610  28.390  1.00  0.00     0.049 A 
ATOM     17  N   UNL A   1      41.802  29.428  31.286  1.00  0.00    -0.248 NA
ATOM     18  C   UNL A   1      39.865  28.281  31.853  1.00  0.00     0.031 C 
ATOM     19  C   UNL A   1      40.050  28.423  27.064  1.00  0.00     0.029 A 
ATOM     20  N   UNL A   1      41.847  27.978  28.284  1.00  0.00    -0.354 N 
ATOM     21  C   UNL A   1      41.935  28.913  32.577  1.00  0.00     0.074 A 
ATOM     22  C   UNL A   1      40.661  28.337  32.921  1.00  0.00     0.031 C 
ATOM     23  C   UNL A   1      40.781  27.517  26.378  1.00  0.00     0.029 A 
ATOM     24  C   UNL A   1      41.959  27.175  27.156  1.00  0.00     0.049 A 
ATOM     25  H   UNL A   1      42.570  28.081  28.946  1.00  0.00     0.167 HD
ATOM     26  C   UNL A   1      43.137  28.826  33.212  1.00  0.00     0.034 A 
ATOM     27  C   UNL A   1      42.909  26.239  26.923  1.00  0.00     0.034 A 
ATOM     28  C   UNL A   1      44.135  29.657  32.597  1.00  0.00     0.049 A 
ATOM     29  C   UNL A   1      44.058  26.531  27.807  1.00  0.00     0.074 A 
ATOM     30  C   UNL A   1      44.283  31.011  32.377  1.00  0.00     0.029 A 
ATOM     31  N   UNL A   1      45.051  29.043  31.780  1.00  0.00    -0.354 N 
ATOM     32  N   UNL A   1      44.814  27.585  27.685  1.00  0.00    -0.248 NA
ATOM     33  C   UNL A   1      44.134  25.848  29.087  1.00  0.00     0.031 C 
ATOM     34  C   UNL A   1      44.913  31.106  31.101  1.00  0.00     0.029 A 
ATOM     35  C   UNL A   1      45.150  29.807  30.648  1.00  0.00     0.049 A 
ATOM     36  H   UNL A   1      45.542  28.212  31.971  1.00  0.00     0.167 HD
ATOM     37  C   UNL A   1      45.107  27.954  28.991  1.00  0.00     0.074 A 
ATOM     38  C   UNL A   1      44.764  26.786  29.799  1.00  0.00     0.031 C 
ATOM     39  C   UNL A   1      45.328  29.260  29.321  1.00  0.00     0.034 A 
BRANCH  26  40
ATOM     40  C   UNL A   1      43.509  27.764  34.219  1.00  0.00     0.023 A 
ATOM     41  C   UNL A   1      43.964  28.183  35.490  1.00  0.00     0.012 A 
ATOM     42  C   UNL A   1      43.681  26.399  33.896  1.00  0.00     0.148 A 
ATOM     43  C   UNL A   1      44.586  27.298  36.379  1.00  0.00     0.002 A 
ATOM     44  C   UNL A   1      44.226  25.505  34.814  1.00  0.00     0.091 A 
ATOM     45  F   UNL A   1      43.443  25.974  32.652  1.00  0.00    -0.205 F 
ATOM     46  C   UNL A   1      44.707  25.955  36.045  1.00  0.00     0.022 A 
BRANCH  44  47
ATOM     47  S   UNL A   1      44.346  23.750  34.452  1.00  0.00     0.127 S 
ATOM     48  O   UNL A   1      45.070  23.259  35.626  1.00  0.00    -0.237 OA
ATOM     49  O   UNL A   1      42.933  23.360  34.395  1.00  0.00    -0.237 OA
ATOM     50  O   UNL A   1      45.038  23.662  33.182  1.00  0.00    -0.744 OA
ENDBRANCH  44  47
ENDBRANCH  26  40
BRANCH  27  51
ATOM     51  C   UNL A   1      42.798  24.955  26.195  1.00  0.00     0.023 A 
ATOM     52  C   UNL A   1      43.744  24.627  25.205  1.00  0.00     0.012 A 
ATOM     53  C   UNL A   1      41.940  23.937  26.666  1.00  0.00     0.148 A 
ATOM     54  C   UNL A   1      43.850  23.317  24.718  1.00  0.00     0.002 A 
ATOM     55  C   UNL A   1      42.046  22.640  26.176  1.00  0.00     0.091 A 
ATOM     56  F   UNL A   1      41.089  24.221  27.660  1.00  0.00    -0.205 F 
ATOM     57  C   UNL A   1      43.008  22.323  25.209  1.00  0.00     0.022 A 
BRANCH  55  58
ATOM     58  S   UNL A   1      41.015  21.299  26.785  1.00  0.00     0.127 S 
ATOM     59  O   UNL A   1      39.765  21.527  26.057  1.00  0.00    -0.237 OA
ATOM     60  O   UNL A   1      41.767  20.123  26.357  1.00  0.00    -0.237 OA
ATOM     61  O   UNL A   1      40.914  21.497  28.225  1.00  0.00    -0.744 OA
ENDBRANCH  55  58
ENDBRANCH  27  51
BRANCH  39  62
ATOM     62  C   UNL A   1      45.479  30.260  28.199  1.00  0.00     0.023 A 
ATOM     63  C   UNL A   1      44.367  30.766  27.491  1.00  0.00     0.012 A 
ATOM     64  C   UNL A   1      46.741  30.833  27.971  1.00  0.00     0.148 A 
ATOM     65  C   UNL A   1      44.515  31.795  26.559  1.00  0.00     0.002 A 
ATOM     66  C   UNL A   1      46.877  31.891  27.080  1.00  0.00     0.091 A 
ATOM     67  F   UNL A   1      47.791  30.351  28.656  1.00  0.00    -0.205 F 
ATOM     68  C   UNL A   1      45.768  32.368  26.363  1.00  0.00     0.022 A 
BRANCH  66  69
ATOM     69  S   UNL A   1      48.433  32.763  26.888  1.00  0.00     0.127 S 
ATOM     70  O   UNL A   1      48.072  33.830  25.956  1.00  0.00    -0.237 OA
ATOM     71  O   UNL A   1      48.712  33.212  28.253  1.00  0.00    -0.237 OA
ATOM     72  O   UNL A   1      49.383  31.780  26.381  1.00  0.00    -0.744 OA
ENDBRANCH  66  69
ENDBRANCH  39  62
ENDBRANCH  13  14
ENDBRANCH   6   8
ENDBRANCH   3   4
ENDBRANCH   2   3
ENDBRANCH   1   2
BRANCH   1  73
ATOM     73  C   UNL A   1      31.612  28.303  27.600  1.00  0.00     0.002 C 
BRANCH  73  74
ATOM     74  C   UNL A   1      31.198  27.203  26.623  1.00  0.00     0.021 C 
BRANCH  74  75
ATOM     75  C   UNL A   1      32.183  26.039  26.604  1.00  0.00     0.116 C 
BRANCH  75  76
ATOM     76  N   UNL A   1      31.457  24.789  26.539  1.00  0.00    -0.354 N 
ATOM     77  C   UNL A   1      31.666  23.623  25.874  1.00  0.00     0.243 C 
ATOM     78  H   UNL A   1      30.642  24.782  27.091  1.00  0.00     0.163 HD
ATOM     79  O   UNL A   1      30.686  22.873  25.793  1.00  0.00    -0.273 OA
BRANCH  77  80
ATOM     80  C   UNL A   1      33.054  23.142  25.388  1.00  0.00     0.181 C 
ATOM     81  C   UNL A   1      33.286  21.614  25.407  1.00  0.00     0.091 C 
ATOM     82  N   UNL A   1      33.719  23.780  24.187  1.00  0.00    -0.320 N 
ATOM     83  C   UNL A   1      34.720  21.352  25.189  1.00  0.00     0.042 A 
ATOM     84  C   UNL A   1      35.200  23.596  24.101  1.00  0.00     0.178 C 
ATOM     85  N   UNL A   1      35.415  20.204  25.411  1.00  0.00    -0.348 N 
ATOM     86  C   UNL A   1      35.582  22.223  24.569  1.00  0.00     0.081 A 
ATOM     87  C   UNL A   1      36.672  20.415  24.905  1.00  0.00     0.197 A 
ATOM     88  H   UNL A   1      35.084  19.386  25.846  1.00  0.00     0.167 HD
ATOM     89  N   UNL A   1      36.811  21.634  24.421  1.00  0.00    -0.240 NA
BRANCH  82  90
ATOM     90  C   UNL A   1      33.111  24.338  23.063  1.00  0.00     0.256 C 
ATOM     91  O   UNL A   1      32.962  23.743  21.997  1.00  0.00    -0.269 OA
BRANCH  90  92
ATOM     92  C   UNL A   1      32.635  25.725  23.070  1.00  0.00     0.061 A 
ATOM     93  C   UNL A   1      33.580  26.746  23.197  1.00  0.00     0.035 A 
ATOM     94  C   UNL A   1      31.273  26.025  23.069  1.00  0.00     0.072 A 
ATOM     95  C   UNL A   1      33.122  28.052  23.203  1.00  0.00     0.112 A 
ATOM     96  C   UNL A   1      30.924  27.366  23.039  1.00  0.00     0.132 A 
ATOM     97  Cl  UNL A   1      30.036  24.828  23.122  1.00  0.00    -0.082 Cl
ATOM     98  N   UNL A   1      31.818  28.385  23.085  1.00  0.00    -0.263 NA
ENDBRANCH  90  92
ENDBRANCH  82  90
ENDBRANCH  77  80
ENDBRANCH  75  76
ENDBRANCH  74  75
ENDBRANCH  73  74
ENDBRANCH   1  73
TORSDOF 18
ENDMDL
MODEL 2
REMARK VINA RESULT:     -11.9      2.829      7.806
REMARK SMILES O=C(NCCCCCCNC(=O)[C@H]1Cc2[nH]cnc2CN1C(=O)c1ccncc1Cl)c1ccc(-c2c3nc(c(-c4cccc(S(=O)(=O)[O-])c4F)c4ccc([nH]4)c(-c4cccc(S(=O)(=O)[O-])c4F)c4nc(c(-c5cccc(S(=O)(=O)[O-])c5F)c5ccc2[nH]5)C=C4)C=C3)cc1
REMARK SMILES IDX 6 1 5 2 4 3 3 4 1 5 2 6 31 8 32 9 93 10 33 11 92 12 34 13
REMARK SMILES IDX 35 14 36 15 86 16 37 17 91 18 85 19 87 20 38 21 90 22 84 23
REMARK SMILES IDX 83 24 39 26 71 27 51 28 70 29 52 30 55 31 69 32 88 33 53 34
REMARK SMILES IDX 54 35 68 37 89 38 56 39 40 40 41 41 49 42 42 43 44 44 50 45
REMARK SMILES IDX 43 46 45 47 46 48 47 49 48 50 72 51 73 52 81 53 74 54 76 55
REMARK SMILES IDX 82 56 75 57 77 58 78 59 79 60 80 61 57 62 58 63 66 64 59 65
REMARK SMILES IDX 61 66 67 67 60 68 62 69 63 70 64 71 65 72 7 73 8 74 9 75
REMARK SMILES IDX 10 76 11 77 12 79 13 80 14 81 21 82 15 83 20 84 16 85 19 86
REMARK SMILES IDX 17 87 18 89 22 90 23 91 24 92 25 93 29 94 26 95 28 96 30 97
REMARK SMILES IDX 27 98
REMARK H PARENT 3 7 87 25 55 36 10 78 16 88
REMARK Flexibility Score: inf
ROOT
ATOM      1  C   UNL A   1      38.580  21.765  25.793  1.00  0.00     0.002 C 
ENDROOT
BRANCH   1   2
ATOM      2  C   UNL A   1      38.541  20.444  25.011  1.00  0.00     0.021 C 
BRANCH   2   3
ATOM      3  C   UNL A   1      38.899  19.225  25.856  1.00  0.00     0.116 C 
BRANCH   3   4
ATOM      4  N   UNL A   1      40.249  18.758  25.637  1.00  0.00    -0.352 N 
ATOM      5  O   UNL A   1      42.445  18.585  25.520  1.00  0.00    -0.269 OA
ATOM      6  C   UNL A   1      41.489  19.272  25.889  1.00  0.00     0.251 C 
ATOM      7  H   UNL A   1      40.282  17.871  25.211  1.00  0.00     0.163 HD
BRANCH   6   8
ATOM      8  C   UNL A   1      41.743  20.598  26.515  1.00  0.00     0.039 A 
ATOM      9  C   UNL A   1      42.348  21.686  25.883  1.00  0.00     0.014 A 
ATOM     10  C   UNL A   1      41.302  20.748  27.841  1.00  0.00     0.014 A 
ATOM     11  C   UNL A   1      42.578  22.867  26.579  1.00  0.00     0.010 A 
ATOM     12  C   UNL A   1      41.499  21.939  28.532  1.00  0.00     0.010 A 
ATOM     13  C   UNL A   1      42.163  22.989  27.906  1.00  0.00    -0.014 A 
BRANCH  13  14
ATOM     14  C   UNL A   1      42.305  24.296  28.541  1.00  0.00     0.031 A 
ATOM     15  C   UNL A   1      41.179  25.246  28.290  1.00  0.00     0.074 A 
ATOM     16  C   UNL A   1      43.290  24.598  29.409  1.00  0.00     0.049 A 
ATOM     17  N   UNL A   1      41.219  26.413  27.731  1.00  0.00    -0.248 NA
ATOM     18  C   UNL A   1      39.819  24.787  28.617  1.00  0.00     0.031 C 
ATOM     19  C   UNL A   1      44.278  23.691  29.999  1.00  0.00     0.029 A 
ATOM     20  N   UNL A   1      43.522  25.775  30.056  1.00  0.00    -0.354 N 
ATOM     21  C   UNL A   1      39.921  26.920  27.813  1.00  0.00     0.074 A 
ATOM     22  C   UNL A   1      39.082  25.829  28.235  1.00  0.00     0.031 C 
ATOM     23  C   UNL A   1      44.825  24.283  31.084  1.00  0.00     0.029 A 
ATOM     24  C   UNL A   1      44.334  25.646  31.176  1.00  0.00     0.049 A 
ATOM     25  H   UNL A   1      43.149  26.637  29.758  1.00  0.00     0.167 HD
ATOM     26  C   UNL A   1      39.645  28.250  27.708  1.00  0.00     0.034 A 
ATOM     27  C   UNL A   1      44.519  26.570  32.149  1.00  0.00     0.034 A 
ATOM     28  C   UNL A   1      40.734  28.984  27.127  1.00  0.00     0.049 A 
ATOM     29  C   UNL A   1      44.118  27.885  31.606  1.00  0.00     0.074 A 
ATOM     30  C   UNL A   1      41.391  28.966  25.914  1.00  0.00     0.029 A 
ATOM     31  N   UNL A   1      41.541  29.696  27.978  1.00  0.00    -0.354 N 
ATOM     32  N   UNL A   1      44.760  28.500  30.654  1.00  0.00    -0.248 NA
ATOM     33  C   UNL A   1      42.763  28.347  31.850  1.00  0.00     0.031 C 
ATOM     34  C   UNL A   1      42.756  29.228  26.234  1.00  0.00     0.029 A 
ATOM     35  C   UNL A   1      42.835  29.435  27.613  1.00  0.00     0.049 A 
ATOM     36  H   UNL A   1      41.246  30.282  28.712  1.00  0.00     0.167 HD
ATOM     37  C   UNL A   1      43.764  29.098  29.894  1.00  0.00     0.074 A 
ATOM     38  C   UNL A   1      42.574  29.070  30.742  1.00  0.00     0.031 C 
ATOM     39  C   UNL A   1      43.925  29.298  28.553  1.00  0.00     0.034 A 
BRANCH  26  40
ATOM     40  C   UNL A   1      38.503  28.953  28.402  1.00  0.00     0.023 A 
ATOM     41  C   UNL A   1      37.606  29.705  27.609  1.00  0.00     0.012 A 
ATOM     42  C   UNL A   1      38.418  29.126  29.802  1.00  0.00     0.148 A 
ATOM     43  C   UNL A   1      36.696  30.604  28.178  1.00  0.00     0.002 A 
ATOM     44  C   UNL A   1      37.458  29.960  30.368  1.00  0.00     0.091 A 
ATOM     45  F   UNL A   1      39.350  28.589  30.596  1.00  0.00    -0.205 F 
ATOM     46  C   UNL A   1      36.614  30.724  29.559  1.00  0.00     0.022 A 
BRANCH  44  47
ATOM     47  S   UNL A   1      37.273  30.098  32.149  1.00  0.00     0.127 S 
ATOM     48  O   UNL A   1      38.517  30.778  32.519  1.00  0.00    -0.237 OA
ATOM     49  O   UNL A   1      36.066  30.925  32.260  1.00  0.00    -0.237 OA
ATOM     50  O   UNL A   1      37.111  28.741  32.630  1.00  0.00    -0.744 OA
ENDBRANCH  44  47
ENDBRANCH  26  40
BRANCH  27  51
ATOM     51  C   UNL A   1      44.758  26.368  33.595  1.00  0.00     0.023 A 
ATOM     52  C   UNL A   1      46.048  26.560  34.127  1.00  0.00     0.012 A 
ATOM     53  C   UNL A   1      43.672  26.268  34.494  1.00  0.00     0.148 A 
ATOM     54  C   UNL A   1      46.247  26.676  35.509  1.00  0.00     0.002 A 
ATOM     55  C   UNL A   1      43.875  26.378  35.865  1.00  0.00     0.091 A 
ATOM     56  F   UNL A   1      42.433  26.160  33.996  1.00  0.00    -0.205 F 
ATOM     57  C   UNL A   1      45.160  26.593  36.376  1.00  0.00     0.022 A 
BRANCH  55  58
ATOM     58  S   UNL A   1      42.518  26.312  37.042  1.00  0.00     0.127 S 
ATOM     59  O   UNL A   1      41.724  27.479  36.651  1.00  0.00    -0.237 OA
ATOM     60  O   UNL A   1      41.908  25.023  36.726  1.00  0.00    -0.237 OA
ATOM     61  O   UNL A   1      43.128  26.419  38.360  1.00  0.00    -0.744 OA
ENDBRANCH  55  58
ENDBRANCH  27  51
BRANCH  39  62
ATOM     62  C   UNL A   1      45.295  29.072  27.961  1.00  0.00     0.023 A 
ATOM     63  C   UNL A   1      46.298  30.065  27.989  1.00  0.00     0.012 A 
ATOM     64  C   UNL A   1      45.637  27.780  27.526  1.00  0.00     0.148 A 
ATOM     65  C   UNL A   1      47.600  29.786  27.568  1.00  0.00     0.002 A 
ATOM     66  C   UNL A   1      46.946  27.492  27.155  1.00  0.00     0.091 A 
ATOM     67  F   UNL A   1      44.679  26.840  27.511  1.00  0.00    -0.205 F 
ATOM     68  C   UNL A   1      47.928  28.495  27.164  1.00  0.00     0.022 A 
BRANCH  66  69
ATOM     69  S   UNL A   1      47.464  25.821  26.761  1.00  0.00     0.127 S 
ATOM     70  O   UNL A   1      46.720  25.553  25.532  1.00  0.00    -0.237 OA
ATOM     71  O   UNL A   1      48.909  25.974  26.580  1.00  0.00    -0.237 OA
ATOM     72  O   UNL A   1      47.094  25.005  27.911  1.00  0.00    -0.744 OA
ENDBRANCH  66  69
ENDBRANCH  39  62
ENDBRANCH  13  14
ENDBRANCH   6   8
ENDBRANCH   3   4
ENDBRANCH   2   3
ENDBRANCH   1   2
BRANCH   1  73
ATOM     73  C   UNL A   1      37.684  22.878  25.232  1.00  0.00     0.002 C 
BRANCH  73  74
ATOM     74  C   UNL A   1      36.907  22.492  23.973  1.00  0.00     0.021 C 
BRANCH  74  75
ATOM     75  C   UNL A   1      35.409  22.734  24.116  1.00  0.00     0.116 C 
BRANCH  75  76
ATOM     76  N   UNL A   1      35.017  22.553  25.497  1.00  0.00    -0.354 N 
ATOM     77  C   UNL A   1      34.463  23.376  26.425  1.00  0.00     0.243 C 
ATOM     78  H   UNL A   1      35.186  21.644  25.834  1.00  0.00     0.163 HD
ATOM     79  O   UNL A   1      34.551  22.992  27.597  1.00  0.00    -0.273 OA
BRANCH  77  80
ATOM     80  C   UNL A   1      33.619  24.626  26.079  1.00  0.00     0.181 C 
ATOM     81  C   UNL A   1      34.112  25.463  24.878  1.00  0.00     0.091 C 
ATOM     82  N   UNL A   1      32.107  24.578  26.128  1.00  0.00    -0.320 N 
ATOM     83  C   UNL A   1      33.378  26.742  24.862  1.00  0.00     0.042 A 
ATOM     84  C   UNL A   1      31.427  25.904  26.255  1.00  0.00     0.178 C 
ATOM     85  N   UNL A   1      33.675  27.882  24.181  1.00  0.00    -0.348 N 
ATOM     86  C   UNL A   1      32.152  26.940  25.448  1.00  0.00     0.081 A 
ATOM     87  C   UNL A   1      32.612  28.726  24.368  1.00  0.00     0.197 A 
ATOM     88  H   UNL A   1      34.489  28.064  23.659  1.00  0.00     0.167 HD
ATOM     89  N   UNL A   1      31.694  28.198  25.154  1.00  0.00    -0.240 NA
BRANCH  82  90
ATOM     90  C   UNL A   1      31.272  23.491  25.872  1.00  0.00     0.256 C 
ATOM     91  O   UNL A   1      30.236  23.260  26.493  1.00  0.00    -0.269 OA
BRANCH  90  92
ATOM     92  C   UNL A   1      31.609  22.503  24.841  1.00  0.00     0.061 A 
ATOM     93  C   UNL A   1      32.020  21.234  25.255  1.00  0.00     0.035 A 
ATOM     94  C   UNL A   1      31.636  22.845  23.490  1.00  0.00     0.072 A 
ATOM     95  C   UNL A   1      32.338  20.308  24.276  1.00  0.00     0.112 A 
ATOM     96  C   UNL A   1      31.932  21.832  22.591  1.00  0.00     0.132 A 
ATOM     97  Cl  UNL A   1      31.345  24.439  22.906  1.00  0.00    -0.082 Cl
ATOM     98  N   UNL A   1      32.262  20.567  22.953  1.00  0.00    -0.263 NA
ENDBRANCH  90  92
ENDBRANCH  82  90
ENDBRANCH  77  80
ENDBRANCH  75  76
ENDBRANCH  74  75
ENDBRANCH  73  74
ENDBRANCH   1  73
TORSDOF 18
ENDMDL
MODEL 3
REMARK VINA RESULT:     -11.8      1.266      2.606
REMARK SMILES O=C(NCCCCCCNC(=O)[C@H]1Cc2[nH]cnc2CN1C(=O)c1ccncc1Cl)c1ccc(-c2c3nc(c(-c4cccc(S(=O)(=O)[O-])c4F)c4ccc([nH]4)c(-c4cccc(S(=O)(=O)[O-])c4F)c4nc(c(-c5cccc(S(=O)(=O)[O-])c5F)c5ccc2[nH]5)C=C4)C=C3)cc1
REMARK SMILES IDX 6 1 5 2 4 3 3 4 1 5 2 6 31 8 32 9 93 10 33 11 92 12 34 13
REMARK SMILES IDX 35 14 36 15 86 16 37 17 91 18 85 19 87 20 38 21 90 22 84 23
REMARK SMILES IDX 83 24 39 26 71 27 51 28 70 29 52 30 55 31 69 32 88 33 53 34
REMARK SMILES IDX 54 35 68 37 89 38 56 39 40 40 41 41 49 42 42 43 44 44 50 45
REMARK SMILES IDX 43 46 45 47 46 48 47 49 48 50 72 51 73 52 81 53 74 54 76 55
REMARK SMILES IDX 82 56 75 57 77 58 78 59 79 60 80 61 57 62 58 63 66 64 59 65
REMARK SMILES IDX 61 66 67 67 60 68 62 69 63 70 64 71 65 72 7 73 8 74 9 75
REMARK SMILES IDX 10 76 11 77 12 79 13 80 14 81 21 82 15 83 20 84 16 85 19 86
REMARK SMILES IDX 17 87 18 89 22 90 23 91 24 92 25 93 29 94 26 95 28 96 30 97
REMARK SMILES IDX 27 98
REMARK H PARENT 3 7 87 25 55 36 10 78 16 88
REMARK Flexibility Score: inf
ROOT
ATOM      1  C   UNL A   1      33.437  28.329  26.246  1.00  0.00     0.002 C 
ENDROOT
BRANCH   1   2
ATOM      2  C   UNL A   1      33.877  29.141  27.472  1.00  0.00     0.021 C 
BRANCH   2   3
ATOM      3  C   UNL A   1      34.089  30.624  27.178  1.00  0.00     0.116 C 
BRANCH   3   4
ATOM      4  N   UNL A   1      34.129  31.440  28.369  1.00  0.00    -0.352 N 
ATOM      5  O   UNL A   1      34.704  32.392  30.275  1.00  0.00    -0.269 OA
ATOM      6  C   UNL A   1      35.036  31.615  29.376  1.00  0.00     0.251 C 
ATOM      7  H   UNL A   1      33.323  31.995  28.480  1.00  0.00     0.163 HD
BRANCH   6   8
ATOM      8  C   UNL A   1      36.337  30.901  29.475  1.00  0.00     0.039 A 
ATOM      9  C   UNL A   1      36.494  29.542  29.752  1.00  0.00     0.014 A 
ATOM     10  C   UNL A   1      37.485  31.677  29.237  1.00  0.00     0.014 A 
ATOM     11  C   UNL A   1      37.763  28.987  29.867  1.00  0.00     0.010 A 
ATOM     12  C   UNL A   1      38.757  31.120  29.316  1.00  0.00     0.010 A 
ATOM     13  C   UNL A   1      38.894  29.778  29.659  1.00  0.00    -0.014 A 
BRANCH  13  14
ATOM     14  C   UNL A   1      40.193  29.113  29.654  1.00  0.00     0.031 A 
ATOM     15  C   UNL A   1      40.806  28.912  31.002  1.00  0.00     0.074 A 
ATOM     16  C   UNL A   1      40.751  28.580  28.549  1.00  0.00     0.049 A 
ATOM     17  N   UNL A   1      41.940  29.354  31.445  1.00  0.00    -0.248 NA
ATOM     18  C   UNL A   1      40.001  28.211  32.015  1.00  0.00     0.031 C 
ATOM     19  C   UNL A   1      40.143  28.413  27.226  1.00  0.00     0.029 A 
ATOM     20  N   UNL A   1      41.949  27.942  28.425  1.00  0.00    -0.354 N 
ATOM     21  C   UNL A   1      42.081  28.822  32.728  1.00  0.00     0.074 A 
ATOM     22  C   UNL A   1      40.807  28.249  33.076  1.00  0.00     0.031 C 
ATOM     23  C   UNL A   1      40.863  27.512  26.522  1.00  0.00     0.029 A 
ATOM     24  C   UNL A   1      42.046  27.153  27.285  1.00  0.00     0.049 A 
ATOM     25  H   UNL A   1      42.679  28.033  29.081  1.00  0.00     0.167 HD
ATOM     26  C   UNL A   1      43.288  28.720  33.351  1.00  0.00     0.034 A 
ATOM     27  C   UNL A   1      42.989  26.215  27.031  1.00  0.00     0.034 A 
ATOM     28  C   UNL A   1      44.285  29.553  32.737  1.00  0.00     0.049 A 
ATOM     29  C   UNL A   1      44.147  26.490  27.908  1.00  0.00     0.074 A 
ATOM     30  C   UNL A   1      44.439  30.909  32.533  1.00  0.00     0.029 A 
ATOM     31  N   UNL A   1      45.190  28.945  31.904  1.00  0.00    -0.354 N 
ATOM     32  N   UNL A   1      44.908  27.540  27.793  1.00  0.00    -0.248 NA
ATOM     33  C   UNL A   1      44.230  25.790  29.179  1.00  0.00     0.031 C 
ATOM     34  C   UNL A   1      45.058  31.017  31.253  1.00  0.00     0.029 A 
ATOM     35  C   UNL A   1      45.283  29.722  30.781  1.00  0.00     0.049 A 
ATOM     36  H   UNL A   1      45.678  28.108  32.081  1.00  0.00     0.167 HD
ATOM     37  C   UNL A   1      45.215  27.891  29.101  1.00  0.00     0.074 A 
ATOM     38  C   UNL A   1      44.872  26.715  29.897  1.00  0.00     0.031 C 
ATOM     39  C   UNL A   1      45.446  29.191  29.446  1.00  0.00     0.034 A 
BRANCH  26  40
ATOM     40  C   UNL A   1      43.663  27.643  34.341  1.00  0.00     0.023 A 
ATOM     41  C   UNL A   1      44.140  28.044  35.609  1.00  0.00     0.012 A 
ATOM     42  C   UNL A   1      43.816  26.280  34.001  1.00  0.00     0.148 A 
ATOM     43  C   UNL A   1      44.765  27.142  36.479  1.00  0.00     0.002 A 
ATOM     44  C   UNL A   1      44.364  25.371  34.901  1.00  0.00     0.091 A 
ATOM     45  F   UNL A   1      43.554  25.872  32.756  1.00  0.00    -0.205 F 
ATOM     46  C   UNL A   1      44.867  25.802  36.130  1.00  0.00     0.022 A 
BRANCH  44  47
ATOM     47  S   UNL A   1      44.459  23.618  34.518  1.00  0.00     0.127 S 
ATOM     48  O   UNL A   1      45.616  23.578  33.622  1.00  0.00    -0.237 OA
ATOM     49  O   UNL A   1      44.690  23.035  35.844  1.00  0.00    -0.237 OA
ATOM     50  O   UNL A   1      43.177  23.278  33.933  1.00  0.00    -0.744 OA
ENDBRANCH  44  47
ENDBRANCH  26  40
BRANCH  27  51
ATOM     51  C   UNL A   1      42.864  24.941  26.289  1.00  0.00     0.023 A 
ATOM     52  C   UNL A   1      43.676  24.704  25.163  1.00  0.00     0.012 A 
ATOM     53  C   UNL A   1      42.157  23.852  26.847  1.00  0.00     0.148 A 
ATOM     54  C   UNL A   1      43.802  23.416  24.626  1.00  0.00     0.002 A 
ATOM     55  C   UNL A   1      42.283  22.577  26.307  1.00  0.00     0.091 A 
ATOM     56  F   UNL A   1      41.442  24.053  27.961  1.00  0.00    -0.205 F 
ATOM     57  C   UNL A   1      43.113  22.352  25.203  1.00  0.00     0.022 A 
BRANCH  55  58
ATOM     58  S   UNL A   1      41.448  21.152  27.017  1.00  0.00     0.127 S 
ATOM     59  O   UNL A   1      41.562  20.168  25.939  1.00  0.00    -0.237 OA
ATOM     60  O   UNL A   1      42.273  20.873  28.189  1.00  0.00    -0.237 OA
ATOM     61  O   UNL A   1      40.084  21.584  27.291  1.00  0.00    -0.744 OA
ENDBRANCH  55  58
ENDBRANCH  27  51
BRANCH  39  62
ATOM     62  C   UNL A   1      45.593  30.205  28.336  1.00  0.00     0.023 A 
ATOM     63  C   UNL A   1      44.475  30.800  27.712  1.00  0.00     0.012 A 
ATOM     64  C   UNL A   1      46.874  30.696  28.036  1.00  0.00     0.148 A 
ATOM     65  C   UNL A   1      44.633  31.838  26.791  1.00  0.00     0.002 A 
ATOM     66  C   UNL A   1      47.025  31.764  27.157  1.00  0.00     0.091 A 
ATOM     67  F   UNL A   1      47.930  30.129  28.641  1.00  0.00    -0.205 F 
ATOM     68  C   UNL A   1      45.908  32.330  26.524  1.00  0.00     0.022 A 
BRANCH  66  69
ATOM     69  S   UNL A   1      48.621  32.534  26.880  1.00  0.00     0.127 S 
ATOM     70  O   UNL A   1      48.907  33.123  28.186  1.00  0.00    -0.237 OA
ATOM     71  O   UNL A   1      49.464  31.389  26.526  1.00  0.00    -0.237 OA
ATOM     72  O   UNL A   1      48.423  33.483  25.791  1.00  0.00    -0.744 OA
ENDBRANCH  66  69
ENDBRANCH  39  62
ENDBRANCH  13  14
ENDBRANCH   6   8
ENDBRANCH   3   4
ENDBRANCH   2   3
ENDBRANCH   1   2
BRANCH   1  73
ATOM     73  C   UNL A   1      32.007  28.607  25.763  1.00  0.00     0.002 C 
BRANCH  73  74
ATOM     74  C   UNL A   1      31.087  27.385  25.775  1.00  0.00     0.021 C 
BRANCH  74  75
ATOM     75  C   UNL A   1      31.829  26.094  25.451  1.00  0.00     0.116 C 
BRANCH  75  76
ATOM     76  N   UNL A   1      31.766  25.199  26.586  1.00  0.00    -0.354 N 
ATOM     77  C   UNL A   1      32.224  23.940  26.808  1.00  0.00     0.243 C 
ATOM     78  H   UNL A   1      31.293  25.583  27.359  1.00  0.00     0.163 HD
ATOM     79  O   UNL A   1      31.724  23.353  27.774  1.00  0.00    -0.273 OA
BRANCH  77  80
ATOM     80  C   UNL A   1      33.410  23.304  26.043  1.00  0.00     0.181 C 
ATOM     81  C   UNL A   1      34.654  22.956  26.892  1.00  0.00     0.091 C 
ATOM     82  N   UNL A   1      33.172  22.263  24.971  1.00  0.00    -0.320 N 
ATOM     83  C   UNL A   1      35.769  22.630  25.984  1.00  0.00     0.042 A 
ATOM     84  C   UNL A   1      34.289  22.082  23.993  1.00  0.00     0.178 C 
ATOM     85  N   UNL A   1      37.097  22.552  26.266  1.00  0.00    -0.348 N 
ATOM     86  C   UNL A   1      35.613  22.201  24.689  1.00  0.00     0.081 A 
ATOM     87  C   UNL A   1      37.699  22.064  25.135  1.00  0.00     0.197 A 
ATOM     88  H   UNL A   1      37.537  22.795  27.111  1.00  0.00     0.167 HD
ATOM     89  N   UNL A   1      36.834  21.875  24.157  1.00  0.00    -0.240 NA
BRANCH  82  90
ATOM     90  C   UNL A   1      32.144  21.323  24.897  1.00  0.00     0.256 C 
ATOM     91  O   UNL A   1      30.979  21.554  25.215  1.00  0.00    -0.269 OA
BRANCH  90  92
ATOM     92  C   UNL A   1      32.406  19.948  24.460  1.00  0.00     0.061 A 
ATOM     93  C   UNL A   1      32.917  19.045  25.396  1.00  0.00     0.035 A 
ATOM     94  C   UNL A   1      32.264  19.570  23.126  1.00  0.00     0.072 A 
ATOM     95  C   UNL A   1      33.163  17.750  24.976  1.00  0.00     0.112 A 
ATOM     96  C   UNL A   1      32.500  18.239  22.820  1.00  0.00     0.132 A 
ATOM     97  Cl  UNL A   1      31.838  20.667  21.868  1.00  0.00    -0.082 Cl
ATOM     98  N   UNL A   1      32.925  17.316  23.719  1.00  0.00    -0.263 NA
ENDBRANCH  90  92
ENDBRANCH  82  90
ENDBRANCH  77  80
ENDBRANCH  75  76
ENDBRANCH  74  75
ENDBRANCH  73  74
ENDBRANCH   1  73
TORSDOF 18
ENDMDL
