MODEL 1
REMARK VINA RESULT:     -12.4      0.000      0.000
REMARK SMILES Cc1c(NCc2ccccn2)cccc1C(=O)N1CCOC[C@@H]1CC(=O)NCCCCCCNC(=O)c1ccc(-c2c3nc(c(-c4cccc(S(=O)(=O)[O-])c4F)c4ccc([nH]4)c(-c4cccc(S(=O)(=O)[O-])c4F)c4nc(c(-c5cccc(S(=O)(=O)[O-])c5F)c5ccc2[nH]5)C=C4)C=C3)cc1
REMARK SMILES IDX 29 1 28 2 27 3 25 4 26 5 24 7 23 8 18 9 19 10 20 11 22 12
REMARK SMILES IDX 21 13 16 14 17 15 15 16 1 17 2 18 3 19 12 20 14 21 13 22
REMARK SMILES IDX 4 23 5 25 6 26 7 27 11 28 8 29 10 30 9 31 30 32 31 33 32 34
REMARK SMILES IDX 33 35 34 36 35 37 36 39 37 40 38 41 99 42 39 43 98 44 40 45
REMARK SMILES IDX 41 46 42 47 92 48 43 49 97 50 91 51 93 52 44 53 96 54 90 55
REMARK SMILES IDX 89 56 45 58 77 59 57 60 76 61 58 62 61 63 75 64 94 65 59 66
REMARK SMILES IDX 60 67 74 69 95 70 62 71 46 72 47 73 55 74 48 75 50 76 56 77
REMARK SMILES IDX 49 78 51 79 52 80 53 81 54 82 78 83 79 84 87 85 80 86 82 87
REMARK SMILES IDX 88 88 81 89 83 90 84 91 85 92 86 93 63 94 64 95 72 96 65 97
REMARK SMILES IDX 67 98 73 99 66 100 68 101 69 102 70 103 71 104
REMARK H PARENT 27 6 4 24 34 38 93 57 61 68
REMARK Flexibility Score: inf
ROOT
ATOM      1  C   UNL A   1      38.399  28.477  29.133  1.00  0.00     0.021 C 
ENDROOT
BRANCH   1   2
ATOM      2  C   UNL A   1      39.477  27.448  28.799  1.00  0.00     0.116 C 
BRANCH   2   3
ATOM      3  N   UNL A   1      39.835  27.603  27.411  1.00  0.00    -0.356 N 
ATOM      4  C   UNL A   1      40.949  27.085  26.823  1.00  0.00     0.222 C 
ATOM      5  O   UNL A   1      41.431  27.674  25.856  1.00  0.00    -0.275 OA
ATOM      6  H   UNL A   1      39.224  28.125  26.842  1.00  0.00     0.163 HD
BRANCH   4   7
ATOM      7  C   UNL A   1      41.499  25.758  27.302  1.00  0.00     0.127 C 
BRANCH   7   8
ATOM      8  C   UNL A   1      42.218  24.825  26.315  1.00  0.00     0.120 C 
ATOM      9  N   UNL A   1      42.286  23.361  26.597  1.00  0.00    -0.331 N 
ATOM     10  C   UNL A   1      42.738  22.647  25.384  1.00  0.00     0.148 C 
ATOM     11  C   UNL A   1      44.058  23.219  24.823  1.00  0.00     0.181 C 
ATOM     12  C   UNL A   1      43.636  25.293  25.924  1.00  0.00     0.185 C 
ATOM     13  O   UNL A   1      44.033  24.650  24.697  1.00  0.00    -0.377 OA
BRANCH   9  14
ATOM     14  C   UNL A   1      41.321  22.731  27.381  1.00  0.00     0.254 C 
ATOM     15  O   UNL A   1      41.424  22.632  28.601  1.00  0.00    -0.269 OA
BRANCH  14  16
ATOM     16  C   UNL A   1      40.209  21.972  26.708  1.00  0.00     0.045 A 
ATOM     17  C   UNL A   1      38.282  24.120  26.463  1.00  0.00     0.047 C 
ATOM     18  C   UNL A   1      38.622  22.685  26.210  1.00  0.00    -0.015 A 
ATOM     19  C   UNL A   1      37.403  21.667  25.341  1.00  0.00     0.038 A 
ATOM     20  C   UNL A   1      37.733  19.929  24.994  1.00  0.00     0.026 A 
ATOM     21  C   UNL A   1      40.544  20.224  26.376  1.00  0.00     0.014 A 
ATOM     22  C   UNL A   1      39.316  19.209  25.498  1.00  0.00     0.003 A 
BRANCH  19  23
ATOM     23  N   UNL A   1      36.192  22.228  24.965  1.00  0.00    -0.379 N 
ATOM     24  H   UNL A   1      35.355  21.957  25.406  1.00  0.00     0.160 HD
BRANCH  23  25
ATOM     25  C   UNL A   1      36.185  23.227  23.906  1.00  0.00     0.169 C 
BRANCH  25  26
ATOM     26  C   UNL A   1      34.839  23.929  23.814  1.00  0.00     0.059 A 
ATOM     27  C   UNL A   1      34.384  25.330  24.915  1.00  0.00     0.026 A 
ATOM     28  N   UNL A   1      34.030  23.704  22.212  1.00  0.00    -0.259 NA
ATOM     29  C   UNL A   1      33.131  26.552  24.339  1.00  0.00     0.004 A 
ATOM     30  C   UNL A   1      32.805  24.878  21.618  1.00  0.00     0.111 A 
ATOM     31  C   UNL A   1      32.371  26.342  22.612  1.00  0.00     0.020 A 
ENDBRANCH  25  26
ENDBRANCH  23  25
ENDBRANCH  19  23
ENDBRANCH  14  16
ENDBRANCH   9  14
ENDBRANCH   7   8
ENDBRANCH   4   7
ENDBRANCH   2   3
ENDBRANCH   1   2
BRANCH   1  32
ATOM     32  C   UNL A   1      38.017  29.443  28.007  1.00  0.00     0.002 C 
BRANCH  32  33
ATOM     33  C   UNL A   1      36.381  29.916  27.941  1.00  0.00     0.002 C 
BRANCH  33  34
ATOM     34  C   UNL A   1      35.256  31.790  27.957  1.00  0.00     0.021 C 
BRANCH  34  35
ATOM     35  C   UNL A   1      34.127  32.565  28.950  1.00  0.00     0.116 C 
BRANCH  35  36
ATOM     36  N   UNL A   1      34.544  33.433  30.068  1.00  0.00    -0.352 N 
ATOM     37  C   UNL A   1      35.679  33.397  30.875  1.00  0.00     0.251 C 
ATOM     38  H   UNL A   1      33.914  34.158  30.280  1.00  0.00     0.163 HD
ATOM     39  O   UNL A   1      35.790  34.220  31.780  1.00  0.00    -0.269 OA
BRANCH  37  40
ATOM     40  C   UNL A   1      36.808  32.479  30.545  1.00  0.00     0.039 A 
ATOM     41  C   UNL A   1      37.123  31.578  31.561  1.00  0.00     0.014 A 
ATOM     42  C   UNL A   1      37.813  32.961  29.727  1.00  0.00     0.014 A 
ATOM     43  C   UNL A   1      38.418  31.580  32.062  1.00  0.00     0.010 A 
ATOM     44  C   UNL A   1      39.047  33.127  30.327  1.00  0.00     0.010 A 
ATOM     45  C   UNL A   1      39.312  32.546  31.589  1.00  0.00    -0.014 A 
BRANCH  45  46
ATOM     46  C   UNL A   1      40.728  33.012  32.304  1.00  0.00     0.031 A 
ATOM     47  C   UNL A   1      39.766  33.779  33.683  1.00  0.00     0.074 A 
ATOM     48  C   UNL A   1      42.573  32.952  31.965  1.00  0.00     0.049 A 
ATOM     49  N   UNL A   1      40.301  34.209  34.786  1.00  0.00    -0.248 NA
ATOM     50  C   UNL A   1      38.314  34.077  33.738  1.00  0.00     0.031 C 
ATOM     51  C   UNL A   1      44.006  33.210  32.910  1.00  0.00     0.029 A 
ATOM     52  N   UNL A   1      43.513  32.714  30.770  1.00  0.00    -0.354 N 
ATOM     53  C   UNL A   1      39.442  34.888  35.570  1.00  0.00     0.074 A 
ATOM     54  C   UNL A   1      38.167  34.643  34.954  1.00  0.00     0.031 C 
ATOM     55  C   UNL A   1      45.065  33.531  32.157  1.00  0.00     0.029 A 
ATOM     56  C   UNL A   1      44.577  33.639  30.824  1.00  0.00     0.049 A 
ATOM     57  H   UNL A   1      43.391  32.025  30.077  1.00  0.00     0.167 HD
ATOM     58  C   UNL A   1      40.015  35.477  36.655  1.00  0.00     0.034 A 
ATOM     59  C   UNL A   1      44.525  34.796  30.106  1.00  0.00     0.034 A 
ATOM     60  C   UNL A   1      41.465  35.789  36.397  1.00  0.00     0.049 A 
ATOM     61  C   UNL A   1      44.489  36.019  31.051  1.00  0.00     0.074 A 
ATOM     62  C   UNL A   1      42.654  35.116  36.648  1.00  0.00     0.029 A 
ATOM     63  N   UNL A   1      41.818  36.829  35.516  1.00  0.00    -0.354 N 
ATOM     64  N   UNL A   1      44.032  36.044  32.289  1.00  0.00    -0.248 NA
ATOM     65  C   UNL A   1      45.123  37.277  30.693  1.00  0.00     0.031 C 
ATOM     66  C   UNL A   1      43.682  35.667  35.812  1.00  0.00     0.029 A 
ATOM     67  C   UNL A   1      43.154  36.713  35.065  1.00  0.00     0.049 A 
ATOM     68  H   UNL A   1      41.207  37.550  35.244  1.00  0.00     0.167 HD
ATOM     69  C   UNL A   1      44.225  37.278  32.872  1.00  0.00     0.074 A 
ATOM     70  C   UNL A   1      45.008  37.968  31.841  1.00  0.00     0.031 C 
ATOM     71  C   UNL A   1      43.741  37.688  34.107  1.00  0.00     0.034 A 
BRANCH  58  72
ATOM     72  C   UNL A   1      39.377  35.417  38.032  1.00  0.00     0.023 A 
ATOM     73  C   UNL A   1      39.442  36.593  38.815  1.00  0.00     0.012 A 
ATOM     74  C   UNL A   1      38.865  34.266  38.682  1.00  0.00     0.148 A 
ATOM     75  C   UNL A   1      39.083  36.618  40.169  1.00  0.00     0.002 A 
ATOM     76  C   UNL A   1      38.509  34.289  40.036  1.00  0.00     0.091 A 
ATOM     77  F   UNL A   1      38.721  33.129  38.003  1.00  0.00    -0.205 F 
ATOM     78  C   UNL A   1      38.627  35.463  40.784  1.00  0.00     0.022 A 
BRANCH  76  79
ATOM     79  S   UNL A   1      37.928  32.827  40.923  1.00  0.00     0.127 S 
ATOM     80  O   UNL A   1      37.778  33.336  42.287  1.00  0.00    -0.237 OA
ATOM     81  O   UNL A   1      36.668  32.532  40.243  1.00  0.00    -0.237 OA
ATOM     82  O   UNL A   1      38.962  31.812  40.768  1.00  0.00    -0.744 OA
ENDBRANCH  76  79
ENDBRANCH  58  72
BRANCH  59  83
ATOM     83  C   UNL A   1      43.860  34.575  28.754  1.00  0.00     0.023 A 
ATOM     84  C   UNL A   1      42.717  35.386  28.470  1.00  0.00     0.012 A 
ATOM     85  C   UNL A   1      44.486  33.954  27.664  1.00  0.00     0.148 A 
ATOM     86  C   UNL A   1      42.378  35.761  27.165  1.00  0.00     0.002 A 
ATOM     87  C   UNL A   1      44.146  34.336  26.355  1.00  0.00     0.091 A 
ATOM     88  F   UNL A   1      45.443  33.048  27.908  1.00  0.00    -0.205 F 
ATOM     89  C   UNL A   1      43.129  35.273  26.108  1.00  0.00     0.022 A 
BRANCH  87  90
ATOM     90  S   UNL A   1      45.095  33.786  24.928  1.00  0.00     0.127 S 
ATOM     91  O   UNL A   1      44.320  34.358  23.828  1.00  0.00    -0.237 OA
ATOM     92  O   UNL A   1      46.403  34.410  25.127  1.00  0.00    -0.237 OA
ATOM     93  O   UNL A   1      45.099  32.330  25.006  1.00  0.00    -0.744 OA
ENDBRANCH  87  90
ENDBRANCH  59  83
BRANCH  71  94
ATOM     94  C   UNL A   1      43.800  39.146  34.574  1.00  0.00     0.023 A 
ATOM     95  C   UNL A   1      44.442  39.531  35.767  1.00  0.00     0.012 A 
ATOM     96  C   UNL A   1      43.334  40.203  33.749  1.00  0.00     0.148 A 
ATOM     97  C   UNL A   1      44.514  40.863  36.183  1.00  0.00     0.002 A 
ATOM     98  C   UNL A   1      43.552  41.534  34.093  1.00  0.00     0.091 A 
ATOM     99  F   UNL A   1      42.653  39.936  32.627  1.00  0.00    -0.205 F 
ATOM    100  C   UNL A   1      44.093  41.870  35.333  1.00  0.00     0.022 A 
BRANCH  98 101
ATOM    101  S   UNL A   1      43.337  42.851  32.887  1.00  0.00     0.127 S 
ATOM    102  O   UNL A   1      43.824  44.016  33.621  1.00  0.00    -0.237 OA
ATOM    103  O   UNL A   1      44.202  42.410  31.791  1.00  0.00    -0.237 OA
ATOM    104  O   UNL A   1      41.916  42.839  32.564  1.00  0.00    -0.744 OA
ENDBRANCH  98 101
ENDBRANCH  71  94
ENDBRANCH  45  46
ENDBRANCH  37  40
ENDBRANCH  35  36
ENDBRANCH  34  35
ENDBRANCH  33  34
ENDBRANCH  32  33
ENDBRANCH   1  32
TORSDOF 22
ENDMDL
MODEL 2
REMARK VINA RESULT:     -11.2      4.121      7.198
REMARK SMILES Cc1c(NCc2ccccn2)cccc1C(=O)N1CCOC[C@@H]1CC(=O)NCCCCCCNC(=O)c1ccc(-c2c3nc(c(-c4cccc(S(=O)(=O)[O-])c4F)c4ccc([nH]4)c(-c4cccc(S(=O)(=O)[O-])c4F)c4nc(c(-c5cccc(S(=O)(=O)[O-])c5F)c5ccc2[nH]5)C=C4)C=C3)cc1
REMARK SMILES IDX 29 1 28 2 27 3 25 4 26 5 24 7 23 8 18 9 19 10 20 11 22 12
REMARK SMILES IDX 21 13 16 14 17 15 15 16 1 17 2 18 3 19 12 20 14 21 13 22
REMARK SMILES IDX 4 23 5 25 6 26 7 27 11 28 8 29 10 30 9 31 30 32 31 33 32 34
REMARK SMILES IDX 33 35 34 36 35 37 36 39 37 40 38 41 99 42 39 43 98 44 40 45
REMARK SMILES IDX 41 46 42 47 92 48 43 49 97 50 91 51 93 52 44 53 96 54 90 55
REMARK SMILES IDX 89 56 45 58 77 59 57 60 76 61 58 62 61 63 75 64 94 65 59 66
REMARK SMILES IDX 60 67 74 69 95 70 62 71 46 72 47 73 55 74 48 75 50 76 56 77
REMARK SMILES IDX 49 78 51 79 52 80 53 81 54 82 78 83 79 84 87 85 80 86 82 87
REMARK SMILES IDX 88 88 81 89 83 90 84 91 85 92 86 93 63 94 64 95 72 96 65 97
REMARK SMILES IDX 67 98 73 99 66 100 68 101 69 102 70 103 71 104
REMARK H PARENT 27 6 4 24 34 38 93 57 61 68
REMARK Flexibility Score: inf
ROOT
ATOM      1  C   UNL A   1      34.477  30.866  27.583  1.00  0.00     0.021 C 
ENDROOT
BRANCH   1   2
ATOM      2  C   UNL A   1      33.007  30.487  27.413  1.00  0.00     0.116 C 
BRANCH   2   3
ATOM      3  N   UNL A   1      32.897  29.053  27.507  1.00  0.00    -0.356 N 
ATOM      4  C   UNL A   1      31.904  28.302  26.955  1.00  0.00     0.222 C 
ATOM      5  O   UNL A   1      31.596  27.242  27.499  1.00  0.00    -0.275 OA
ATOM      6  H   UNL A   1      33.596  28.577  28.012  1.00  0.00     0.163 HD
BRANCH   4   7
ATOM      7  C   UNL A   1      31.281  28.734  25.644  1.00  0.00     0.127 C 
BRANCH   7   8
ATOM      8  C   UNL A   1      32.043  28.521  24.326  1.00  0.00     0.120 C 
ATOM      9  N   UNL A   1      32.176  27.145  23.763  1.00  0.00    -0.331 N 
ATOM     10  C   UNL A   1      32.661  27.228  22.369  1.00  0.00     0.148 C 
ATOM     11  C   UNL A   1      33.956  28.062  22.247  1.00  0.00     0.181 C 
ATOM     12  C   UNL A   1      33.439  29.177  24.292  1.00  0.00     0.185 C 
ATOM     13  O   UNL A   1      33.868  29.326  22.925  1.00  0.00    -0.377 OA
BRANCH   9  14
ATOM     14  C   UNL A   1      31.237  26.154  24.048  1.00  0.00     0.254 C 
ATOM     15  O   UNL A   1      30.125  26.411  24.502  1.00  0.00    -0.269 OA
BRANCH  14  16
ATOM     16  C   UNL A   1      31.653  24.710  23.987  1.00  0.00     0.045 A 
ATOM     17  C   UNL A   1      31.619  24.111  26.820  1.00  0.00     0.047 C 
ATOM     18  C   UNL A   1      31.845  23.625  25.423  1.00  0.00    -0.015 A 
ATOM     19  C   UNL A   1      32.283  21.884  25.193  1.00  0.00     0.038 A 
ATOM     20  C   UNL A   1      32.571  21.216  23.544  1.00  0.00     0.026 A 
ATOM     21  C   UNL A   1      31.954  24.051  22.327  1.00  0.00     0.014 A 
ATOM     22  C   UNL A   1      32.389  22.299  22.103  1.00  0.00     0.003 A 
BRANCH  19  23
ATOM     23  N   UNL A   1      32.425  21.066  26.303  1.00  0.00    -0.379 N 
ATOM     24  H   UNL A   1      31.700  20.456  26.573  1.00  0.00     0.160 HD
BRANCH  23  25
ATOM     25  C   UNL A   1      33.666  21.127  27.062  1.00  0.00     0.169 C 
BRANCH  25  26
ATOM     26  C   UNL A   1      34.799  21.699  26.225  1.00  0.00     0.059 A 
ATOM     27  C   UNL A   1      35.499  23.373  26.530  1.00  0.00     0.026 A 
ATOM     28  N   UNL A   1      35.767  20.428  25.377  1.00  0.00    -0.259 NA
ATOM     29  C   UNL A   1      37.233  23.726  26.019  1.00  0.00     0.004 A 
ATOM     30  C   UNL A   1      37.461  20.739  24.866  1.00  0.00     0.111 A 
ATOM     31  C   UNL A   1      38.254  22.341  25.218  1.00  0.00     0.020 A 
ENDBRANCH  25  26
ENDBRANCH  23  25
ENDBRANCH  19  23
ENDBRANCH  14  16
ENDBRANCH   9  14
ENDBRANCH   7   8
ENDBRANCH   4   7
ENDBRANCH   2   3
ENDBRANCH   1   2
BRANCH   1  32
ATOM     32  C   UNL A   1      35.465  29.701  27.695  1.00  0.00     0.002 C 
BRANCH  32  33
ATOM     33  C   UNL A   1      36.505  29.720  29.045  1.00  0.00     0.002 C 
BRANCH  33  34
ATOM     34  C   UNL A   1      37.927  28.353  29.989  1.00  0.00     0.021 C 
BRANCH  34  35
ATOM     35  C   UNL A   1      39.034  27.169  29.508  1.00  0.00     0.116 C 
BRANCH  35  36
ATOM     36  N   UNL A   1      39.472  27.041  28.106  1.00  0.00    -0.352 N 
ATOM     37  C   UNL A   1      40.749  26.957  27.553  1.00  0.00     0.251 C 
ATOM     38  H   UNL A   1      38.740  27.011  27.449  1.00  0.00     0.163 HD
ATOM     39  O   UNL A   1      40.864  26.890  26.333  1.00  0.00    -0.269 OA
BRANCH  37  40
ATOM     40  C   UNL A   1      41.940  26.795  28.437  1.00  0.00     0.039 A 
ATOM     41  C   UNL A   1      41.662  26.928  29.797  1.00  0.00     0.014 A 
ATOM     42  C   UNL A   1      43.165  27.211  27.950  1.00  0.00     0.014 A 
ATOM     43  C   UNL A   1      42.347  27.898  30.515  1.00  0.00     0.010 A 
ATOM     44  C   UNL A   1      43.721  28.308  28.581  1.00  0.00     0.010 A 
ATOM     45  C   UNL A   1      43.210  28.753  29.823  1.00  0.00    -0.014 A 
BRANCH  45  46
ATOM     46  C   UNL A   1      43.797  30.205  30.355  1.00  0.00     0.031 A 
ATOM     47  C   UNL A   1      42.088  30.906  30.291  1.00  0.00     0.074 A 
ATOM     48  C   UNL A   1      45.443  30.992  30.792  1.00  0.00     0.049 A 
ATOM     49  N   UNL A   1      41.760  32.057  30.796  1.00  0.00    -0.248 NA
ATOM     50  C   UNL A   1      40.884  30.339  29.636  1.00  0.00     0.031 C 
ATOM     51  C   UNL A   1      45.934  32.437  31.620  1.00  0.00     0.029 A 
ATOM     52  N   UNL A   1      46.942  30.722  30.566  1.00  0.00    -0.354 N 
ATOM     53  C   UNL A   1      40.509  32.445  30.479  1.00  0.00     0.074 A 
ATOM     54  C   UNL A   1      39.937  31.267  29.886  1.00  0.00     0.031 C 
ATOM     55  C   UNL A   1      47.167  32.829  31.278  1.00  0.00     0.029 A 
ATOM     56  C   UNL A   1      47.590  31.935  30.255  1.00  0.00     0.049 A 
ATOM     57  H   UNL A   1      47.378  29.841  30.628  1.00  0.00     0.167 HD
ATOM     58  C   UNL A   1      40.198  33.711  30.867  1.00  0.00     0.034 A 
ATOM     59  C   UNL A   1      47.815  32.287  28.957  1.00  0.00     0.034 A 
ATOM     60  C   UNL A   1      41.431  34.570  30.950  1.00  0.00     0.049 A 
ATOM     61  C   UNL A   1      47.019  33.563  28.598  1.00  0.00     0.074 A 
ATOM     62  C   UNL A   1      42.301  34.909  31.980  1.00  0.00     0.029 A 
ATOM     63  N   UNL A   1      42.087  34.980  29.774  1.00  0.00    -0.354 N 
ATOM     64  N   UNL A   1      45.902  33.980  29.163  1.00  0.00    -0.248 NA
ATOM     65  C   UNL A   1      47.538  34.544  27.658  1.00  0.00     0.031 C 
ATOM     66  C   UNL A   1      43.526  35.391  31.409  1.00  0.00     0.029 A 
ATOM     67  C   UNL A   1      43.416  35.395  30.023  1.00  0.00     0.049 A 
ATOM     68  H   UNL A   1      41.670  34.977  28.883  1.00  0.00     0.167 HD
ATOM     69  C   UNL A   1      45.506  35.199  28.655  1.00  0.00     0.074 A 
ATOM     70  C   UNL A   1      46.639  35.537  27.788  1.00  0.00     0.031 C 
ATOM     71  C   UNL A   1      44.310  35.851  28.925  1.00  0.00     0.034 A 
BRANCH  58  72
ATOM     72  C   UNL A   1      38.867  34.047  31.519  1.00  0.00     0.023 A 
ATOM     73  C   UNL A   1      38.905  34.443  32.876  1.00  0.00     0.012 A 
ATOM     74  C   UNL A   1      37.577  33.852  30.966  1.00  0.00     0.148 A 
ATOM     75  C   UNL A   1      37.749  34.581  33.654  1.00  0.00     0.002 A 
ATOM     76  C   UNL A   1      36.420  33.986  31.743  1.00  0.00     0.091 A 
ATOM     77  F   UNL A   1      37.448  33.529  29.680  1.00  0.00    -0.205 F 
ATOM     78  C   UNL A   1      36.505  34.340  33.091  1.00  0.00     0.022 A 
BRANCH  76  79
ATOM     79  S   UNL A   1      34.762  33.671  31.099  1.00  0.00     0.127 S 
ATOM     80  O   UNL A   1      33.918  34.029  32.239  1.00  0.00    -0.237 OA
ATOM     81  O   UNL A   1      34.686  34.598  29.971  1.00  0.00    -0.237 OA
ATOM     82  O   UNL A   1      34.722  32.259  30.737  1.00  0.00    -0.744 OA
ENDBRANCH  76  79
ENDBRANCH  58  72
BRANCH  59  83
ATOM     83  C   UNL A   1      48.163  31.071  28.110  1.00  0.00     0.023 A 
ATOM     84  C   UNL A   1      49.094  30.147  28.681  1.00  0.00     0.012 A 
ATOM     85  C   UNL A   1      47.382  30.609  27.042  1.00  0.00     0.148 A 
ATOM     86  C   UNL A   1      49.064  28.781  28.379  1.00  0.00     0.002 A 
ATOM     87  C   UNL A   1      47.351  29.236  26.744  1.00  0.00     0.091 A 
ATOM     88  F   UNL A   1      46.634  31.493  26.368  1.00  0.00    -0.205 F 
ATOM     89  C   UNL A   1      48.153  28.318  27.444  1.00  0.00     0.022 A 
BRANCH  87  90
ATOM     90  S   UNL A   1      46.170  28.543  25.576  1.00  0.00     0.127 S 
ATOM     91  O   UNL A   1      46.800  28.871  24.298  1.00  0.00    -0.237 OA
ATOM     92  O   UNL A   1      46.172  27.115  25.896  1.00  0.00    -0.237 OA
ATOM     93  O   UNL A   1      44.911  29.225  25.852  1.00  0.00    -0.744 OA
ENDBRANCH  87  90
ENDBRANCH  59  83
BRANCH  71  94
ATOM     94  C   UNL A   1      43.846  37.082  28.140  1.00  0.00     0.023 A 
ATOM     95  C   UNL A   1      42.703  37.066  27.317  1.00  0.00     0.012 A 
ATOM     96  C   UNL A   1      44.467  38.346  28.317  1.00  0.00     0.148 A 
ATOM     97  C   UNL A   1      42.268  38.194  26.616  1.00  0.00     0.002 A 
ATOM     98  C   UNL A   1      43.933  39.497  27.744  1.00  0.00     0.091 A 
ATOM     99  F   UNL A   1      45.598  38.452  29.028  1.00  0.00    -0.205 F 
ATOM    100  C   UNL A   1      42.867  39.419  26.851  1.00  0.00     0.022 A 
BRANCH  98 101
ATOM    101  S   UNL A   1      44.459  41.131  28.282  1.00  0.00     0.127 S 
ATOM    102  O   UNL A   1      43.910  41.986  27.233  1.00  0.00    -0.237 OA
ATOM    103  O   UNL A   1      43.798  41.255  29.583  1.00  0.00    -0.237 OA
ATOM    104  O   UNL A   1      45.912  41.054  28.359  1.00  0.00    -0.744 OA
ENDBRANCH  98 101
ENDBRANCH  71  94
ENDBRANCH  45  46
ENDBRANCH  37  40
ENDBRANCH  35  36
ENDBRANCH  34  35
ENDBRANCH  33  34
ENDBRANCH  32  33
ENDBRANCH   1  32
TORSDOF 22
ENDMDL
MODEL 3
REMARK VINA RESULT:     -10.9      1.741      2.165
REMARK SMILES Cc1c(NCc2ccccn2)cccc1C(=O)N1CCOC[C@@H]1CC(=O)NCCCCCCNC(=O)c1ccc(-c2c3nc(c(-c4cccc(S(=O)(=O)[O-])c4F)c4ccc([nH]4)c(-c4cccc(S(=O)(=O)[O-])c4F)c4nc(c(-c5cccc(S(=O)(=O)[O-])c5F)c5ccc2[nH]5)C=C4)C=C3)cc1
REMARK SMILES IDX 29 1 28 2 27 3 25 4 26 5 24 7 23 8 18 9 19 10 20 11 22 12
REMARK SMILES IDX 21 13 16 14 17 15 15 16 1 17 2 18 3 19 12 20 14 21 13 22
REMARK SMILES IDX 4 23 5 25 6 26 7 27 11 28 8 29 10 30 9 31 30 32 31 33 32 34
REMARK SMILES IDX 33 35 34 36 35 37 36 39 37 40 38 41 99 42 39 43 98 44 40 45
REMARK SMILES IDX 41 46 42 47 92 48 43 49 97 50 91 51 93 52 44 53 96 54 90 55
REMARK SMILES IDX 89 56 45 58 77 59 57 60 76 61 58 62 61 63 75 64 94 65 59 66
REMARK SMILES IDX 60 67 74 69 95 70 62 71 46 72 47 73 55 74 48 75 50 76 56 77
REMARK SMILES IDX 49 78 51 79 52 80 53 81 54 82 78 83 79 84 87 85 80 86 82 87
REMARK SMILES IDX 88 88 81 89 83 90 84 91 85 92 86 93 63 94 64 95 72 96 65 97
REMARK SMILES IDX 67 98 73 99 66 100 68 101 69 102 70 103 71 104
REMARK H PARENT 27 6 4 24 34 38 93 57 61 68
REMARK Flexibility Score: inf
ROOT
ATOM      1  C   UNL A   1      39.213  28.373  29.165  1.00  0.00     0.021 C 
ENDROOT
BRANCH   1   2
ATOM      2  C   UNL A   1      40.388  27.490  28.751  1.00  0.00     0.116 C 
BRANCH   2   3
ATOM      3  N   UNL A   1      40.311  27.271  27.328  1.00  0.00    -0.356 N 
ATOM      4  C   UNL A   1      41.264  26.659  26.573  1.00  0.00     0.222 C 
ATOM      5  O   UNL A   1      41.372  26.979  25.389  1.00  0.00    -0.275 OA
ATOM      6  H   UNL A   1      39.503  27.590  26.865  1.00  0.00     0.163 HD
BRANCH   4   7
ATOM      7  C   UNL A   1      42.090  25.541  27.174  1.00  0.00     0.127 C 
BRANCH   7   8
ATOM      8  C   UNL A   1      42.729  24.483  26.259  1.00  0.00     0.120 C 
ATOM      9  N   UNL A   1      42.610  23.037  26.605  1.00  0.00    -0.331 N 
ATOM     10  C   UNL A   1      43.017  22.217  25.445  1.00  0.00     0.148 C 
ATOM     11  C   UNL A   1      44.417  22.602  24.917  1.00  0.00     0.181 C 
ATOM     12  C   UNL A   1      44.206  24.761  25.910  1.00  0.00     0.185 C 
ATOM     13  O   UNL A   1      44.569  24.018  24.729  1.00  0.00    -0.377 OA
BRANCH   9  14
ATOM     14  C   UNL A   1      41.546  22.563  27.373  1.00  0.00     0.254 C 
ATOM     15  O   UNL A   1      41.581  22.535  28.600  1.00  0.00    -0.269 OA
BRANCH  14  16
ATOM     16  C   UNL A   1      40.394  21.880  26.688  1.00  0.00     0.045 A 
ATOM     17  C   UNL A   1      38.680  24.181  26.290  1.00  0.00     0.047 C 
ATOM     18  C   UNL A   1      38.895  22.712  26.105  1.00  0.00    -0.015 A 
ATOM     19  C   UNL A   1      37.618  21.772  25.231  1.00  0.00     0.038 A 
ATOM     20  C   UNL A   1      37.800  19.999  24.963  1.00  0.00     0.026 A 
ATOM     21  C   UNL A   1      40.578  20.096  26.437  1.00  0.00     0.014 A 
ATOM     22  C   UNL A   1      39.293  19.160  25.552  1.00  0.00     0.003 A 
BRANCH  19  23
ATOM     23  N   UNL A   1      36.478  22.424  24.789  1.00  0.00    -0.379 N 
ATOM     24  H   UNL A   1      36.388  22.695  23.846  1.00  0.00     0.160 HD
BRANCH  23  25
ATOM     25  C   UNL A   1      35.416  22.700  25.746  1.00  0.00     0.169 C 
BRANCH  25  26
ATOM     26  C   UNL A   1      34.360  23.620  25.152  1.00  0.00     0.059 A 
ATOM     27  C   UNL A   1      34.335  25.430  25.481  1.00  0.00     0.026 A 
ATOM     28  N   UNL A   1      33.568  22.932  23.679  1.00  0.00    -0.259 NA
ATOM     29  C   UNL A   1      33.545  26.553  24.254  1.00  0.00     0.004 A 
ATOM     30  C   UNL A   1      32.790  24.000  22.461  1.00  0.00     0.111 A 
ATOM     31  C   UNL A   1      32.807  25.809  22.671  1.00  0.00     0.020 A 
ENDBRANCH  25  26
ENDBRANCH  23  25
ENDBRANCH  19  23
ENDBRANCH  14  16
ENDBRANCH   9  14
ENDBRANCH   7   8
ENDBRANCH   4   7
ENDBRANCH   2   3
ENDBRANCH   1   2
BRANCH   1  32
ATOM     32  C   UNL A   1      38.696  29.348  28.102  1.00  0.00     0.002 C 
BRANCH  32  33
ATOM     33  C   UNL A   1      37.036  29.726  28.167  1.00  0.00     0.002 C 
BRANCH  33  34
ATOM     34  C   UNL A   1      35.803  31.532  28.162  1.00  0.00     0.021 C 
BRANCH  34  35
ATOM     35  C   UNL A   1      34.856  32.405  29.258  1.00  0.00     0.116 C 
BRANCH  35  36
ATOM     36  N   UNL A   1      35.452  33.371  30.200  1.00  0.00    -0.352 N 
ATOM     37  C   UNL A   1      36.594  33.285  30.994  1.00  0.00     0.251 C 
ATOM     38  H   UNL A   1      34.959  34.219  30.283  1.00  0.00     0.163 HD
ATOM     39  O   UNL A   1      36.873  34.222  31.736  1.00  0.00    -0.269 OA
BRANCH  37  40
ATOM     40  C   UNL A   1      37.541  32.144  30.826  1.00  0.00     0.039 A 
ATOM     41  C   UNL A   1      37.515  31.225  31.874  1.00  0.00     0.014 A 
ATOM     42  C   UNL A   1      38.730  32.385  30.162  1.00  0.00     0.014 A 
ATOM     43  C   UNL A   1      38.698  30.973  32.556  1.00  0.00     0.010 A 
ATOM     44  C   UNL A   1      39.874  32.309  30.934  1.00  0.00     0.010 A 
ATOM     45  C   UNL A   1      39.832  31.720  32.219  1.00  0.00    -0.014 A 
BRANCH  45  46
ATOM     46  C   UNL A   1      41.199  31.903  33.131  1.00  0.00     0.031 A 
ATOM     47  C   UNL A   1      40.323  33.153  34.173  1.00  0.00     0.074 A 
ATOM     48  C   UNL A   1      42.966  31.272  33.177  1.00  0.00     0.049 A 
ATOM     49  N   UNL A   1      40.792  33.618  35.291  1.00  0.00    -0.248 NA
ATOM     50  C   UNL A   1      39.040  33.846  33.897  1.00  0.00     0.031 C 
ATOM     51  C   UNL A   1      44.250  31.297  34.344  1.00  0.00     0.029 A 
ATOM     52  N   UNL A   1      43.956  30.561  32.237  1.00  0.00    -0.354 N 
ATOM     53  C   UNL A   1      40.075  34.645  35.789  1.00  0.00     0.074 A 
ATOM     54  C   UNL A   1      38.894  34.650  34.970  1.00  0.00     0.031 C 
ATOM     55  C   UNL A   1      45.457  31.164  33.780  1.00  0.00     0.029 A 
ATOM     56  C   UNL A   1      45.230  31.148  32.375  1.00  0.00     0.049 A 
ATOM     57  H   UNL A   1      43.734  29.814  31.634  1.00  0.00     0.167 HD
ATOM     58  C   UNL A   1      40.632  35.246  36.874  1.00  0.00     0.034 A 
ATOM     59  C   UNL A   1      45.644  32.117  31.509  1.00  0.00     0.034 A 
ATOM     60  C   UNL A   1      42.130  35.090  36.870  1.00  0.00     0.049 A 
ATOM     61  C   UNL A   1      45.842  33.458  32.252  1.00  0.00     0.074 A 
ATOM     62  C   UNL A   1      43.004  34.175  37.443  1.00  0.00     0.029 A 
ATOM     63  N   UNL A   1      42.912  35.805  35.943  1.00  0.00    -0.354 N 
ATOM     64  N   UNL A   1      45.236  33.842  33.359  1.00  0.00    -0.248 NA
ATOM     65  C   UNL A   1      46.877  34.400  31.859  1.00  0.00     0.031 C 
ATOM     66  C   UNL A   1      44.264  34.251  36.761  1.00  0.00     0.029 A 
ATOM     67  C   UNL A   1      44.199  35.241  35.787  1.00  0.00     0.049 A 
ATOM     68  H   UNL A   1      42.598  36.602  35.459  1.00  0.00     0.167 HD
ATOM     69  C   UNL A   1      45.708  35.062  33.795  1.00  0.00     0.074 A 
ATOM     70  C   UNL A   1      46.810  35.300  32.857  1.00  0.00     0.031 C 
ATOM     71  C   UNL A   1      45.194  35.816  34.841  1.00  0.00     0.034 A 
BRANCH  58  72
ATOM     72  C   UNL A   1      39.808  35.627  38.093  1.00  0.00     0.023 A 
ATOM     73  C   UNL A   1      39.803  36.994  38.456  1.00  0.00     0.012 A 
ATOM     74  C   UNL A   1      39.173  34.742  38.999  1.00  0.00     0.148 A 
ATOM     75  C   UNL A   1      39.261  37.451  39.663  1.00  0.00     0.002 A 
ATOM     76  C   UNL A   1      38.633  35.197  40.208  1.00  0.00     0.091 A 
ATOM     77  F   UNL A   1      39.085  33.445  38.709  1.00  0.00    -0.205 F 
ATOM     78  C   UNL A   1      38.686  36.551  40.547  1.00  0.00     0.022 A 
BRANCH  76  79
ATOM     79  S   UNL A   1      37.886  34.094  41.427  1.00  0.00     0.127 S 
ATOM     80  O   UNL A   1      37.294  35.039  42.374  1.00  0.00    -0.237 OA
ATOM     81  O   UNL A   1      36.917  33.353  40.622  1.00  0.00    -0.237 OA
ATOM     82  O   UNL A   1      38.971  33.289  41.975  1.00  0.00    -0.744 OA
ENDBRANCH  76  79
ENDBRANCH  58  72
BRANCH  59  83
ATOM     83  C   UNL A   1      45.153  31.836  30.095  1.00  0.00     0.023 A 
ATOM     84  C   UNL A   1      44.223  32.776  29.549  1.00  0.00     0.012 A 
ATOM     85  C   UNL A   1      45.811  30.993  29.189  1.00  0.00     0.148 A 
ATOM     86  C   UNL A   1      44.148  33.034  28.176  1.00  0.00     0.002 A 
ATOM     87  C   UNL A   1      45.737  31.257  27.811  1.00  0.00     0.091 A 
ATOM     88  F   UNL A   1      46.548  29.985  29.675  1.00  0.00    -0.205 F 
ATOM     89  C   UNL A   1      44.947  32.306  27.310  1.00  0.00     0.022 A 
BRANCH  87  90
ATOM     90  S   UNL A   1      46.771  30.389  26.620  1.00  0.00     0.127 S 
ATOM     91  O   UNL A   1      46.734  29.025  27.145  1.00  0.00    -0.237 OA
ATOM     92  O   UNL A   1      46.054  30.564  25.356  1.00  0.00    -0.237 OA
ATOM     93  O   UNL A   1      48.067  31.054  26.680  1.00  0.00    -0.744 OA
ENDBRANCH  87  90
ENDBRANCH  59  83
BRANCH  71  94
ATOM     94  C   UNL A   1      45.626  37.261  35.107  1.00  0.00     0.023 A 
ATOM     95  C   UNL A   1      46.475  37.611  36.174  1.00  0.00     0.012 A 
ATOM     96  C   UNL A   1      45.305  38.304  34.199  1.00  0.00     0.148 A 
ATOM     97  C   UNL A   1      46.886  38.926  36.405  1.00  0.00     0.002 A 
ATOM     98  C   UNL A   1      45.849  39.578  34.345  1.00  0.00     0.091 A 
ATOM     99  F   UNL A   1      44.452  38.086  33.190  1.00  0.00    -0.205 F 
ATOM    100  C   UNL A   1      46.596  39.908  35.474  1.00  0.00     0.022 A 
BRANCH  98 101
ATOM    101  S   UNL A   1      45.782  40.774  33.004  1.00  0.00     0.127 S 
ATOM    102  O   UNL A   1      45.733  39.907  31.829  1.00  0.00    -0.237 OA
ATOM    103  O   UNL A   1      44.537  41.489  33.290  1.00  0.00    -0.237 OA
ATOM    104  O   UNL A   1      46.983  41.584  33.159  1.00  0.00    -0.744 OA
ENDBRANCH  98 101
ENDBRANCH  71  94
ENDBRANCH  45  46
ENDBRANCH  37  40
ENDBRANCH  35  36
ENDBRANCH  34  35
ENDBRANCH  33  34
ENDBRANCH  32  33
ENDBRANCH   1  32
TORSDOF 22
ENDMDL
