MODEL 1
REMARK VINA RESULT:     -11.5      0.000      0.000
REMARK SMILES [NH3+]Cc1c(-c2ccccc2)c(C(=O)NCCCCCCNC(=O)c2ccc(-c3c4nc(c(-c5cccc(S(=O)(=O)[O-])c5F)c5ccc([nH]5)c(-c5cccc(S(=O)(=O)[O-])c5F)c5nc(c(-c6cccc(S(=O)(=O)[O-])c6F)c6ccc3[nH]6)C=C5)C=C4)cc2)c2ccccn12
REMARK SMILES IDX 18 1 17 2 16 3 15 4 14 5 12 6 13 7 11 9 3 10 4 11 92 12
REMARK SMILES IDX 87 13 91 14 88 15 90 16 89 17 2 18 1 19 5 23 6 24 10 25 7 26
REMARK SMILES IDX 9 27 8 28 19 29 20 30 21 31 22 32 23 34 24 35 25 36 86 37
REMARK SMILES IDX 26 38 85 39 27 40 28 41 29 42 79 43 30 44 84 45 78 46 80 47
REMARK SMILES IDX 31 48 83 49 77 50 76 51 32 53 64 54 44 55 63 56 45 57 48 58
REMARK SMILES IDX 62 59 81 60 46 61 47 62 61 64 82 65 49 66 33 67 34 68 42 69
REMARK SMILES IDX 35 70 37 71 43 72 36 73 38 74 39 75 40 76 41 77 65 78 66 79
REMARK SMILES IDX 74 80 67 81 69 82 75 83 68 84 70 85 71 86 72 87 73 88 50 89
REMARK SMILES IDX 51 90 59 91 52 92 54 93 60 94 53 95 55 96 56 97 57 98 58 99
REMARK H PARENT 14 8 1 20 1 21 1 22 21 33 80 52 48 63
REMARK Flexibility Score: inf
ROOT
ATOM      1  C   UNL A   1      36.822  20.524  24.952  1.00  0.00     0.002 C 
ENDROOT
BRANCH   1   2
ATOM      2  C   UNL A   1      36.964  21.929  24.360  1.00  0.00     0.002 C 
BRANCH   2   3
ATOM      3  C   UNL A   1      37.417  23.045  25.305  1.00  0.00     0.021 C 
BRANCH   3   4
ATOM      4  C   UNL A   1      36.341  23.997  25.815  1.00  0.00     0.116 C 
BRANCH   4   5
ATOM      5  N   UNL A   1      35.519  23.483  26.883  1.00  0.00    -0.352 N 
ATOM      6  C   UNL A   1      34.269  22.905  26.858  1.00  0.00     0.254 C 
ATOM      7  O   UNL A   1      33.863  22.468  27.937  1.00  0.00    -0.269 OA
ATOM      8  H   UNL A   1      35.918  23.558  27.780  1.00  0.00     0.163 HD
BRANCH   6   9
ATOM      9  C   UNL A   1      33.427  22.883  25.653  1.00  0.00     0.073 A 
ATOM     10  C   UNL A   1      32.111  23.672  23.927  1.00  0.00     0.086 A 
ATOM     11  C   UNL A   1      32.788  24.049  25.081  1.00  0.00     0.022 A 
ATOM     12  N   UNL A   1      32.337  22.319  23.747  1.00  0.00    -0.314 N 
ATOM     13  C   UNL A   1      32.970  21.813  24.887  1.00  0.00     0.059 A 
ATOM     14  C   UNL A   1      31.996  21.511  22.653  1.00  0.00     0.092 A 
ATOM     15  C   UNL A   1      33.023  20.386  24.988  1.00  0.00     0.027 A 
ATOM     16  C   UNL A   1      32.218  20.189  22.698  1.00  0.00     0.018 A 
ATOM     17  C   UNL A   1      32.710  19.614  23.932  1.00  0.00     0.004 A 
BRANCH  10  18
ATOM     18  C   UNL A   1      31.286  24.477  22.979  1.00  0.00     0.315 C 
BRANCH  18  19
ATOM     19  N   UNL A   1      29.954  24.694  23.532  1.00  0.00    -0.353 N 
ATOM     20  H   UNL A   1      29.627  23.836  23.978  1.00  0.00     0.344 HD
ATOM     21  H   UNL A   1      29.313  24.953  22.783  1.00  0.00     0.344 HD
ATOM     22  H   UNL A   1      29.991  25.444  24.222  1.00  0.00     0.344 HD
ENDBRANCH  18  19
ENDBRANCH  10  18
BRANCH  11  23
ATOM     23  C   UNL A   1      32.790  25.419  25.578  1.00  0.00    -0.016 A 
ATOM     24  C   UNL A   1      31.808  25.854  26.473  1.00  0.00     0.009 A 
ATOM     25  C   UNL A   1      33.758  26.327  25.125  1.00  0.00     0.009 A 
ATOM     26  C   UNL A   1      31.791  27.184  26.904  1.00  0.00     0.001 A 
ATOM     27  C   UNL A   1      33.746  27.651  25.566  1.00  0.00     0.001 A 
ATOM     28  C   UNL A   1      32.760  28.080  26.452  1.00  0.00     0.000 A 
ENDBRANCH  11  23
ENDBRANCH   6   9
ENDBRANCH   4   5
ENDBRANCH   3   4
ENDBRANCH   2   3
ENDBRANCH   1   2
BRANCH   1  29
ATOM     29  C   UNL A   1      38.064  19.631  24.923  1.00  0.00     0.021 C 
BRANCH  29  30
ATOM     30  C   UNL A   1      39.243  20.090  25.773  1.00  0.00     0.116 C 
BRANCH  30  31
ATOM     31  N   UNL A   1      40.278  19.078  25.901  1.00  0.00    -0.352 N 
ATOM     32  C   UNL A   1      41.623  19.226  26.142  1.00  0.00     0.251 C 
ATOM     33  H   UNL A   1      39.971  18.149  25.801  1.00  0.00     0.163 HD
ATOM     34  O   UNL A   1      42.366  18.253  26.076  1.00  0.00    -0.269 OA
BRANCH  32  35
ATOM     35  C   UNL A   1      42.180  20.562  26.456  1.00  0.00     0.039 A 
ATOM     36  C   UNL A   1      42.616  21.372  25.404  1.00  0.00     0.014 A 
ATOM     37  C   UNL A   1      42.279  21.014  27.774  1.00  0.00     0.014 A 
ATOM     38  C   UNL A   1      43.092  22.658  25.669  1.00  0.00     0.010 A 
ATOM     39  C   UNL A   1      42.682  22.323  28.030  1.00  0.00     0.010 A 
ATOM     40  C   UNL A   1      43.096  23.159  26.983  1.00  0.00    -0.014 A 
BRANCH  40  41
ATOM     41  C   UNL A   1      43.509  24.557  27.272  1.00  0.00     0.031 A 
ATOM     42  C   UNL A   1      42.534  25.532  27.875  1.00  0.00     0.074 A 
ATOM     43  C   UNL A   1      44.740  24.974  26.913  1.00  0.00     0.049 A 
ATOM     44  N   UNL A   1      42.698  26.800  28.149  1.00  0.00    -0.248 NA
ATOM     45  C   UNL A   1      41.189  25.022  28.188  1.00  0.00     0.031 C 
ATOM     46  C   UNL A   1      45.752  24.146  26.254  1.00  0.00     0.029 A 
ATOM     47  N   UNL A   1      45.340  26.202  27.028  1.00  0.00    -0.354 N 
ATOM     48  C   UNL A   1      41.474  27.248  28.632  1.00  0.00     0.074 A 
ATOM     49  C   UNL A   1      40.566  26.123  28.582  1.00  0.00     0.031 C 
ATOM     50  C   UNL A   1      46.848  24.888  26.029  1.00  0.00     0.029 A 
ATOM     51  C   UNL A   1      46.606  26.251  26.493  1.00  0.00     0.049 A 
ATOM     52  H   UNL A   1      44.906  26.977  27.454  1.00  0.00     0.167 HD
ATOM     53  C   UNL A   1      41.143  28.475  29.101  1.00  0.00     0.034 A 
ATOM     54  C   UNL A   1      47.471  27.276  26.375  1.00  0.00     0.034 A 
ATOM     55  C   UNL A   1      42.058  29.582  29.176  1.00  0.00     0.049 A 
ATOM     56  C   UNL A   1      47.086  28.625  26.919  1.00  0.00     0.074 A 
ATOM     57  C   UNL A   1      41.844  30.839  29.713  1.00  0.00     0.029 A 
ATOM     58  N   UNL A   1      43.354  29.574  28.686  1.00  0.00    -0.354 N 
ATOM     59  N   UNL A   1      45.977  28.987  27.516  1.00  0.00    -0.248 NA
ATOM     60  C   UNL A   1      48.085  29.698  26.806  1.00  0.00     0.031 C 
ATOM     61  C   UNL A   1      42.999  31.603  29.515  1.00  0.00     0.029 A 
ATOM     62  C   UNL A   1      43.948  30.809  28.891  1.00  0.00     0.049 A 
ATOM     63  H   UNL A   1      43.791  28.803  28.256  1.00  0.00     0.167 HD
ATOM     64  C   UNL A   1      46.156  30.317  27.880  1.00  0.00     0.074 A 
ATOM     65  C   UNL A   1      47.490  30.689  27.455  1.00  0.00     0.031 C 
ATOM     66  C   UNL A   1      45.291  31.156  28.502  1.00  0.00     0.034 A 
BRANCH  53  67
ATOM     67  C   UNL A   1      39.735  28.675  29.603  1.00  0.00     0.023 A 
ATOM     68  C   UNL A   1      39.379  28.214  30.887  1.00  0.00     0.012 A 
ATOM     69  C   UNL A   1      38.780  29.360  28.827  1.00  0.00     0.148 A 
ATOM     70  C   UNL A   1      38.085  28.393  31.375  1.00  0.00     0.002 A 
ATOM     71  C   UNL A   1      37.506  29.578  29.340  1.00  0.00     0.091 A 
ATOM     72  F   UNL A   1      39.128  29.775  27.601  1.00  0.00    -0.205 F 
ATOM     73  C   UNL A   1      37.153  29.082  30.605  1.00  0.00     0.022 A 
BRANCH  71  74
ATOM     74  S   UNL A   1      36.258  30.526  28.463  1.00  0.00     0.127 S 
ATOM     75  O   UNL A   1      35.275  30.768  29.518  1.00  0.00    -0.237 OA
ATOM     76  O   UNL A   1      37.008  31.710  28.044  1.00  0.00    -0.237 OA
ATOM     77  O   UNL A   1      35.803  29.677  27.370  1.00  0.00    -0.744 OA
ENDBRANCH  71  74
ENDBRANCH  53  67
BRANCH  54  78
ATOM     78  C   UNL A   1      48.810  27.053  25.760  1.00  0.00     0.023 A 
ATOM     79  C   UNL A   1      49.843  26.488  26.534  1.00  0.00     0.012 A 
ATOM     80  C   UNL A   1      49.057  27.367  24.409  1.00  0.00     0.148 A 
ATOM     81  C   UNL A   1      51.105  26.268  25.982  1.00  0.00     0.002 A 
ATOM     82  C   UNL A   1      50.299  27.092  23.851  1.00  0.00     0.091 A 
ATOM     83  F   UNL A   1      48.062  27.910  23.693  1.00  0.00    -0.205 F 
ATOM     84  C   UNL A   1      51.331  26.560  24.639  1.00  0.00     0.022 A 
BRANCH  82  85
ATOM     85  S   UNL A   1      50.639  27.313  22.101  1.00  0.00     0.127 S 
ATOM     86  O   UNL A   1      49.568  26.531  21.488  1.00  0.00    -0.237 OA
ATOM     87  O   UNL A   1      50.509  28.762  21.951  1.00  0.00    -0.237 OA
ATOM     88  O   UNL A   1      51.989  26.805  21.892  1.00  0.00    -0.744 OA
ENDBRANCH  82  85
ENDBRANCH  54  78
BRANCH  66  89
ATOM     89  C   UNL A   1      45.765  32.556  28.800  1.00  0.00     0.023 A 
ATOM     90  C   UNL A   1      46.509  32.816  29.967  1.00  0.00     0.012 A 
ATOM     91  C   UNL A   1      45.535  33.599  27.881  1.00  0.00     0.148 A 
ATOM     92  C   UNL A   1      46.986  34.099  30.233  1.00  0.00     0.002 A 
ATOM     93  C   UNL A   1      46.059  34.862  28.126  1.00  0.00     0.091 A 
ATOM     94  F   UNL A   1      44.810  33.336  26.784  1.00  0.00    -0.205 F 
ATOM     95  C   UNL A   1      46.772  35.117  29.307  1.00  0.00     0.022 A 
BRANCH  93  96
ATOM     96  S   UNL A   1      45.920  36.209  26.946  1.00  0.00     0.127 S 
ATOM     97  O   UNL A   1      46.564  35.638  25.765  1.00  0.00    -0.237 OA
ATOM     98  O   UNL A   1      44.470  36.371  26.831  1.00  0.00    -0.237 OA
ATOM     99  O   UNL A   1      46.610  37.343  27.544  1.00  0.00    -0.744 OA
ENDBRANCH  93  96
ENDBRANCH  66  89
ENDBRANCH  40  41
ENDBRANCH  32  35
ENDBRANCH  30  31
ENDBRANCH  29  30
ENDBRANCH   1  29
TORSDOF 19
ENDMDL
MODEL 2
REMARK VINA RESULT:     -11.4      6.057     11.220
REMARK SMILES [NH3+]Cc1c(-c2ccccc2)c(C(=O)NCCCCCCNC(=O)c2ccc(-c3c4nc(c(-c5cccc(S(=O)(=O)[O-])c5F)c5ccc([nH]5)c(-c5cccc(S(=O)(=O)[O-])c5F)c5nc(c(-c6cccc(S(=O)(=O)[O-])c6F)c6ccc3[nH]6)C=C5)C=C4)cc2)c2ccccn12
REMARK SMILES IDX 18 1 17 2 16 3 15 4 14 5 12 6 13 7 11 9 3 10 4 11 92 12
REMARK SMILES IDX 87 13 91 14 88 15 90 16 89 17 2 18 1 19 5 23 6 24 10 25 7 26
REMARK SMILES IDX 9 27 8 28 19 29 20 30 21 31 22 32 23 34 24 35 25 36 86 37
REMARK SMILES IDX 26 38 85 39 27 40 28 41 29 42 79 43 30 44 84 45 78 46 80 47
REMARK SMILES IDX 31 48 83 49 77 50 76 51 32 53 64 54 44 55 63 56 45 57 48 58
REMARK SMILES IDX 62 59 81 60 46 61 47 62 61 64 82 65 49 66 33 67 34 68 42 69
REMARK SMILES IDX 35 70 37 71 43 72 36 73 38 74 39 75 40 76 41 77 65 78 66 79
REMARK SMILES IDX 74 80 67 81 69 82 75 83 68 84 70 85 71 86 72 87 73 88 50 89
REMARK SMILES IDX 51 90 59 91 52 92 54 93 60 94 53 95 55 96 56 97 57 98 58 99
REMARK H PARENT 14 8 1 20 1 21 1 22 21 33 80 52 48 63
REMARK Flexibility Score: inf
ROOT
ATOM      1  C   UNL A   1      30.615  31.426  25.062  1.00  0.00     0.002 C 
ENDROOT
BRANCH   1   2
ATOM      2  C   UNL A   1      30.939  29.990  24.641  1.00  0.00     0.002 C 
BRANCH   2   3
ATOM      3  C   UNL A   1      30.160  29.416  23.454  1.00  0.00     0.021 C 
BRANCH   3   4
ATOM      4  C   UNL A   1      30.649  28.087  22.887  1.00  0.00     0.116 C 
BRANCH   4   5
ATOM      5  N   UNL A   1      32.026  28.071  22.455  1.00  0.00    -0.352 N 
ATOM      6  C   UNL A   1      32.989  27.092  22.559  1.00  0.00     0.254 C 
ATOM      7  O   UNL A   1      34.060  27.337  22.000  1.00  0.00    -0.269 OA
ATOM      8  H   UNL A   1      32.327  28.898  22.014  1.00  0.00     0.163 HD
BRANCH   6   9
ATOM      9  C   UNL A   1      32.799  25.870  23.355  1.00  0.00     0.073 A 
ATOM     10  C   UNL A   1      32.473  24.534  25.210  1.00  0.00     0.086 A 
ATOM     11  C   UNL A   1      32.692  25.844  24.798  1.00  0.00     0.022 A 
ATOM     12  N   UNL A   1      32.409  23.754  24.068  1.00  0.00    -0.314 N 
ATOM     13  C   UNL A   1      32.793  24.531  22.971  1.00  0.00     0.059 A 
ATOM     14  C   UNL A   1      32.057  22.403  23.950  1.00  0.00     0.092 A 
ATOM     15  C   UNL A   1      33.054  23.813  21.761  1.00  0.00     0.027 A 
ATOM     16  C   UNL A   1      32.140  21.789  22.760  1.00  0.00     0.018 A 
ATOM     17  C   UNL A   1      32.700  22.520  21.643  1.00  0.00     0.004 A 
BRANCH  10  18
ATOM     18  C   UNL A   1      32.309  23.962  26.578  1.00  0.00     0.315 C 
BRANCH  18  19
ATOM     19  N   UNL A   1      30.892  23.810  26.893  1.00  0.00    -0.353 N 
ATOM     20  H   UNL A   1      30.635  22.824  26.835  1.00  0.00     0.344 HD
ATOM     21  H   UNL A   1      30.337  24.346  26.226  1.00  0.00     0.344 HD
ATOM     22  H   UNL A   1      30.715  24.153  27.836  1.00  0.00     0.344 HD
ENDBRANCH  18  19
ENDBRANCH  10  18
BRANCH  11  23
ATOM     23  C   UNL A   1      32.800  26.954  25.736  1.00  0.00    -0.016 A 
ATOM     24  C   UNL A   1      33.962  27.730  25.791  1.00  0.00     0.009 A 
ATOM     25  C   UNL A   1      31.750  27.225  26.624  1.00  0.00     0.009 A 
ATOM     26  C   UNL A   1      34.073  28.760  26.729  1.00  0.00     0.001 A 
ATOM     27  C   UNL A   1      31.858  28.263  27.551  1.00  0.00     0.001 A 
ATOM     28  C   UNL A   1      33.022  29.027  27.606  1.00  0.00     0.000 A 
ENDBRANCH  11  23
ENDBRANCH   6   9
ENDBRANCH   4   5
ENDBRANCH   3   4
ENDBRANCH   2   3
ENDBRANCH   1   2
BRANCH   1  29
ATOM     29  C   UNL A   1      31.005  31.837  26.483  1.00  0.00     0.021 C 
BRANCH  29  30
ATOM     30  C   UNL A   1      32.354  32.533  26.636  1.00  0.00     0.116 C 
BRANCH  30  31
ATOM     31  N   UNL A   1      32.248  33.845  27.251  1.00  0.00    -0.352 N 
ATOM     32  C   UNL A   1      32.980  34.393  28.277  1.00  0.00     0.251 C 
ATOM     33  H   UNL A   1      31.549  34.428  26.878  1.00  0.00     0.163 HD
ATOM     34  O   UNL A   1      32.648  35.472  28.755  1.00  0.00    -0.269 OA
BRANCH  32  35
ATOM     35  C   UNL A   1      34.154  33.672  28.821  1.00  0.00     0.039 A 
ATOM     36  C   UNL A   1      35.423  34.236  28.658  1.00  0.00     0.014 A 
ATOM     37  C   UNL A   1      34.012  32.449  29.482  1.00  0.00     0.014 A 
ATOM     38  C   UNL A   1      36.540  33.604  29.212  1.00  0.00     0.010 A 
ATOM     39  C   UNL A   1      35.114  31.862  30.098  1.00  0.00     0.010 A 
ATOM     40  C   UNL A   1      36.391  32.429  29.968  1.00  0.00    -0.014 A 
BRANCH  40  41
ATOM     41  C   UNL A   1      37.553  31.796  30.644  1.00  0.00     0.031 A 
ATOM     42  C   UNL A   1      38.356  30.733  29.946  1.00  0.00     0.074 A 
ATOM     43  C   UNL A   1      37.834  32.119  31.923  1.00  0.00     0.049 A 
ATOM     44  N   UNL A   1      39.367  30.035  30.396  1.00  0.00    -0.248 NA
ATOM     45  C   UNL A   1      37.957  30.389  28.572  1.00  0.00     0.031 C 
ATOM     46  C   UNL A   1      37.084  33.081  32.734  1.00  0.00     0.029 A 
ATOM     47  N   UNL A   1      38.807  31.657  32.772  1.00  0.00    -0.354 N 
ATOM     48  C   UNL A   1      39.702  29.149  29.378  1.00  0.00     0.074 A 
ATOM     49  C   UNL A   1      38.764  29.375  28.300  1.00  0.00     0.031 C 
ATOM     50  C   UNL A   1      37.629  33.141  33.960  1.00  0.00     0.029 A 
ATOM     51  C   UNL A   1      38.741  32.198  34.034  1.00  0.00     0.049 A 
ATOM     52  H   UNL A   1      39.489  30.999  32.503  1.00  0.00     0.167 HD
ATOM     53  C   UNL A   1      40.714  28.249  29.333  1.00  0.00     0.034 A 
ATOM     54  C   UNL A   1      39.480  31.956  35.134  1.00  0.00     0.034 A 
ATOM     55  C   UNL A   1      41.662  28.050  30.396  1.00  0.00     0.049 A 
ATOM     56  C   UNL A   1      40.610  30.966  35.053  1.00  0.00     0.074 A 
ATOM     57  C   UNL A   1      42.773  27.225  30.414  1.00  0.00     0.029 A 
ATOM     58  N   UNL A   1      41.604  28.666  31.636  1.00  0.00    -0.354 N 
ATOM     59  N   UNL A   1      41.009  30.252  34.028  1.00  0.00    -0.248 NA
ATOM     60  C   UNL A   1      41.414  30.773  36.268  1.00  0.00     0.031 C 
ATOM     61  C   UNL A   1      43.365  27.316  31.677  1.00  0.00     0.029 A 
ATOM     62  C   UNL A   1      42.648  28.228  32.434  1.00  0.00     0.049 A 
ATOM     63  H   UNL A   1      40.921  29.321  31.910  1.00  0.00     0.167 HD
ATOM     64  C   UNL A   1      42.128  29.552  34.463  1.00  0.00     0.074 A 
ATOM     65  C   UNL A   1      42.357  29.946  35.838  1.00  0.00     0.031 C 
ATOM     66  C   UNL A   1      42.892  28.658  33.787  1.00  0.00     0.034 A 
BRANCH  53  67
ATOM     67  C   UNL A   1      40.869  27.435  28.074  1.00  0.00     0.023 A 
ATOM     68  C   UNL A   1      41.487  28.007  26.942  1.00  0.00     0.012 A 
ATOM     69  C   UNL A   1      40.450  26.091  28.024  1.00  0.00     0.148 A 
ATOM     70  C   UNL A   1      41.645  27.270  25.769  1.00  0.00     0.002 A 
ATOM     71  C   UNL A   1      40.657  25.348  26.868  1.00  0.00     0.091 A 
ATOM     72  F   UNL A   1      39.848  25.568  29.102  1.00  0.00    -0.205 F 
ATOM     73  C   UNL A   1      41.240  25.939  25.735  1.00  0.00     0.022 A 
BRANCH  71  74
ATOM     74  S   UNL A   1      40.245  23.603  26.750  1.00  0.00     0.127 S 
ATOM     75  O   UNL A   1      38.858  23.658  26.290  1.00  0.00    -0.237 OA
ATOM     76  O   UNL A   1      41.201  23.129  25.749  1.00  0.00    -0.237 OA
ATOM     77  O   UNL A   1      40.439  23.054  28.084  1.00  0.00    -0.744 OA
ENDBRANCH  71  74
ENDBRANCH  53  67
BRANCH  54  78
ATOM     78  C   UNL A   1      39.209  32.705  36.393  1.00  0.00     0.023 A 
ATOM     79  C   UNL A   1      39.793  33.972  36.586  1.00  0.00     0.012 A 
ATOM     80  C   UNL A   1      38.353  32.186  37.384  1.00  0.00     0.148 A 
ATOM     81  C   UNL A   1      39.555  34.695  37.756  1.00  0.00     0.002 A 
ATOM     82  C   UNL A   1      38.074  32.935  38.520  1.00  0.00     0.091 A 
ATOM     83  F   UNL A   1      37.813  30.975  37.183  1.00  0.00    -0.205 F 
ATOM     84  C   UNL A   1      38.688  34.181  38.718  1.00  0.00     0.022 A 
BRANCH  82  85
ATOM     85  S   UNL A   1      36.871  32.414  39.747  1.00  0.00     0.127 S 
ATOM     86  O   UNL A   1      37.393  31.108  40.143  1.00  0.00    -0.237 OA
ATOM     87  O   UNL A   1      37.000  33.463  40.758  1.00  0.00    -0.237 OA
ATOM     88  O   UNL A   1      35.586  32.397  39.060  1.00  0.00    -0.744 OA
ENDBRANCH  82  85
ENDBRANCH  54  78
BRANCH  66  89
ATOM     89  C   UNL A   1      44.076  28.064  34.506  1.00  0.00     0.023 A 
ATOM     90  C   UNL A   1      45.298  28.764  34.552  1.00  0.00     0.012 A 
ATOM     91  C   UNL A   1      43.952  26.844  35.201  1.00  0.00     0.148 A 
ATOM     92  C   UNL A   1      46.388  28.242  35.248  1.00  0.00     0.002 A 
ATOM     93  C   UNL A   1      45.026  26.357  35.936  1.00  0.00     0.091 A 
ATOM     94  F   UNL A   1      42.787  26.185  35.131  1.00  0.00    -0.205 F 
ATOM     95  C   UNL A   1      46.248  27.047  35.949  1.00  0.00     0.022 A 
BRANCH  93  96
ATOM     96  S   UNL A   1      44.909  24.879  36.950  1.00  0.00     0.127 S 
ATOM     97  O   UNL A   1      43.797  25.215  37.838  1.00  0.00    -0.237 OA
ATOM     98  O   UNL A   1      44.606  23.847  35.958  1.00  0.00    -0.237 OA
ATOM     99  O   UNL A   1      46.203  24.732  37.601  1.00  0.00    -0.744 OA
ENDBRANCH  93  96
ENDBRANCH  66  89
ENDBRANCH  40  41
ENDBRANCH  32  35
ENDBRANCH  30  31
ENDBRANCH  29  30
ENDBRANCH   1  29
TORSDOF 19
ENDMDL
MODEL 3
REMARK VINA RESULT:     -11.4      5.432      8.797
REMARK SMILES [NH3+]Cc1c(-c2ccccc2)c(C(=O)NCCCCCCNC(=O)c2ccc(-c3c4nc(c(-c5cccc(S(=O)(=O)[O-])c5F)c5ccc([nH]5)c(-c5cccc(S(=O)(=O)[O-])c5F)c5nc(c(-c6cccc(S(=O)(=O)[O-])c6F)c6ccc3[nH]6)C=C5)C=C4)cc2)c2ccccn12
REMARK SMILES IDX 18 1 17 2 16 3 15 4 14 5 12 6 13 7 11 9 3 10 4 11 92 12
REMARK SMILES IDX 87 13 91 14 88 15 90 16 89 17 2 18 1 19 5 23 6 24 10 25 7 26
REMARK SMILES IDX 9 27 8 28 19 29 20 30 21 31 22 32 23 34 24 35 25 36 86 37
REMARK SMILES IDX 26 38 85 39 27 40 28 41 29 42 79 43 30 44 84 45 78 46 80 47
REMARK SMILES IDX 31 48 83 49 77 50 76 51 32 53 64 54 44 55 63 56 45 57 48 58
REMARK SMILES IDX 62 59 81 60 46 61 47 62 61 64 82 65 49 66 33 67 34 68 42 69
REMARK SMILES IDX 35 70 37 71 43 72 36 73 38 74 39 75 40 76 41 77 65 78 66 79
REMARK SMILES IDX 74 80 67 81 69 82 75 83 68 84 70 85 71 86 72 87 73 88 50 89
REMARK SMILES IDX 51 90 59 91 52 92 54 93 60 94 53 95 55 96 56 97 57 98 58 99
REMARK H PARENT 14 8 1 20 1 21 1 22 21 33 80 52 48 63
REMARK Flexibility Score: inf
ROOT
ATOM      1  C   UNL A   1      31.861  27.863  27.149  1.00  0.00     0.002 C 
ENDROOT
BRANCH   1   2
ATOM      2  C   UNL A   1      31.130  26.708  26.460  1.00  0.00     0.002 C 
BRANCH   2   3
ATOM      3  C   UNL A   1      31.613  25.289  26.772  1.00  0.00     0.021 C 
BRANCH   3   4
ATOM      4  C   UNL A   1      30.684  24.143  26.385  1.00  0.00     0.116 C 
BRANCH   4   5
ATOM      5  N   UNL A   1      30.340  24.075  24.985  1.00  0.00    -0.352 N 
ATOM      6  C   UNL A   1      31.029  23.550  23.915  1.00  0.00     0.254 C 
ATOM      7  O   UNL A   1      30.425  23.551  22.840  1.00  0.00    -0.269 OA
ATOM      8  H   UNL A   1      29.468  24.472  24.757  1.00  0.00     0.163 HD
BRANCH   6   9
ATOM      9  C   UNL A   1      32.424  23.095  24.012  1.00  0.00     0.073 A 
ATOM     10  C   UNL A   1      34.731  23.204  24.040  1.00  0.00     0.086 A 
ATOM     11  C   UNL A   1      33.577  23.952  23.834  1.00  0.00     0.022 A 
ATOM     12  N   UNL A   1      34.330  21.922  24.371  1.00  0.00    -0.314 N 
ATOM     13  C   UNL A   1      32.951  21.815  24.168  1.00  0.00     0.059 A 
ATOM     14  C   UNL A   1      35.112  20.847  24.814  1.00  0.00     0.092 A 
ATOM     15  C   UNL A   1      32.419  20.486  24.191  1.00  0.00     0.027 A 
ATOM     16  C   UNL A   1      34.555  19.641  25.001  1.00  0.00     0.018 A 
ATOM     17  C   UNL A   1      33.167  19.458  24.632  1.00  0.00     0.004 A 
BRANCH  10  18
ATOM     18  C   UNL A   1      36.168  23.597  23.963  1.00  0.00     0.315 C 
BRANCH  18  19
ATOM     19  N   UNL A   1      36.809  22.942  22.828  1.00  0.00    -0.353 N 
ATOM     20  H   UNL A   1      36.407  23.297  21.960  1.00  0.00     0.344 HD
ATOM     21  H   UNL A   1      36.656  21.935  22.886  1.00  0.00     0.344 HD
ATOM     22  H   UNL A   1      37.810  23.135  22.845  1.00  0.00     0.344 HD
ENDBRANCH  18  19
ENDBRANCH  10  18
BRANCH  11  23
ATOM     23  C   UNL A   1      33.610  25.365  23.482  1.00  0.00    -0.016 A 
ATOM     24  C   UNL A   1      33.339  25.781  22.174  1.00  0.00     0.009 A 
ATOM     25  C   UNL A   1      33.959  26.320  24.448  1.00  0.00     0.009 A 
ATOM     26  C   UNL A   1      33.423  27.135  21.837  1.00  0.00     0.001 A 
ATOM     27  C   UNL A   1      34.030  27.673  24.111  1.00  0.00     0.001 A 
ATOM     28  C   UNL A   1      33.766  28.079  22.805  1.00  0.00     0.000 A 
ENDBRANCH  11  23
ENDBRANCH   6   9
ENDBRANCH   4   5
ENDBRANCH   3   4
ENDBRANCH   2   3
ENDBRANCH   1   2
BRANCH   1  29
ATOM     29  C   UNL A   1      31.432  29.281  26.767  1.00  0.00     0.021 C 
BRANCH  29  30
ATOM     30  C   UNL A   1      32.493  30.150  26.102  1.00  0.00     0.116 C 
BRANCH  30  31
ATOM     31  N   UNL A   1      32.379  31.555  26.455  1.00  0.00    -0.352 N 
ATOM     32  C   UNL A   1      33.145  32.308  27.312  1.00  0.00     0.251 C 
ATOM     33  H   UNL A   1      31.644  32.040  26.015  1.00  0.00     0.163 HD
ATOM     34  O   UNL A   1      32.805  33.453  27.590  1.00  0.00    -0.269 OA
BRANCH  32  35
ATOM     35  C   UNL A   1      34.367  31.731  27.920  1.00  0.00     0.039 A 
ATOM     36  C   UNL A   1      35.488  32.551  28.079  1.00  0.00     0.014 A 
ATOM     37  C   UNL A   1      34.414  30.395  28.325  1.00  0.00     0.014 A 
ATOM     38  C   UNL A   1      36.634  32.047  28.701  1.00  0.00     0.010 A 
ATOM     39  C   UNL A   1      35.527  29.918  29.013  1.00  0.00     0.010 A 
ATOM     40  C   UNL A   1      36.651  30.735  29.206  1.00  0.00    -0.014 A 
BRANCH  40  41
ATOM     41  C   UNL A   1      37.824  30.214  29.955  1.00  0.00     0.031 A 
ATOM     42  C   UNL A   1      38.105  30.682  31.357  1.00  0.00     0.074 A 
ATOM     43  C   UNL A   1      38.686  29.379  29.340  1.00  0.00     0.049 A 
ATOM     44  N   UNL A   1      39.105  30.378  32.142  1.00  0.00    -0.248 NA
ATOM     45  C   UNL A   1      37.152  31.638  31.944  1.00  0.00     0.031 C 
ATOM     46  C   UNL A   1      38.565  28.909  27.958  1.00  0.00     0.029 A 
ATOM     47  N   UNL A   1      39.847  28.800  29.786  1.00  0.00    -0.354 N 
ATOM     48  C   UNL A   1      38.923  31.127  33.299  1.00  0.00     0.074 A 
ATOM     49  C   UNL A   1      37.733  31.926  33.098  1.00  0.00     0.031 C 
ATOM     50  C   UNL A   1      39.605  28.110  27.673  1.00  0.00     0.029 A 
ATOM     51  C   UNL A   1      40.485  28.039  28.835  1.00  0.00     0.049 A 
ATOM     52  H   UNL A   1      40.191  28.918  30.701  1.00  0.00     0.167 HD
ATOM     53  C   UNL A   1      39.661  31.129  34.436  1.00  0.00     0.034 A 
ATOM     54  C   UNL A   1      41.653  27.369  28.886  1.00  0.00     0.034 A 
ATOM     55  C   UNL A   1      40.825  30.310  34.641  1.00  0.00     0.049 A 
ATOM     56  C   UNL A   1      42.445  27.372  30.165  1.00  0.00     0.074 A 
ATOM     57  C   UNL A   1      41.591  30.177  35.786  1.00  0.00     0.029 A 
ATOM     58  N   UNL A   1      41.404  29.499  33.678  1.00  0.00    -0.354 N 
ATOM     59  N   UNL A   1      42.171  27.964  31.302  1.00  0.00    -0.248 NA
ATOM     60  C   UNL A   1      43.689  26.588  30.180  1.00  0.00     0.031 C 
ATOM     61  C   UNL A   1      42.654  29.313  35.503  1.00  0.00     0.029 A 
ATOM     62  C   UNL A   1      42.527  28.875  34.195  1.00  0.00     0.049 A 
ATOM     63  H   UNL A   1      41.065  29.382  32.761  1.00  0.00     0.167 HD
ATOM     64  C   UNL A   1      43.187  27.597  32.177  1.00  0.00     0.074 A 
ATOM     65  C   UNL A   1      44.070  26.714  31.443  1.00  0.00     0.031 C 
ATOM     66  C   UNL A   1      43.376  27.965  33.469  1.00  0.00     0.034 A 
BRANCH  53  67
ATOM     67  C   UNL A   1      39.207  32.024  35.561  1.00  0.00     0.023 A 
ATOM     68  C   UNL A   1      38.277  31.543  36.506  1.00  0.00     0.012 A 
ATOM     69  C   UNL A   1      39.736  33.320  35.714  1.00  0.00     0.148 A 
ATOM     70  C   UNL A   1      37.847  32.351  37.558  1.00  0.00     0.002 A 
ATOM     71  C   UNL A   1      39.341  34.102  36.794  1.00  0.00     0.091 A 
ATOM     72  F   UNL A   1      40.605  33.770  34.798  1.00  0.00    -0.205 F 
ATOM     73  C   UNL A   1      38.386  33.625  37.707  1.00  0.00     0.022 A 
BRANCH  71  74
ATOM     74  S   UNL A   1      40.036  35.725  37.122  1.00  0.00     0.127 S 
ATOM     75  O   UNL A   1      39.657  36.458  35.914  1.00  0.00    -0.237 OA
ATOM     76  O   UNL A   1      39.317  36.129  38.331  1.00  0.00    -0.237 OA
ATOM     77  O   UNL A   1      41.466  35.520  37.305  1.00  0.00    -0.744 OA
ENDBRANCH  71  74
ENDBRANCH  53  67
BRANCH  54  78
ATOM     78  C   UNL A   1      42.117  26.594  27.701  1.00  0.00     0.023 A 
ATOM     79  C   UNL A   1      42.860  27.243  26.695  1.00  0.00     0.012 A 
ATOM     80  C   UNL A   1      41.856  25.215  27.580  1.00  0.00     0.148 A 
ATOM     81  C   UNL A   1      43.307  26.540  25.575  1.00  0.00     0.002 A 
ATOM     82  C   UNL A   1      42.353  24.509  26.491  1.00  0.00     0.091 A 
ATOM     83  F   UNL A   1      41.142  24.619  28.545  1.00  0.00    -0.205 F 
ATOM     84  C   UNL A   1      43.062  25.172  25.478  1.00  0.00     0.022 A 
BRANCH  82  85
ATOM     85  S   UNL A   1      42.200  22.725  26.348  1.00  0.00     0.127 S 
ATOM     86  O   UNL A   1      43.071  22.264  27.426  1.00  0.00    -0.237 OA
ATOM     87  O   UNL A   1      40.770  22.527  26.582  1.00  0.00    -0.237 OA
ATOM     88  O   UNL A   1      42.640  22.397  24.998  1.00  0.00    -0.744 OA
ENDBRANCH  82  85
ENDBRANCH  54  78
BRANCH  66  89
ATOM     89  C   UNL A   1      44.564  27.388  34.195  1.00  0.00     0.023 A 
ATOM     90  C   UNL A   1      45.799  28.065  34.178  1.00  0.00     0.012 A 
ATOM     91  C   UNL A   1      44.433  26.209  34.956  1.00  0.00     0.148 A 
ATOM     92  C   UNL A   1      46.895  27.561  34.878  1.00  0.00     0.002 A 
ATOM     93  C   UNL A   1      45.514  25.741  35.694  1.00  0.00     0.091 A 
ATOM     94  F   UNL A   1      43.255  25.569  34.946  1.00  0.00    -0.205 F 
ATOM     95  C   UNL A   1      46.748  26.408  35.645  1.00  0.00     0.022 A 
BRANCH  93  96
ATOM     96  S   UNL A   1      45.392  24.322  36.789  1.00  0.00     0.127 S 
ATOM     97  O   UNL A   1      44.335  24.744  37.706  1.00  0.00    -0.237 OA
ATOM     98  O   UNL A   1      45.007  23.253  35.866  1.00  0.00    -0.237 OA
ATOM     99  O   UNL A   1      46.708  24.160  37.388  1.00  0.00    -0.744 OA
ENDBRANCH  93  96
ENDBRANCH  66  89
ENDBRANCH  40  41
ENDBRANCH  32  35
ENDBRANCH  30  31
ENDBRANCH  29  30
ENDBRANCH   1  29
TORSDOF 19
ENDMDL
