MODEL 1
REMARK VINA RESULT:     -11.6      0.000      0.000
REMARK SMILES C[C@@H](C(=O)NCCCCCCNC(=O)c1ccc(-c2c3nc(c(-c4cccc(S(=O)(=O)[O-])c4F)c4ccc([nH]4)c(-c4cccc(S(=O)(=O)[O-])c4F)c4nc(c(-c5cccc(S(=O)(=O)[O-])c5F)c5ccc2[nH]5)C=C4)C=C3)cc1)c1ccc(O[C@H]2CCCC2=O)cc1F
REMARK SMILES IDX 8 1 7 2 6 3 5 4 3 5 4 6 2 8 1 9 78 10 79 11 90 12 80 13
REMARK SMILES IDX 89 14 91 15 81 16 82 17 83 18 84 19 87 20 85 21 86 22 88 23
REMARK SMILES IDX 9 24 10 25 11 26 12 27 13 28 14 30 15 31 16 32 77 33 17 34
REMARK SMILES IDX 76 35 18 36 19 37 20 38 70 39 21 40 75 41 69 42 71 43 22 44
REMARK SMILES IDX 74 45 68 46 67 47 23 49 55 50 35 51 54 52 36 53 39 54 53 55
REMARK SMILES IDX 72 56 37 57 38 58 52 60 73 61 40 62 24 63 25 64 33 65 26 66
REMARK SMILES IDX 28 67 34 68 27 69 29 70 30 71 31 72 32 73 56 74 57 75 65 76
REMARK SMILES IDX 58 77 60 78 66 79 59 80 61 81 62 82 63 83 64 84 41 85 42 86
REMARK SMILES IDX 50 87 43 88 45 89 51 90 44 91 46 92 47 93 48 94 49 95
REMARK H PARENT 5 7 12 29 71 48 39 59
REMARK Flexibility Score: inf
ROOT
ATOM      1  C   UNL A   1      37.293  21.882  24.417  1.00  0.00     0.002 C 
ENDROOT
BRANCH   1   2
ATOM      2  C   UNL A   1      37.290  23.024  25.437  1.00  0.00     0.021 C 
BRANCH   2   3
ATOM      3  C   UNL A   1      35.937  23.732  25.584  1.00  0.00     0.116 C 
BRANCH   3   4
ATOM      4  N   UNL A   1      35.508  24.273  24.306  1.00  0.00    -0.356 N 
ATOM      5  C   UNL A   1      34.287  24.211  23.693  1.00  0.00     0.227 C 
ATOM      6  O   UNL A   1      34.239  24.558  22.512  1.00  0.00    -0.274 OA
ATOM      7  H   UNL A   1      36.203  24.758  23.804  1.00  0.00     0.163 HD
BRANCH   5   8
ATOM      8  C   UNL A   1      33.047  23.767  24.496  1.00  0.00     0.108 C 
ATOM      9  C   UNL A   1      33.150  24.312  25.927  1.00  0.00     0.023 C 
BRANCH   8  10
ATOM     10  C   UNL A   1      32.798  22.257  24.418  1.00  0.00     0.000 A 
ATOM     11  C   UNL A   1      32.978  21.450  25.555  1.00  0.00     0.011 A 
ATOM     12  C   UNL A   1      32.432  21.599  23.241  1.00  0.00     0.130 A 
ATOM     13  C   UNL A   1      32.731  20.069  25.512  1.00  0.00     0.047 A 
ATOM     14  C   UNL A   1      32.212  20.224  23.189  1.00  0.00     0.086 A 
ATOM     15  F   UNL A   1      32.272  22.260  22.086  1.00  0.00    -0.207 F 
ATOM     16  C   UNL A   1      32.327  19.448  24.329  1.00  0.00     0.123 A 
BRANCH  16  17
ATOM     17  O   UNL A   1      32.089  18.111  24.425  1.00  0.00    -0.483 OA
BRANCH  17  18
ATOM     18  C   UNL A   1      33.104  17.162  24.180  1.00  0.00     0.239 C 
ATOM     19  C   UNL A   1      34.505  17.762  23.982  1.00  0.00     0.054 C 
ATOM     20  C   UNL A   1      33.349  15.958  25.085  1.00  0.00     0.173 C 
ATOM     21  C   UNL A   1      35.437  17.070  24.977  1.00  0.00     0.012 C 
ATOM     22  C   UNL A   1      34.818  15.720  25.308  1.00  0.00     0.080 C 
ATOM     23  O   UNL A   1      32.473  15.233  25.541  1.00  0.00    -0.296 OA
ENDBRANCH  17  18
ENDBRANCH  16  17
ENDBRANCH   8  10
ENDBRANCH   5   8
ENDBRANCH   3   4
ENDBRANCH   2   3
ENDBRANCH   1   2
BRANCH   1  24
ATOM     24  C   UNL A   1      37.041  20.492  25.006  1.00  0.00     0.002 C 
BRANCH  24  25
ATOM     25  C   UNL A   1      38.263  19.569  25.040  1.00  0.00     0.021 C 
BRANCH  25  26
ATOM     26  C   UNL A   1      39.401  20.039  25.943  1.00  0.00     0.116 C 
BRANCH  26  27
ATOM     27  N   UNL A   1      40.478  19.064  26.015  1.00  0.00    -0.352 N 
ATOM     28  C   UNL A   1      41.832  19.259  26.116  1.00  0.00     0.251 C 
ATOM     29  H   UNL A   1      40.193  18.123  25.988  1.00  0.00     0.163 HD
ATOM     30  O   UNL A   1      42.592  18.305  25.963  1.00  0.00    -0.269 OA
BRANCH  28  31
ATOM     31  C   UNL A   1      42.383  20.605  26.395  1.00  0.00     0.039 A 
ATOM     32  C   UNL A   1      42.840  21.375  25.322  1.00  0.00     0.014 A 
ATOM     33  C   UNL A   1      42.489  21.095  27.700  1.00  0.00     0.014 A 
ATOM     34  C   UNL A   1      43.359  22.650  25.552  1.00  0.00     0.010 A 
ATOM     35  C   UNL A   1      42.949  22.394  27.923  1.00  0.00     0.010 A 
ATOM     36  C   UNL A   1      43.397  23.182  26.853  1.00  0.00    -0.014 A 
BRANCH  36  37
ATOM     37  C   UNL A   1      43.881  24.567  27.089  1.00  0.00     0.031 A 
ATOM     38  C   UNL A   1      42.947  25.639  27.582  1.00  0.00     0.074 A 
ATOM     39  C   UNL A   1      45.164  24.872  26.808  1.00  0.00     0.049 A 
ATOM     40  N   UNL A   1      43.205  26.892  27.859  1.00  0.00    -0.248 NA
ATOM     41  C   UNL A   1      41.535  25.265  27.772  1.00  0.00     0.031 C 
ATOM     42  C   UNL A   1      46.144  23.949  26.231  1.00  0.00     0.029 A 
ATOM     43  N   UNL A   1      45.858  26.048  26.948  1.00  0.00    -0.354 N 
ATOM     44  C   UNL A   1      41.994  27.458  28.239  1.00  0.00     0.074 A 
ATOM     45  C   UNL A   1      40.990  26.423  28.115  1.00  0.00     0.031 C 
ATOM     46  C   UNL A   1      47.312  24.592  26.072  1.00  0.00     0.029 A 
ATOM     47  C   UNL A   1      47.161  25.973  26.517  1.00  0.00     0.049 A 
ATOM     48  H   UNL A   1      45.460  26.867  27.321  1.00  0.00     0.167 HD
ATOM     49  C   UNL A   1      41.745  28.712  28.687  1.00  0.00     0.034 A 
ATOM     50  C   UNL A   1      48.130  26.909  26.488  1.00  0.00     0.034 A 
ATOM     51  C   UNL A   1      42.751  29.731  28.841  1.00  0.00     0.049 A 
ATOM     52  C   UNL A   1      47.842  28.275  27.047  1.00  0.00     0.074 A 
ATOM     53  C   UNL A   1      42.609  31.011  29.346  1.00  0.00     0.029 A 
ATOM     54  N   UNL A   1      44.084  29.587  28.492  1.00  0.00    -0.354 N 
ATOM     55  N   UNL A   1      46.727  28.740  27.558  1.00  0.00    -0.248 NA
ATOM     56  C   UNL A   1      48.957  29.232  27.072  1.00  0.00     0.031 C 
ATOM     57  C   UNL A   1      43.855  31.645  29.295  1.00  0.00     0.029 A 
ATOM     58  C   UNL A   1      44.777  30.751  28.773  1.00  0.00     0.049 A 
ATOM     59  H   UNL A   1      44.480  28.774  28.101  1.00  0.00     0.167 HD
ATOM     60  C   UNL A   1      47.012  30.030  27.986  1.00  0.00     0.074 A 
ATOM     61  C   UNL A   1      48.415  30.262  27.709  1.00  0.00     0.031 C 
ATOM     62  C   UNL A   1      46.183  30.951  28.537  1.00  0.00     0.034 A 
BRANCH  49  63
ATOM     63  C   UNL A   1      40.338  29.034  29.121  1.00  0.00     0.023 A 
ATOM     64  C   UNL A   1      39.385  29.393  28.145  1.00  0.00     0.012 A 
ATOM     65  C   UNL A   1      39.936  28.912  30.466  1.00  0.00     0.148 A 
ATOM     66  C   UNL A   1      38.064  29.653  28.501  1.00  0.00     0.002 A 
ATOM     67  C   UNL A   1      38.606  29.135  30.809  1.00  0.00     0.091 A 
ATOM     68  F   UNL A   1      40.858  28.588  31.382  1.00  0.00    -0.205 F 
ATOM     69  C   UNL A   1      37.672  29.515  29.830  1.00  0.00     0.022 A 
BRANCH  67  70
ATOM     70  S   UNL A   1      37.981  28.911  32.478  1.00  0.00     0.127 S 
ATOM     71  O   UNL A   1      38.190  27.477  32.680  1.00  0.00    -0.237 OA
ATOM     72  O   UNL A   1      38.874  29.771  33.258  1.00  0.00    -0.237 OA
ATOM     73  O   UNL A   1      36.593  29.341  32.449  1.00  0.00    -0.744 OA
ENDBRANCH  67  70
ENDBRANCH  49  63
BRANCH  50  74
ATOM     74  C   UNL A   1      49.485  26.562  25.972  1.00  0.00     0.023 A 
ATOM     75  C   UNL A   1      50.331  25.739  26.739  1.00  0.00     0.012 A 
ATOM     76  C   UNL A   1      49.927  27.020  24.716  1.00  0.00     0.148 A 
ATOM     77  C   UNL A   1      51.609  25.410  26.281  1.00  0.00     0.002 A 
ATOM     78  C   UNL A   1      51.176  26.641  24.240  1.00  0.00     0.091 A 
ATOM     79  F   UNL A   1      49.114  27.816  24.006  1.00  0.00    -0.205 F 
ATOM     80  C   UNL A   1      52.027  25.851  25.028  1.00  0.00     0.022 A 
BRANCH  78  81
ATOM     81  S   UNL A   1      51.725  27.049  22.579  1.00  0.00     0.127 S 
ATOM     82  O   UNL A   1      52.041  28.468  22.708  1.00  0.00    -0.237 OA
ATOM     83  O   UNL A   1      52.885  26.171  22.413  1.00  0.00    -0.237 OA
ATOM     84  O   UNL A   1      50.601  26.718  21.712  1.00  0.00    -0.744 OA
ENDBRANCH  78  81
ENDBRANCH  50  74
BRANCH  62  85
ATOM     85  C   UNL A   1      46.776  32.290  28.893  1.00  0.00     0.023 A 
ATOM     86  C   UNL A   1      47.358  32.478  30.163  1.00  0.00     0.012 A 
ATOM     87  C   UNL A   1      46.802  33.343  27.958  1.00  0.00     0.148 A 
ATOM     88  C   UNL A   1      47.920  33.705  30.511  1.00  0.00     0.002 A 
ATOM     89  C   UNL A   1      47.405  34.550  28.297  1.00  0.00     0.091 A 
ATOM     90  F   UNL A   1      46.226  33.154  26.762  1.00  0.00    -0.205 F 
ATOM     91  C   UNL A   1      47.953  34.737  29.576  1.00  0.00     0.022 A 
BRANCH  89  92
ATOM     92  S   UNL A   1      47.572  35.899  27.122  1.00  0.00     0.127 S 
ATOM     93  O   UNL A   1      48.310  36.887  27.906  1.00  0.00    -0.237 OA
ATOM     94  O   UNL A   1      48.340  35.281  26.040  1.00  0.00    -0.237 OA
ATOM     95  O   UNL A   1      46.213  36.274  26.754  1.00  0.00    -0.744 OA
ENDBRANCH  89  92
ENDBRANCH  62  85
ENDBRANCH  36  37
ENDBRANCH  28  31
ENDBRANCH  26  27
ENDBRANCH  25  26
ENDBRANCH  24  25
ENDBRANCH   1  24
TORSDOF 19
ENDMDL
MODEL 2
REMARK VINA RESULT:     -11.6      2.447      8.112
REMARK SMILES C[C@@H](C(=O)NCCCCCCNC(=O)c1ccc(-c2c3nc(c(-c4cccc(S(=O)(=O)[O-])c4F)c4ccc([nH]4)c(-c4cccc(S(=O)(=O)[O-])c4F)c4nc(c(-c5cccc(S(=O)(=O)[O-])c5F)c5ccc2[nH]5)C=C4)C=C3)cc1)c1ccc(O[C@H]2CCCC2=O)cc1F
REMARK SMILES IDX 8 1 7 2 6 3 5 4 3 5 4 6 2 8 1 9 78 10 79 11 90 12 80 13
REMARK SMILES IDX 89 14 91 15 81 16 82 17 83 18 84 19 87 20 85 21 86 22 88 23
REMARK SMILES IDX 9 24 10 25 11 26 12 27 13 28 14 30 15 31 16 32 77 33 17 34
REMARK SMILES IDX 76 35 18 36 19 37 20 38 70 39 21 40 75 41 69 42 71 43 22 44
REMARK SMILES IDX 74 45 68 46 67 47 23 49 55 50 35 51 54 52 36 53 39 54 53 55
REMARK SMILES IDX 72 56 37 57 38 58 52 60 73 61 40 62 24 63 25 64 33 65 26 66
REMARK SMILES IDX 28 67 34 68 27 69 29 70 30 71 31 72 32 73 56 74 57 75 65 76
REMARK SMILES IDX 58 77 60 78 66 79 59 80 61 81 62 82 63 83 64 84 41 85 42 86
REMARK SMILES IDX 50 87 43 88 45 89 51 90 44 91 46 92 47 93 48 94 49 95
REMARK H PARENT 5 7 12 29 71 48 39 59
REMARK Flexibility Score: inf
ROOT
ATOM      1  C   UNL A   1      35.042  23.047  25.511  1.00  0.00     0.002 C 
ENDROOT
BRANCH   1   2
ATOM      2  C   UNL A   1      35.544  24.416  25.042  1.00  0.00     0.021 C 
BRANCH   2   3
ATOM      3  C   UNL A   1      34.431  25.434  24.768  1.00  0.00     0.116 C 
BRANCH   3   4
ATOM      4  N   UNL A   1      33.488  25.462  25.873  1.00  0.00    -0.356 N 
ATOM      5  C   UNL A   1      32.125  25.363  25.864  1.00  0.00     0.227 C 
ATOM      6  O   UNL A   1      31.539  25.638  26.914  1.00  0.00    -0.274 OA
ATOM      7  H   UNL A   1      33.893  25.570  26.764  1.00  0.00     0.163 HD
BRANCH   5   8
ATOM      8  C   UNL A   1      31.398  24.880  24.592  1.00  0.00     0.108 C 
ATOM      9  C   UNL A   1      29.913  25.256  24.686  1.00  0.00     0.023 C 
BRANCH   8  10
ATOM     10  C   UNL A   1      31.650  23.399  24.291  1.00  0.00     0.000 A 
ATOM     11  C   UNL A   1      31.991  22.987  22.990  1.00  0.00     0.011 A 
ATOM     12  C   UNL A   1      31.516  22.387  25.247  1.00  0.00     0.130 A 
ATOM     13  C   UNL A   1      32.250  21.640  22.699  1.00  0.00     0.047 A 
ATOM     14  C   UNL A   1      31.748  21.045  24.953  1.00  0.00     0.086 A 
ATOM     15  F   UNL A   1      31.156  22.655  26.509  1.00  0.00    -0.207 F 
ATOM     16  C   UNL A   1      32.149  20.659  23.687  1.00  0.00     0.123 A 
BRANCH  16  17
ATOM     17  O   UNL A   1      32.456  19.394  23.285  1.00  0.00    -0.483 OA
BRANCH  17  18
ATOM     18  C   UNL A   1      33.286  18.556  24.059  1.00  0.00     0.239 C 
ATOM     19  C   UNL A   1      32.809  18.340  25.503  1.00  0.00     0.054 C 
ATOM     20  C   UNL A   1      33.711  17.162  23.604  1.00  0.00     0.173 C 
ATOM     21  C   UNL A   1      32.713  16.832  25.726  1.00  0.00     0.012 C 
ATOM     22  C   UNL A   1      33.658  16.169  24.733  1.00  0.00     0.080 C 
ATOM     23  O   UNL A   1      34.097  16.879  22.476  1.00  0.00    -0.296 OA
ENDBRANCH  17  18
ENDBRANCH  16  17
ENDBRANCH   8  10
ENDBRANCH   5   8
ENDBRANCH   3   4
ENDBRANCH   2   3
ENDBRANCH   1   2
BRANCH   1  24
ATOM     24  C   UNL A   1      35.389  21.880  24.583  1.00  0.00     0.002 C 
BRANCH  24  25
ATOM     25  C   UNL A   1      36.487  20.945  25.099  1.00  0.00     0.021 C 
BRANCH  25  26
ATOM     26  C   UNL A   1      37.810  21.628  25.438  1.00  0.00     0.116 C 
BRANCH  26  27
ATOM     27  N   UNL A   1      38.802  20.685  25.928  1.00  0.00    -0.352 N 
ATOM     28  C   UNL A   1      40.032  20.917  26.489  1.00  0.00     0.251 C 
ATOM     29  H   UNL A   1      38.553  19.736  25.846  1.00  0.00     0.163 HD
ATOM     30  O   UNL A   1      40.805  19.976  26.656  1.00  0.00    -0.269 OA
BRANCH  28  31
ATOM     31  C   UNL A   1      40.437  22.285  26.881  1.00  0.00     0.039 A 
ATOM     32  C   UNL A   1      41.288  22.441  27.978  1.00  0.00     0.014 A 
ATOM     33  C   UNL A   1      39.957  23.412  26.206  1.00  0.00     0.014 A 
ATOM     34  C   UNL A   1      41.693  23.719  28.368  1.00  0.00     0.010 A 
ATOM     35  C   UNL A   1      40.413  24.683  26.556  1.00  0.00     0.010 A 
ATOM     36  C   UNL A   1      41.279  24.851  27.646  1.00  0.00    -0.014 A 
BRANCH  36  37
ATOM     37  C   UNL A   1      41.769  26.205  28.017  1.00  0.00     0.031 A 
ATOM     38  C   UNL A   1      43.182  26.624  27.716  1.00  0.00     0.074 A 
ATOM     39  C   UNL A   1      40.946  27.045  28.675  1.00  0.00     0.049 A 
ATOM     40  N   UNL A   1      43.769  27.770  27.951  1.00  0.00    -0.248 NA
ATOM     41  C   UNL A   1      44.061  25.623  27.088  1.00  0.00     0.031 C 
ATOM     42  C   UNL A   1      39.586  26.724  29.113  1.00  0.00     0.029 A 
ATOM     43  N   UNL A   1      41.138  28.333  29.109  1.00  0.00    -0.354 N 
ATOM     44  C   UNL A   1      45.081  27.626  27.517  1.00  0.00     0.074 A 
ATOM     45  C   UNL A   1      45.220  26.266  27.043  1.00  0.00     0.031 C 
ATOM     46  C   UNL A   1      39.066  27.786  29.749  1.00  0.00     0.029 A 
ATOM     47  C   UNL A   1      40.057  28.856  29.779  1.00  0.00     0.049 A 
ATOM     48  H   UNL A   1      41.971  28.834  28.957  1.00  0.00     0.167 HD
ATOM     49  C   UNL A   1      46.071  28.551  27.479  1.00  0.00     0.034 A 
ATOM     50  C   UNL A   1      39.880  30.064  30.350  1.00  0.00     0.034 A 
ATOM     51  C   UNL A   1      45.922  29.914  27.920  1.00  0.00     0.049 A 
ATOM     52  C   UNL A   1      40.973  31.090  30.240  1.00  0.00     0.074 A 
ATOM     53  C   UNL A   1      46.846  30.942  27.864  1.00  0.00     0.029 A 
ATOM     54  N   UNL A   1      44.778  30.438  28.498  1.00  0.00    -0.354 N 
ATOM     55  N   UNL A   1      42.152  30.983  29.674  1.00  0.00    -0.248 NA
ATOM     56  C   UNL A   1      40.697  32.419  30.804  1.00  0.00     0.031 C 
ATOM     57  C   UNL A   1      46.263  32.087  28.416  1.00  0.00     0.029 A 
ATOM     58  C   UNL A   1      44.969  31.775  28.801  1.00  0.00     0.049 A 
ATOM     59  H   UNL A   1      43.950  29.934  28.669  1.00  0.00     0.167 HD
ATOM     60  C   UNL A   1      42.745  32.234  29.791  1.00  0.00     0.074 A 
ATOM     61  C   UNL A   1      41.782  33.094  30.448  1.00  0.00     0.031 C 
ATOM     62  C   UNL A   1      43.985  32.632  29.411  1.00  0.00     0.034 A 
BRANCH  49  63
ATOM     63  C   UNL A   1      47.386  28.144  26.866  1.00  0.00     0.023 A 
ATOM     64  C   UNL A   1      48.475  27.850  27.713  1.00  0.00     0.012 A 
ATOM     65  C   UNL A   1      47.530  27.978  25.474  1.00  0.00     0.148 A 
ATOM     66  C   UNL A   1      49.693  27.428  27.187  1.00  0.00     0.002 A 
ATOM     67  C   UNL A   1      48.737  27.516  24.959  1.00  0.00     0.091 A 
ATOM     68  F   UNL A   1      46.491  28.278  24.683  1.00  0.00    -0.205 F 
ATOM     69  C   UNL A   1      49.822  27.250  25.812  1.00  0.00     0.022 A 
BRANCH  67  70
ATOM     70  S   UNL A   1      48.985  27.183  23.210  1.00  0.00     0.127 S 
ATOM     71  O   UNL A   1      50.444  27.104  23.130  1.00  0.00    -0.237 OA
ATOM     72  O   UNL A   1      48.296  25.902  23.041  1.00  0.00    -0.237 OA
ATOM     73  O   UNL A   1      48.380  28.298  22.499  1.00  0.00    -0.744 OA
ENDBRANCH  67  70
ENDBRANCH  49  63
BRANCH  50  74
ATOM     74  C   UNL A   1      38.587  30.389  31.017  1.00  0.00     0.023 A 
ATOM     75  C   UNL A   1      38.363  29.969  32.342  1.00  0.00     0.012 A 
ATOM     76  C   UNL A   1      37.592  31.134  30.355  1.00  0.00     0.148 A 
ATOM     77  C   UNL A   1      37.155  30.253  32.983  1.00  0.00     0.002 A 
ATOM     78  C   UNL A   1      36.416  31.463  31.019  1.00  0.00     0.091 A 
ATOM     79  F   UNL A   1      37.816  31.512  29.088  1.00  0.00    -0.205 F 
ATOM     80  C   UNL A   1      36.187  31.008  32.326  1.00  0.00     0.022 A 
BRANCH  78  81
ATOM     81  S   UNL A   1      35.188  32.553  30.292  1.00  0.00     0.127 S 
ATOM     82  O   UNL A   1      34.727  31.767  29.150  1.00  0.00    -0.237 OA
ATOM     83  O   UNL A   1      34.215  32.690  31.378  1.00  0.00    -0.237 OA
ATOM     84  O   UNL A   1      35.903  33.782  29.977  1.00  0.00    -0.744 OA
ENDBRANCH  78  81
ENDBRANCH  50  74
BRANCH  62  85
ATOM     85  C   UNL A   1      44.366  34.065  29.681  1.00  0.00     0.023 A 
ATOM     86  C   UNL A   1      45.164  34.373  30.801  1.00  0.00     0.012 A 
ATOM     87  C   UNL A   1      43.978  35.096  28.804  1.00  0.00     0.148 A 
ATOM     88  C   UNL A   1      45.536  35.690  31.066  1.00  0.00     0.002 A 
ATOM     89  C   UNL A   1      44.391  36.401  29.050  1.00  0.00     0.091 A 
ATOM     90  F   UNL A   1      43.202  34.788  27.754  1.00  0.00    -0.205 F 
ATOM     91  C   UNL A   1      45.158  36.702  30.186  1.00  0.00     0.022 A 
BRANCH  89  92
ATOM     92  S   UNL A   1      44.025  37.749  27.920  1.00  0.00     0.127 S 
ATOM     93  O   UNL A   1      44.351  37.151  26.627  1.00  0.00    -0.237 OA
ATOM     94  O   UNL A   1      42.596  37.970  28.147  1.00  0.00    -0.237 OA
ATOM     95  O   UNL A   1      44.876  38.857  28.335  1.00  0.00    -0.744 OA
ENDBRANCH  89  92
ENDBRANCH  62  85
ENDBRANCH  36  37
ENDBRANCH  28  31
ENDBRANCH  26  27
ENDBRANCH  25  26
ENDBRANCH  24  25
ENDBRANCH   1  24
TORSDOF 19
ENDMDL
MODEL 3
REMARK VINA RESULT:     -11.6      5.775      8.415
REMARK SMILES C[C@@H](C(=O)NCCCCCCNC(=O)c1ccc(-c2c3nc(c(-c4cccc(S(=O)(=O)[O-])c4F)c4ccc([nH]4)c(-c4cccc(S(=O)(=O)[O-])c4F)c4nc(c(-c5cccc(S(=O)(=O)[O-])c5F)c5ccc2[nH]5)C=C4)C=C3)cc1)c1ccc(O[C@H]2CCCC2=O)cc1F
REMARK SMILES IDX 8 1 7 2 6 3 5 4 3 5 4 6 2 8 1 9 78 10 79 11 90 12 80 13
REMARK SMILES IDX 89 14 91 15 81 16 82 17 83 18 84 19 87 20 85 21 86 22 88 23
REMARK SMILES IDX 9 24 10 25 11 26 12 27 13 28 14 30 15 31 16 32 77 33 17 34
REMARK SMILES IDX 76 35 18 36 19 37 20 38 70 39 21 40 75 41 69 42 71 43 22 44
REMARK SMILES IDX 74 45 68 46 67 47 23 49 55 50 35 51 54 52 36 53 39 54 53 55
REMARK SMILES IDX 72 56 37 57 38 58 52 60 73 61 40 62 24 63 25 64 33 65 26 66
REMARK SMILES IDX 28 67 34 68 27 69 29 70 30 71 31 72 32 73 56 74 57 75 65 76
REMARK SMILES IDX 58 77 60 78 66 79 59 80 61 81 62 82 63 83 64 84 41 85 42 86
REMARK SMILES IDX 50 87 43 88 45 89 51 90 44 91 46 92 47 93 48 94 49 95
REMARK H PARENT 5 7 12 29 71 48 39 59
REMARK Flexibility Score: inf
ROOT
ATOM      1  C   UNL A   1      33.142  25.928  23.643  1.00  0.00     0.002 C 
ENDROOT
BRANCH   1   2
ATOM      2  C   UNL A   1      32.211  25.201  22.667  1.00  0.00     0.021 C 
BRANCH   2   3
ATOM      3  C   UNL A   1      30.801  24.949  23.213  1.00  0.00     0.116 C 
BRANCH   3   4
ATOM      4  N   UNL A   1      30.695  25.426  24.581  1.00  0.00    -0.356 N 
ATOM      5  C   UNL A   1      30.520  24.726  25.742  1.00  0.00     0.227 C 
ATOM      6  O   UNL A   1      30.240  25.379  26.749  1.00  0.00    -0.274 OA
ATOM      7  H   UNL A   1      30.758  26.403  24.688  1.00  0.00     0.163 HD
BRANCH   5   8
ATOM      8  C   UNL A   1      30.723  23.197  25.755  1.00  0.00     0.108 C 
ATOM      9  C   UNL A   1      29.867  22.583  26.870  1.00  0.00     0.023 C 
BRANCH   8  10
ATOM     10  C   UNL A   1      32.201  22.794  25.808  1.00  0.00     0.000 A 
ATOM     11  C   UNL A   1      32.966  23.055  26.959  1.00  0.00     0.011 A 
ATOM     12  C   UNL A   1      32.875  22.203  24.736  1.00  0.00     0.130 A 
ATOM     13  C   UNL A   1      34.313  22.672  27.038  1.00  0.00     0.047 A 
ATOM     14  C   UNL A   1      34.220  21.845  24.802  1.00  0.00     0.086 A 
ATOM     15  F   UNL A   1      32.259  21.944  23.574  1.00  0.00    -0.207 F 
ATOM     16  C   UNL A   1      34.946  22.045  25.963  1.00  0.00     0.123 A 
BRANCH  16  17
ATOM     17  O   UNL A   1      36.245  21.695  26.176  1.00  0.00    -0.483 OA
BRANCH  17  18
ATOM     18  C   UNL A   1      37.310  22.508  25.733  1.00  0.00     0.239 C 
ATOM     19  C   UNL A   1      37.157  24.000  26.068  1.00  0.00     0.054 C 
ATOM     20  C   UNL A   1      38.771  22.210  26.058  1.00  0.00     0.173 C 
ATOM     21  C   UNL A   1      38.419  24.426  26.817  1.00  0.00     0.012 C 
ATOM     22  C   UNL A   1      39.526  23.460  26.417  1.00  0.00     0.080 C 
ATOM     23  O   UNL A   1      39.293  21.104  25.992  1.00  0.00    -0.296 OA
ENDBRANCH  17  18
ENDBRANCH  16  17
ENDBRANCH   8  10
ENDBRANCH   5   8
ENDBRANCH   3   4
ENDBRANCH   2   3
ENDBRANCH   1   2
BRANCH   1  24
ATOM     24  C   UNL A   1      33.744  27.230  23.109  1.00  0.00     0.002 C 
BRANCH  24  25
ATOM     25  C   UNL A   1      33.138  28.512  23.690  1.00  0.00     0.021 C 
BRANCH  25  26
ATOM     26  C   UNL A   1      33.827  29.040  24.946  1.00  0.00     0.116 C 
BRANCH  26  27
ATOM     27  N   UNL A   1      33.112  30.165  25.528  1.00  0.00    -0.352 N 
ATOM     28  C   UNL A   1      33.339  30.835  26.703  1.00  0.00     0.251 C 
ATOM     29  H   UNL A   1      32.351  30.496  24.999  1.00  0.00     0.163 HD
ATOM     30  O   UNL A   1      32.499  31.633  27.114  1.00  0.00    -0.269 OA
BRANCH  28  31
ATOM     31  C   UNL A   1      34.575  30.597  27.481  1.00  0.00     0.039 A 
ATOM     32  C   UNL A   1      34.785  29.330  28.031  1.00  0.00     0.014 A 
ATOM     33  C   UNL A   1      35.505  31.618  27.708  1.00  0.00     0.014 A 
ATOM     34  C   UNL A   1      35.945  29.073  28.765  1.00  0.00     0.010 A 
ATOM     35  C   UNL A   1      36.692  31.343  28.386  1.00  0.00     0.010 A 
ATOM     36  C   UNL A   1      36.921  30.071  28.930  1.00  0.00    -0.014 A 
BRANCH  36  37
ATOM     37  C   UNL A   1      38.189  29.776  29.648  1.00  0.00     0.031 A 
ATOM     38  C   UNL A   1      38.474  30.383  30.995  1.00  0.00     0.074 A 
ATOM     39  C   UNL A   1      39.112  28.991  29.057  1.00  0.00     0.049 A 
ATOM     40  N   UNL A   1      39.517  30.219  31.768  1.00  0.00    -0.248 NA
ATOM     41  C   UNL A   1      37.469  31.312  31.539  1.00  0.00     0.031 C 
ATOM     42  C   UNL A   1      39.000  28.421  27.712  1.00  0.00     0.029 A 
ATOM     43  N   UNL A   1      40.336  28.555  29.500  1.00  0.00    -0.354 N 
ATOM     44  C   UNL A   1      39.304  31.030  32.877  1.00  0.00     0.074 A 
ATOM     45  C   UNL A   1      38.052  31.721  32.657  1.00  0.00     0.031 C 
ATOM     46  C   UNL A   1      40.105  27.709  27.443  1.00  0.00     0.029 A 
ATOM     47  C   UNL A   1      41.011  27.783  28.585  1.00  0.00     0.049 A 
ATOM     48  H   UNL A   1      40.696  28.775  30.389  1.00  0.00     0.167 HD
ATOM     49  C   UNL A   1      40.061  31.159  33.993  1.00  0.00     0.034 A 
ATOM     50  C   UNL A   1      42.221  27.195  28.656  1.00  0.00     0.034 A 
ATOM     51  C   UNL A   1      41.290  30.446  34.225  1.00  0.00     0.049 A 
ATOM     52  C   UNL A   1      43.012  27.307  29.930  1.00  0.00     0.074 A 
ATOM     53  C   UNL A   1      42.096  30.461  35.350  1.00  0.00     0.029 A 
ATOM     54  N   UNL A   1      41.892  29.589  33.316  1.00  0.00    -0.354 N 
ATOM     55  N   UNL A   1      42.712  27.947  31.035  1.00  0.00    -0.248 NA
ATOM     56  C   UNL A   1      44.286  26.576  29.988  1.00  0.00     0.031 C 
ATOM     57  C   UNL A   1      43.190  29.620  35.118  1.00  0.00     0.029 A 
ATOM     58  C   UNL A   1      43.056  29.068  33.854  1.00  0.00     0.049 A 
ATOM     59  H   UNL A   1      41.543  29.382  32.419  1.00  0.00     0.167 HD
ATOM     60  C   UNL A   1      43.744  27.676  31.925  1.00  0.00     0.074 A 
ATOM     61  C   UNL A   1      44.660  26.784  31.244  1.00  0.00     0.031 C 
ATOM     62  C   UNL A   1      43.932  28.143  33.184  1.00  0.00     0.034 A 
BRANCH  49  63
ATOM     63  C   UNL A   1      39.541  32.050  35.091  1.00  0.00     0.023 A 
ATOM     64  C   UNL A   1      39.711  33.446  34.980  1.00  0.00     0.012 A 
ATOM     65  C   UNL A   1      38.825  31.528  36.187  1.00  0.00     0.148 A 
ATOM     66  C   UNL A   1      39.206  34.305  35.952  1.00  0.00     0.002 A 
ATOM     67  C   UNL A   1      38.288  32.395  37.133  1.00  0.00     0.091 A 
ATOM     68  F   UNL A   1      38.688  30.199  36.287  1.00  0.00    -0.205 F 
ATOM     69  C   UNL A   1      38.485  33.782  37.022  1.00  0.00     0.022 A 
BRANCH  67  70
ATOM     70  S   UNL A   1      37.281  31.830  38.510  1.00  0.00     0.127 S 
ATOM     71  O   UNL A   1      37.018  30.441  38.131  1.00  0.00    -0.237 OA
ATOM     72  O   UNL A   1      38.195  31.987  39.644  1.00  0.00    -0.237 OA
ATOM     73  O   UNL A   1      36.117  32.700  38.541  1.00  0.00    -0.744 OA
ENDBRANCH  67  70
ENDBRANCH  49  63
BRANCH  50  74
ATOM     74  C   UNL A   1      42.727  26.390  27.508  1.00  0.00     0.023 A 
ATOM     75  C   UNL A   1      43.336  27.040  26.418  1.00  0.00     0.012 A 
ATOM     76  C   UNL A   1      42.630  24.985  27.503  1.00  0.00     0.148 A 
ATOM     77  C   UNL A   1      43.807  26.307  25.326  1.00  0.00     0.002 A 
ATOM     78  C   UNL A   1      43.153  24.258  26.440  1.00  0.00     0.091 A 
ATOM     79  F   UNL A   1      42.033  24.384  28.543  1.00  0.00    -0.205 F 
ATOM     80  C   UNL A   1      43.725  24.918  25.342  1.00  0.00     0.022 A 
BRANCH  78  81
ATOM     81  S   UNL A   1      43.216  22.464  26.456  1.00  0.00     0.127 S 
ATOM     82  O   UNL A   1      42.548  22.129  25.201  1.00  0.00    -0.237 OA
ATOM     83  O   UNL A   1      44.657  22.205  26.475  1.00  0.00    -0.237 OA
ATOM     84  O   UNL A   1      42.525  22.066  27.676  1.00  0.00    -0.744 OA
ENDBRANCH  78  81
ENDBRANCH  50  74
BRANCH  62  85
ATOM     85  C   UNL A   1      45.167  27.683  33.916  1.00  0.00     0.023 A 
ATOM     86  C   UNL A   1      46.348  28.447  33.833  1.00  0.00     0.012 A 
ATOM     87  C   UNL A   1      45.145  26.528  34.721  1.00  0.00     0.148 A 
ATOM     88  C   UNL A   1      47.501  28.046  34.508  1.00  0.00     0.002 A 
ATOM     89  C   UNL A   1      46.284  26.160  35.428  1.00  0.00     0.091 A 
ATOM     90  F   UNL A   1      44.018  25.803  34.773  1.00  0.00    -0.205 F 
ATOM     91  C   UNL A   1      47.466  26.909  35.313  1.00  0.00     0.022 A 
BRANCH  89  92
ATOM     92  S   UNL A   1      46.300  24.763  36.557  1.00  0.00     0.127 S 
ATOM     93  O   UNL A   1      45.226  25.116  37.483  1.00  0.00    -0.237 OA
ATOM     94  O   UNL A   1      45.996  23.639  35.670  1.00  0.00    -0.237 OA
ATOM     95  O   UNL A   1      47.640  24.729  37.129  1.00  0.00    -0.744 OA
ENDBRANCH  89  92
ENDBRANCH  62  85
ENDBRANCH  36  37
ENDBRANCH  28  31
ENDBRANCH  26  27
ENDBRANCH  25  26
ENDBRANCH  24  25
ENDBRANCH   1  24
TORSDOF 19
ENDMDL
