MODEL 1
REMARK VINA RESULT:     -10.9      0.000      0.000
REMARK SMILES O=C(NCCCCCCNC(=O)c1cc(SCC(=O)N2CCOCC2)ccn1)c1ccc(-c2c3nc(c(-c4cccc(S(=O)(=O)[O-])c4F)c4ccc([nH]4)c(-c4cccc(S(=O)(=O)[O-])c4F)c4nc(c(-c5cccc(S(=O)(=O)[O-])c5F)c5ccc2[nH]5)C=C4)C=C3)cc1
REMARK SMILES IDX 6 1 5 2 4 3 3 4 1 5 2 6 29 8 30 9 91 10 31 11 90 12 32 13
REMARK SMILES IDX 33 14 34 15 84 16 35 17 89 18 83 19 85 20 36 21 88 22 82 23
REMARK SMILES IDX 81 24 37 26 69 27 49 28 68 29 50 30 53 31 67 32 86 33 51 34
REMARK SMILES IDX 52 35 66 37 87 38 54 39 38 40 39 41 47 42 40 43 42 44 48 45
REMARK SMILES IDX 41 46 43 47 44 48 45 49 46 50 70 51 71 52 79 53 72 54 74 55
REMARK SMILES IDX 80 56 73 57 75 58 76 59 77 60 78 61 55 62 56 63 64 64 57 65
REMARK SMILES IDX 59 66 65 67 58 68 60 69 61 70 62 71 63 72 7 73 8 74 9 75
REMARK SMILES IDX 10 76 11 77 12 79 13 80 14 81 28 82 15 83 27 84 26 85 16 86
REMARK SMILES IDX 17 87 18 88 19 89 20 90 21 91 25 92 22 93 24 94 23 95
REMARK H PARENT 3 7 85 25 53 36 10 78
REMARK Flexibility Score: inf
ROOT
ATOM      1  C   UNL A   1      37.575  20.857  24.694  1.00  0.00     0.002 C 
ENDROOT
BRANCH   1   2
ATOM      2  C   UNL A   1      38.485  19.659  24.972  1.00  0.00     0.021 C 
BRANCH   2   3
ATOM      3  C   UNL A   1      39.396  19.805  26.185  1.00  0.00     0.116 C 
BRANCH   3   4
ATOM      4  N   UNL A   1      40.564  18.945  26.115  1.00  0.00    -0.352 N 
ATOM      5  O   UNL A   1      42.746  18.429  25.909  1.00  0.00    -0.269 OA
ATOM      6  C   UNL A   1      41.896  19.285  26.132  1.00  0.00     0.251 C 
ATOM      7  H   UNL A   1      40.376  17.982  26.047  1.00  0.00     0.163 HD
BRANCH   6   8
ATOM      8  C   UNL A   1      42.297  20.687  26.391  1.00  0.00     0.039 A 
ATOM      9  C   UNL A   1      42.571  21.126  27.690  1.00  0.00     0.014 A 
ATOM     10  C   UNL A   1      42.412  21.571  25.315  1.00  0.00     0.014 A 
ATOM     11  C   UNL A   1      42.827  22.473  27.925  1.00  0.00     0.010 A 
ATOM     12  C   UNL A   1      42.749  22.909  25.546  1.00  0.00     0.010 A 
ATOM     13  C   UNL A   1      42.930  23.378  26.856  1.00  0.00    -0.014 A 
BRANCH  13  14
ATOM     14  C   UNL A   1      43.302  24.790  27.130  1.00  0.00     0.031 A 
ATOM     15  C   UNL A   1      42.344  25.739  27.796  1.00  0.00     0.074 A 
ATOM     16  C   UNL A   1      44.531  25.211  26.772  1.00  0.00     0.049 A 
ATOM     17  N   UNL A   1      42.532  26.988  28.139  1.00  0.00    -0.248 NA
ATOM     18  C   UNL A   1      41.001  25.228  28.114  1.00  0.00     0.031 C 
ATOM     19  C   UNL A   1      45.529  24.395  26.074  1.00  0.00     0.029 A 
ATOM     20  N   UNL A   1      45.155  26.421  26.942  1.00  0.00    -0.354 N 
ATOM     21  C   UNL A   1      41.330  27.422  28.686  1.00  0.00     0.074 A 
ATOM     22  C   UNL A   1      40.412  26.306  28.617  1.00  0.00     0.031 C 
ATOM     23  C   UNL A   1      46.644  25.118  25.897  1.00  0.00     0.029 A 
ATOM     24  C   UNL A   1      46.429  26.459  26.427  1.00  0.00     0.049 A 
ATOM     25  H   UNL A   1      44.730  27.189  27.388  1.00  0.00     0.167 HD
ATOM     26  C   UNL A   1      41.029  28.632  29.217  1.00  0.00     0.034 A 
ATOM     27  C   UNL A   1      47.325  27.463  26.378  1.00  0.00     0.034 A 
ATOM     28  C   UNL A   1      41.954  29.731  29.307  1.00  0.00     0.049 A 
ATOM     29  C   UNL A   1      46.969  28.784  26.997  1.00  0.00     0.074 A 
ATOM     30  C   UNL A   1      41.755  30.981  29.864  1.00  0.00     0.029 A 
ATOM     31  N   UNL A   1      43.255  29.714  28.823  1.00  0.00    -0.354 N 
ATOM     32  N   UNL A   1      45.871  29.131  27.624  1.00  0.00    -0.248 NA
ATOM     33  C   UNL A   1      47.985  29.843  26.928  1.00  0.00     0.031 C 
ATOM     34  C   UNL A   1      42.931  31.724  29.712  1.00  0.00     0.029 A 
ATOM     35  C   UNL A   1      43.869  30.931  29.070  1.00  0.00     0.049 A 
ATOM     36  H   UNL A   1      43.679  28.949  28.372  1.00  0.00     0.167 HD
ATOM     37  C   UNL A   1      46.072  30.439  28.044  1.00  0.00     0.074 A 
ATOM     38  C   UNL A   1      47.409  30.812  27.628  1.00  0.00     0.031 C 
ATOM     39  C   UNL A   1      45.218  31.267  28.695  1.00  0.00     0.034 A 
BRANCH  26  40
ATOM     40  C   UNL A   1      39.651  28.820  29.800  1.00  0.00     0.023 A 
ATOM     41  C   UNL A   1      39.388  28.360  31.106  1.00  0.00     0.012 A 
ATOM     42  C   UNL A   1      38.646  29.514  29.096  1.00  0.00     0.148 A 
ATOM     43  C   UNL A   1      38.142  28.565  31.695  1.00  0.00     0.002 A 
ATOM     44  C   UNL A   1      37.417  29.747  29.705  1.00  0.00     0.091 A 
ATOM     45  F   UNL A   1      38.906  29.927  27.848  1.00  0.00    -0.205 F 
ATOM     46  C   UNL A   1      37.161  29.267  31.000  1.00  0.00     0.022 A 
BRANCH  44  47
ATOM     47  S   UNL A   1      36.112  30.702  28.920  1.00  0.00     0.127 S 
ATOM     48  O   UNL A   1      35.574  29.735  27.964  1.00  0.00    -0.237 OA
ATOM     49  O   UNL A   1      35.227  31.001  30.046  1.00  0.00    -0.237 OA
ATOM     50  O   UNL A   1      36.766  31.865  28.337  1.00  0.00    -0.744 OA
ENDBRANCH  44  47
ENDBRANCH  26  40
BRANCH  27  51
ATOM     51  C   UNL A   1      48.663  27.229  25.766  1.00  0.00     0.023 A 
ATOM     52  C   UNL A   1      49.706  26.710  26.555  1.00  0.00     0.012 A 
ATOM     53  C   UNL A   1      48.892  27.472  24.398  1.00  0.00     0.148 A 
ATOM     54  C   UNL A   1      50.961  26.460  25.999  1.00  0.00     0.002 A 
ATOM     55  C   UNL A   1      50.126  27.164  23.836  1.00  0.00     0.091 A 
ATOM     56  F   UNL A   1      47.895  27.988  23.664  1.00  0.00    -0.205 F 
ATOM     57  C   UNL A   1      51.167  26.673  24.639  1.00  0.00     0.022 A 
BRANCH  55  58
ATOM     58  S   UNL A   1      50.412  27.272  22.067  1.00  0.00     0.127 S 
ATOM     59  O   UNL A   1      49.351  26.421  21.538  1.00  0.00    -0.237 OA
ATOM     60  O   UNL A   1      50.240  28.703  21.812  1.00  0.00    -0.237 OA
ATOM     61  O   UNL A   1      51.775  26.795  21.871  1.00  0.00    -0.744 OA
ENDBRANCH  55  58
ENDBRANCH  27  51
BRANCH  39  62
ATOM     62  C   UNL A   1      45.711  32.653  29.013  1.00  0.00     0.023 A 
ATOM     63  C   UNL A   1      46.376  32.890  30.232  1.00  0.00     0.012 A 
ATOM     64  C   UNL A   1      45.566  33.703  28.087  1.00  0.00     0.148 A 
ATOM     65  C   UNL A   1      46.860  34.162  30.539  1.00  0.00     0.002 A 
ATOM     66  C   UNL A   1      46.089  34.957  28.381  1.00  0.00     0.091 A 
ATOM     67  F   UNL A   1      44.909  33.463  26.942  1.00  0.00    -0.205 F 
ATOM     68  C   UNL A   1      46.726  35.191  29.610  1.00  0.00     0.022 A 
BRANCH  66  69
ATOM     69  S   UNL A   1      46.036  36.315  27.206  1.00  0.00     0.127 S 
ATOM     70  O   UNL A   1      46.988  37.256  27.794  1.00  0.00    -0.237 OA
ATOM     71  O   UNL A   1      46.493  35.679  25.970  1.00  0.00    -0.237 OA
ATOM     72  O   UNL A   1      44.649  36.760  27.175  1.00  0.00    -0.744 OA
ENDBRANCH  66  69
ENDBRANCH  39  62
ENDBRANCH  13  14
ENDBRANCH   6   8
ENDBRANCH   3   4
ENDBRANCH   2   3
ENDBRANCH   1   2
BRANCH   1  73
ATOM     73  C   UNL A   1      36.124  20.714  25.164  1.00  0.00     0.002 C 
BRANCH  73  74
ATOM     74  C   UNL A   1      35.599  21.843  26.056  1.00  0.00     0.021 C 
BRANCH  74  75
ATOM     75  C   UNL A   1      34.369  21.488  26.886  1.00  0.00     0.116 C 
BRANCH  75  76
ATOM     76  N   UNL A   1      33.667  20.321  26.381  1.00  0.00    -0.351 N 
ATOM     77  C   UNL A   1      32.636  20.271  25.470  1.00  0.00     0.269 C 
ATOM     78  H   UNL A   1      33.969  19.454  26.737  1.00  0.00     0.163 HD
ATOM     79  O   UNL A   1      32.145  19.190  25.154  1.00  0.00    -0.268 OA
BRANCH  77  80
ATOM     80  C   UNL A   1      32.130  21.537  24.876  1.00  0.00     0.129 A 
ATOM     81  C   UNL A   1      32.693  22.023  23.699  1.00  0.00     0.049 A 
ATOM     82  N   UNL A   1      31.149  22.163  25.574  1.00  0.00    -0.251 NA
ATOM     83  C   UNL A   1      32.262  23.260  23.239  1.00  0.00     0.012 A 
ATOM     84  C   UNL A   1      30.717  23.335  25.077  1.00  0.00     0.113 A 
ATOM     85  C   UNL A   1      31.242  23.916  23.937  1.00  0.00     0.035 A 
BRANCH  83  86
ATOM     86  S   UNL A   1      32.872  24.095  21.794  1.00  0.00    -0.116 SA
BRANCH  86  87
ATOM     87  C   UNL A   1      33.358  25.756  22.329  1.00  0.00     0.175 C 
BRANCH  87  88
ATOM     88  C   UNL A   1      32.348  26.889  22.266  1.00  0.00     0.233 C 
ATOM     89  O   UNL A   1      31.319  26.719  21.601  1.00  0.00    -0.274 OA
ATOM     90  N   UNL A   1      32.472  27.989  23.090  1.00  0.00    -0.337 N 
ATOM     91  C   UNL A   1      33.712  28.638  23.517  1.00  0.00     0.148 C 
ATOM     92  C   UNL A   1      31.266  28.713  23.515  1.00  0.00     0.148 C 
ATOM     93  C   UNL A   1      33.693  28.932  25.016  1.00  0.00     0.181 C 
ATOM     94  C   UNL A   1      31.328  28.975  25.028  1.00  0.00     0.181 C 
ATOM     95  O   UNL A   1      32.527  29.688  25.371  1.00  0.00    -0.378 OA
ENDBRANCH  87  88
ENDBRANCH  86  87
ENDBRANCH  83  86
ENDBRANCH  77  80
ENDBRANCH  75  76
ENDBRANCH  74  75
ENDBRANCH  73  74
ENDBRANCH   1  73
TORSDOF 19
ENDMDL
MODEL 2
REMARK VINA RESULT:     -10.8      3.272      8.425
REMARK SMILES O=C(NCCCCCCNC(=O)c1cc(SCC(=O)N2CCOCC2)ccn1)c1ccc(-c2c3nc(c(-c4cccc(S(=O)(=O)[O-])c4F)c4ccc([nH]4)c(-c4cccc(S(=O)(=O)[O-])c4F)c4nc(c(-c5cccc(S(=O)(=O)[O-])c5F)c5ccc2[nH]5)C=C4)C=C3)cc1
REMARK SMILES IDX 6 1 5 2 4 3 3 4 1 5 2 6 29 8 30 9 91 10 31 11 90 12 32 13
REMARK SMILES IDX 33 14 34 15 84 16 35 17 89 18 83 19 85 20 36 21 88 22 82 23
REMARK SMILES IDX 81 24 37 26 69 27 49 28 68 29 50 30 53 31 67 32 86 33 51 34
REMARK SMILES IDX 52 35 66 37 87 38 54 39 38 40 39 41 47 42 40 43 42 44 48 45
REMARK SMILES IDX 41 46 43 47 44 48 45 49 46 50 70 51 71 52 79 53 72 54 74 55
REMARK SMILES IDX 80 56 73 57 75 58 76 59 77 60 78 61 55 62 56 63 64 64 57 65
REMARK SMILES IDX 59 66 65 67 58 68 60 69 61 70 62 71 63 72 7 73 8 74 9 75
REMARK SMILES IDX 10 76 11 77 12 79 13 80 14 81 28 82 15 83 27 84 26 85 16 86
REMARK SMILES IDX 17 87 18 88 19 89 20 90 21 91 25 92 22 93 24 94 23 95
REMARK H PARENT 3 7 85 25 53 36 10 78
REMARK Flexibility Score: inf
ROOT
ATOM      1  C   UNL A   1      35.304  21.550  26.073  1.00  0.00     0.002 C 
ENDROOT
BRANCH   1   2
ATOM      2  C   UNL A   1      35.418  23.005  25.617  1.00  0.00     0.021 C 
BRANCH   2   3
ATOM      3  C   UNL A   1      36.832  23.571  25.598  1.00  0.00     0.116 C 
BRANCH   3   4
ATOM      4  N   UNL A   1      37.836  22.582  25.950  1.00  0.00    -0.352 N 
ATOM      5  O   UNL A   1      39.856  21.819  26.589  1.00  0.00    -0.269 OA
ATOM      6  C   UNL A   1      39.081  22.767  26.502  1.00  0.00     0.251 C 
ATOM      7  H   UNL A   1      37.590  21.647  25.768  1.00  0.00     0.163 HD
BRANCH   6   8
ATOM      8  C   UNL A   1      39.493  24.112  26.963  1.00  0.00     0.039 A 
ATOM      9  C   UNL A   1      40.060  25.032  26.075  1.00  0.00     0.014 A 
ATOM     10  C   UNL A   1      39.300  24.461  28.302  1.00  0.00     0.014 A 
ATOM     11  C   UNL A   1      40.550  26.243  26.553  1.00  0.00     0.010 A 
ATOM     12  C   UNL A   1      39.723  25.712  28.764  1.00  0.00     0.010 A 
ATOM     13  C   UNL A   1      40.378  26.602  27.900  1.00  0.00    -0.014 A 
BRANCH  13  14
ATOM     14  C   UNL A   1      40.824  27.943  28.359  1.00  0.00     0.031 A 
ATOM     15  C   UNL A   1      42.276  28.337  28.338  1.00  0.00     0.074 A 
ATOM     16  C   UNL A   1      39.894  28.815  28.797  1.00  0.00     0.049 A 
ATOM     17  N   UNL A   1      42.820  29.481  28.668  1.00  0.00    -0.248 NA
ATOM     18  C   UNL A   1      43.244  27.320  27.897  1.00  0.00     0.031 C 
ATOM     19  C   UNL A   1      38.461  28.527  28.910  1.00  0.00     0.029 A 
ATOM     20  N   UNL A   1      40.005  30.112  29.224  1.00  0.00    -0.354 N 
ATOM     21  C   UNL A   1      44.190  29.316  28.502  1.00  0.00     0.074 A 
ATOM     22  C   UNL A   1      44.398  27.956  28.055  1.00  0.00     0.031 C 
ATOM     23  C   UNL A   1      37.826  29.621  29.354  1.00  0.00     0.029 A 
ATOM     24  C   UNL A   1      38.806  30.673  29.598  1.00  0.00     0.049 A 
ATOM     25  H   UNL A   1      40.862  30.596  29.262  1.00  0.00     0.167 HD
ATOM     26  C   UNL A   1      45.180  30.223  28.684  1.00  0.00     0.034 A 
ATOM     27  C   UNL A   1      38.525  31.894  30.090  1.00  0.00     0.034 A 
ATOM     28  C   UNL A   1      44.966  31.584  29.104  1.00  0.00     0.049 A 
ATOM     29  C   UNL A   1      39.641  32.884  30.257  1.00  0.00     0.074 A 
ATOM     30  C   UNL A   1      45.901  32.589  29.277  1.00  0.00     0.029 A 
ATOM     31  N   UNL A   1      43.731  32.131  29.421  1.00  0.00    -0.354 N 
ATOM     32  N   UNL A   1      40.913  32.747  29.971  1.00  0.00    -0.248 NA
ATOM     33  C   UNL A   1      39.281  34.206  30.786  1.00  0.00     0.031 C 
ATOM     34  C   UNL A   1      45.234  33.742  29.706  1.00  0.00     0.029 A 
ATOM     35  C   UNL A   1      43.880  33.458  29.788  1.00  0.00     0.049 A 
ATOM     36  H   UNL A   1      42.875  31.646  29.389  1.00  0.00     0.167 HD
ATOM     37  C   UNL A   1      41.501  33.970  30.264  1.00  0.00     0.074 A 
ATOM     38  C   UNL A   1      40.440  34.846  30.719  1.00  0.00     0.031 C 
ATOM     39  C   UNL A   1      42.806  34.331  30.188  1.00  0.00     0.034 A 
BRANCH  26  40
ATOM     40  C   UNL A   1      46.592  29.794  28.375  1.00  0.00     0.023 A 
ATOM     41  C   UNL A   1      47.120  30.038  27.091  1.00  0.00     0.012 A 
ATOM     42  C   UNL A   1      47.420  29.226  29.365  1.00  0.00     0.148 A 
ATOM     43  C   UNL A   1      48.438  29.702  26.788  1.00  0.00     0.002 A 
ATOM     44  C   UNL A   1      48.745  28.928  29.066  1.00  0.00     0.091 A 
ATOM     45  F   UNL A   1      46.896  28.983  30.575  1.00  0.00    -0.205 F 
ATOM     46  C   UNL A   1      49.253  29.158  27.777  1.00  0.00     0.022 A 
BRANCH  44  47
ATOM     47  S   UNL A   1      49.895  28.290  30.291  1.00  0.00     0.127 S 
ATOM     48  O   UNL A   1      49.308  26.985  30.593  1.00  0.00    -0.237 OA
ATOM     49  O   UNL A   1      51.149  28.234  29.538  1.00  0.00    -0.237 OA
ATOM     50  O   UNL A   1      49.887  29.252  31.384  1.00  0.00    -0.744 OA
ENDBRANCH  44  47
ENDBRANCH  26  40
BRANCH  27  51
ATOM     51  C   UNL A   1      37.114  32.256  30.404  1.00  0.00     0.023 A 
ATOM     52  C   UNL A   1      36.620  32.057  31.707  1.00  0.00     0.012 A 
ATOM     53  C   UNL A   1      36.278  32.840  29.433  1.00  0.00     0.148 A 
ATOM     54  C   UNL A   1      35.309  32.411  32.031  1.00  0.00     0.002 A 
ATOM     55  C   UNL A   1      34.993  33.245  29.779  1.00  0.00     0.091 A 
ATOM     56  F   UNL A   1      36.756  33.001  28.191  1.00  0.00    -0.205 F 
ATOM     57  C   UNL A   1      34.502  33.016  31.073  1.00  0.00     0.022 A 
BRANCH  55  58
ATOM     58  S   UNL A   1      33.955  34.165  28.639  1.00  0.00     0.127 S 
ATOM     59  O   UNL A   1      33.628  33.149  27.643  1.00  0.00    -0.237 OA
ATOM     60  O   UNL A   1      32.838  34.571  29.495  1.00  0.00    -0.237 OA
ATOM     61  O   UNL A   1      34.782  35.273  28.179  1.00  0.00    -0.744 OA
ENDBRANCH  55  58
ENDBRANCH  27  51
BRANCH  39  62
ATOM     62  C   UNL A   1      43.157  35.738  30.587  1.00  0.00     0.023 A 
ATOM     63  C   UNL A   1      43.466  36.022  31.932  1.00  0.00     0.012 A 
ATOM     64  C   UNL A   1      43.234  36.765  29.627  1.00  0.00     0.148 A 
ATOM     65  C   UNL A   1      43.816  37.315  32.322  1.00  0.00     0.002 A 
ATOM     66  C   UNL A   1      43.625  38.042  30.015  1.00  0.00     0.091 A 
ATOM     67  F   UNL A   1      42.913  36.481  28.356  1.00  0.00    -0.205 F 
ATOM     68  C   UNL A   1      43.905  38.320  31.363  1.00  0.00     0.022 A 
BRANCH  66  69
ATOM     69  S   UNL A   1      43.849  39.374  28.831  1.00  0.00     0.127 S 
ATOM     70  O   UNL A   1      42.476  39.616  28.390  1.00  0.00    -0.237 OA
ATOM     71  O   UNL A   1      44.419  40.438  29.660  1.00  0.00    -0.237 OA
ATOM     72  O   UNL A   1      44.755  38.854  27.815  1.00  0.00    -0.744 OA
ENDBRANCH  66  69
ENDBRANCH  39  62
ENDBRANCH  13  14
ENDBRANCH   6   8
ENDBRANCH   3   4
ENDBRANCH   2   3
ENDBRANCH   1   2
BRANCH   1  73
ATOM     73  C   UNL A   1      34.662  20.585  25.070  1.00  0.00     0.002 C 
BRANCH  73  74
ATOM     74  C   UNL A   1      33.226  20.156  25.384  1.00  0.00     0.021 C 
BRANCH  74  75
ATOM     75  C   UNL A   1      32.145  20.932  24.641  1.00  0.00     0.116 C 
BRANCH  75  76
ATOM     76  N   UNL A   1      32.655  21.631  23.474  1.00  0.00    -0.351 N 
ATOM     77  C   UNL A   1      32.489  22.953  23.128  1.00  0.00     0.269 C 
ATOM     78  H   UNL A   1      33.189  21.087  22.850  1.00  0.00     0.163 HD
ATOM     79  O   UNL A   1      32.987  23.386  22.092  1.00  0.00    -0.268 OA
BRANCH  77  80
ATOM     80  C   UNL A   1      31.705  23.845  24.024  1.00  0.00     0.129 A 
ATOM     81  C   UNL A   1      30.732  24.682  23.487  1.00  0.00     0.049 A 
ATOM     82  N   UNL A   1      32.039  23.799  25.338  1.00  0.00    -0.251 NA
ATOM     83  C   UNL A   1      30.099  25.571  24.346  1.00  0.00     0.012 A 
ATOM     84  C   UNL A   1      31.375  24.636  26.153  1.00  0.00     0.113 A 
ATOM     85  C   UNL A   1      30.420  25.531  25.708  1.00  0.00     0.035 A 
BRANCH  83  86
ATOM     86  S   UNL A   1      28.867  26.763  23.876  1.00  0.00    -0.116 SA
BRANCH  86  87
ATOM     87  C   UNL A   1      29.719  28.014  22.881  1.00  0.00     0.175 C 
BRANCH  87  88
ATOM     88  C   UNL A   1      30.485  29.129  23.573  1.00  0.00     0.233 C 
ATOM     89  O   UNL A   1      29.871  30.158  23.879  1.00  0.00    -0.274 OA
ATOM     90  N   UNL A   1      31.769  28.920  24.033  1.00  0.00    -0.337 N 
ATOM     91  C   UNL A   1      32.810  28.105  23.406  1.00  0.00     0.148 C 
ATOM     92  C   UNL A   1      32.249  29.668  25.203  1.00  0.00     0.148 C 
ATOM     93  C   UNL A   1      33.510  27.217  24.434  1.00  0.00     0.181 C 
ATOM     94  C   UNL A   1      32.943  28.708  26.181  1.00  0.00     0.181 C 
ATOM     95  O   UNL A   1      34.008  28.000  25.526  1.00  0.00    -0.378 OA
ENDBRANCH  87  88
ENDBRANCH  86  87
ENDBRANCH  83  86
ENDBRANCH  77  80
ENDBRANCH  75  76
ENDBRANCH  74  75
ENDBRANCH  73  74
ENDBRANCH   1  73
TORSDOF 19
ENDMDL
MODEL 3
REMARK VINA RESULT:     -10.7      6.511     10.350
REMARK SMILES O=C(NCCCCCCNC(=O)c1cc(SCC(=O)N2CCOCC2)ccn1)c1ccc(-c2c3nc(c(-c4cccc(S(=O)(=O)[O-])c4F)c4ccc([nH]4)c(-c4cccc(S(=O)(=O)[O-])c4F)c4nc(c(-c5cccc(S(=O)(=O)[O-])c5F)c5ccc2[nH]5)C=C4)C=C3)cc1
REMARK SMILES IDX 6 1 5 2 4 3 3 4 1 5 2 6 29 8 30 9 91 10 31 11 90 12 32 13
REMARK SMILES IDX 33 14 34 15 84 16 35 17 89 18 83 19 85 20 36 21 88 22 82 23
REMARK SMILES IDX 81 24 37 26 69 27 49 28 68 29 50 30 53 31 67 32 86 33 51 34
REMARK SMILES IDX 52 35 66 37 87 38 54 39 38 40 39 41 47 42 40 43 42 44 48 45
REMARK SMILES IDX 41 46 43 47 44 48 45 49 46 50 70 51 71 52 79 53 72 54 74 55
REMARK SMILES IDX 80 56 73 57 75 58 76 59 77 60 78 61 55 62 56 63 64 64 57 65
REMARK SMILES IDX 59 66 65 67 58 68 60 69 61 70 62 71 63 72 7 73 8 74 9 75
REMARK SMILES IDX 10 76 11 77 12 79 13 80 14 81 28 82 15 83 27 84 26 85 16 86
REMARK SMILES IDX 17 87 18 88 19 89 20 90 21 91 25 92 22 93 24 94 23 95
REMARK H PARENT 3 7 85 25 53 36 10 78
REMARK Flexibility Score: inf
ROOT
ATOM      1  C   UNL A   1      35.697  32.864  28.052  1.00  0.00     0.002 C 
ENDROOT
BRANCH   1   2
ATOM      2  C   UNL A   1      34.818  34.117  28.058  1.00  0.00     0.021 C 
BRANCH   2   3
ATOM      3  C   UNL A   1      33.367  33.889  28.461  1.00  0.00     0.116 C 
BRANCH   3   4
ATOM      4  N   UNL A   1      32.909  34.833  29.466  1.00  0.00    -0.352 N 
ATOM      5  O   UNL A   1      32.746  35.767  31.508  1.00  0.00    -0.269 OA
ATOM      6  C   UNL A   1      33.360  35.022  30.750  1.00  0.00     0.251 C 
ATOM      7  H   UNL A   1      32.171  35.420  29.187  1.00  0.00     0.163 HD
BRANCH   6   8
ATOM      8  C   UNL A   1      34.568  34.307  31.222  1.00  0.00     0.039 A 
ATOM      9  C   UNL A   1      35.825  34.917  31.180  1.00  0.00     0.014 A 
ATOM     10  C   UNL A   1      34.436  33.010  31.725  1.00  0.00     0.014 A 
ATOM     11  C   UNL A   1      36.960  34.185  31.513  1.00  0.00     0.010 A 
ATOM     12  C   UNL A   1      35.572  32.303  32.135  1.00  0.00     0.010 A 
ATOM     13  C   UNL A   1      36.847  32.875  32.005  1.00  0.00    -0.014 A 
BRANCH  13  14
ATOM     14  C   UNL A   1      38.068  32.153  32.447  1.00  0.00     0.031 A 
ATOM     15  C   UNL A   1      38.740  32.475  33.754  1.00  0.00     0.074 A 
ATOM     16  C   UNL A   1      38.569  31.189  31.649  1.00  0.00     0.049 A 
ATOM     17  N   UNL A   1      39.787  31.909  34.298  1.00  0.00    -0.248 NA
ATOM     18  C   UNL A   1      38.171  33.573  34.552  1.00  0.00     0.031 C 
ATOM     19  C   UNL A   1      38.032  30.824  30.335  1.00  0.00     0.029 A 
ATOM     20  N   UNL A   1      39.632  30.341  31.819  1.00  0.00    -0.354 N 
ATOM     21  C   UNL A   1      40.021  32.595  35.485  1.00  0.00     0.074 A 
ATOM     22  C   UNL A   1      39.014  33.630  35.575  1.00  0.00     0.031 C 
ATOM     23  C   UNL A   1      38.754  29.813  29.830  1.00  0.00     0.029 A 
ATOM     24  C   UNL A   1      39.828  29.486  30.760  1.00  0.00     0.049 A 
ATOM     25  H   UNL A   1      40.203  30.344  32.622  1.00  0.00     0.167 HD
ATOM     26  C   UNL A   1      40.974  32.368  36.421  1.00  0.00     0.034 A 
ATOM     27  C   UNL A   1      40.772  28.549  30.553  1.00  0.00     0.034 A 
ATOM     28  C   UNL A   1      41.958  31.320  36.338  1.00  0.00     0.049 A 
ATOM     29  C   UNL A   1      41.798  28.304  31.620  1.00  0.00     0.074 A 
ATOM     30  C   UNL A   1      42.938  30.984  37.256  1.00  0.00     0.029 A 
ATOM     31  N   UNL A   1      42.090  30.439  35.275  1.00  0.00    -0.354 N 
ATOM     32  N   UNL A   1      41.922  28.879  32.793  1.00  0.00    -0.248 NA
ATOM     33  C   UNL A   1      42.799  27.262  31.352  1.00  0.00     0.031 C 
ATOM     34  C   UNL A   1      43.668  29.906  36.745  1.00  0.00     0.029 A 
ATOM     35  C   UNL A   1      43.135  29.560  35.514  1.00  0.00     0.049 A 
ATOM     36  H   UNL A   1      41.525  30.438  34.469  1.00  0.00     0.167 HD
ATOM     37  C   UNL A   1      42.997  28.255  33.410  1.00  0.00     0.074 A 
ATOM     38  C   UNL A   1      43.471  27.235  32.495  1.00  0.00     0.031 C 
ATOM     39  C   UNL A   1      43.560  28.517  34.616  1.00  0.00     0.034 A 
BRANCH  26  40
ATOM     40  C   UNL A   1      40.968  33.235  37.654  1.00  0.00     0.023 A 
ATOM     41  C   UNL A   1      40.128  32.892  38.733  1.00  0.00     0.012 A 
ATOM     42  C   UNL A   1      41.842  34.334  37.782  1.00  0.00     0.148 A 
ATOM     43  C   UNL A   1      40.137  33.641  39.908  1.00  0.00     0.002 A 
ATOM     44  C   UNL A   1      41.871  35.054  38.972  1.00  0.00     0.091 A 
ATOM     45  F   UNL A   1      42.621  34.658  36.740  1.00  0.00    -0.205 F 
ATOM     46  C   UNL A   1      41.015  34.713  40.032  1.00  0.00     0.022 A 
BRANCH  44  47
ATOM     47  S   UNL A   1      43.018  36.409  39.257  1.00  0.00     0.127 S 
ATOM     48  O   UNL A   1      42.537  37.406  38.301  1.00  0.00    -0.237 OA
ATOM     49  O   UNL A   1      42.765  36.739  40.659  1.00  0.00    -0.237 OA
ATOM     50  O   UNL A   1      44.344  35.871  38.991  1.00  0.00    -0.744 OA
ENDBRANCH  44  47
ENDBRANCH  26  40
BRANCH  27  51
ATOM     51  C   UNL A   1      40.745  27.738  29.303  1.00  0.00     0.023 A 
ATOM     52  C   UNL A   1      39.794  26.711  29.162  1.00  0.00     0.012 A 
ATOM     53  C   UNL A   1      41.624  28.012  28.237  1.00  0.00     0.148 A 
ATOM     54  C   UNL A   1      39.734  25.954  27.991  1.00  0.00     0.002 A 
ATOM     55  C   UNL A   1      41.518  27.295  27.050  1.00  0.00     0.091 A 
ATOM     56  F   UNL A   1      42.539  28.979  28.395  1.00  0.00    -0.205 F 
ATOM     57  C   UNL A   1      40.585  26.254  26.931  1.00  0.00     0.022 A 
BRANCH  55  58
ATOM     58  S   UNL A   1      42.479  27.728  25.597  1.00  0.00     0.127 S 
ATOM     59  O   UNL A   1      41.895  29.011  25.221  1.00  0.00    -0.237 OA
ATOM     60  O   UNL A   1      43.839  27.804  26.135  1.00  0.00    -0.237 OA
ATOM     61  O   UNL A   1      42.273  26.629  24.662  1.00  0.00    -0.744 OA
ENDBRANCH  55  58
ENDBRANCH  27  51
BRANCH  39  62
ATOM     62  C   UNL A   1      44.738  27.677  35.024  1.00  0.00     0.023 A 
ATOM     63  C   UNL A   1      46.042  28.112  34.715  1.00  0.00     0.012 A 
ATOM     64  C   UNL A   1      44.561  26.488  35.758  1.00  0.00     0.148 A 
ATOM     65  C   UNL A   1      47.151  27.360  35.102  1.00  0.00     0.002 A 
ATOM     66  C   UNL A   1      45.672  25.766  36.178  1.00  0.00     0.091 A 
ATOM     67  F   UNL A   1      43.311  26.079  36.022  1.00  0.00    -0.205 F 
ATOM     68  C   UNL A   1      46.966  26.195  35.842  1.00  0.00     0.022 A 
BRANCH  66  69
ATOM     69  S   UNL A   1      45.528  24.301  37.208  1.00  0.00     0.127 S 
ATOM     70  O   UNL A   1      44.951  23.335  36.273  1.00  0.00    -0.237 OA
ATOM     71  O   UNL A   1      46.919  24.038  37.576  1.00  0.00    -0.237 OA
ATOM     72  O   UNL A   1      44.673  24.684  38.324  1.00  0.00    -0.744 OA
ENDBRANCH  66  69
ENDBRANCH  39  62
ENDBRANCH  13  14
ENDBRANCH   6   8
ENDBRANCH   3   4
ENDBRANCH   2   3
ENDBRANCH   1   2
BRANCH   1  73
ATOM     73  C   UNL A   1      34.966  31.538  27.823  1.00  0.00     0.002 C 
BRANCH  73  74
ATOM     74  C   UNL A   1      35.859  30.310  27.624  1.00  0.00     0.021 C 
BRANCH  74  75
ATOM     75  C   UNL A   1      35.135  29.058  27.140  1.00  0.00     0.116 C 
BRANCH  75  76
ATOM     76  N   UNL A   1      33.792  28.940  27.683  1.00  0.00    -0.351 N 
ATOM     77  C   UNL A   1      32.742  28.185  27.211  1.00  0.00     0.269 C 
ATOM     78  H   UNL A   1      33.611  29.468  28.495  1.00  0.00     0.163 HD
ATOM     79  O   UNL A   1      31.660  28.203  27.792  1.00  0.00    -0.268 OA
BRANCH  77  80
ATOM     80  C   UNL A   1      32.938  27.348  25.997  1.00  0.00     0.129 A 
ATOM     81  C   UNL A   1      32.093  27.509  24.902  1.00  0.00     0.049 A 
ATOM     82  N   UNL A   1      33.938  26.434  26.067  1.00  0.00    -0.251 NA
ATOM     83  C   UNL A   1      32.247  26.636  23.834  1.00  0.00     0.012 A 
ATOM     84  C   UNL A   1      34.094  25.636  24.998  1.00  0.00     0.113 A 
ATOM     85  C   UNL A   1      33.280  25.693  23.882  1.00  0.00     0.035 A 
BRANCH  83  86
ATOM     86  S   UNL A   1      31.253  26.622  22.360  1.00  0.00    -0.116 SA
BRANCH  86  87
ATOM     87  C   UNL A   1      30.509  28.268  22.229  1.00  0.00     0.175 C 
BRANCH  87  88
ATOM     88  C   UNL A   1      29.062  28.473  22.645  1.00  0.00     0.233 C 
ATOM     89  O   UNL A   1      28.526  27.604  23.344  1.00  0.00    -0.274 OA
ATOM     90  N   UNL A   1      28.432  29.681  22.431  1.00  0.00    -0.337 N 
ATOM     91  C   UNL A   1      28.605  30.577  21.287  1.00  0.00     0.148 C 
ATOM     92  C   UNL A   1      27.366  30.113  23.345  1.00  0.00     0.148 C 
ATOM     93  C   UNL A   1      28.762  32.028  21.741  1.00  0.00     0.181 C 
ATOM     94  C   UNL A   1      27.592  31.579  23.747  1.00  0.00     0.181 C 
ATOM     95  O   UNL A   1      27.670  32.418  22.583  1.00  0.00    -0.378 OA
ENDBRANCH  87  88
ENDBRANCH  86  87
ENDBRANCH  83  86
ENDBRANCH  77  80
ENDBRANCH  75  76
ENDBRANCH  74  75
ENDBRANCH  73  74
ENDBRANCH   1  73
TORSDOF 19
ENDMDL
