MODEL 1
REMARK VINA RESULT:     -11.6      0.000      0.000
REMARK SMILES COc1ccc(S(=O)(=O)N[C@H]2C=C[C@@H](C(=O)NCCCCCCNC(=O)c3ccc(-c4c5nc(c(-c6cccc(S(=O)(=O)[O-])c6F)c6ccc([nH]6)c(-c6cccc(S(=O)(=O)[O-])c6F)c6nc(c(-c7cccc(S(=O)(=O)[O-])c7F)c7ccc4[nH]7)C=C6)C=C5)cc3)C2)cc1
REMARK SMILES IDX 20 1 19 2 18 3 17 4 15 5 16 6 14 8 11 9 12 10 90 11 13 12
REMARK SMILES IDX 10 13 7 15 8 16 9 17 6 18 3 19 4 20 92 21 5 22 91 23 2 24
REMARK SMILES IDX 1 25 21 26 22 27 23 28 24 29 25 30 26 32 27 33 28 34 89 35
REMARK SMILES IDX 29 36 88 37 30 38 31 39 32 40 82 41 33 42 87 43 81 44 83 45
REMARK SMILES IDX 34 46 86 47 80 48 79 49 35 51 67 52 47 53 66 54 48 55 51 56
REMARK SMILES IDX 65 57 84 58 49 59 50 60 64 62 85 63 52 64 36 65 37 66 45 67
REMARK SMILES IDX 38 68 40 69 46 70 39 71 41 72 42 73 43 74 44 75 68 76 69 77
REMARK SMILES IDX 77 78 70 79 72 80 78 81 71 82 73 83 74 84 75 85 76 86 53 87
REMARK SMILES IDX 54 88 62 89 55 90 57 91 63 92 56 93 58 94 59 95 60 96 61 97
REMARK H PARENT 17 7 10 14 24 31 83 50 51 61
REMARK Flexibility Score: inf
ROOT
ATOM      1  C   UNL A   1      33.554  20.698  24.910  1.00  0.00     0.002 C 
ENDROOT
BRANCH   1   2
ATOM      2  C   UNL A   1      32.257  21.418  24.510  1.00  0.00     0.021 C 
BRANCH   2   3
ATOM      3  C   UNL A   1      32.434  22.513  23.454  1.00  0.00     0.116 C 
BRANCH   3   4
ATOM      4  N   UNL A   1      33.806  22.601  22.999  1.00  0.00    -0.356 N 
ATOM      5  C   UNL A   1      34.684  23.636  23.004  1.00  0.00     0.226 C 
ATOM      6  O   UNL A   1      35.836  23.380  22.628  1.00  0.00    -0.274 OA
ATOM      7  H   UNL A   1      34.164  21.766  22.620  1.00  0.00     0.163 HD
BRANCH   5   8
ATOM      8  C   UNL A   1      34.359  25.050  23.502  1.00  0.00     0.103 C 
ATOM      9  C   UNL A   1      32.732  26.758  24.062  1.00  0.00     0.093 C 
ATOM     10  C   UNL A   1      33.281  26.109  25.286  1.00  0.00    -0.011 C 
ATOM     11  C   UNL A   1      33.163  25.825  22.925  1.00  0.00     0.042 C 
ATOM     12  C   UNL A   1      34.151  25.138  24.985  1.00  0.00    -0.016 C 
BRANCH   9  13
ATOM     13  N   UNL A   1      31.329  27.083  24.226  1.00  0.00    -0.204 NA
ATOM     14  H   UNL A   1      31.004  26.422  24.932  1.00  0.00     0.142 HD
BRANCH  13  15
ATOM     15  S   UNL A   1      30.096  27.120  23.110  1.00  0.00     0.241 S 
ATOM     16  O   UNL A   1      29.147  26.077  23.464  1.00  0.00    -0.207 OA
ATOM     17  O   UNL A   1      30.742  27.133  21.826  1.00  0.00    -0.207 OA
BRANCH  15  18
ATOM     18  C   UNL A   1      29.295  28.689  23.313  1.00  0.00     0.082 A 
ATOM     19  C   UNL A   1      28.214  31.261  23.316  1.00  0.00     0.118 A 
ATOM     20  C   UNL A   1      29.523  31.055  23.738  1.00  0.00     0.048 A 
ATOM     21  C   UNL A   1      27.420  30.170  22.953  1.00  0.00     0.048 A 
ATOM     22  C   UNL A   1      30.054  29.767  23.763  1.00  0.00     0.025 A 
ATOM     23  C   UNL A   1      27.957  28.875  22.965  1.00  0.00     0.025 A 
BRANCH  19  24
ATOM     24  O   UNL A   1      27.828  32.569  23.218  1.00  0.00    -0.497 OA
ATOM     25  C   UNL A   1      28.908  33.489  23.103  1.00  0.00     0.278 C 
ENDBRANCH  19  24
ENDBRANCH  15  18
ENDBRANCH  13  15
ENDBRANCH   9  13
ENDBRANCH   5   8
ENDBRANCH   3   4
ENDBRANCH   2   3
ENDBRANCH   1   2
BRANCH   1  26
ATOM     26  C   UNL A   1      33.967  20.803  26.388  1.00  0.00     0.002 C 
BRANCH  26  27
ATOM     27  C   UNL A   1      35.003  21.872  26.748  1.00  0.00     0.021 C 
BRANCH  27  28
ATOM     28  C   UNL A   1      36.118  22.119  25.737  1.00  0.00     0.116 C 
BRANCH  28  29
ATOM     29  N   UNL A   1      37.133  21.083  25.785  1.00  0.00    -0.352 N 
ATOM     30  C   UNL A   1      38.493  21.179  25.958  1.00  0.00     0.251 C 
ATOM     31  H   UNL A   1      36.794  20.165  25.673  1.00  0.00     0.163 HD
ATOM     32  O   UNL A   1      39.191  20.189  25.741  1.00  0.00    -0.269 OA
BRANCH  30  33
ATOM     33  C   UNL A   1      39.141  22.445  26.394  1.00  0.00     0.039 A 
ATOM     34  C   UNL A   1      38.675  23.652  25.860  1.00  0.00     0.014 A 
ATOM     35  C   UNL A   1      40.250  22.457  27.246  1.00  0.00     0.014 A 
ATOM     36  C   UNL A   1      39.290  24.863  26.205  1.00  0.00     0.010 A 
ATOM     37  C   UNL A   1      40.823  23.671  27.638  1.00  0.00     0.010 A 
ATOM     38  C   UNL A   1      40.363  24.887  27.109  1.00  0.00    -0.014 A 
BRANCH  38  39
ATOM     39  C   UNL A   1      41.025  26.166  27.492  1.00  0.00     0.031 A 
ATOM     40  C   UNL A   1      42.457  26.432  27.101  1.00  0.00     0.074 A 
ATOM     41  C   UNL A   1      40.367  27.065  28.251  1.00  0.00     0.049 A 
ATOM     42  N   UNL A   1      43.215  27.460  27.390  1.00  0.00    -0.248 NA
ATOM     43  C   UNL A   1      43.131  25.399  26.298  1.00  0.00     0.031 C 
ATOM     44  C   UNL A   1      39.002  26.910  28.752  1.00  0.00     0.029 A 
ATOM     45  N   UNL A   1      40.769  28.281  28.754  1.00  0.00    -0.354 N 
ATOM     46  C   UNL A   1      44.461  27.182  26.840  1.00  0.00     0.074 A 
ATOM     47  C   UNL A   1      44.366  25.877  26.220  1.00  0.00     0.031 C 
ATOM     48  C   UNL A   1      38.678  27.986  29.490  1.00  0.00     0.029 A 
ATOM     49  C   UNL A   1      39.818  28.898  29.533  1.00  0.00     0.049 A 
ATOM     50  H   UNL A   1      41.654  28.672  28.572  1.00  0.00     0.167 HD
ATOM     51  C   UNL A   1      45.577  27.950  26.821  1.00  0.00     0.034 A 
ATOM     52  C   UNL A   1      39.857  30.066  30.206  1.00  0.00     0.034 A 
ATOM     53  C   UNL A   1      45.661  29.273  27.380  1.00  0.00     0.049 A 
ATOM     54  C   UNL A   1      41.092  30.924  30.128  1.00  0.00     0.074 A 
ATOM     55  C   UNL A   1      46.721  30.161  27.333  1.00  0.00     0.029 A 
ATOM     56  N   UNL A   1      44.645  29.902  28.082  1.00  0.00    -0.354 N 
ATOM     57  N   UNL A   1      42.206  30.709  29.472  1.00  0.00    -0.248 NA
ATOM     58  C   UNL A   1      41.061  32.204  30.854  1.00  0.00     0.031 C 
ATOM     59  C   UNL A   1      46.347  31.328  28.011  1.00  0.00     0.029 A 
ATOM     60  C   UNL A   1      45.052  31.166  28.475  1.00  0.00     0.049 A 
ATOM     61  H   UNL A   1      43.763  29.508  28.274  1.00  0.00     0.167 HD
ATOM     62  C   UNL A   1      42.994  31.836  29.678  1.00  0.00     0.074 A 
ATOM     63  C   UNL A   1      42.222  32.742  30.503  1.00  0.00     0.031 C 
ATOM     64  C   UNL A   1      44.252  32.088  29.239  1.00  0.00     0.034 A 
BRANCH  51  65
ATOM     65  C   UNL A   1      46.787  27.410  26.106  1.00  0.00     0.023 A 
ATOM     66  C   UNL A   1      47.616  26.479  26.765  1.00  0.00     0.012 A 
ATOM     67  C   UNL A   1      47.071  27.765  24.773  1.00  0.00     0.148 A 
ATOM     68  C   UNL A   1      48.725  25.933  26.122  1.00  0.00     0.002 A 
ATOM     69  C   UNL A   1      48.159  27.187  24.124  1.00  0.00     0.091 A 
ATOM     70  F   UNL A   1      46.286  28.667  24.167  1.00  0.00    -0.205 F 
ATOM     71  C   UNL A   1      48.990  26.279  24.799  1.00  0.00     0.022 A 
BRANCH  69  72
ATOM     72  S   UNL A   1      48.538  27.516  22.399  1.00  0.00     0.127 S 
ATOM     73  O   UNL A   1      47.384  28.313  21.987  1.00  0.00    -0.237 OA
ATOM     74  O   UNL A   1      49.792  28.264  22.492  1.00  0.00    -0.237 OA
ATOM     75  O   UNL A   1      48.661  26.211  21.764  1.00  0.00    -0.744 OA
ENDBRANCH  69  72
ENDBRANCH  51  65
BRANCH  52  76
ATOM     76  C   UNL A   1      38.649  30.535  30.944  1.00  0.00     0.023 A 
ATOM     77  C   UNL A   1      38.553  30.282  32.327  1.00  0.00     0.012 A 
ATOM     78  C   UNL A   1      37.621  31.254  30.306  1.00  0.00     0.148 A 
ATOM     79  C   UNL A   1      37.445  30.715  33.056  1.00  0.00     0.002 A 
ATOM     80  C   UNL A   1      36.543  31.727  31.047  1.00  0.00     0.091 A 
ATOM     81  F   UNL A   1      37.718  31.469  28.986  1.00  0.00    -0.205 F 
ATOM     82  C   UNL A   1      36.447  31.446  32.419  1.00  0.00     0.022 A 
BRANCH  80  83
ATOM     83  S   UNL A   1      35.280  32.789  30.333  1.00  0.00     0.127 S 
ATOM     84  O   UNL A   1      34.386  32.998  31.468  1.00  0.00    -0.237 OA
ATOM     85  O   UNL A   1      36.054  33.965  29.935  1.00  0.00    -0.237 OA
ATOM     86  O   UNL A   1      34.727  32.036  29.215  1.00  0.00    -0.744 OA
ENDBRANCH  80  83
ENDBRANCH  52  76
BRANCH  64  87
ATOM     87  C   UNL A   1      44.878  33.405  29.617  1.00  0.00     0.023 A 
ATOM     88  C   UNL A   1      45.629  33.499  30.804  1.00  0.00     0.012 A 
ATOM     89  C   UNL A   1      44.795  34.520  28.760  1.00  0.00     0.148 A 
ATOM     90  C   UNL A   1      46.271  34.689  31.145  1.00  0.00     0.002 A 
ATOM     91  C   UNL A   1      45.470  35.692  29.087  1.00  0.00     0.091 A 
ATOM     92  F   UNL A   1      44.057  34.419  27.645  1.00  0.00    -0.205 F 
ATOM     93  C   UNL A   1      46.201  35.781  30.282  1.00  0.00     0.022 A 
BRANCH  91  94
ATOM     94  S   UNL A   1      45.502  37.115  27.989  1.00  0.00     0.127 S 
ATOM     95  O   UNL A   1      46.082  36.542  26.775  1.00  0.00    -0.237 OA
ATOM     96  O   UNL A   1      44.084  37.462  27.881  1.00  0.00    -0.237 OA
ATOM     97  O   UNL A   1      46.315  38.117  28.664  1.00  0.00    -0.744 OA
ENDBRANCH  91  94
ENDBRANCH  64  87
ENDBRANCH  38  39
ENDBRANCH  30  33
ENDBRANCH  28  29
ENDBRANCH  27  28
ENDBRANCH  26  27
ENDBRANCH   1  26
TORSDOF 20
ENDMDL
MODEL 2
REMARK VINA RESULT:     -11.4      6.329     11.584
REMARK SMILES COc1ccc(S(=O)(=O)N[C@H]2C=C[C@@H](C(=O)NCCCCCCNC(=O)c3ccc(-c4c5nc(c(-c6cccc(S(=O)(=O)[O-])c6F)c6ccc([nH]6)c(-c6cccc(S(=O)(=O)[O-])c6F)c6nc(c(-c7cccc(S(=O)(=O)[O-])c7F)c7ccc4[nH]7)C=C6)C=C5)cc3)C2)cc1
REMARK SMILES IDX 20 1 19 2 18 3 17 4 15 5 16 6 14 8 11 9 12 10 90 11 13 12
REMARK SMILES IDX 10 13 7 15 8 16 9 17 6 18 3 19 4 20 92 21 5 22 91 23 2 24
REMARK SMILES IDX 1 25 21 26 22 27 23 28 24 29 25 30 26 32 27 33 28 34 89 35
REMARK SMILES IDX 29 36 88 37 30 38 31 39 32 40 82 41 33 42 87 43 81 44 83 45
REMARK SMILES IDX 34 46 86 47 80 48 79 49 35 51 67 52 47 53 66 54 48 55 51 56
REMARK SMILES IDX 65 57 84 58 49 59 50 60 64 62 85 63 52 64 36 65 37 66 45 67
REMARK SMILES IDX 38 68 40 69 46 70 39 71 41 72 42 73 43 74 44 75 68 76 69 77
REMARK SMILES IDX 77 78 70 79 72 80 78 81 71 82 73 83 74 84 75 85 76 86 53 87
REMARK SMILES IDX 54 88 62 89 55 90 57 91 63 92 56 93 58 94 59 95 60 96 61 97
REMARK H PARENT 17 7 10 14 24 31 83 50 51 61
REMARK Flexibility Score: inf
ROOT
ATOM      1  C   UNL A   1      34.918  32.620  28.806  1.00  0.00     0.002 C 
ENDROOT
BRANCH   1   2
ATOM      2  C   UNL A   1      34.387  31.709  27.689  1.00  0.00     0.021 C 
BRANCH   2   3
ATOM      3  C   UNL A   1      34.940  30.281  27.713  1.00  0.00     0.116 C 
BRANCH   3   4
ATOM      4  N   UNL A   1      33.901  29.310  27.987  1.00  0.00    -0.356 N 
ATOM      5  C   UNL A   1      32.981  28.733  27.173  1.00  0.00     0.226 C 
ATOM      6  O   UNL A   1      32.272  27.855  27.682  1.00  0.00    -0.274 OA
ATOM      7  H   UNL A   1      33.854  29.018  28.926  1.00  0.00     0.163 HD
BRANCH   5   8
ATOM      8  C   UNL A   1      32.821  29.049  25.680  1.00  0.00     0.103 C 
ATOM      9  C   UNL A   1      32.230  28.350  23.435  1.00  0.00     0.093 C 
ATOM     10  C   UNL A   1      31.147  29.167  24.052  1.00  0.00    -0.011 C 
ATOM     11  C   UNL A   1      33.134  27.983  24.618  1.00  0.00     0.042 C 
ATOM     12  C   UNL A   1      31.448  29.525  25.305  1.00  0.00    -0.016 C 
BRANCH   9  13
ATOM     13  N   UNL A   1      31.683  27.298  22.603  1.00  0.00    -0.204 NA
ATOM     14  H   UNL A   1      31.150  26.720  23.253  1.00  0.00     0.142 HD
BRANCH  13  15
ATOM     15  S   UNL A   1      32.448  26.194  21.620  1.00  0.00     0.241 S 
ATOM     16  O   UNL A   1      33.809  26.659  21.408  1.00  0.00    -0.207 OA
ATOM     17  O   UNL A   1      31.553  25.982  20.514  1.00  0.00    -0.207 OA
BRANCH  15  18
ATOM     18  C   UNL A   1      32.517  24.679  22.540  1.00  0.00     0.082 A 
ATOM     19  C   UNL A   1      32.925  22.446  24.161  1.00  0.00     0.118 A 
ATOM     20  C   UNL A   1      33.735  22.657  23.049  1.00  0.00     0.048 A 
ATOM     21  C   UNL A   1      31.867  23.319  24.426  1.00  0.00     0.048 A 
ATOM     22  C   UNL A   1      33.513  23.758  22.223  1.00  0.00     0.025 A 
ATOM     23  C   UNL A   1      31.650  24.433  23.604  1.00  0.00     0.025 A 
BRANCH  19  24
ATOM     24  O   UNL A   1      33.297  21.407  24.968  1.00  0.00    -0.497 OA
ATOM     25  C   UNL A   1      32.286  20.421  25.152  1.00  0.00     0.278 C 
ENDBRANCH  19  24
ENDBRANCH  15  18
ENDBRANCH  13  15
ENDBRANCH   9  13
ENDBRANCH   5   8
ENDBRANCH   3   4
ENDBRANCH   2   3
ENDBRANCH   1   2
BRANCH   1  26
ATOM     26  C   UNL A   1      34.751  34.134  28.592  1.00  0.00     0.002 C 
BRANCH  26  27
ATOM     27  C   UNL A   1      33.353  34.719  28.813  1.00  0.00     0.021 C 
BRANCH  27  28
ATOM     28  C   UNL A   1      33.280  36.146  29.348  1.00  0.00     0.116 C 
BRANCH  28  29
ATOM     29  N   UNL A   1      32.465  36.236  30.545  1.00  0.00    -0.352 N 
ATOM     30  C   UNL A   1      32.601  35.610  31.761  1.00  0.00     0.251 C 
ATOM     31  H   UNL A   1      31.690  36.839  30.474  1.00  0.00     0.163 HD
ATOM     32  O   UNL A   1      31.667  35.658  32.561  1.00  0.00    -0.269 OA
BRANCH  30  33
ATOM     33  C   UNL A   1      33.839  34.874  32.131  1.00  0.00     0.039 A 
ATOM     34  C   UNL A   1      33.715  33.588  32.671  1.00  0.00     0.014 A 
ATOM     35  C   UNL A   1      35.106  35.456  32.038  1.00  0.00     0.014 A 
ATOM     36  C   UNL A   1      34.852  32.879  33.080  1.00  0.00     0.010 A 
ATOM     37  C   UNL A   1      36.245  34.725  32.388  1.00  0.00     0.010 A 
ATOM     38  C   UNL A   1      36.133  33.435  32.930  1.00  0.00    -0.014 A 
BRANCH  38  39
ATOM     39  C   UNL A   1      37.354  32.693  33.353  1.00  0.00     0.031 A 
ATOM     40  C   UNL A   1      38.110  33.108  34.590  1.00  0.00     0.074 A 
ATOM     41  C   UNL A   1      37.829  31.686  32.593  1.00  0.00     0.049 A 
ATOM     42  N   UNL A   1      39.220  32.619  35.083  1.00  0.00    -0.248 NA
ATOM     43  C   UNL A   1      37.557  34.234  35.362  1.00  0.00     0.031 C 
ATOM     44  C   UNL A   1      37.235  31.220  31.340  1.00  0.00     0.029 A 
ATOM     45  N   UNL A   1      38.938  30.888  32.751  1.00  0.00    -0.354 N 
ATOM     46  C   UNL A   1      39.519  33.398  36.196  1.00  0.00     0.074 A 
ATOM     47  C   UNL A   1      38.486  34.407  36.293  1.00  0.00     0.031 C 
ATOM     48  C   UNL A   1      37.982  30.221  30.842  1.00  0.00     0.029 A 
ATOM     49  C   UNL A   1      39.120  29.987  31.728  1.00  0.00     0.049 A 
ATOM     50  H   UNL A   1      39.543  30.956  33.524  1.00  0.00     0.167 HD
ATOM     51  C   UNL A   1      40.539  33.269  37.079  1.00  0.00     0.034 A 
ATOM     52  C   UNL A   1      40.092  29.075  31.523  1.00  0.00     0.034 A 
ATOM     53  C   UNL A   1      41.532  32.231  37.025  1.00  0.00     0.049 A 
ATOM     54  C   UNL A   1      41.188  28.920  32.545  1.00  0.00     0.074 A 
ATOM     55  C   UNL A   1      42.552  31.968  37.923  1.00  0.00     0.029 A 
ATOM     56  N   UNL A   1      41.629  31.278  36.022  1.00  0.00    -0.354 N 
ATOM     57  N   UNL A   1      41.363  29.566  33.671  1.00  0.00    -0.248 NA
ATOM     58  C   UNL A   1      42.199  27.883  32.285  1.00  0.00     0.031 C 
ATOM     59  C   UNL A   1      43.269  30.858  37.461  1.00  0.00     0.029 A 
ATOM     60  C   UNL A   1      42.691  30.428  36.278  1.00  0.00     0.049 A 
ATOM     61  H   UNL A   1      41.031  31.216  35.243  1.00  0.00     0.167 HD
ATOM     62  C   UNL A   1      42.482  28.995  34.270  1.00  0.00     0.074 A 
ATOM     63  C   UNL A   1      42.931  27.936  33.390  1.00  0.00     0.031 C 
ATOM     64  C   UNL A   1      43.092  29.333  35.432  1.00  0.00     0.034 A 
BRANCH  51  65
ATOM     65  C   UNL A   1      40.592  34.237  38.231  1.00  0.00     0.023 A 
ATOM     66  C   UNL A   1      41.345  35.422  38.098  1.00  0.00     0.012 A 
ATOM     67  C   UNL A   1      39.857  34.015  39.412  1.00  0.00     0.148 A 
ATOM     68  C   UNL A   1      41.390  36.356  39.132  1.00  0.00     0.002 A 
ATOM     69  C   UNL A   1      39.877  34.969  40.425  1.00  0.00     0.091 A 
ATOM     70  F   UNL A   1      39.164  32.874  39.531  1.00  0.00    -0.205 F 
ATOM     71  C   UNL A   1      40.649  36.134  40.290  1.00  0.00     0.022 A 
BRANCH  69  72
ATOM     72  S   UNL A   1      38.899  34.806  41.923  1.00  0.00     0.127 S 
ATOM     73  O   UNL A   1      39.687  35.584  42.878  1.00  0.00    -0.237 OA
ATOM     74  O   UNL A   1      37.630  35.423  41.536  1.00  0.00    -0.237 OA
ATOM     75  O   UNL A   1      38.817  33.376  42.190  1.00  0.00    -0.744 OA
ENDBRANCH  69  72
ENDBRANCH  51  65
BRANCH  52  76
ATOM     76  C   UNL A   1      40.022  28.173  30.338  1.00  0.00     0.023 A 
ATOM     77  C   UNL A   1      39.141  27.074  30.368  1.00  0.00     0.012 A 
ATOM     78  C   UNL A   1      40.784  28.409  29.178  1.00  0.00     0.148 A 
ATOM     79  C   UNL A   1      39.036  26.214  29.275  1.00  0.00     0.002 A 
ATOM     80  C   UNL A   1      40.638  27.577  28.073  1.00  0.00     0.091 A 
ATOM     81  F   UNL A   1      41.633  29.447  29.173  1.00  0.00    -0.205 F 
ATOM     82  C   UNL A   1      39.775  26.472  28.124  1.00  0.00     0.022 A 
BRANCH  80  83
ATOM     83  S   UNL A   1      41.453  27.914  26.505  1.00  0.00     0.127 S 
ATOM     84  O   UNL A   1      40.871  29.201  26.134  1.00  0.00    -0.237 OA
ATOM     85  O   UNL A   1      42.863  27.965  26.895  1.00  0.00    -0.237 OA
ATOM     86  O   UNL A   1      41.116  26.789  25.644  1.00  0.00    -0.744 OA
ENDBRANCH  80  83
ENDBRANCH  52  76
BRANCH  64  87
ATOM     87  C   UNL A   1      44.304  28.541  35.846  1.00  0.00     0.023 A 
ATOM     88  C   UNL A   1      45.579  28.948  35.409  1.00  0.00     0.012 A 
ATOM     89  C   UNL A   1      44.190  27.450  36.730  1.00  0.00     0.148 A 
ATOM     90  C   UNL A   1      46.722  28.268  35.830  1.00  0.00     0.002 A 
ATOM     91  C   UNL A   1      45.337  26.802  37.176  1.00  0.00     0.091 A 
ATOM     92  F   UNL A   1      42.966  27.063  37.117  1.00  0.00    -0.205 F 
ATOM     93  C   UNL A   1      46.603  27.204  36.721  1.00  0.00     0.022 A 
BRANCH  91  94
ATOM     94  S   UNL A   1      45.277  25.478  38.391  1.00  0.00     0.127 S 
ATOM     95  O   UNL A   1      44.680  26.155  39.540  1.00  0.00    -0.237 OA
ATOM     96  O   UNL A   1      44.407  24.495  37.742  1.00  0.00    -0.237 OA
ATOM     97  O   UNL A   1      46.655  25.038  38.564  1.00  0.00    -0.744 OA
ENDBRANCH  91  94
ENDBRANCH  64  87
ENDBRANCH  38  39
ENDBRANCH  30  33
ENDBRANCH  28  29
ENDBRANCH  27  28
ENDBRANCH  26  27
ENDBRANCH   1  26
TORSDOF 20
ENDMDL
MODEL 3
REMARK VINA RESULT:     -11.4      1.619      7.665
REMARK SMILES COc1ccc(S(=O)(=O)N[C@H]2C=C[C@@H](C(=O)NCCCCCCNC(=O)c3ccc(-c4c5nc(c(-c6cccc(S(=O)(=O)[O-])c6F)c6ccc([nH]6)c(-c6cccc(S(=O)(=O)[O-])c6F)c6nc(c(-c7cccc(S(=O)(=O)[O-])c7F)c7ccc4[nH]7)C=C6)C=C5)cc3)C2)cc1
REMARK SMILES IDX 20 1 19 2 18 3 17 4 15 5 16 6 14 8 11 9 12 10 90 11 13 12
REMARK SMILES IDX 10 13 7 15 8 16 9 17 6 18 3 19 4 20 92 21 5 22 91 23 2 24
REMARK SMILES IDX 1 25 21 26 22 27 23 28 24 29 25 30 26 32 27 33 28 34 89 35
REMARK SMILES IDX 29 36 88 37 30 38 31 39 32 40 82 41 33 42 87 43 81 44 83 45
REMARK SMILES IDX 34 46 86 47 80 48 79 49 35 51 67 52 47 53 66 54 48 55 51 56
REMARK SMILES IDX 65 57 84 58 49 59 50 60 64 62 85 63 52 64 36 65 37 66 45 67
REMARK SMILES IDX 38 68 40 69 46 70 39 71 41 72 42 73 43 74 44 75 68 76 69 77
REMARK SMILES IDX 77 78 70 79 72 80 78 81 71 82 73 83 74 84 75 85 76 86 53 87
REMARK SMILES IDX 54 88 62 89 55 90 57 91 63 92 56 93 58 94 59 95 60 96 61 97
REMARK H PARENT 17 7 10 14 24 31 83 50 51 61
REMARK Flexibility Score: inf
ROOT
ATOM      1  C   UNL A   1      34.244  20.254  25.049  1.00  0.00     0.002 C 
ENDROOT
BRANCH   1   2
ATOM      2  C   UNL A   1      33.084  20.791  24.197  1.00  0.00     0.021 C 
BRANCH   2   3
ATOM      3  C   UNL A   1      31.844  21.206  24.995  1.00  0.00     0.116 C 
BRANCH   3   4
ATOM      4  N   UNL A   1      32.057  22.448  25.708  1.00  0.00    -0.356 N 
ATOM      5  C   UNL A   1      32.217  23.719  25.259  1.00  0.00     0.226 C 
ATOM      6  O   UNL A   1      32.290  24.601  26.125  1.00  0.00    -0.274 OA
ATOM      7  H   UNL A   1      32.093  22.355  26.687  1.00  0.00     0.163 HD
BRANCH   5   8
ATOM      8  C   UNL A   1      32.242  24.122  23.779  1.00  0.00     0.103 C 
ATOM      9  C   UNL A   1      31.771  25.734  22.031  1.00  0.00     0.093 C 
ATOM     10  C   UNL A   1      33.219  25.723  22.383  1.00  0.00    -0.011 C 
ATOM     11  C   UNL A   1      31.106  24.967  23.180  1.00  0.00     0.042 C 
ATOM     12  C   UNL A   1      33.482  24.863  23.374  1.00  0.00    -0.016 C 
BRANCH   9  13
ATOM     13  N   UNL A   1      31.320  27.075  21.715  1.00  0.00    -0.204 NA
ATOM     14  H   UNL A   1      32.145  27.525  21.317  1.00  0.00     0.142 HD
BRANCH  13  15
ATOM     15  S   UNL A   1      30.654  28.245  22.692  1.00  0.00     0.241 S 
ATOM     16  O   UNL A   1      29.307  27.822  23.035  1.00  0.00    -0.207 OA
ATOM     17  O   UNL A   1      30.894  29.491  22.015  1.00  0.00    -0.207 OA
BRANCH  15  18
ATOM     18  C   UNL A   1      31.625  28.259  24.177  1.00  0.00     0.082 A 
ATOM     19  C   UNL A   1      33.080  28.651  26.525  1.00  0.00     0.118 A 
ATOM     20  C   UNL A   1      33.627  29.012  25.297  1.00  0.00     0.048 A 
ATOM     21  C   UNL A   1      31.828  28.032  26.573  1.00  0.00     0.048 A 
ATOM     22  C   UNL A   1      32.911  28.790  24.122  1.00  0.00     0.025 A 
ATOM     23  C   UNL A   1      31.102  27.820  25.393  1.00  0.00     0.025 A 
BRANCH  19  24
ATOM     24  O   UNL A   1      33.810  29.015  27.622  1.00  0.00    -0.497 OA
ATOM     25  C   UNL A   1      35.181  29.281  27.348  1.00  0.00     0.278 C 
ENDBRANCH  19  24
ENDBRANCH  15  18
ENDBRANCH  13  15
ENDBRANCH   9  13
ENDBRANCH   5   8
ENDBRANCH   3   4
ENDBRANCH   2   3
ENDBRANCH   1   2
BRANCH   1  26
ATOM     26  C   UNL A   1      35.029  21.291  25.869  1.00  0.00     0.002 C 
BRANCH  26  27
ATOM     27  C   UNL A   1      35.839  22.329  25.086  1.00  0.00     0.021 C 
BRANCH  27  28
ATOM     28  C   UNL A   1      37.045  21.817  24.305  1.00  0.00     0.116 C 
BRANCH  28  29
ATOM     29  N   UNL A   1      37.712  20.726  24.991  1.00  0.00    -0.352 N 
ATOM     30  C   UNL A   1      38.874  20.718  25.726  1.00  0.00     0.251 C 
ATOM     31  H   UNL A   1      37.263  19.853  24.917  1.00  0.00     0.163 HD
ATOM     32  O   UNL A   1      39.375  19.637  26.031  1.00  0.00    -0.269 OA
BRANCH  30  33
ATOM     33  C   UNL A   1      39.540  21.977  26.156  1.00  0.00     0.039 A 
ATOM     34  C   UNL A   1      38.876  23.191  25.942  1.00  0.00     0.014 A 
ATOM     35  C   UNL A   1      40.835  21.990  26.682  1.00  0.00     0.014 A 
ATOM     36  C   UNL A   1      39.488  24.403  26.286  1.00  0.00     0.010 A 
ATOM     37  C   UNL A   1      41.420  23.195  27.081  1.00  0.00     0.010 A 
ATOM     38  C   UNL A   1      40.763  24.418  26.873  1.00  0.00    -0.014 A 
BRANCH  38  39
ATOM     39  C   UNL A   1      41.427  25.697  27.251  1.00  0.00     0.031 A 
ATOM     40  C   UNL A   1      40.685  26.734  28.056  1.00  0.00     0.074 A 
ATOM     41  C   UNL A   1      42.674  25.964  26.815  1.00  0.00     0.049 A 
ATOM     42  N   UNL A   1      41.078  27.925  28.432  1.00  0.00    -0.248 NA
ATOM     43  C   UNL A   1      39.315  26.396  28.477  1.00  0.00     0.031 C 
ATOM     44  C   UNL A   1      43.485  25.080  25.978  1.00  0.00     0.029 A 
ATOM     45  N   UNL A   1      43.471  27.070  26.998  1.00  0.00    -0.354 N 
ATOM     46  C   UNL A   1      39.996  28.492  29.096  1.00  0.00     0.074 A 
ATOM     47  C   UNL A   1      38.921  27.524  29.052  1.00  0.00     0.031 C 
ATOM     48  C   UNL A   1      44.661  25.674  25.718  1.00  0.00     0.029 A 
ATOM     49  C   UNL A   1      44.683  26.990  26.352  1.00  0.00     0.049 A 
ATOM     50  H   UNL A   1      43.199  27.845  27.541  1.00  0.00     0.167 HD
ATOM     51  C   UNL A   1      39.909  29.694  29.716  1.00  0.00     0.034 A 
ATOM     52  C   UNL A   1      45.699  27.875  26.276  1.00  0.00     0.034 A 
ATOM     53  C   UNL A   1      40.993  30.635  29.818  1.00  0.00     0.049 A 
ATOM     54  C   UNL A   1      45.596  29.183  27.015  1.00  0.00     0.074 A 
ATOM     55  C   UNL A   1      41.026  31.839  30.500  1.00  0.00     0.029 A 
ATOM     56  N   UNL A   1      42.237  30.477  29.228  1.00  0.00    -0.354 N 
ATOM     57  N   UNL A   1      44.621  29.632  27.766  1.00  0.00    -0.248 NA
ATOM     58  C   UNL A   1      46.751  30.091  26.925  1.00  0.00     0.031 C 
ATOM     59  C   UNL A   1      42.290  32.411  30.319  1.00  0.00     0.029 A 
ATOM     60  C   UNL A   1      43.045  31.560  29.528  1.00  0.00     0.049 A 
ATOM     61  H   UNL A   1      42.507  29.707  28.676  1.00  0.00     0.167 HD
ATOM     62  C   UNL A   1      45.055  30.856  28.265  1.00  0.00     0.074 A 
ATOM     63  C   UNL A   1      46.390  31.069  27.746  1.00  0.00     0.031 C 
ATOM     64  C   UNL A   1      44.397  31.733  29.063  1.00  0.00     0.034 A 
BRANCH  51  65
ATOM     65  C   UNL A   1      38.613  30.035  30.403  1.00  0.00     0.023 A 
ATOM     66  C   UNL A   1      38.301  29.411  31.629  1.00  0.00     0.012 A 
ATOM     67  C   UNL A   1      37.738  31.007  29.881  1.00  0.00     0.148 A 
ATOM     68  C   UNL A   1      37.126  29.726  32.309  1.00  0.00     0.002 A 
ATOM     69  C   UNL A   1      36.585  31.344  30.584  1.00  0.00     0.091 A 
ATOM     70  F   UNL A   1      38.038  31.574  28.704  1.00  0.00    -0.205 F 
ATOM     71  C   UNL A   1      36.274  30.699  31.792  1.00  0.00     0.022 A 
BRANCH  69  72
ATOM     72  S   UNL A   1      35.464  32.635  30.034  1.00  0.00     0.127 S 
ATOM     73  O   UNL A   1      34.428  32.587  31.066  1.00  0.00    -0.237 OA
ATOM     74  O   UNL A   1      36.312  33.827  30.079  1.00  0.00    -0.237 OA
ATOM     75  O   UNL A   1      35.038  32.249  28.696  1.00  0.00    -0.744 OA
ENDBRANCH  69  72
ENDBRANCH  51  65
BRANCH  52  76
ATOM     76  C   UNL A   1      46.943  27.511  25.540  1.00  0.00     0.023 A 
ATOM     77  C   UNL A   1      47.955  26.804  26.218  1.00  0.00     0.012 A 
ATOM     78  C   UNL A   1      47.118  27.822  24.178  1.00  0.00     0.148 A 
ATOM     79  C   UNL A   1      49.129  26.434  25.561  1.00  0.00     0.002 A 
ATOM     80  C   UNL A   1      48.268  27.406  23.515  1.00  0.00     0.091 A 
ATOM     81  F   UNL A   1      46.153  28.512  23.552  1.00  0.00    -0.205 F 
ATOM     82  C   UNL A   1      49.280  26.724  24.208  1.00  0.00     0.022 A 
BRANCH  80  83
ATOM     83  S   UNL A   1      48.485  27.623  21.744  1.00  0.00     0.127 S 
ATOM     84  O   UNL A   1      48.690  26.248  21.295  1.00  0.00    -0.237 OA
ATOM     85  O   UNL A   1      47.208  28.215  21.346  1.00  0.00    -0.237 OA
ATOM     86  O   UNL A   1      49.625  28.518  21.599  1.00  0.00    -0.744 OA
ENDBRANCH  80  83
ENDBRANCH  52  76
BRANCH  64  87
ATOM     87  C   UNL A   1      45.110  33.001  29.452  1.00  0.00     0.023 A 
ATOM     88  C   UNL A   1      45.924  33.012  30.601  1.00  0.00     0.012 A 
ATOM     89  C   UNL A   1      45.043  34.150  28.640  1.00  0.00     0.148 A 
ATOM     90  C   UNL A   1      46.645  34.155  30.949  1.00  0.00     0.002 A 
ATOM     91  C   UNL A   1      45.795  35.273  28.971  1.00  0.00     0.091 A 
ATOM     92  F   UNL A   1      44.246  34.129  27.562  1.00  0.00    -0.205 F 
ATOM     93  C   UNL A   1      46.589  35.279  30.129  1.00  0.00     0.022 A 
BRANCH  91  94
ATOM     94  S   UNL A   1      45.849  36.732  27.923  1.00  0.00     0.127 S 
ATOM     95  O   UNL A   1      46.412  36.191  26.687  1.00  0.00    -0.237 OA
ATOM     96  O   UNL A   1      44.437  37.108  27.835  1.00  0.00    -0.237 OA
ATOM     97  O   UNL A   1      46.683  37.695  28.628  1.00  0.00    -0.744 OA
ENDBRANCH  91  94
ENDBRANCH  64  87
ENDBRANCH  38  39
ENDBRANCH  30  33
ENDBRANCH  28  29
ENDBRANCH  27  28
ENDBRANCH  26  27
ENDBRANCH   1  26
TORSDOF 20
ENDMDL
