MODEL 1
REMARK VINA RESULT:     -12.9      0.000      0.000
REMARK SMILES O=C(NCCCCCCNC(=O)c1ccc(-c2c3nc(c(-c4cccc(S(=O)(=O)[O-])c4F)c4ccc([nH]4)c(-c4cccc(S(=O)(=O)[O-])c4F)c4nc(c(-c5cccc(S(=O)(=O)[O-])c5F)c5ccc2[nH]5)C=C4)C=C3)cc1)C1=NN(c2ccc(S(=O)(=O)[O-])cc2)C(=O)/C1=C/Nc1ccccc1
REMARK SMILES IDX 7 1 6 2 5 3 4 4 3 5 1 6 2 7 76 9 77 10 91 11 78 12 89 13
REMARK SMILES IDX 92 14 90 15 79 16 80 17 88 18 81 19 87 20 82 21 83 22 84 23
REMARK SMILES IDX 85 24 86 25 93 26 94 28 95 29 99 30 96 31 98 32 97 33 8 34
REMARK SMILES IDX 9 35 10 36 11 37 12 39 13 40 14 41 75 42 15 43 74 44 16 45
REMARK SMILES IDX 17 46 18 47 68 48 19 49 73 50 67 51 69 52 20 53 72 54 66 55
REMARK SMILES IDX 65 56 21 58 53 59 33 60 52 61 34 62 37 63 51 64 70 65 35 66
REMARK SMILES IDX 36 67 50 69 71 70 38 71 22 72 23 73 31 74 24 75 26 76 32 77
REMARK SMILES IDX 25 78 27 79 28 80 29 81 30 82 54 83 55 84 63 85 56 86 58 87
REMARK SMILES IDX 64 88 57 89 59 90 60 91 61 92 62 93 39 94 40 95 48 96 41 97
REMARK SMILES IDX 43 98 49 99 42 100 44 101 45 102 46 103 47 104
REMARK H PARENT 3 8 93 27 10 38 69 57 37 68
REMARK Flexibility Score: inf
ROOT
ATOM      1  C   UNL A   1      32.119  29.917  27.015  1.00  0.00     0.002 C 
ENDROOT
BRANCH   1   2
ATOM      2  C   UNL A   1      31.865  29.017  25.802  1.00  0.00     0.002 C 
BRANCH   2   3
ATOM      3  C   UNL A   1      32.857  29.145  24.639  1.00  0.00     0.021 C 
BRANCH   3   4
ATOM      4  C   UNL A   1      33.743  27.928  24.388  1.00  0.00     0.116 C 
BRANCH   4   5
ATOM      5  N   UNL A   1      33.892  27.628  22.976  1.00  0.00    -0.351 N 
ATOM      6  O   UNL A   1      33.504  26.446  21.080  1.00  0.00    -0.267 OA
ATOM      7  C   UNL A   1      33.463  26.513  22.302  1.00  0.00     0.272 C 
ATOM      8  H   UNL A   1      34.357  28.307  22.436  1.00  0.00     0.163 HD
BRANCH   7   9
ATOM      9  C   UNL A   1      32.854  25.375  23.059  1.00  0.00     0.163 C 
ATOM     10  N   UNL A   1      33.471  24.246  23.304  1.00  0.00    -0.158 NA
ATOM     11  C   UNL A   1      31.482  25.397  23.566  1.00  0.00     0.091 C 
ATOM     12  N   UNL A   1      32.525  23.444  23.953  1.00  0.00    -0.196 N 
ATOM     13  C   UNL A   1      31.310  24.092  24.226  1.00  0.00     0.282 C 
ATOM     14  C   UNL A   1      30.512  26.308  23.466  1.00  0.00     0.099 C 
ATOM     15  O   UNL A   1      30.303  23.717  24.802  1.00  0.00    -0.267 OA
BRANCH  12  16
ATOM     16  C   UNL A   1      32.779  22.056  24.077  1.00  0.00     0.069 A 
ATOM     17  C   UNL A   1      33.707  21.570  25.009  1.00  0.00     0.030 A 
ATOM     18  C   UNL A   1      32.161  21.141  23.208  1.00  0.00     0.030 A 
ATOM     19  C   UNL A   1      34.008  20.202  25.073  1.00  0.00     0.021 A 
ATOM     20  C   UNL A   1      32.477  19.782  23.243  1.00  0.00     0.021 A 
ATOM     21  C   UNL A   1      33.394  19.317  24.182  1.00  0.00     0.054 A 
BRANCH  21  22
ATOM     22  S   UNL A   1      33.838  17.605  24.217  1.00  0.00     0.124 S 
ATOM     23  O   UNL A   1      33.272  16.971  23.046  1.00  0.00    -0.237 OA
ATOM     24  O   UNL A   1      35.247  17.518  24.531  1.00  0.00    -0.237 OA
ATOM     25  O   UNL A   1      33.080  16.984  25.501  1.00  0.00    -0.744 OA
ENDBRANCH  21  22
ENDBRANCH  12  16
BRANCH  14  26
ATOM     26  N   UNL A   1      30.480  27.459  22.723  1.00  0.00    -0.361 N 
ATOM     27  H   UNL A   1      31.199  27.579  22.062  1.00  0.00     0.166 HD
BRANCH  26  28
ATOM     28  C   UNL A   1      29.524  28.484  22.807  1.00  0.00     0.038 A 
ATOM     29  C   UNL A   1      29.920  29.802  22.549  1.00  0.00     0.026 A 
ATOM     30  C   UNL A   1      28.174  28.231  23.077  1.00  0.00     0.026 A 
ATOM     31  C   UNL A   1      28.994  30.848  22.585  1.00  0.00     0.002 A 
ATOM     32  C   UNL A   1      27.250  29.278  23.136  1.00  0.00     0.002 A 
ATOM     33  C   UNL A   1      27.660  30.585  22.888  1.00  0.00     0.000 A 
ENDBRANCH  26  28
ENDBRANCH  14  26
ENDBRANCH   7   9
ENDBRANCH   4   5
ENDBRANCH   3   4
ENDBRANCH   2   3
ENDBRANCH   1   2
BRANCH   1  34
ATOM     34  C   UNL A   1      31.832  31.407  26.823  1.00  0.00     0.021 C 
BRANCH  34  35
ATOM     35  C   UNL A   1      33.016  32.348  27.030  1.00  0.00     0.116 C 
BRANCH  35  36
ATOM     36  N   UNL A   1      32.621  33.682  27.453  1.00  0.00    -0.352 N 
ATOM     37  C   UNL A   1      33.116  34.452  28.478  1.00  0.00     0.251 C 
ATOM     38  H   UNL A   1      31.895  34.092  26.930  1.00  0.00     0.163 HD
ATOM     39  O   UNL A   1      32.574  35.519  28.755  1.00  0.00    -0.269 OA
BRANCH  37  40
ATOM     40  C   UNL A   1      34.280  33.989  29.270  1.00  0.00     0.039 A 
ATOM     41  C   UNL A   1      34.057  33.137  30.357  1.00  0.00     0.014 A 
ATOM     42  C   UNL A   1      35.581  34.391  28.955  1.00  0.00     0.014 A 
ATOM     43  C   UNL A   1      35.141  32.639  31.085  1.00  0.00     0.010 A 
ATOM     44  C   UNL A   1      36.663  33.844  29.642  1.00  0.00     0.010 A 
ATOM     45  C   UNL A   1      36.456  32.962  30.715  1.00  0.00    -0.014 A 
BRANCH  45  46
ATOM     46  C   UNL A   1      37.626  32.374  31.420  1.00  0.00     0.031 A 
ATOM     47  C   UNL A   1      38.399  31.240  30.801  1.00  0.00     0.074 A 
ATOM     48  C   UNL A   1      37.937  32.798  32.662  1.00  0.00     0.049 A 
ATOM     49  N   UNL A   1      39.407  30.566  31.292  1.00  0.00    -0.248 NA
ATOM     50  C   UNL A   1      37.968  30.786  29.469  1.00  0.00     0.031 C 
ATOM     51  C   UNL A   1      37.219  33.837  33.405  1.00  0.00     0.029 A 
ATOM     52  N   UNL A   1      38.918  32.390  33.530  1.00  0.00    -0.354 N 
ATOM     53  C   UNL A   1      39.702  29.585  30.353  1.00  0.00     0.074 A 
ATOM     54  C   UNL A   1      38.754  29.737  29.271  1.00  0.00     0.031 C 
ATOM     55  C   UNL A   1      37.785  33.984  34.614  1.00  0.00     0.029 A 
ATOM     56  C   UNL A   1      38.888  33.037  34.745  1.00  0.00     0.049 A 
ATOM     57  H   UNL A   1      39.581  31.697  33.306  1.00  0.00     0.167 HD
ATOM     58  C   UNL A   1      40.689  28.657  30.376  1.00  0.00     0.034 A 
ATOM     59  C   UNL A   1      39.659  32.885  35.839  1.00  0.00     0.034 A 
ATOM     60  C   UNL A   1      41.672  28.549  31.420  1.00  0.00     0.049 A 
ATOM     61  C   UNL A   1      40.782  31.882  35.812  1.00  0.00     0.074 A 
ATOM     62  C   UNL A   1      42.778  27.719  31.476  1.00  0.00     0.029 A 
ATOM     63  N   UNL A   1      41.666  29.286  32.593  1.00  0.00    -0.354 N 
ATOM     64  N   UNL A   1      41.156  31.088  34.839  1.00  0.00    -0.248 NA
ATOM     65  C   UNL A   1      41.613  31.782  37.022  1.00  0.00     0.031 C 
ATOM     66  C   UNL A   1      43.433  27.944  32.692  1.00  0.00     0.029 A 
ATOM     67  C   UNL A   1      42.742  28.924  33.385  1.00  0.00     0.049 A 
ATOM     68  H   UNL A   1      40.995  29.968  32.828  1.00  0.00     0.167 HD
ATOM     69  C   UNL A   1      42.286  30.423  35.302  1.00  0.00     0.074 A 
ATOM     70  C   UNL A   1      42.546  30.922  36.637  1.00  0.00     0.031 C 
ATOM     71  C   UNL A   1      43.030  29.473  34.685  1.00  0.00     0.034 A 
BRANCH  58  72
ATOM     72  C   UNL A   1      40.801  27.718  29.204  1.00  0.00     0.023 A 
ATOM     73  C   UNL A   1      39.987  26.570  29.154  1.00  0.00     0.012 A 
ATOM     74  C   UNL A   1      41.652  28.011  28.119  1.00  0.00     0.148 A 
ATOM     75  C   UNL A   1      40.036  25.711  28.058  1.00  0.00     0.002 A 
ATOM     76  C   UNL A   1      41.665  27.172  27.011  1.00  0.00     0.091 A 
ATOM     77  F   UNL A   1      42.435  29.096  28.194  1.00  0.00    -0.205 F 
ATOM     78  C   UNL A   1      40.865  26.018  26.982  1.00  0.00     0.022 A 
BRANCH  76  79
ATOM     79  S   UNL A   1      42.643  27.521  25.544  1.00  0.00     0.127 S 
ATOM     80  O   UNL A   1      43.998  27.546  26.094  1.00  0.00    -0.237 OA
ATOM     81  O   UNL A   1      42.352  26.365  24.696  1.00  0.00    -0.237 OA
ATOM     82  O   UNL A   1      42.152  28.791  25.029  1.00  0.00    -0.744 OA
ENDBRANCH  76  79
ENDBRANCH  58  72
BRANCH  59  83
ATOM     83  C   UNL A   1      39.451  33.761  37.027  1.00  0.00     0.023 A 
ATOM     84  C   UNL A   1      39.886  35.100  36.976  1.00  0.00     0.012 A 
ATOM     85  C   UNL A   1      38.812  33.291  38.191  1.00  0.00     0.148 A 
ATOM     86  C   UNL A   1      39.719  35.946  38.072  1.00  0.00     0.002 A 
ATOM     87  C   UNL A   1      38.600  34.156  39.260  1.00  0.00     0.091 A 
ATOM     88  F   UNL A   1      38.420  32.010  38.229  1.00  0.00    -0.205 F 
ATOM     89  C   UNL A   1      39.068  35.478  39.210  1.00  0.00     0.022 A 
BRANCH  87  90
ATOM     90  S   UNL A   1      37.651  33.670  40.705  1.00  0.00     0.127 S 
ATOM     91  O   UNL A   1      38.535  32.692  41.332  1.00  0.00    -0.237 OA
ATOM     92  O   UNL A   1      37.522  34.936  41.428  1.00  0.00    -0.237 OA
ATOM     93  O   UNL A   1      36.392  33.153  40.185  1.00  0.00    -0.744 OA
ENDBRANCH  87  90
ENDBRANCH  59  83
BRANCH  71  94
ATOM     94  C   UNL A   1      44.223  28.928  35.422  1.00  0.00     0.023 A 
ATOM     95  C   UNL A   1      45.487  29.525  35.244  1.00  0.00     0.012 A 
ATOM     96  C   UNL A   1      44.080  27.876  36.350  1.00  0.00     0.148 A 
ATOM     97  C   UNL A   1      46.594  29.068  35.956  1.00  0.00     0.002 A 
ATOM     98  C   UNL A   1      45.179  27.456  37.090  1.00  0.00     0.091 A 
ATOM     99  F   UNL A   1      42.874  27.307  36.490  1.00  0.00    -0.205 F 
ATOM    100  C   UNL A   1      46.438  28.043  36.888  1.00  0.00     0.022 A 
BRANCH  98 101
ATOM    101  S   UNL A   1      45.046  26.211  38.378  1.00  0.00     0.127 S 
ATOM    102  O   UNL A   1      46.432  26.102  38.832  1.00  0.00    -0.237 OA
ATOM    103  O   UNL A   1      44.139  26.844  39.336  1.00  0.00    -0.237 OA
ATOM    104  O   UNL A   1      44.502  25.025  37.730  1.00  0.00    -0.744 OA
ENDBRANCH  98 101
ENDBRANCH  71  94
ENDBRANCH  45  46
ENDBRANCH  37  40
ENDBRANCH  35  36
ENDBRANCH  34  35
ENDBRANCH   1  34
TORSDOF 20
ENDMDL
MODEL 2
REMARK VINA RESULT:     -12.9      6.216     11.694
REMARK SMILES O=C(NCCCCCCNC(=O)c1ccc(-c2c3nc(c(-c4cccc(S(=O)(=O)[O-])c4F)c4ccc([nH]4)c(-c4cccc(S(=O)(=O)[O-])c4F)c4nc(c(-c5cccc(S(=O)(=O)[O-])c5F)c5ccc2[nH]5)C=C4)C=C3)cc1)C1=NN(c2ccc(S(=O)(=O)[O-])cc2)C(=O)/C1=C/Nc1ccccc1
REMARK SMILES IDX 7 1 6 2 5 3 4 4 3 5 1 6 2 7 76 9 77 10 91 11 78 12 89 13
REMARK SMILES IDX 92 14 90 15 79 16 80 17 88 18 81 19 87 20 82 21 83 22 84 23
REMARK SMILES IDX 85 24 86 25 93 26 94 28 95 29 99 30 96 31 98 32 97 33 8 34
REMARK SMILES IDX 9 35 10 36 11 37 12 39 13 40 14 41 75 42 15 43 74 44 16 45
REMARK SMILES IDX 17 46 18 47 68 48 19 49 73 50 67 51 69 52 20 53 72 54 66 55
REMARK SMILES IDX 65 56 21 58 53 59 33 60 52 61 34 62 37 63 51 64 70 65 35 66
REMARK SMILES IDX 36 67 50 69 71 70 38 71 22 72 23 73 31 74 24 75 26 76 32 77
REMARK SMILES IDX 25 78 27 79 28 80 29 81 30 82 54 83 55 84 63 85 56 86 58 87
REMARK SMILES IDX 64 88 57 89 59 90 60 91 61 92 62 93 39 94 40 95 48 96 41 97
REMARK SMILES IDX 43 98 49 99 42 100 44 101 45 102 46 103 47 104
REMARK H PARENT 3 8 93 27 10 38 69 57 37 68
REMARK Flexibility Score: inf
ROOT
ATOM      1  C   UNL A   1      36.404  20.075  24.708  1.00  0.00     0.002 C 
ENDROOT
BRANCH   1   2
ATOM      2  C   UNL A   1      36.062  21.156  25.738  1.00  0.00     0.002 C 
BRANCH   2   3
ATOM      3  C   UNL A   1      35.610  22.511  25.180  1.00  0.00     0.021 C 
BRANCH   3   4
ATOM      4  C   UNL A   1      35.284  23.579  26.220  1.00  0.00     0.116 C 
BRANCH   4   5
ATOM      5  N   UNL A   1      34.274  23.147  27.167  1.00  0.00    -0.351 N 
ATOM      6  O   UNL A   1      32.169  22.600  27.811  1.00  0.00    -0.267 OA
ATOM      7  C   UNL A   1      32.912  23.140  27.001  1.00  0.00     0.272 C 
ATOM      8  H   UNL A   1      34.605  22.819  28.034  1.00  0.00     0.163 HD
BRANCH   7   9
ATOM      9  C   UNL A   1      32.311  23.731  25.764  1.00  0.00     0.163 C 
ATOM     10  N   UNL A   1      32.025  25.001  25.626  1.00  0.00    -0.158 NA
ATOM     11  C   UNL A   1      31.941  22.932  24.597  1.00  0.00     0.091 C 
ATOM     12  N   UNL A   1      31.413  25.105  24.372  1.00  0.00    -0.196 N 
ATOM     13  C   UNL A   1      31.391  23.907  23.640  1.00  0.00     0.282 C 
ATOM     14  C   UNL A   1      31.995  21.620  24.364  1.00  0.00     0.099 C 
ATOM     15  O   UNL A   1      30.984  23.649  22.521  1.00  0.00    -0.267 OA
BRANCH  12  16
ATOM     16  C   UNL A   1      30.709  26.292  24.053  1.00  0.00     0.069 A 
ATOM     17  C   UNL A   1      29.309  26.303  23.969  1.00  0.00     0.030 A 
ATOM     18  C   UNL A   1      31.407  27.468  23.735  1.00  0.00     0.030 A 
ATOM     19  C   UNL A   1      28.624  27.463  23.580  1.00  0.00     0.021 A 
ATOM     20  C   UNL A   1      30.737  28.618  23.316  1.00  0.00     0.021 A 
ATOM     21  C   UNL A   1      29.346  28.613  23.248  1.00  0.00     0.054 A 
BRANCH  21  22
ATOM     22  S   UNL A   1      28.479  30.047  22.682  1.00  0.00     0.124 S 
ATOM     23  O   UNL A   1      28.994  31.195  23.397  1.00  0.00    -0.237 OA
ATOM     24  O   UNL A   1      28.439  30.000  21.237  1.00  0.00    -0.237 OA
ATOM     25  O   UNL A   1      26.948  29.847  23.155  1.00  0.00    -0.744 OA
ENDBRANCH  21  22
ENDBRANCH  12  16
BRANCH  14  26
ATOM     26  N   UNL A   1      32.296  20.599  25.229  1.00  0.00    -0.361 N 
ATOM     27  H   UNL A   1      32.264  20.810  26.189  1.00  0.00     0.166 HD
BRANCH  26  28
ATOM     28  C   UNL A   1      32.645  19.284  24.884  1.00  0.00     0.038 A 
ATOM     29  C   UNL A   1      32.902  18.361  25.905  1.00  0.00     0.026 A 
ATOM     30  C   UNL A   1      32.683  18.841  23.557  1.00  0.00     0.026 A 
ATOM     31  C   UNL A   1      33.215  17.033  25.608  1.00  0.00     0.002 A 
ATOM     32  C   UNL A   1      33.019  17.518  23.255  1.00  0.00     0.002 A 
ATOM     33  C   UNL A   1      33.283  16.614  24.281  1.00  0.00     0.000 A 
ENDBRANCH  26  28
ENDBRANCH  14  26
ENDBRANCH   7   9
ENDBRANCH   4   5
ENDBRANCH   3   4
ENDBRANCH   2   3
ENDBRANCH   1   2
BRANCH   1  34
ATOM     34  C   UNL A   1      37.680  19.273  24.968  1.00  0.00     0.021 C 
BRANCH  34  35
ATOM     35  C   UNL A   1      38.820  20.031  25.643  1.00  0.00     0.116 C 
BRANCH  35  36
ATOM     36  N   UNL A   1      39.981  19.199  25.914  1.00  0.00    -0.352 N 
ATOM     37  C   UNL A   1      41.244  19.569  26.310  1.00  0.00     0.251 C 
ATOM     38  H   UNL A   1      39.842  18.231  25.797  1.00  0.00     0.163 HD
ATOM     39  O   UNL A   1      42.132  18.723  26.382  1.00  0.00    -0.269 OA
BRANCH  37  40
ATOM     40  C   UNL A   1      41.548  20.985  26.622  1.00  0.00     0.039 A 
ATOM     41  C   UNL A   1      41.984  21.311  27.911  1.00  0.00     0.014 A 
ATOM     42  C   UNL A   1      41.400  21.990  25.662  1.00  0.00     0.014 A 
ATOM     43  C   UNL A   1      42.333  22.630  28.216  1.00  0.00     0.010 A 
ATOM     44  C   UNL A   1      41.808  23.292  25.950  1.00  0.00     0.010 A 
ATOM     45  C   UNL A   1      42.278  23.626  27.230  1.00  0.00    -0.014 A 
BRANCH  45  46
ATOM     46  C   UNL A   1      42.728  25.017  27.508  1.00  0.00     0.031 A 
ATOM     47  C   UNL A   1      41.790  26.010  28.139  1.00  0.00     0.074 A 
ATOM     48  C   UNL A   1      43.952  25.413  27.104  1.00  0.00     0.049 A 
ATOM     49  N   UNL A   1      41.986  27.276  28.402  1.00  0.00    -0.248 NA
ATOM     50  C   UNL A   1      40.447  25.526  28.500  1.00  0.00     0.031 C 
ATOM     51  C   UNL A   1      44.929  24.569  26.411  1.00  0.00     0.029 A 
ATOM     52  N   UNL A   1      44.574  26.633  27.192  1.00  0.00    -0.354 N 
ATOM     53  C   UNL A   1      40.785  27.750  28.916  1.00  0.00     0.074 A 
ATOM     54  C   UNL A   1      39.857  26.640  28.910  1.00  0.00     0.031 C 
ATOM     55  C   UNL A   1      46.025  25.295  26.139  1.00  0.00     0.029 A 
ATOM     56  C   UNL A   1      45.824  26.661  26.615  1.00  0.00     0.049 A 
ATOM     57  H   UNL A   1      44.165  27.416  27.627  1.00  0.00     0.167 HD
ATOM     58  C   UNL A   1      40.488  28.989  29.376  1.00  0.00     0.034 A 
ATOM     59  C   UNL A   1      46.707  27.670  26.481  1.00  0.00     0.034 A 
ATOM     60  C   UNL A   1      41.430  30.073  29.442  1.00  0.00     0.049 A 
ATOM     61  C   UNL A   1      46.367  29.022  27.051  1.00  0.00     0.074 A 
ATOM     62  C   UNL A   1      41.257  31.329  29.998  1.00  0.00     0.029 A 
ATOM     63  N   UNL A   1      42.718  30.036  28.933  1.00  0.00    -0.354 N 
ATOM     64  N   UNL A   1      45.290  29.399  27.697  1.00  0.00    -0.248 NA
ATOM     65  C   UNL A   1      47.381  30.078  26.907  1.00  0.00     0.031 C 
ATOM     66  C   UNL A   1      42.436  32.057  29.811  1.00  0.00     0.029 A 
ATOM     67  C   UNL A   1      43.348  31.250  29.151  1.00  0.00     0.049 A 
ATOM     68  H   UNL A   1      43.125  29.260  28.483  1.00  0.00     0.167 HD
ATOM     69  C   UNL A   1      45.512  30.720  28.070  1.00  0.00     0.074 A 
ATOM     70  C   UNL A   1      46.833  31.072  27.594  1.00  0.00     0.031 C 
ATOM     71  C   UNL A   1      44.688  31.569  28.731  1.00  0.00     0.034 A 
BRANCH  58  72
ATOM     72  C   UNL A   1      39.099  29.229  29.907  1.00  0.00     0.023 A 
ATOM     73  C   UNL A   1      38.778  28.825  31.217  1.00  0.00     0.012 A 
ATOM     74  C   UNL A   1      38.139  29.918  29.140  1.00  0.00     0.148 A 
ATOM     75  C   UNL A   1      37.515  29.079  31.750  1.00  0.00     0.002 A 
ATOM     76  C   UNL A   1      36.895  30.204  29.692  1.00  0.00     0.091 A 
ATOM     77  F   UNL A   1      38.455  30.275  27.887  1.00  0.00    -0.205 F 
ATOM     78  C   UNL A   1      36.579  29.778  30.992  1.00  0.00     0.022 A 
BRANCH  76  79
ATOM     79  S   UNL A   1      35.648  31.163  28.824  1.00  0.00     0.127 S 
ATOM     80  O   UNL A   1      34.951  30.124  28.068  1.00  0.00    -0.237 OA
ATOM     81  O   UNL A   1      34.876  31.737  29.927  1.00  0.00    -0.237 OA
ATOM     82  O   UNL A   1      36.378  32.137  28.024  1.00  0.00    -0.744 OA
ENDBRANCH  76  79
ENDBRANCH  58  72
BRANCH  59  83
ATOM     83  C   UNL A   1      48.034  27.423  25.852  1.00  0.00     0.023 A 
ATOM     84  C   UNL A   1      49.113  27.018  26.663  1.00  0.00     0.012 A 
ATOM     85  C   UNL A   1      48.234  27.563  24.465  1.00  0.00     0.148 A 
ATOM     86  C   UNL A   1      50.374  26.790  26.111  1.00  0.00     0.002 A 
ATOM     87  C   UNL A   1      49.480  27.280  23.914  1.00  0.00     0.091 A 
ATOM     88  F   UNL A   1      47.202  27.966  23.710  1.00  0.00    -0.205 F 
ATOM     89  C   UNL A   1      50.555  26.911  24.736  1.00  0.00     0.022 A 
BRANCH  87  90
ATOM     90  S   UNL A   1      49.760  27.281  22.140  1.00  0.00     0.127 S 
ATOM     91  O   UNL A   1      51.157  26.865  22.055  1.00  0.00    -0.237 OA
ATOM     92  O   UNL A   1      48.791  26.287  21.675  1.00  0.00    -0.237 OA
ATOM     93  O   UNL A   1      49.471  28.641  21.704  1.00  0.00    -0.744 OA
ENDBRANCH  87  90
ENDBRANCH  59  83
BRANCH  71  94
ATOM     94  C   UNL A   1      45.195  32.957  29.019  1.00  0.00     0.023 A 
ATOM     95  C   UNL A   1      45.949  33.197  30.184  1.00  0.00     0.012 A 
ATOM     96  C   UNL A   1      44.993  34.004  28.097  1.00  0.00     0.148 A 
ATOM     97  C   UNL A   1      46.472  34.463  30.442  1.00  0.00     0.002 A 
ATOM     98  C   UNL A   1      45.555  35.252  28.339  1.00  0.00     0.091 A 
ATOM     99  F   UNL A   1      44.254  33.762  27.005  1.00  0.00    -0.205 F 
ATOM    100  C   UNL A   1      46.285  35.486  29.514  1.00  0.00     0.022 A 
BRANCH  98 101
ATOM    101  S   UNL A   1      45.446  36.597  27.153  1.00  0.00     0.127 S 
ATOM    102  O   UNL A   1      44.009  36.646  26.888  1.00  0.00    -0.237 OA
ATOM    103  O   UNL A   1      45.962  37.733  27.918  1.00  0.00    -0.237 OA
ATOM    104  O   UNL A   1      46.280  36.203  26.026  1.00  0.00    -0.744 OA
ENDBRANCH  98 101
ENDBRANCH  71  94
ENDBRANCH  45  46
ENDBRANCH  37  40
ENDBRANCH  35  36
ENDBRANCH  34  35
ENDBRANCH   1  34
TORSDOF 20
ENDMDL
MODEL 3
REMARK VINA RESULT:     -12.7      1.832      2.709
REMARK SMILES O=C(NCCCCCCNC(=O)c1ccc(-c2c3nc(c(-c4cccc(S(=O)(=O)[O-])c4F)c4ccc([nH]4)c(-c4cccc(S(=O)(=O)[O-])c4F)c4nc(c(-c5cccc(S(=O)(=O)[O-])c5F)c5ccc2[nH]5)C=C4)C=C3)cc1)C1=NN(c2ccc(S(=O)(=O)[O-])cc2)C(=O)/C1=C/Nc1ccccc1
REMARK SMILES IDX 7 1 6 2 5 3 4 4 3 5 1 6 2 7 76 9 77 10 91 11 78 12 89 13
REMARK SMILES IDX 92 14 90 15 79 16 80 17 88 18 81 19 87 20 82 21 83 22 84 23
REMARK SMILES IDX 85 24 86 25 93 26 94 28 95 29 99 30 96 31 98 32 97 33 8 34
REMARK SMILES IDX 9 35 10 36 11 37 12 39 13 40 14 41 75 42 15 43 74 44 16 45
REMARK SMILES IDX 17 46 18 47 68 48 19 49 73 50 67 51 69 52 20 53 72 54 66 55
REMARK SMILES IDX 65 56 21 58 53 59 33 60 52 61 34 62 37 63 51 64 70 65 35 66
REMARK SMILES IDX 36 67 50 69 71 70 38 71 22 72 23 73 31 74 24 75 26 76 32 77
REMARK SMILES IDX 25 78 27 79 28 80 29 81 30 82 54 83 55 84 63 85 56 86 58 87
REMARK SMILES IDX 64 88 57 89 59 90 60 91 61 92 62 93 39 94 40 95 48 96 41 97
REMARK SMILES IDX 43 98 49 99 42 100 44 101 45 102 46 103 47 104
REMARK H PARENT 3 8 93 27 10 38 69 57 37 68
REMARK Flexibility Score: inf
ROOT
ATOM      1  C   UNL A   1      32.044  30.057  25.869  1.00  0.00     0.002 C 
ENDROOT
BRANCH   1   2
ATOM      2  C   UNL A   1      32.746  28.822  26.440  1.00  0.00     0.002 C 
BRANCH   2   3
ATOM      3  C   UNL A   1      31.845  27.640  26.817  1.00  0.00     0.021 C 
BRANCH   3   4
ATOM      4  C   UNL A   1      32.445  26.254  26.596  1.00  0.00     0.116 C 
BRANCH   4   5
ATOM      5  N   UNL A   1      31.444  25.204  26.609  1.00  0.00    -0.351 N 
ATOM      6  O   UNL A   1      30.694  23.083  26.314  1.00  0.00    -0.267 OA
ATOM      7  C   UNL A   1      31.548  23.934  26.099  1.00  0.00     0.272 C 
ATOM      8  H   UNL A   1      30.585  25.429  27.035  1.00  0.00     0.163 HD
BRANCH   7   9
ATOM      9  C   UNL A   1      32.769  23.541  25.329  1.00  0.00     0.163 C 
ATOM     10  N   UNL A   1      33.823  22.979  25.866  1.00  0.00    -0.158 NA
ATOM     11  C   UNL A   1      32.924  23.791  23.896  1.00  0.00     0.091 C 
ATOM     12  N   UNL A   1      34.749  22.861  24.822  1.00  0.00    -0.196 N 
ATOM     13  C   UNL A   1      34.256  23.258  23.568  1.00  0.00     0.282 C 
ATOM     14  C   UNL A   1      32.132  24.397  23.009  1.00  0.00     0.099 C 
ATOM     15  O   UNL A   1      34.763  23.250  22.459  1.00  0.00    -0.267 OA
BRANCH  12  16
ATOM     16  C   UNL A   1      36.099  22.576  25.138  1.00  0.00     0.069 A 
ATOM     17  C   UNL A   1      36.644  21.304  24.905  1.00  0.00     0.030 A 
ATOM     18  C   UNL A   1      36.900  23.541  25.768  1.00  0.00     0.030 A 
ATOM     19  C   UNL A   1      37.959  21.007  25.289  1.00  0.00     0.021 A 
ATOM     20  C   UNL A   1      38.200  23.246  26.183  1.00  0.00     0.021 A 
ATOM     21  C   UNL A   1      38.727  21.982  25.934  1.00  0.00     0.054 A 
BRANCH  21  22
ATOM     22  S   UNL A   1      40.357  21.574  26.487  1.00  0.00     0.124 S 
ATOM     23  O   UNL A   1      41.303  22.294  25.664  1.00  0.00    -0.237 OA
ATOM     24  O   UNL A   1      40.372  21.666  27.930  1.00  0.00    -0.237 OA
ATOM     25  O   UNL A   1      40.549  20.004  26.161  1.00  0.00    -0.744 OA
ENDBRANCH  21  22
ENDBRANCH  12  16
BRANCH  14  26
ATOM     26  N   UNL A   1      30.974  25.099  23.220  1.00  0.00    -0.361 N 
ATOM     27  H   UNL A   1      30.181  24.575  23.478  1.00  0.00     0.166 HD
BRANCH  26  28
ATOM     28  C   UNL A   1      30.803  26.487  23.107  1.00  0.00     0.038 A 
ATOM     29  C   UNL A   1      31.850  27.259  22.587  1.00  0.00     0.026 A 
ATOM     30  C   UNL A   1      29.601  27.125  23.436  1.00  0.00     0.026 A 
ATOM     31  C   UNL A   1      31.709  28.639  22.423  1.00  0.00     0.002 A 
ATOM     32  C   UNL A   1      29.465  28.509  23.294  1.00  0.00     0.002 A 
ATOM     33  C   UNL A   1      30.519  29.264  22.786  1.00  0.00     0.000 A 
ENDBRANCH  26  28
ENDBRANCH  14  26
ENDBRANCH   7   9
ENDBRANCH   4   5
ENDBRANCH   3   4
ENDBRANCH   2   3
ENDBRANCH   1   2
BRANCH   1  34
ATOM     34  C   UNL A   1      31.825  31.219  26.840  1.00  0.00     0.021 C 
BRANCH  34  35
ATOM     35  C   UNL A   1      33.021  32.144  27.056  1.00  0.00     0.116 C 
BRANCH  35  36
ATOM     36  N   UNL A   1      32.640  33.492  27.445  1.00  0.00    -0.352 N 
ATOM     37  C   UNL A   1      33.150  34.287  28.444  1.00  0.00     0.251 C 
ATOM     38  H   UNL A   1      31.912  33.893  26.917  1.00  0.00     0.163 HD
ATOM     39  O   UNL A   1      32.619  35.366  28.695  1.00  0.00    -0.269 OA
BRANCH  37  40
ATOM     40  C   UNL A   1      34.318  33.837  29.238  1.00  0.00     0.039 A 
ATOM     41  C   UNL A   1      34.099  33.016  30.348  1.00  0.00     0.014 A 
ATOM     42  C   UNL A   1      35.618  34.223  28.901  1.00  0.00     0.014 A 
ATOM     43  C   UNL A   1      35.186  32.530  31.081  1.00  0.00     0.010 A 
ATOM     44  C   UNL A   1      36.703  33.686  29.594  1.00  0.00     0.010 A 
ATOM     45  C   UNL A   1      36.499  32.834  30.692  1.00  0.00    -0.014 A 
BRANCH  45  46
ATOM     46  C   UNL A   1      37.672  32.257  31.402  1.00  0.00     0.031 A 
ATOM     47  C   UNL A   1      38.465  31.139  30.781  1.00  0.00     0.074 A 
ATOM     48  C   UNL A   1      37.965  32.676  32.650  1.00  0.00     0.049 A 
ATOM     49  N   UNL A   1      39.478  30.475  31.275  1.00  0.00    -0.248 NA
ATOM     50  C   UNL A   1      38.052  30.690  29.442  1.00  0.00     0.031 C 
ATOM     51  C   UNL A   1      37.227  33.699  33.395  1.00  0.00     0.029 A 
ATOM     52  N   UNL A   1      38.945  32.275  33.523  1.00  0.00    -0.354 N 
ATOM     53  C   UNL A   1      39.796  29.506  30.332  1.00  0.00     0.074 A 
ATOM     54  C   UNL A   1      38.854  29.653  29.243  1.00  0.00     0.031 C 
ATOM     55  C   UNL A   1      37.780  33.845  34.609  1.00  0.00     0.029 A 
ATOM     56  C   UNL A   1      38.896  32.912  34.743  1.00  0.00     0.049 A 
ATOM     57  H   UNL A   1      39.619  31.593  33.299  1.00  0.00     0.167 HD
ATOM     58  C   UNL A   1      40.795  28.592  30.356  1.00  0.00     0.034 A 
ATOM     59  C   UNL A   1      39.659  32.763  35.843  1.00  0.00     0.034 A 
ATOM     60  C   UNL A   1      41.770  28.489  31.408  1.00  0.00     0.049 A 
ATOM     61  C   UNL A   1      40.796  31.776  35.818  1.00  0.00     0.074 A 
ATOM     62  C   UNL A   1      42.887  27.675  31.468  1.00  0.00     0.029 A 
ATOM     63  N   UNL A   1      41.744  29.217  32.587  1.00  0.00    -0.354 N 
ATOM     64  N   UNL A   1      41.190  30.994  34.842  1.00  0.00    -0.248 NA
ATOM     65  C   UNL A   1      41.618  31.678  37.034  1.00  0.00     0.031 C 
ATOM     66  C   UNL A   1      43.529  27.899  32.690  1.00  0.00     0.029 A 
ATOM     67  C   UNL A   1      42.818  28.864  33.385  1.00  0.00     0.049 A 
ATOM     68  H   UNL A   1      41.062  29.888  32.821  1.00  0.00     0.167 HD
ATOM     69  C   UNL A   1      42.324  30.342  35.310  1.00  0.00     0.074 A 
ATOM     70  C   UNL A   1      42.567  30.834  36.650  1.00  0.00     0.031 C 
ATOM     71  C   UNL A   1      43.087  29.407  34.692  1.00  0.00     0.034 A 
BRANCH  58  72
ATOM     72  C   UNL A   1      40.930  27.664  29.178  1.00  0.00     0.023 A 
ATOM     73  C   UNL A   1      40.157  26.487  29.129  1.00  0.00     0.012 A 
ATOM     74  C   UNL A   1      41.761  27.992  28.088  1.00  0.00     0.148 A 
ATOM     75  C   UNL A   1      40.227  25.637  28.027  1.00  0.00     0.002 A 
ATOM     76  C   UNL A   1      41.795  27.160  26.976  1.00  0.00     0.091 A 
ATOM     77  F   UNL A   1      42.506  29.104  28.163  1.00  0.00    -0.205 F 
ATOM     78  C   UNL A   1      41.036  25.978  26.947  1.00  0.00     0.022 A 
BRANCH  76  79
ATOM     79  S   UNL A   1      42.748  27.551  25.503  1.00  0.00     0.127 S 
ATOM     80  O   UNL A   1      42.063  28.749  25.019  1.00  0.00    -0.237 OA
ATOM     81  O   UNL A   1      44.083  27.792  26.053  1.00  0.00    -0.237 OA
ATOM     82  O   UNL A   1      42.650  26.381  24.641  1.00  0.00    -0.744 OA
ENDBRANCH  76  79
ENDBRANCH  58  72
BRANCH  59  83
ATOM     83  C   UNL A   1      39.428  33.626  37.035  1.00  0.00     0.023 A 
ATOM     84  C   UNL A   1      39.889  34.958  37.017  1.00  0.00     0.012 A 
ATOM     85  C   UNL A   1      38.744  33.153  38.171  1.00  0.00     0.148 A 
ATOM     86  C   UNL A   1      39.703  35.792  38.119  1.00  0.00     0.002 A 
ATOM     87  C   UNL A   1      38.513  34.007  39.245  1.00  0.00     0.091 A 
ATOM     88  F   UNL A   1      38.327  31.879  38.179  1.00  0.00    -0.205 F 
ATOM     89  C   UNL A   1      39.006  35.320  39.229  1.00  0.00     0.022 A 
BRANCH  87  90
ATOM     90  S   UNL A   1      37.509  33.520  40.652  1.00  0.00     0.127 S 
ATOM     91  O   UNL A   1      38.351  32.512  41.289  1.00  0.00    -0.237 OA
ATOM     92  O   UNL A   1      37.385  34.777  41.392  1.00  0.00    -0.237 OA
ATOM     93  O   UNL A   1      36.255  33.039  40.085  1.00  0.00    -0.744 OA
ENDBRANCH  87  90
ENDBRANCH  59  83
BRANCH  71  94
ATOM     94  C   UNL A   1      44.282  28.873  35.435  1.00  0.00     0.023 A 
ATOM     95  C   UNL A   1      45.534  29.502  35.288  1.00  0.00     0.012 A 
ATOM     96  C   UNL A   1      44.149  27.799  36.338  1.00  0.00     0.148 A 
ATOM     97  C   UNL A   1      46.641  29.055  36.008  1.00  0.00     0.002 A 
ATOM     98  C   UNL A   1      45.246  27.388  37.086  1.00  0.00     0.091 A 
ATOM     99  F   UNL A   1      42.955  27.199  36.448  1.00  0.00    -0.205 F 
ATOM    100  C   UNL A   1      46.494  28.007  36.915  1.00  0.00     0.022 A 
BRANCH  98 101
ATOM    101  S   UNL A   1      45.123  26.111  38.344  1.00  0.00     0.127 S 
ATOM    102  O   UNL A   1      44.086  26.654  39.220  1.00  0.00    -0.237 OA
ATOM    103  O   UNL A   1      44.712  24.942  37.566  1.00  0.00    -0.237 OA
ATOM    104  O   UNL A   1      46.451  26.004  38.933  1.00  0.00    -0.744 OA
ENDBRANCH  98 101
ENDBRANCH  71  94
ENDBRANCH  45  46
ENDBRANCH  37  40
ENDBRANCH  35  36
ENDBRANCH  34  35
ENDBRANCH   1  34
TORSDOF 20
ENDMDL
