MODEL 1
REMARK VINA RESULT:      -9.4      0.000      0.000
REMARK SMILES COC[C@@H](C)CC(=O)N1[C@@H](C2CC2)SC[C@H]1C(=O)NCCCCCCNC(=O)c1ccc(-c2c3nc(c(-c4cccc(S(=O)(=O)[O-])c4F)c4ccc([nH]4)c(-c4cccc(S(=O)(=O)[O-])c4F)c4nc(c(-c5cccc(S(=O)(=O)[O-])c5F)c5ccc2[nH]5)C=C4)C=C3)cc1
REMARK SMILES IDX 21 1 20 2 19 3 17 4 18 5 16 7 9 8 10 9 14 10 15 11 7 12 8 13
REMARK SMILES IDX 6 14 4 15 5 16 3 17 2 18 1 19 11 20 12 21 13 22 22 23 23 24
REMARK SMILES IDX 24 25 25 26 26 27 27 28 28 30 29 31 30 32 91 33 31 34 90 35
REMARK SMILES IDX 32 36 33 37 34 38 84 39 35 40 89 41 83 42 85 43 36 44 88 45
REMARK SMILES IDX 82 46 81 47 37 49 69 50 49 51 68 52 50 53 53 54 67 55 86 56
REMARK SMILES IDX 51 57 52 58 66 60 87 61 54 62 38 63 39 64 47 65 40 66 42 67
REMARK SMILES IDX 48 68 41 69 43 70 44 71 45 72 46 73 70 74 71 75 79 76 72 77
REMARK SMILES IDX 74 78 80 79 73 80 75 81 76 82 77 83 78 84 55 85 56 86 64 87
REMARK SMILES IDX 57 88 59 89 65 90 58 91 60 92 61 93 62 94 63 95
REMARK H PARENT 19 6 26 29 85 48 53 59
REMARK Flexibility Score: inf
ROOT
ATOM      1  C   UNL A   1      33.193  29.359  26.878  1.00  0.00     0.021 C 
ENDROOT
BRANCH   1   2
ATOM      2  C   UNL A   1      33.204  28.122  25.980  1.00  0.00     0.116 C 
BRANCH   2   3
ATOM      3  N   UNL A   1      34.035  28.267  24.809  1.00  0.00    -0.354 N 
ATOM      4  C   UNL A   1      33.694  28.188  23.493  1.00  0.00     0.243 C 
ATOM      5  O   UNL A   1      34.457  28.741  22.690  1.00  0.00    -0.273 OA
ATOM      6  H   UNL A   1      34.986  28.449  24.988  1.00  0.00     0.163 HD
BRANCH   4   7
ATOM      7  C   UNL A   1      32.337  27.638  22.998  1.00  0.00     0.185 C 
ATOM      8  N   UNL A   1      31.873  26.309  23.441  1.00  0.00    -0.318 N 
ATOM      9  C   UNL A   1      30.468  26.248  23.844  1.00  0.00     0.147 C 
ATOM     10  S   UNL A   1      29.708  27.729  23.162  1.00  0.00    -0.134 SA
ATOM     11  C   UNL A   1      31.243  28.674  23.249  1.00  0.00     0.107 C 
BRANCH   8  12
ATOM     12  C   UNL A   1      32.646  25.232  23.044  1.00  0.00     0.224 C 
ATOM     13  O   UNL A   1      32.709  24.900  21.859  1.00  0.00    -0.275 OA
BRANCH  12  14
ATOM     14  C   UNL A   1      33.246  24.325  24.108  1.00  0.00     0.106 C 
BRANCH  14  15
ATOM     15  C   UNL A   1      34.776  24.312  24.210  1.00  0.00     0.021 C 
ATOM     16  C   UNL A   1      35.331  23.239  23.257  1.00  0.00     0.010 C 
BRANCH  15  17
ATOM     17  C   UNL A   1      35.247  24.048  25.647  1.00  0.00     0.163 C 
BRANCH  17  18
ATOM     18  O   UNL A   1      34.121  23.848  26.494  1.00  0.00    -0.384 OA
ATOM     19  C   UNL A   1      34.236  22.708  27.335  1.00  0.00     0.194 C 
ENDBRANCH  17  18
ENDBRANCH  15  17
ENDBRANCH  14  15
ENDBRANCH  12  14
ENDBRANCH   8  12
BRANCH   9  20
ATOM     20  C   UNL A   1      30.404  26.117  25.348  1.00  0.00     0.022 C 
ATOM     21  C   UNL A   1      29.332  25.366  26.118  1.00  0.00     0.007 C 
ATOM     22  C   UNL A   1      30.730  24.827  26.067  1.00  0.00     0.007 C 
ENDBRANCH   9  20
ENDBRANCH   4   7
ENDBRANCH   2   3
ENDBRANCH   1   2
BRANCH   1  23
ATOM     23  C   UNL A   1      34.592  29.824  27.300  1.00  0.00     0.002 C 
BRANCH  23  24
ATOM     24  C   UNL A   1      34.687  31.277  27.789  1.00  0.00     0.002 C 
BRANCH  24  25
ATOM     25  C   UNL A   1      33.373  32.063  27.824  1.00  0.00     0.021 C 
BRANCH  25  26
ATOM     26  C   UNL A   1      33.453  33.508  27.340  1.00  0.00     0.116 C 
BRANCH  26  27
ATOM     27  N   UNL A   1      32.999  34.453  28.347  1.00  0.00    -0.352 N 
ATOM     28  C   UNL A   1      33.386  34.629  29.650  1.00  0.00     0.251 C 
ATOM     29  H   UNL A   1      32.295  35.070  28.041  1.00  0.00     0.163 HD
ATOM     30  O   UNL A   1      32.717  35.365  30.374  1.00  0.00    -0.269 OA
BRANCH  28  31
ATOM     31  C   UNL A   1      34.584  33.951  30.201  1.00  0.00     0.039 A 
ATOM     32  C   UNL A   1      35.839  34.290  29.683  1.00  0.00     0.014 A 
ATOM     33  C   UNL A   1      34.485  32.940  31.160  1.00  0.00     0.014 A 
ATOM     34  C   UNL A   1      36.987  33.644  30.148  1.00  0.00     0.010 A 
ATOM     35  C   UNL A   1      35.639  32.351  31.680  1.00  0.00     0.010 A 
ATOM     36  C   UNL A   1      36.901  32.679  31.164  1.00  0.00    -0.014 A 
BRANCH  36  37
ATOM     37  C   UNL A   1      38.121  31.995  31.674  1.00  0.00     0.031 A 
ATOM     38  C   UNL A   1      38.793  32.470  32.937  1.00  0.00     0.074 A 
ATOM     39  C   UNL A   1      38.659  30.979  30.972  1.00  0.00     0.049 A 
ATOM     40  N   UNL A   1      39.860  32.000  33.530  1.00  0.00    -0.248 NA
ATOM     41  C   UNL A   1      38.203  33.640  33.611  1.00  0.00     0.031 C 
ATOM     42  C   UNL A   1      38.156  30.475  29.693  1.00  0.00     0.029 A 
ATOM     43  N   UNL A   1      39.759  30.198  31.226  1.00  0.00    -0.354 N 
ATOM     44  C   UNL A   1      40.091  32.833  34.620  1.00  0.00     0.074 A 
ATOM     45  C   UNL A   1      39.074  33.860  34.587  1.00  0.00     0.031 C 
ATOM     46  C   UNL A   1      38.937  29.465  29.279  1.00  0.00     0.029 A 
ATOM     47  C   UNL A   1      40.009  29.262  30.249  1.00  0.00     0.049 A 
ATOM     48  H   UNL A   1      40.316  30.298  32.031  1.00  0.00     0.167 HD
ATOM     49  C   UNL A   1      41.040  32.734  35.581  1.00  0.00     0.034 A 
ATOM     50  C   UNL A   1      40.988  28.343  30.146  1.00  0.00     0.034 A 
ATOM     51  C   UNL A   1      42.021  31.684  35.642  1.00  0.00     0.049 A 
ATOM     52  C   UNL A   1      41.998  28.219  31.255  1.00  0.00     0.074 A 
ATOM     53  C   UNL A   1      42.966  31.444  36.625  1.00  0.00     0.029 A 
ATOM     54  N   UNL A   1      42.189  30.701  34.679  1.00  0.00    -0.354 N 
ATOM     55  N   UNL A   1      42.095  28.912  32.363  1.00  0.00    -0.248 NA
ATOM     56  C   UNL A   1      43.008  27.159  31.120  1.00  0.00     0.031 C 
ATOM     57  C   UNL A   1      43.719  30.328  36.244  1.00  0.00     0.029 A 
ATOM     58  C   UNL A   1      43.226  29.857  35.038  1.00  0.00     0.049 A 
ATOM     59  H   UNL A   1      41.649  30.615  33.860  1.00  0.00     0.167 HD
ATOM     60  C   UNL A   1      43.152  28.352  33.072  1.00  0.00     0.074 A 
ATOM     61  C   UNL A   1      43.646  27.245  32.278  1.00  0.00     0.031 C 
ATOM     62  C   UNL A   1      43.677  28.728  34.265  1.00  0.00     0.034 A 
BRANCH  49  63
ATOM     63  C   UNL A   1      41.029  33.761  36.686  1.00  0.00     0.023 A 
ATOM     64  C   UNL A   1      41.763  34.956  36.530  1.00  0.00     0.012 A 
ATOM     65  C   UNL A   1      40.253  33.575  37.846  1.00  0.00     0.148 A 
ATOM     66  C   UNL A   1      41.754  35.931  37.526  1.00  0.00     0.002 A 
ATOM     67  C   UNL A   1      40.213  34.573  38.815  1.00  0.00     0.091 A 
ATOM     68  F   UNL A   1      39.577  32.426  37.988  1.00  0.00    -0.205 F 
ATOM     69  C   UNL A   1      40.973  35.744  38.662  1.00  0.00     0.022 A 
BRANCH  67  70
ATOM     70  S   UNL A   1      39.175  34.464  40.277  1.00  0.00     0.127 S 
ATOM     71  O   UNL A   1      38.910  35.875  40.556  1.00  0.00    -0.237 OA
ATOM     72  O   UNL A   1      38.020  33.715  39.780  1.00  0.00    -0.237 OA
ATOM     73  O   UNL A   1      39.965  33.765  41.280  1.00  0.00    -0.744 OA
ENDBRANCH  67  70
ENDBRANCH  49  63
BRANCH  50  74
ATOM     74  C   UNL A   1      41.016  27.413  28.980  1.00  0.00     0.023 A 
ATOM     75  C   UNL A   1      40.094  26.350  28.921  1.00  0.00     0.012 A 
ATOM     76  C   UNL A   1      41.927  27.591  27.921  1.00  0.00     0.148 A 
ATOM     77  C   UNL A   1      40.102  25.461  27.847  1.00  0.00     0.002 A 
ATOM     78  C   UNL A   1      41.892  26.736  26.827  1.00  0.00     0.091 A 
ATOM     79  F   UNL A   1      42.804  28.602  28.002  1.00  0.00    -0.205 F 
ATOM     80  C   UNL A   1      40.993  25.659  26.796  1.00  0.00     0.022 A 
BRANCH  78  81
ATOM     81  S   UNL A   1      42.912  26.997  25.371  1.00  0.00     0.127 S 
ATOM     82  O   UNL A   1      42.271  28.162  24.763  1.00  0.00    -0.237 OA
ATOM     83  O   UNL A   1      44.226  27.259  25.966  1.00  0.00    -0.237 OA
ATOM     84  O   UNL A   1      42.836  25.761  24.610  1.00  0.00    -0.744 OA
ENDBRANCH  78  81
ENDBRANCH  50  74
BRANCH  62  85
ATOM     85  C   UNL A   1      44.829  27.923  34.805  1.00  0.00     0.023 A 
ATOM     86  C   UNL A   1      46.152  28.362  34.592  1.00  0.00     0.012 A 
ATOM     87  C   UNL A   1      44.602  26.767  35.578  1.00  0.00     0.148 A 
ATOM     88  C   UNL A   1      47.229  27.642  35.107  1.00  0.00     0.002 A 
ATOM     89  C   UNL A   1      45.679  26.083  36.129  1.00  0.00     0.091 A 
ATOM     90  F   UNL A   1      43.338  26.353  35.755  1.00  0.00    -0.205 F 
ATOM     91  C   UNL A   1      46.993  26.511  35.884  1.00  0.00     0.022 A 
BRANCH  89  92
ATOM     92  S   UNL A   1      45.463  24.673  37.222  1.00  0.00     0.127 S 
ATOM     93  O   UNL A   1      44.844  23.696  36.329  1.00  0.00    -0.237 OA
ATOM     94  O   UNL A   1      46.840  24.362  37.606  1.00  0.00    -0.237 OA
ATOM     95  O   UNL A   1      44.625  25.142  38.317  1.00  0.00    -0.744 OA
ENDBRANCH  89  92
ENDBRANCH  62  85
ENDBRANCH  36  37
ENDBRANCH  28  31
ENDBRANCH  26  27
ENDBRANCH  25  26
ENDBRANCH  24  25
ENDBRANCH  23  24
ENDBRANCH   1  23
TORSDOF 22
ENDMDL
MODEL 2
REMARK VINA RESULT:      -9.2      5.959     10.970
REMARK SMILES COC[C@@H](C)CC(=O)N1[C@@H](C2CC2)SC[C@H]1C(=O)NCCCCCCNC(=O)c1ccc(-c2c3nc(c(-c4cccc(S(=O)(=O)[O-])c4F)c4ccc([nH]4)c(-c4cccc(S(=O)(=O)[O-])c4F)c4nc(c(-c5cccc(S(=O)(=O)[O-])c5F)c5ccc2[nH]5)C=C4)C=C3)cc1
REMARK SMILES IDX 21 1 20 2 19 3 17 4 18 5 16 7 9 8 10 9 14 10 15 11 7 12 8 13
REMARK SMILES IDX 6 14 4 15 5 16 3 17 2 18 1 19 11 20 12 21 13 22 22 23 23 24
REMARK SMILES IDX 24 25 25 26 26 27 27 28 28 30 29 31 30 32 91 33 31 34 90 35
REMARK SMILES IDX 32 36 33 37 34 38 84 39 35 40 89 41 83 42 85 43 36 44 88 45
REMARK SMILES IDX 82 46 81 47 37 49 69 50 49 51 68 52 50 53 53 54 67 55 86 56
REMARK SMILES IDX 51 57 52 58 66 60 87 61 54 62 38 63 39 64 47 65 40 66 42 67
REMARK SMILES IDX 48 68 41 69 43 70 44 71 45 72 46 73 70 74 71 75 79 76 72 77
REMARK SMILES IDX 74 78 80 79 73 80 75 81 76 82 77 83 78 84 55 85 56 86 64 87
REMARK SMILES IDX 57 88 59 89 65 90 58 91 60 92 61 93 62 94 63 95
REMARK H PARENT 19 6 26 29 85 48 53 59
REMARK Flexibility Score: inf
ROOT
ATOM      1  C   UNL A   1      38.674  24.177  26.287  1.00  0.00     0.021 C 
ENDROOT
BRANCH   1   2
ATOM      2  C   UNL A   1      37.377  23.747  25.603  1.00  0.00     0.116 C 
BRANCH   2   3
ATOM      3  N   UNL A   1      36.342  23.347  26.526  1.00  0.00    -0.354 N 
ATOM      4  C   UNL A   1      34.992  23.485  26.424  1.00  0.00     0.243 C 
ATOM      5  O   UNL A   1      34.304  22.720  27.113  1.00  0.00    -0.273 OA
ATOM      6  H   UNL A   1      36.660  22.910  27.349  1.00  0.00     0.163 HD
BRANCH   4   7
ATOM      7  C   UNL A   1      34.307  24.381  25.367  1.00  0.00     0.185 C 
ATOM      8  N   UNL A   1      33.316  23.802  24.438  1.00  0.00    -0.318 N 
ATOM      9  C   UNL A   1      32.104  24.600  24.253  1.00  0.00     0.147 C 
ATOM     10  S   UNL A   1      32.514  26.244  24.855  1.00  0.00    -0.134 SA
ATOM     11  C   UNL A   1      33.715  25.614  26.046  1.00  0.00     0.107 C 
BRANCH   8  12
ATOM     12  C   UNL A   1      33.793  22.842  23.563  1.00  0.00     0.224 C 
ATOM     13  O   UNL A   1      34.700  23.100  22.771  1.00  0.00    -0.275 OA
BRANCH  12  14
ATOM     14  C   UNL A   1      33.040  21.526  23.435  1.00  0.00     0.106 C 
BRANCH  14  15
ATOM     15  C   UNL A   1      33.232  20.515  24.571  1.00  0.00     0.021 C 
ATOM     16  C   UNL A   1      34.739  20.297  24.796  1.00  0.00     0.010 C 
BRANCH  15  17
ATOM     17  C   UNL A   1      32.537  19.180  24.268  1.00  0.00     0.163 C 
BRANCH  17  18
ATOM     18  O   UNL A   1      32.186  18.534  25.487  1.00  0.00    -0.384 OA
ATOM     19  C   UNL A   1      32.563  17.164  25.534  1.00  0.00     0.194 C 
ENDBRANCH  17  18
ENDBRANCH  15  17
ENDBRANCH  14  15
ENDBRANCH  12  14
ENDBRANCH   8  12
BRANCH   9  20
ATOM     20  C   UNL A   1      30.962  23.912  24.964  1.00  0.00     0.022 C 
ATOM     21  C   UNL A   1      31.027  23.322  26.361  1.00  0.00     0.007 C 
ATOM     22  C   UNL A   1      30.213  24.555  26.110  1.00  0.00     0.007 C 
ENDBRANCH   9  20
ENDBRANCH   4   7
ENDBRANCH   2   3
ENDBRANCH   1   2
BRANCH   1  23
ATOM     23  C   UNL A   1      39.528  23.002  26.777  1.00  0.00     0.002 C 
BRANCH  23  24
ATOM     24  C   UNL A   1      39.043  21.608  26.352  1.00  0.00     0.002 C 
BRANCH  24  25
ATOM     25  C   UNL A   1      40.041  20.761  25.557  1.00  0.00     0.021 C 
BRANCH  25  26
ATOM     26  C   UNL A   1      40.897  19.800  26.378  1.00  0.00     0.116 C 
BRANCH  26  27
ATOM     27  N   UNL A   1      42.081  19.363  25.657  1.00  0.00    -0.352 N 
ATOM     28  C   UNL A   1      43.196  20.056  25.259  1.00  0.00     0.251 C 
ATOM     29  H   UNL A   1      42.082  18.409  25.412  1.00  0.00     0.163 HD
ATOM     30  O   UNL A   1      43.983  19.517  24.482  1.00  0.00    -0.269 OA
BRANCH  28  31
ATOM     31  C   UNL A   1      43.466  21.431  25.740  1.00  0.00     0.039 A 
ATOM     32  C   UNL A   1      43.405  22.483  24.820  1.00  0.00     0.014 A 
ATOM     33  C   UNL A   1      43.849  21.691  27.059  1.00  0.00     0.014 A 
ATOM     34  C   UNL A   1      43.693  23.789  25.227  1.00  0.00     0.010 A 
ATOM     35  C   UNL A   1      44.059  23.004  27.482  1.00  0.00     0.010 A 
ATOM     36  C   UNL A   1      44.007  24.066  26.567  1.00  0.00    -0.014 A 
BRANCH  36  37
ATOM     37  C   UNL A   1      44.302  25.454  27.011  1.00  0.00     0.031 A 
ATOM     38  C   UNL A   1      45.709  25.992  26.961  1.00  0.00     0.074 A 
ATOM     39  C   UNL A   1      43.312  26.219  27.514  1.00  0.00     0.049 A 
ATOM     40  N   UNL A   1      46.153  27.173  27.307  1.00  0.00    -0.248 NA
ATOM     41  C   UNL A   1      46.759  25.077  26.482  1.00  0.00     0.031 C 
ATOM     42  C   UNL A   1      41.923  25.792  27.694  1.00  0.00     0.029 A 
ATOM     43  N   UNL A   1      43.325  27.509  27.981  1.00  0.00    -0.354 N 
ATOM     44  C   UNL A   1      47.532  27.133  27.123  1.00  0.00     0.074 A 
ATOM     45  C   UNL A   1      47.856  25.799  26.670  1.00  0.00     0.031 C 
ATOM     46  C   UNL A   1      41.216  26.803  28.223  1.00  0.00     0.029 A 
ATOM     47  C   UNL A   1      42.103  27.942  28.440  1.00  0.00     0.049 A 
ATOM     48  H   UNL A   1      44.132  28.072  27.987  1.00  0.00     0.167 HD
ATOM     49  C   UNL A   1      48.442  28.123  27.282  1.00  0.00     0.034 A 
ATOM     50  C   UNL A   1      41.736  29.124  28.974  1.00  0.00     0.034 A 
ATOM     51  C   UNL A   1      48.112  29.464  27.686  1.00  0.00     0.049 A 
ATOM     52  C   UNL A   1      42.755  30.225  29.089  1.00  0.00     0.074 A 
ATOM     53  C   UNL A   1      48.949  30.563  27.788  1.00  0.00     0.029 A 
ATOM     54  N   UNL A   1      46.848  29.890  28.060  1.00  0.00    -0.354 N 
ATOM     55  N   UNL A   1      44.021  30.217  28.750  1.00  0.00    -0.248 NA
ATOM     56  C   UNL A   1      42.285  31.513  29.623  1.00  0.00     0.031 C 
ATOM     57  C   UNL A   1      48.192  31.648  28.244  1.00  0.00     0.029 A 
ATOM     58  C   UNL A   1      46.880  31.232  28.401  1.00  0.00     0.049 A 
ATOM     59  H   UNL A   1      46.043  29.322  28.079  1.00  0.00     0.167 HD
ATOM     60  C   UNL A   1      44.490  31.502  28.995  1.00  0.00     0.074 A 
ATOM     61  C   UNL A   1      43.365  32.270  29.488  1.00  0.00     0.031 C 
ATOM     62  C   UNL A   1      45.743  31.999  28.842  1.00  0.00     0.034 A 
BRANCH  49  63
ATOM     63  C   UNL A   1      49.882  27.810  26.963  1.00  0.00     0.023 A 
ATOM     64  C   UNL A   1      50.747  27.391  27.995  1.00  0.00     0.012 A 
ATOM     65  C   UNL A   1      50.366  27.874  25.642  1.00  0.00     0.148 A 
ATOM     66  C   UNL A   1      52.077  27.077  27.725  1.00  0.00     0.002 A 
ATOM     67  C   UNL A   1      51.682  27.514  25.373  1.00  0.00     0.091 A 
ATOM     68  F   UNL A   1      49.537  28.293  24.675  1.00  0.00    -0.205 F 
ATOM     69  C   UNL A   1      52.542  27.128  26.414  1.00  0.00     0.022 A 
BRANCH  67  70
ATOM     70  S   UNL A   1      52.355  27.470  23.707  1.00  0.00     0.127 S 
ATOM     71  O   UNL A   1      52.569  28.891  23.438  1.00  0.00    -0.237 OA
ATOM     72  O   UNL A   1      53.581  26.693  23.891  1.00  0.00    -0.237 OA
ATOM     73  O   UNL A   1      51.344  26.822  22.884  1.00  0.00    -0.744 OA
ENDBRANCH  67  70
ENDBRANCH  49  63
BRANCH  50  74
ATOM     74  C   UNL A   1      40.316  29.351  29.371  1.00  0.00     0.023 A 
ATOM     75  C   UNL A   1      39.372  29.705  28.387  1.00  0.00     0.012 A 
ATOM     76  C   UNL A   1      39.893  29.195  30.705  1.00  0.00     0.148 A 
ATOM     77  C   UNL A   1      38.039  29.931  28.730  1.00  0.00     0.002 A 
ATOM     78  C   UNL A   1      38.553  29.366  31.030  1.00  0.00     0.091 A 
ATOM     79  F   UNL A   1      40.809  28.870  31.627  1.00  0.00    -0.205 F 
ATOM     80  C   UNL A   1      37.627  29.753  30.048  1.00  0.00     0.022 A 
BRANCH  78  81
ATOM     81  S   UNL A   1      37.913  29.027  32.674  1.00  0.00     0.127 S 
ATOM     82  O   UNL A   1      38.913  29.674  33.522  1.00  0.00    -0.237 OA
ATOM     83  O   UNL A   1      36.611  29.699  32.636  1.00  0.00    -0.237 OA
ATOM     84  O   UNL A   1      37.836  27.579  32.775  1.00  0.00    -0.744 OA
ENDBRANCH  78  81
ENDBRANCH  50  74
BRANCH  62  85
ATOM     85  C   UNL A   1      45.965  33.450  29.181  1.00  0.00     0.023 A 
ATOM     86  C   UNL A   1      45.809  34.434  28.184  1.00  0.00     0.012 A 
ATOM     87  C   UNL A   1      46.265  33.844  30.500  1.00  0.00     0.148 A 
ATOM     88  C   UNL A   1      45.986  35.783  28.487  1.00  0.00     0.002 A 
ATOM     89  C   UNL A   1      46.391  35.195  30.804  1.00  0.00     0.091 A 
ATOM     90  F   UNL A   1      46.428  32.893  31.432  1.00  0.00    -0.205 F 
ATOM     91  C   UNL A   1      46.265  36.164  29.797  1.00  0.00     0.022 A 
BRANCH  89  92
ATOM     92  S   UNL A   1      46.654  35.780  32.482  1.00  0.00     0.127 S 
ATOM     93  O   UNL A   1      48.031  35.361  32.732  1.00  0.00    -0.237 OA
ATOM     94  O   UNL A   1      46.472  37.225  32.340  1.00  0.00    -0.237 OA
ATOM     95  O   UNL A   1      45.640  35.124  33.297  1.00  0.00    -0.744 OA
ENDBRANCH  89  92
ENDBRANCH  62  85
ENDBRANCH  36  37
ENDBRANCH  28  31
ENDBRANCH  26  27
ENDBRANCH  25  26
ENDBRANCH  24  25
ENDBRANCH  23  24
ENDBRANCH   1  23
TORSDOF 22
ENDMDL
MODEL 3
REMARK VINA RESULT:      -9.1      1.804      7.792
REMARK SMILES COC[C@@H](C)CC(=O)N1[C@@H](C2CC2)SC[C@H]1C(=O)NCCCCCCNC(=O)c1ccc(-c2c3nc(c(-c4cccc(S(=O)(=O)[O-])c4F)c4ccc([nH]4)c(-c4cccc(S(=O)(=O)[O-])c4F)c4nc(c(-c5cccc(S(=O)(=O)[O-])c5F)c5ccc2[nH]5)C=C4)C=C3)cc1
REMARK SMILES IDX 21 1 20 2 19 3 17 4 18 5 16 7 9 8 10 9 14 10 15 11 7 12 8 13
REMARK SMILES IDX 6 14 4 15 5 16 3 17 2 18 1 19 11 20 12 21 13 22 22 23 23 24
REMARK SMILES IDX 24 25 25 26 26 27 27 28 28 30 29 31 30 32 91 33 31 34 90 35
REMARK SMILES IDX 32 36 33 37 34 38 84 39 35 40 89 41 83 42 85 43 36 44 88 45
REMARK SMILES IDX 82 46 81 47 37 49 69 50 49 51 68 52 50 53 53 54 67 55 86 56
REMARK SMILES IDX 51 57 52 58 66 60 87 61 54 62 38 63 39 64 47 65 40 66 42 67
REMARK SMILES IDX 48 68 41 69 43 70 44 71 45 72 46 73 70 74 71 75 79 76 72 77
REMARK SMILES IDX 74 78 80 79 73 80 75 81 76 82 77 83 78 84 55 85 56 86 64 87
REMARK SMILES IDX 57 88 59 89 65 90 58 91 60 92 61 93 62 94 63 95
REMARK H PARENT 19 6 26 29 85 48 53 59
REMARK Flexibility Score: inf
ROOT
ATOM      1  C   UNL A   1      32.119  29.281  27.018  1.00  0.00     0.021 C 
ENDROOT
BRANCH   1   2
ATOM      2  C   UNL A   1      32.135  27.851  27.556  1.00  0.00     0.116 C 
BRANCH   2   3
ATOM      3  N   UNL A   1      30.954  27.094  27.217  1.00  0.00    -0.354 N 
ATOM      4  C   UNL A   1      30.705  26.325  26.122  1.00  0.00     0.243 C 
ATOM      5  O   UNL A   1      29.823  25.464  26.239  1.00  0.00    -0.273 OA
ATOM      6  H   UNL A   1      30.222  27.140  27.875  1.00  0.00     0.163 HD
BRANCH   4   7
ATOM      7  C   UNL A   1      31.589  26.341  24.854  1.00  0.00     0.185 C 
ATOM      8  N   UNL A   1      32.426  25.171  24.522  1.00  0.00    -0.318 N 
ATOM      9  C   UNL A   1      32.388  24.764  23.117  1.00  0.00     0.147 C 
ATOM     10  S   UNL A   1      31.712  26.173  22.226  1.00  0.00    -0.134 SA
ATOM     11  C   UNL A   1      30.742  26.727  23.643  1.00  0.00     0.107 C 
BRANCH   8  12
ATOM     12  C   UNL A   1      33.430  24.867  25.423  1.00  0.00     0.224 C 
ATOM     13  O   UNL A   1      33.175  24.659  26.611  1.00  0.00    -0.275 OA
BRANCH  12  14
ATOM     14  C   UNL A   1      34.880  25.005  24.983  1.00  0.00     0.106 C 
BRANCH  14  15
ATOM     15  C   UNL A   1      35.720  23.722  24.987  1.00  0.00     0.021 C 
ATOM     16  C   UNL A   1      35.663  23.083  23.589  1.00  0.00     0.010 C 
BRANCH  15  17
ATOM     17  C   UNL A   1      35.232  22.728  26.051  1.00  0.00     0.163 C 
BRANCH  17  18
ATOM     18  O   UNL A   1      34.692  21.573  25.418  1.00  0.00    -0.384 OA
ATOM     19  C   UNL A   1      33.795  20.840  26.241  1.00  0.00     0.194 C 
ENDBRANCH  17  18
ENDBRANCH  15  17
ENDBRANCH  14  15
ENDBRANCH  12  14
ENDBRANCH   8  12
BRANCH   9  20
ATOM     20  C   UNL A   1      31.593  23.484  23.008  1.00  0.00     0.022 C 
ATOM     21  C   UNL A   1      32.186  22.089  22.928  1.00  0.00     0.007 C 
ATOM     22  C   UNL A   1      31.449  22.516  24.161  1.00  0.00     0.007 C 
ENDBRANCH   9  20
ENDBRANCH   4   7
ENDBRANCH   2   3
ENDBRANCH   1   2
BRANCH   1  23
ATOM     23  C   UNL A   1      33.496  29.786  26.572  1.00  0.00     0.002 C 
BRANCH  23  24
ATOM     24  C   UNL A   1      34.060  30.968  27.374  1.00  0.00     0.002 C 
BRANCH  24  25
ATOM     25  C   UNL A   1      33.030  31.957  27.930  1.00  0.00     0.021 C 
BRANCH  25  26
ATOM     26  C   UNL A   1      32.545  33.027  26.956  1.00  0.00     0.116 C 
BRANCH  26  27
ATOM     27  N   UNL A   1      32.398  34.325  27.592  1.00  0.00    -0.352 N 
ATOM     28  C   UNL A   1      33.031  34.867  28.681  1.00  0.00     0.251 C 
ATOM     29  H   UNL A   1      31.732  34.914  27.169  1.00  0.00     0.163 HD
ATOM     30  O   UNL A   1      32.597  35.914  29.159  1.00  0.00    -0.269 OA
BRANCH  28  31
ATOM     31  C   UNL A   1      34.215  34.218  29.292  1.00  0.00     0.039 A 
ATOM     32  C   UNL A   1      34.029  33.426  30.430  1.00  0.00     0.014 A 
ATOM     33  C   UNL A   1      35.508  34.435  28.809  1.00  0.00     0.014 A 
ATOM     34  C   UNL A   1      35.126  32.830  31.058  1.00  0.00     0.010 A 
ATOM     35  C   UNL A   1      36.594  33.777  29.389  1.00  0.00     0.010 A 
ATOM     36  C   UNL A   1      36.419  32.986  30.534  1.00  0.00    -0.014 A 
BRANCH  36  37
ATOM     37  C   UNL A   1      37.591  32.345  31.189  1.00  0.00     0.031 A 
ATOM     38  C   UNL A   1      38.449  31.363  30.432  1.00  0.00     0.074 A 
ATOM     39  C   UNL A   1      37.855  32.602  32.485  1.00  0.00     0.049 A 
ATOM     40  N   UNL A   1      39.505  30.707  30.838  1.00  0.00    -0.248 NA
ATOM     41  C   UNL A   1      38.055  31.060  29.045  1.00  0.00     0.031 C 
ATOM     42  C   UNL A   1      37.057  33.469  33.354  1.00  0.00     0.029 A 
ATOM     43  N   UNL A   1      38.860  32.148  33.303  1.00  0.00    -0.354 N 
ATOM     44  C   UNL A   1      39.881  29.891  29.776  1.00  0.00     0.074 A 
ATOM     45  C   UNL A   1      38.917  30.106  28.719  1.00  0.00     0.031 C 
ATOM     46  C   UNL A   1      37.606  33.491  34.579  1.00  0.00     0.029 A 
ATOM     47  C   UNL A   1      38.782  32.625  34.590  1.00  0.00     0.049 A 
ATOM     48  H   UNL A   1      39.569  31.538  32.997  1.00  0.00     0.167 HD
ATOM     49  C   UNL A   1      40.948  29.064  29.673  1.00  0.00     0.034 A 
ATOM     50  C   UNL A   1      39.568  32.394  35.660  1.00  0.00     0.034 A 
ATOM     51  C   UNL A   1      41.934  28.887  30.706  1.00  0.00     0.049 A 
ATOM     52  C   UNL A   1      40.779  31.514  35.503  1.00  0.00     0.074 A 
ATOM     53  C   UNL A   1      43.100  28.142  30.665  1.00  0.00     0.029 A 
ATOM     54  N   UNL A   1      41.869  29.455  31.968  1.00  0.00    -0.354 N 
ATOM     55  N   UNL A   1      41.209  30.884  34.438  1.00  0.00    -0.248 NA
ATOM     56  C   UNL A   1      41.636  31.345  36.687  1.00  0.00     0.031 C 
ATOM     57  C   UNL A   1      43.729  28.244  31.910  1.00  0.00     0.029 A 
ATOM     58  C   UNL A   1      42.968  29.074  32.718  1.00  0.00     0.049 A 
ATOM     59  H   UNL A   1      41.147  30.045  32.285  1.00  0.00     0.167 HD
ATOM     60  C   UNL A   1      42.402  30.274  34.810  1.00  0.00     0.074 A 
ATOM     61  C   UNL A   1      42.639  30.632  36.194  1.00  0.00     0.031 C 
ATOM     62  C   UNL A   1      43.219  29.477  34.078  1.00  0.00     0.034 A 
BRANCH  49  63
ATOM     63  C   UNL A   1      41.141  28.325  28.372  1.00  0.00     0.023 A 
ATOM     64  C   UNL A   1      41.748  28.985  27.283  1.00  0.00     0.012 A 
ATOM     65  C   UNL A   1      40.777  26.971  28.243  1.00  0.00     0.148 A 
ATOM     66  C   UNL A   1      41.956  28.320  26.076  1.00  0.00     0.002 A 
ATOM     67  C   UNL A   1      41.030  26.301  27.050  1.00  0.00     0.091 A 
ATOM     68  F   UNL A   1      40.184  26.364  29.281  1.00  0.00    -0.205 F 
ATOM     69  C   UNL A   1      41.608  26.978  25.963  1.00  0.00     0.022 A 
BRANCH  67  70
ATOM     70  S   UNL A   1      40.693  24.550  26.830  1.00  0.00     0.127 S 
ATOM     71  O   UNL A   1      41.673  24.188  25.808  1.00  0.00    -0.237 OA
ATOM     72  O   UNL A   1      40.974  24.013  28.161  1.00  0.00    -0.237 OA
ATOM     73  O   UNL A   1      39.299  24.459  26.421  1.00  0.00    -0.744 OA
ENDBRANCH  67  70
ENDBRANCH  49  63
BRANCH  50  74
ATOM     74  C   UNL A   1      39.277  33.071  36.957  1.00  0.00     0.023 A 
ATOM     75  C   UNL A   1      39.878  34.314  37.238  1.00  0.00     0.012 A 
ATOM     76  C   UNL A   1      38.394  32.506  37.896  1.00  0.00     0.148 A 
ATOM     77  C   UNL A   1      39.630  34.965  38.446  1.00  0.00     0.002 A 
ATOM     78  C   UNL A   1      38.107  33.188  39.073  1.00  0.00     0.091 A 
ATOM     79  F   UNL A   1      37.842  31.317  37.615  1.00  0.00    -0.205 F 
ATOM     80  C   UNL A   1      38.738  34.408  39.358  1.00  0.00     0.022 A 
BRANCH  78  81
ATOM     81  S   UNL A   1      36.871  32.608  40.240  1.00  0.00     0.127 S 
ATOM     82  O   UNL A   1      35.703  32.438  39.378  1.00  0.00    -0.237 OA
ATOM     83  O   UNL A   1      37.470  31.359  40.719  1.00  0.00    -0.237 OA
ATOM     84  O   UNL A   1      36.767  33.647  41.251  1.00  0.00    -0.744 OA
ENDBRANCH  78  81
ENDBRANCH  50  74
BRANCH  62  85
ATOM     85  C   UNL A   1      44.466  28.956  34.745  1.00  0.00     0.023 A 
ATOM     86  C   UNL A   1      45.707  29.573  34.488  1.00  0.00     0.012 A 
ATOM     87  C   UNL A   1      44.399  27.899  35.674  1.00  0.00     0.148 A 
ATOM     88  C   UNL A   1      46.867  29.119  35.116  1.00  0.00     0.002 A 
ATOM     89  C   UNL A   1      45.551  27.486  36.333  1.00  0.00     0.091 A 
ATOM     90  F   UNL A   1      43.213  27.312  35.892  1.00  0.00    -0.205 F 
ATOM     91  C   UNL A   1      46.787  28.085  36.045  1.00  0.00     0.022 A 
BRANCH  89  92
ATOM     92  S   UNL A   1      45.525  26.227  37.615  1.00  0.00     0.127 S 
ATOM     93  O   UNL A   1      46.927  26.192  38.027  1.00  0.00    -0.237 OA
ATOM     94  O   UNL A   1      44.614  26.807  38.602  1.00  0.00    -0.237 OA
ATOM     95  O   UNL A   1      45.027  25.017  36.976  1.00  0.00    -0.744 OA
ENDBRANCH  89  92
ENDBRANCH  62  85
ENDBRANCH  36  37
ENDBRANCH  28  31
ENDBRANCH  26  27
ENDBRANCH  25  26
ENDBRANCH  24  25
ENDBRANCH  23  24
ENDBRANCH   1  23
TORSDOF 22
ENDMDL
