MODEL 1
REMARK VINA RESULT:     -11.1      0.000      0.000
REMARK SMILES CC[C@@](C)(NC(=O)N1CCC[C@H]1C1CCCC1)C(=O)NCCCCCCNC(=O)c1ccc(-c2c3nc(c(-c4cccc(S(=O)(=O)[O-])c4F)c4ccc([nH]4)c(-c4cccc(S(=O)(=O)[O-])c4F)c4nc(c(-c5cccc(S(=O)(=O)[O-])c5F)c5ccc2[nH]5)C=C4)C=C3)cc1
REMARK SMILES IDX 23 1 22 2 21 3 20 4 18 5 19 6 3 8 4 9 2 10 1 11 5 12 6 13
REMARK SMILES IDX 7 15 8 16 9 17 12 18 10 19 11 20 13 21 14 22 17 23 15 24
REMARK SMILES IDX 16 25 24 26 25 27 26 28 27 29 28 30 29 32 30 33 31 34 92 35
REMARK SMILES IDX 32 36 91 37 33 38 34 39 35 40 85 41 36 42 90 43 84 44 86 45
REMARK SMILES IDX 37 46 89 47 83 48 82 49 38 51 70 52 50 53 69 54 51 55 54 56
REMARK SMILES IDX 68 57 87 58 52 59 53 60 67 62 88 63 55 64 39 65 40 66 48 67
REMARK SMILES IDX 41 68 43 69 49 70 42 71 44 72 45 73 46 74 47 75 71 76 72 77
REMARK SMILES IDX 80 78 73 79 75 80 81 81 74 82 76 83 77 84 78 85 79 86 56 87
REMARK SMILES IDX 57 88 65 89 58 90 60 91 66 92 59 93 61 94 62 95 63 96 64 97
REMARK H PARENT 20 7 5 14 27 31 86 50 54 61
REMARK Flexibility Score: inf
ROOT
ATOM      1  C   UNL A   1      35.994  21.718  24.536  1.00  0.00     0.002 C 
ENDROOT
BRANCH   1   2
ATOM      2  C   UNL A   1      35.307  20.471  25.102  1.00  0.00     0.021 C 
BRANCH   2   3
ATOM      3  C   UNL A   1      33.800  20.581  25.283  1.00  0.00     0.116 C 
BRANCH   3   4
ATOM      4  N   UNL A   1      33.410  21.181  26.544  1.00  0.00    -0.354 N 
ATOM      5  C   UNL A   1      32.921  22.414  26.864  1.00  0.00     0.245 C 
ATOM      6  O   UNL A   1      32.573  22.553  28.043  1.00  0.00    -0.272 OA
ATOM      7  H   UNL A   1      33.517  20.583  27.320  1.00  0.00     0.163 HD
BRANCH   5   8
ATOM      8  C   UNL A   1      32.680  23.529  25.799  1.00  0.00     0.117 C 
ATOM      9  C   UNL A   1      34.003  24.347  25.752  1.00  0.00     0.045 C 
BRANCH   8  10
ATOM     10  C   UNL A   1      32.429  22.970  24.362  1.00  0.00     0.035 C 
ATOM     11  C   UNL A   1      33.216  23.588  23.208  1.00  0.00     0.007 C 
ENDBRANCH   8  10
BRANCH   8  12
ATOM     12  N   UNL A   1      31.573  24.483  26.112  1.00  0.00    -0.324 N 
ATOM     13  C   UNL A   1      31.460  25.830  26.029  1.00  0.00     0.318 C 
ATOM     14  H   UNL A   1      30.759  24.043  26.446  1.00  0.00     0.166 HD
ATOM     15  O   UNL A   1      31.062  26.376  27.062  1.00  0.00    -0.249 OA
BRANCH  13  16
ATOM     16  N   UNL A   1      31.696  26.544  24.894  1.00  0.00    -0.322 N 
ATOM     17  C   UNL A   1      30.875  26.716  23.719  1.00  0.00     0.122 C 
ATOM     18  C   UNL A   1      32.987  27.227  24.680  1.00  0.00     0.090 C 
ATOM     19  C   UNL A   1      31.857  26.751  22.571  1.00  0.00     0.024 C 
ATOM     20  C   UNL A   1      33.048  27.488  23.154  1.00  0.00     0.027 C 
BRANCH  18  21
ATOM     21  C   UNL A   1      33.220  28.569  25.427  1.00  0.00     0.012 C 
ATOM     22  C   UNL A   1      31.984  29.418  25.733  1.00  0.00     0.006 C 
ATOM     23  C   UNL A   1      33.883  28.506  26.802  1.00  0.00     0.006 C 
ATOM     24  C   UNL A   1      32.513  30.521  26.646  1.00  0.00     0.000 C 
ATOM     25  C   UNL A   1      33.721  29.920  27.363  1.00  0.00     0.000 C 
ENDBRANCH  18  21
ENDBRANCH  13  16
ENDBRANCH   8  12
ENDBRANCH   5   8
ENDBRANCH   3   4
ENDBRANCH   2   3
ENDBRANCH   1   2
BRANCH   1  26
ATOM     26  C   UNL A   1      37.481  21.863  24.846  1.00  0.00     0.002 C 
BRANCH  26  27
ATOM     27  C   UNL A   1      38.224  20.551  25.081  1.00  0.00     0.021 C 
BRANCH  27  28
ATOM     28  C   UNL A   1      39.331  20.618  26.129  1.00  0.00     0.116 C 
BRANCH  28  29
ATOM     29  N   UNL A   1      40.229  19.476  26.065  1.00  0.00    -0.352 N 
ATOM     30  C   UNL A   1      41.606  19.466  26.079  1.00  0.00     0.251 C 
ATOM     31  H   UNL A   1      39.796  18.594  26.004  1.00  0.00     0.163 HD
ATOM     32  O   UNL A   1      42.228  18.440  25.851  1.00  0.00    -0.269 OA
BRANCH  30  33
ATOM     33  C   UNL A   1      42.319  20.733  26.350  1.00  0.00     0.039 A 
ATOM     34  C   UNL A   1      42.691  21.548  25.280  1.00  0.00     0.014 A 
ATOM     35  C   UNL A   1      42.559  21.134  27.667  1.00  0.00     0.014 A 
ATOM     36  C   UNL A   1      43.248  22.804  25.534  1.00  0.00     0.010 A 
ATOM     37  C   UNL A   1      43.040  22.413  27.917  1.00  0.00     0.010 A 
ATOM     38  C   UNL A   1      43.394  23.261  26.855  1.00  0.00    -0.014 A 
BRANCH  38  39
ATOM     39  C   UNL A   1      43.924  24.616  27.158  1.00  0.00     0.031 A 
ATOM     40  C   UNL A   1      42.998  25.676  27.694  1.00  0.00     0.074 A 
ATOM     41  C   UNL A   1      45.202  24.924  26.857  1.00  0.00     0.049 A 
ATOM     42  N   UNL A   1      43.237  26.939  27.924  1.00  0.00    -0.248 NA
ATOM     43  C   UNL A   1      41.611  25.267  27.979  1.00  0.00     0.031 C 
ATOM     44  C   UNL A   1      46.179  24.008  26.261  1.00  0.00     0.029 A 
ATOM     45  N   UNL A   1      45.891  26.105  26.977  1.00  0.00    -0.354 N 
ATOM     46  C   UNL A   1      42.026  27.486  28.331  1.00  0.00     0.074 A 
ATOM     47  C   UNL A   1      41.046  26.424  28.293  1.00  0.00     0.031 C 
ATOM     48  C   UNL A   1      47.335  24.662  26.065  1.00  0.00     0.029 A 
ATOM     49  C   UNL A   1      47.177  26.049  26.491  1.00  0.00     0.049 A 
ATOM     50  H   UNL A   1      45.500  26.918  27.373  1.00  0.00     0.167 HD
ATOM     51  C   UNL A   1      41.759  28.752  28.731  1.00  0.00     0.034 A 
ATOM     52  C   UNL A   1      48.119  27.010  26.390  1.00  0.00     0.034 A 
ATOM     53  C   UNL A   1      42.749  29.788  28.830  1.00  0.00     0.049 A 
ATOM     54  C   UNL A   1      47.808  28.394  26.897  1.00  0.00     0.074 A 
ATOM     55  C   UNL A   1      42.599  31.074  29.319  1.00  0.00     0.029 A 
ATOM     56  N   UNL A   1      44.070  29.660  28.435  1.00  0.00    -0.354 N 
ATOM     57  N   UNL A   1      46.701  28.846  27.433  1.00  0.00    -0.248 NA
ATOM     58  C   UNL A   1      48.887  29.391  26.822  1.00  0.00     0.031 C 
ATOM     59  C   UNL A   1      43.827  31.730  29.202  1.00  0.00     0.029 A 
ATOM     60  C   UNL A   1      44.747  30.844  28.666  1.00  0.00     0.049 A 
ATOM     61  H   UNL A   1      44.468  28.847  28.049  1.00  0.00     0.167 HD
ATOM     62  C   UNL A   1      46.964  30.161  27.801  1.00  0.00     0.074 A 
ATOM     63  C   UNL A   1      48.341  30.429  27.440  1.00  0.00     0.031 C 
ATOM     64  C   UNL A   1      46.138  31.070  28.372  1.00  0.00     0.034 A 
BRANCH  51  65
ATOM     65  C   UNL A   1      40.351  29.078  29.151  1.00  0.00     0.023 A 
ATOM     66  C   UNL A   1      39.395  29.420  28.172  1.00  0.00     0.012 A 
ATOM     67  C   UNL A   1      39.952  28.963  30.497  1.00  0.00     0.148 A 
ATOM     68  C   UNL A   1      38.071  29.670  28.529  1.00  0.00     0.002 A 
ATOM     69  C   UNL A   1      38.621  29.170  30.839  1.00  0.00     0.091 A 
ATOM     70  F   UNL A   1      40.880  28.656  31.414  1.00  0.00    -0.205 F 
ATOM     71  C   UNL A   1      37.682  29.533  29.859  1.00  0.00     0.022 A 
BRANCH  69  72
ATOM     72  S   UNL A   1      38.000  28.938  32.509  1.00  0.00     0.127 S 
ATOM     73  O   UNL A   1      38.244  27.512  32.719  1.00  0.00    -0.237 OA
ATOM     74  O   UNL A   1      38.869  29.825  33.284  1.00  0.00    -0.237 OA
ATOM     75  O   UNL A   1      36.599  29.332  32.477  1.00  0.00    -0.744 OA
ENDBRANCH  69  72
ENDBRANCH  51  65
BRANCH  52  76
ATOM     76  C   UNL A   1      49.468  26.688  25.843  1.00  0.00     0.023 A 
ATOM     77  C   UNL A   1      50.386  25.976  26.642  1.00  0.00     0.012 A 
ATOM     78  C   UNL A   1      49.852  27.079  24.546  1.00  0.00     0.148 A 
ATOM     79  C   UNL A   1      51.672  25.698  26.178  1.00  0.00     0.002 A 
ATOM     80  C   UNL A   1      51.116  26.749  24.068  1.00  0.00     0.091 A 
ATOM     81  F   UNL A   1      48.974  27.768  23.804  1.00  0.00    -0.205 F 
ATOM     82  C   UNL A   1      52.034  26.077  24.888  1.00  0.00     0.022 A 
BRANCH  80  83
ATOM     83  S   UNL A   1      51.613  27.084  22.374  1.00  0.00     0.127 S 
ATOM     84  O   UNL A   1      52.824  26.277  22.252  1.00  0.00    -0.237 OA
ATOM     85  O   UNL A   1      50.464  26.591  21.615  1.00  0.00    -0.237 OA
ATOM     86  O   UNL A   1      51.799  28.528  22.303  1.00  0.00    -0.744 OA
ENDBRANCH  80  83
ENDBRANCH  52  76
BRANCH  64  87
ATOM     87  C   UNL A   1      46.701  32.426  28.707  1.00  0.00     0.023 A 
ATOM     88  C   UNL A   1      47.280  32.654  29.970  1.00  0.00     0.012 A 
ATOM     89  C   UNL A   1      46.743  33.441  27.730  1.00  0.00     0.148 A 
ATOM     90  C   UNL A   1      47.869  33.883  30.265  1.00  0.00     0.002 A 
ATOM     91  C   UNL A   1      47.376  34.643  28.015  1.00  0.00     0.091 A 
ATOM     92  F   UNL A   1      46.169  33.208  26.541  1.00  0.00    -0.205 F 
ATOM     93  C   UNL A   1      47.929  34.871  29.284  1.00  0.00     0.022 A 
BRANCH  91  94
ATOM     94  S   UNL A   1      47.589  35.933  26.782  1.00  0.00     0.127 S 
ATOM     95  O   UNL A   1      46.205  36.307  26.499  1.00  0.00    -0.237 OA
ATOM     96  O   UNL A   1      48.356  36.941  27.517  1.00  0.00    -0.237 OA
ATOM     97  O   UNL A   1      48.310  35.317  25.677  1.00  0.00    -0.744 OA
ENDBRANCH  91  94
ENDBRANCH  64  87
ENDBRANCH  38  39
ENDBRANCH  30  33
ENDBRANCH  28  29
ENDBRANCH  27  28
ENDBRANCH  26  27
ENDBRANCH   1  26
TORSDOF 20
ENDMDL
MODEL 2
REMARK VINA RESULT:     -11.1      5.575     11.703
REMARK SMILES CC[C@@](C)(NC(=O)N1CCC[C@H]1C1CCCC1)C(=O)NCCCCCCNC(=O)c1ccc(-c2c3nc(c(-c4cccc(S(=O)(=O)[O-])c4F)c4ccc([nH]4)c(-c4cccc(S(=O)(=O)[O-])c4F)c4nc(c(-c5cccc(S(=O)(=O)[O-])c5F)c5ccc2[nH]5)C=C4)C=C3)cc1
REMARK SMILES IDX 23 1 22 2 21 3 20 4 18 5 19 6 3 8 4 9 2 10 1 11 5 12 6 13
REMARK SMILES IDX 7 15 8 16 9 17 12 18 10 19 11 20 13 21 14 22 17 23 15 24
REMARK SMILES IDX 16 25 24 26 25 27 26 28 27 29 28 30 29 32 30 33 31 34 92 35
REMARK SMILES IDX 32 36 91 37 33 38 34 39 35 40 85 41 36 42 90 43 84 44 86 45
REMARK SMILES IDX 37 46 89 47 83 48 82 49 38 51 70 52 50 53 69 54 51 55 54 56
REMARK SMILES IDX 68 57 87 58 52 59 53 60 67 62 88 63 55 64 39 65 40 66 48 67
REMARK SMILES IDX 41 68 43 69 49 70 42 71 44 72 45 73 46 74 47 75 71 76 72 77
REMARK SMILES IDX 80 78 73 79 75 80 81 81 74 82 76 83 77 84 78 85 79 86 56 87
REMARK SMILES IDX 57 88 65 89 58 90 60 91 66 92 59 93 61 94 62 95 63 96 64 97
REMARK H PARENT 20 7 5 14 27 31 86 50 54 61
REMARK Flexibility Score: inf
ROOT
ATOM      1  C   UNL A   1      32.633  29.620  26.548  1.00  0.00     0.002 C 
ENDROOT
BRANCH   1   2
ATOM      2  C   UNL A   1      33.587  28.990  25.527  1.00  0.00     0.021 C 
BRANCH   2   3
ATOM      3  C   UNL A   1      33.066  28.931  24.098  1.00  0.00     0.116 C 
BRANCH   3   4
ATOM      4  N   UNL A   1      33.733  27.938  23.278  1.00  0.00    -0.354 N 
ATOM      5  C   UNL A   1      33.376  26.682  22.884  1.00  0.00     0.245 C 
ATOM      6  O   UNL A   1      34.139  26.147  22.072  1.00  0.00    -0.272 OA
ATOM      7  H   UNL A   1      34.613  28.224  22.941  1.00  0.00     0.163 HD
BRANCH   5   8
ATOM      8  C   UNL A   1      32.030  26.014  23.309  1.00  0.00     0.117 C 
ATOM      9  C   UNL A   1      31.979  26.138  24.859  1.00  0.00     0.045 C 
BRANCH   8  10
ATOM     10  C   UNL A   1      30.770  26.744  22.743  1.00  0.00     0.035 C 
ATOM     11  C   UNL A   1      29.624  27.041  23.708  1.00  0.00     0.007 C 
ENDBRANCH   8  10
BRANCH   8  12
ATOM     12  N   UNL A   1      31.901  24.564  22.969  1.00  0.00    -0.324 N 
ATOM     13  C   UNL A   1      32.621  23.467  23.306  1.00  0.00     0.318 C 
ATOM     14  H   UNL A   1      31.138  24.364  22.382  1.00  0.00     0.166 HD
ATOM     15  O   UNL A   1      32.976  22.773  22.349  1.00  0.00    -0.249 OA
BRANCH  13  16
ATOM     16  N   UNL A   1      32.889  23.099  24.589  1.00  0.00    -0.322 N 
ATOM     17  C   UNL A   1      32.068  22.390  25.542  1.00  0.00     0.122 C 
ATOM     18  C   UNL A   1      34.151  23.494  25.246  1.00  0.00     0.090 C 
ATOM     19  C   UNL A   1      32.394  23.028  26.873  1.00  0.00     0.024 C 
ATOM     20  C   UNL A   1      33.876  23.326  26.761  1.00  0.00     0.027 C 
BRANCH  18  21
ATOM     21  C   UNL A   1      35.432  22.695  24.877  1.00  0.00     0.012 C 
ATOM     22  C   UNL A   1      36.727  23.091  25.590  1.00  0.00     0.006 C 
ATOM     23  C   UNL A   1      35.414  21.187  25.113  1.00  0.00     0.006 C 
ATOM     24  C   UNL A   1      37.716  22.000  25.188  1.00  0.00     0.000 C 
ATOM     25  C   UNL A   1      36.869  20.757  24.912  1.00  0.00     0.000 C 
ENDBRANCH  18  21
ENDBRANCH  13  16
ENDBRANCH   8  12
ENDBRANCH   5   8
ENDBRANCH   3   4
ENDBRANCH   2   3
ENDBRANCH   1   2
BRANCH   1  26
ATOM     26  C   UNL A   1      31.478  30.434  25.973  1.00  0.00     0.002 C 
BRANCH  26  27
ATOM     27  C   UNL A   1      31.337  31.845  26.537  1.00  0.00     0.021 C 
BRANCH  27  28
ATOM     28  C   UNL A   1      32.639  32.479  27.015  1.00  0.00     0.116 C 
BRANCH  28  29
ATOM     29  N   UNL A   1      32.444  33.821  27.543  1.00  0.00    -0.352 N 
ATOM     30  C   UNL A   1      33.135  34.454  28.553  1.00  0.00     0.251 C 
ATOM     31  H   UNL A   1      31.725  34.345  27.123  1.00  0.00     0.163 HD
ATOM     32  O   UNL A   1      32.750  35.523  29.000  1.00  0.00    -0.269 OA
BRANCH  30  33
ATOM     33  C   UNL A   1      34.340  33.798  29.104  1.00  0.00     0.039 A 
ATOM     34  C   UNL A   1      35.596  34.347  28.841  1.00  0.00     0.014 A 
ATOM     35  C   UNL A   1      34.212  32.677  29.929  1.00  0.00     0.014 A 
ATOM     36  C   UNL A   1      36.725  33.809  29.463  1.00  0.00     0.010 A 
ATOM     37  C   UNL A   1      35.325  32.195  30.607  1.00  0.00     0.010 A 
ATOM     38  C   UNL A   1      36.594  32.751  30.378  1.00  0.00    -0.014 A 
BRANCH  38  39
ATOM     39  C   UNL A   1      37.766  32.198  31.105  1.00  0.00     0.031 A 
ATOM     40  C   UNL A   1      38.543  31.055  30.507  1.00  0.00     0.074 A 
ATOM     41  C   UNL A   1      38.069  32.648  32.340  1.00  0.00     0.049 A 
ATOM     42  N   UNL A   1      39.526  30.367  31.023  1.00  0.00    -0.248 NA
ATOM     43  C   UNL A   1      38.139  30.605  29.162  1.00  0.00     0.031 C 
ATOM     44  C   UNL A   1      37.345  33.698  33.063  1.00  0.00     0.029 A 
ATOM     45  N   UNL A   1      39.044  32.254  33.223  1.00  0.00    -0.354 N 
ATOM     46  C   UNL A   1      39.826  29.378  30.094  1.00  0.00     0.074 A 
ATOM     47  C   UNL A   1      38.903  29.537  28.992  1.00  0.00     0.031 C 
ATOM     48  C   UNL A   1      37.898  33.860  34.275  1.00  0.00     0.029 A 
ATOM     49  C   UNL A   1      38.994  32.909  34.433  1.00  0.00     0.049 A 
ATOM     50  H   UNL A   1      39.716  31.566  33.011  1.00  0.00     0.167 HD
ATOM     51  C   UNL A   1      40.801  28.439  30.139  1.00  0.00     0.034 A 
ATOM     52  C   UNL A   1      39.740  32.753  35.545  1.00  0.00     0.034 A 
ATOM     53  C   UNL A   1      41.757  28.325  31.204  1.00  0.00     0.049 A 
ATOM     54  C   UNL A   1      40.855  31.739  35.541  1.00  0.00     0.074 A 
ATOM     55  C   UNL A   1      42.843  27.474  31.295  1.00  0.00     0.029 A 
ATOM     56  N   UNL A   1      41.744  29.084  32.363  1.00  0.00    -0.354 N 
ATOM     57  N   UNL A   1      41.225  30.924  34.584  1.00  0.00    -0.248 NA
ATOM     58  C   UNL A   1      41.680  31.649  36.756  1.00  0.00     0.031 C 
ATOM     59  C   UNL A   1      43.478  27.705  32.519  1.00  0.00     0.029 A 
ATOM     60  C   UNL A   1      42.801  28.719  33.177  1.00  0.00     0.049 A 
ATOM     61  H   UNL A   1      41.081  29.780  32.575  1.00  0.00     0.167 HD
ATOM     62  C   UNL A   1      42.350  30.261  35.061  1.00  0.00     0.074 A 
ATOM     63  C   UNL A   1      42.610  30.780  36.388  1.00  0.00     0.031 C 
ATOM     64  C   UNL A   1      43.092  29.299  34.462  1.00  0.00     0.034 A 
BRANCH  51  65
ATOM     65  C   UNL A   1      40.925  27.494  28.974  1.00  0.00     0.023 A 
ATOM     66  C   UNL A   1      40.061  26.384  28.885  1.00  0.00     0.012 A 
ATOM     67  C   UNL A   1      41.835  27.749  27.929  1.00  0.00     0.148 A 
ATOM     68  C   UNL A   1      40.118  25.525  27.787  1.00  0.00     0.002 A 
ATOM     69  C   UNL A   1      41.855  26.915  26.818  1.00  0.00     0.091 A 
ATOM     70  F   UNL A   1      42.662  28.798  28.043  1.00  0.00    -0.205 F 
ATOM     71  C   UNL A   1      41.006  25.799  26.749  1.00  0.00     0.022 A 
BRANCH  69  72
ATOM     72  S   UNL A   1      42.901  27.225  25.390  1.00  0.00     0.127 S 
ATOM     73  O   UNL A   1      42.196  28.330  24.742  1.00  0.00    -0.237 OA
ATOM     74  O   UNL A   1      44.171  27.596  26.017  1.00  0.00    -0.237 OA
ATOM     75  O   UNL A   1      42.934  25.980  24.636  1.00  0.00    -0.744 OA
ENDBRANCH  69  72
ENDBRANCH  51  65
BRANCH  52  76
ATOM     76  C   UNL A   1      39.505  33.617  36.737  1.00  0.00     0.023 A 
ATOM     77  C   UNL A   1      39.944  34.957  36.717  1.00  0.00     0.012 A 
ATOM     78  C   UNL A   1      38.856  33.128  37.887  1.00  0.00     0.148 A 
ATOM     79  C   UNL A   1      39.780  35.779  37.833  1.00  0.00     0.002 A 
ATOM     80  C   UNL A   1      38.645  33.969  38.975  1.00  0.00     0.091 A 
ATOM     81  F   UNL A   1      38.459  31.848  37.897  1.00  0.00    -0.205 F 
ATOM     82  C   UNL A   1      39.123  35.287  38.958  1.00  0.00     0.022 A 
BRANCH  80  83
ATOM     83  S   UNL A   1      37.693  33.455  40.409  1.00  0.00     0.127 S 
ATOM     84  O   UNL A   1      36.462  32.968  39.794  1.00  0.00    -0.237 OA
ATOM     85  O   UNL A   1      38.547  32.415  40.986  1.00  0.00    -0.237 OA
ATOM     86  O   UNL A   1      37.566  34.647  41.238  1.00  0.00    -0.744 OA
ENDBRANCH  80  83
ENDBRANCH  52  76
BRANCH  64  87
ATOM     87  C   UNL A   1      44.298  28.777  35.196  1.00  0.00     0.023 A 
ATOM     88  C   UNL A   1      45.562  29.357  34.974  1.00  0.00     0.012 A 
ATOM     89  C   UNL A   1      44.157  27.776  36.178  1.00  0.00     0.148 A 
ATOM     90  C   UNL A   1      46.672  28.930  35.702  1.00  0.00     0.002 A 
ATOM     91  C   UNL A   1      45.257  27.392  36.932  1.00  0.00     0.091 A 
ATOM     92  F   UNL A   1      42.948  27.224  36.359  1.00  0.00    -0.205 F 
ATOM     93  C   UNL A   1      46.517  27.959  36.689  1.00  0.00     0.022 A 
BRANCH  91  94
ATOM     94  S   UNL A   1      45.131  26.222  38.291  1.00  0.00     0.127 S 
ATOM     95  O   UNL A   1      44.771  24.990  37.592  1.00  0.00    -0.237 OA
ATOM     96  O   UNL A   1      46.488  26.239  38.841  1.00  0.00    -0.237 OA
ATOM     97  O   UNL A   1      44.111  26.755  39.185  1.00  0.00    -0.744 OA
ENDBRANCH  91  94
ENDBRANCH  64  87
ENDBRANCH  38  39
ENDBRANCH  30  33
ENDBRANCH  28  29
ENDBRANCH  27  28
ENDBRANCH  26  27
ENDBRANCH   1  26
TORSDOF 20
ENDMDL
MODEL 3
REMARK VINA RESULT:     -10.8      5.667     11.494
REMARK SMILES CC[C@@](C)(NC(=O)N1CCC[C@H]1C1CCCC1)C(=O)NCCCCCCNC(=O)c1ccc(-c2c3nc(c(-c4cccc(S(=O)(=O)[O-])c4F)c4ccc([nH]4)c(-c4cccc(S(=O)(=O)[O-])c4F)c4nc(c(-c5cccc(S(=O)(=O)[O-])c5F)c5ccc2[nH]5)C=C4)C=C3)cc1
REMARK SMILES IDX 23 1 22 2 21 3 20 4 18 5 19 6 3 8 4 9 2 10 1 11 5 12 6 13
REMARK SMILES IDX 7 15 8 16 9 17 12 18 10 19 11 20 13 21 14 22 17 23 15 24
REMARK SMILES IDX 16 25 24 26 25 27 26 28 27 29 28 30 29 32 30 33 31 34 92 35
REMARK SMILES IDX 32 36 91 37 33 38 34 39 35 40 85 41 36 42 90 43 84 44 86 45
REMARK SMILES IDX 37 46 89 47 83 48 82 49 38 51 70 52 50 53 69 54 51 55 54 56
REMARK SMILES IDX 68 57 87 58 52 59 53 60 67 62 88 63 55 64 39 65 40 66 48 67
REMARK SMILES IDX 41 68 43 69 49 70 42 71 44 72 45 73 46 74 47 75 71 76 72 77
REMARK SMILES IDX 80 78 73 79 75 80 81 81 74 82 76 83 77 84 78 85 79 86 56 87
REMARK SMILES IDX 57 88 65 89 58 90 60 91 66 92 59 93 61 94 62 95 63 96 64 97
REMARK H PARENT 20 7 5 14 27 31 86 50 54 61
REMARK Flexibility Score: inf
ROOT
ATOM      1  C   UNL A   1      34.456  29.356  27.737  1.00  0.00     0.002 C 
ENDROOT
BRANCH   1   2
ATOM      2  C   UNL A   1      34.092  28.994  26.292  1.00  0.00     0.021 C 
BRANCH   2   3
ATOM      3  C   UNL A   1      33.101  27.849  26.136  1.00  0.00     0.116 C 
BRANCH   3   4
ATOM      4  N   UNL A   1      32.084  28.096  25.133  1.00  0.00    -0.354 N 
ATOM      5  C   UNL A   1      31.356  27.262  24.337  1.00  0.00     0.245 C 
ATOM      6  O   UNL A   1      30.471  27.809  23.669  1.00  0.00    -0.272 OA
ATOM      7  H   UNL A   1      31.878  29.050  25.000  1.00  0.00     0.163 HD
BRANCH   5   8
ATOM      8  C   UNL A   1      31.522  25.709  24.365  1.00  0.00     0.117 C 
ATOM      9  C   UNL A   1      30.116  25.138  24.020  1.00  0.00     0.045 C 
BRANCH   8  10
ATOM     10  C   UNL A   1      32.518  25.173  23.288  1.00  0.00     0.035 C 
ATOM     11  C   UNL A   1      33.786  25.983  23.024  1.00  0.00     0.007 C 
ENDBRANCH   8  10
BRANCH   8  12
ATOM     12  N   UNL A   1      31.930  25.134  25.683  1.00  0.00    -0.324 N 
ATOM     13  C   UNL A   1      31.851  23.891  26.214  1.00  0.00     0.318 C 
ATOM     14  H   UNL A   1      32.340  25.792  26.289  1.00  0.00     0.166 HD
ATOM     15  O   UNL A   1      31.327  23.844  27.331  1.00  0.00    -0.249 OA
BRANCH  13  16
ATOM     16  N   UNL A   1      32.358  22.777  25.620  1.00  0.00    -0.322 N 
ATOM     17  C   UNL A   1      31.733  21.841  24.715  1.00  0.00     0.122 C 
ATOM     18  C   UNL A   1      33.724  22.306  25.927  1.00  0.00     0.090 C 
ATOM     19  C   UNL A   1      32.309  20.498  25.100  1.00  0.00     0.024 C 
ATOM     20  C   UNL A   1      33.744  20.827  25.466  1.00  0.00     0.027 C 
BRANCH  18  21
ATOM     21  C   UNL A   1      34.908  23.055  25.257  1.00  0.00     0.012 C 
ATOM     22  C   UNL A   1      36.208  23.158  26.059  1.00  0.00     0.006 C 
ATOM     23  C   UNL A   1      35.424  22.513  23.926  1.00  0.00     0.006 C 
ATOM     24  C   UNL A   1      37.211  23.731  25.061  1.00  0.00     0.000 C 
ATOM     25  C   UNL A   1      36.722  23.285  23.683  1.00  0.00     0.000 C 
ENDBRANCH  18  21
ENDBRANCH  13  16
ENDBRANCH   8  12
ENDBRANCH   5   8
ENDBRANCH   3   4
ENDBRANCH   2   3
ENDBRANCH   1   2
BRANCH   1  26
ATOM     26  C   UNL A   1      34.952  30.780  27.967  1.00  0.00     0.002 C 
BRANCH  26  27
ATOM     27  C   UNL A   1      34.191  31.862  27.207  1.00  0.00     0.021 C 
BRANCH  27  28
ATOM     28  C   UNL A   1      32.934  32.374  27.904  1.00  0.00     0.116 C 
BRANCH  28  29
ATOM     29  N   UNL A   1      32.837  33.825  27.883  1.00  0.00    -0.352 N 
ATOM     30  C   UNL A   1      33.559  34.744  28.612  1.00  0.00     0.251 C 
ATOM     31  H   UNL A   1      32.166  34.200  27.268  1.00  0.00     0.163 HD
ATOM     32  O   UNL A   1      33.252  35.925  28.611  1.00  0.00    -0.269 OA
BRANCH  30  33
ATOM     33  C   UNL A   1      34.701  34.264  29.419  1.00  0.00     0.039 A 
ATOM     34  C   UNL A   1      34.456  33.616  30.630  1.00  0.00     0.014 A 
ATOM     35  C   UNL A   1      36.006  34.407  28.940  1.00  0.00     0.014 A 
ATOM     36  C   UNL A   1      35.522  33.048  31.333  1.00  0.00     0.010 A 
ATOM     37  C   UNL A   1      37.052  33.774  29.600  1.00  0.00     0.010 A 
ATOM     38  C   UNL A   1      36.823  33.091  30.805  1.00  0.00    -0.014 A 
BRANCH  38  39
ATOM     39  C   UNL A   1      37.968  32.442  31.497  1.00  0.00     0.031 A 
ATOM     40  C   UNL A   1      38.676  31.286  30.841  1.00  0.00     0.074 A 
ATOM     41  C   UNL A   1      38.302  32.819  32.748  1.00  0.00     0.049 A 
ATOM     42  N   UNL A   1      39.623  30.522  31.318  1.00  0.00    -0.248 NA
ATOM     43  C   UNL A   1      38.239  30.921  29.481  1.00  0.00     0.031 C 
ATOM     44  C   UNL A   1      37.643  33.873  33.523  1.00  0.00     0.029 A 
ATOM     45  N   UNL A   1      39.259  32.332  33.604  1.00  0.00    -0.354 N 
ATOM     46  C   UNL A   1      39.861  29.561  30.343  1.00  0.00     0.074 A 
ATOM     47  C   UNL A   1      38.941  29.820  29.257  1.00  0.00     0.031 C 
ATOM     48  C   UNL A   1      38.211  33.950  34.737  1.00  0.00     0.029 A 
ATOM     49  C   UNL A   1      39.253  32.933  34.842  1.00  0.00     0.049 A 
ATOM     50  H   UNL A   1      39.891  31.618  33.355  1.00  0.00     0.167 HD
ATOM     51  C   UNL A   1      40.782  28.568  30.337  1.00  0.00     0.034 A 
ATOM     52  C   UNL A   1      39.997  32.686  35.940  1.00  0.00     0.034 A 
ATOM     53  C   UNL A   1      41.737  28.354  31.388  1.00  0.00     0.049 A 
ATOM     54  C   UNL A   1      41.053  31.614  35.881  1.00  0.00     0.074 A 
ATOM     55  C   UNL A   1      42.775  27.440  31.431  1.00  0.00     0.029 A 
ATOM     56  N   UNL A   1      41.773  29.059  32.580  1.00  0.00    -0.354 N 
ATOM     57  N   UNL A   1      41.371  30.823  34.885  1.00  0.00    -0.248 NA
ATOM     58  C   UNL A   1      41.879  31.423  37.083  1.00  0.00     0.031 C 
ATOM     59  C   UNL A   1      43.428  27.581  32.659  1.00  0.00     0.029 A 
ATOM     60  C   UNL A   1      42.813  28.599  33.367  1.00  0.00     0.049 A 
ATOM     61  H   UNL A   1      41.152  29.780  32.829  1.00  0.00     0.167 HD
ATOM     62  C   UNL A   1      42.460  30.078  35.322  1.00  0.00     0.074 A 
ATOM     63  C   UNL A   1      42.757  30.521  36.669  1.00  0.00     0.031 C 
ATOM     64  C   UNL A   1      43.144  29.104  34.674  1.00  0.00     0.034 A 
BRANCH  51  65
ATOM     65  C   UNL A   1      40.847  27.671  29.131  1.00  0.00     0.023 A 
ATOM     66  C   UNL A   1      39.962  26.579  29.029  1.00  0.00     0.012 A 
ATOM     67  C   UNL A   1      41.720  27.956  28.063  1.00  0.00     0.148 A 
ATOM     68  C   UNL A   1      39.962  25.766  27.895  1.00  0.00     0.002 A 
ATOM     69  C   UNL A   1      41.684  27.170  26.918  1.00  0.00     0.091 A 
ATOM     70  F   UNL A   1      42.567  28.987  28.188  1.00  0.00    -0.205 F 
ATOM     71  C   UNL A   1      40.814  26.070  26.836  1.00  0.00     0.022 A 
BRANCH  69  72
ATOM     72  S   UNL A   1      42.680  27.523  25.465  1.00  0.00     0.127 S 
ATOM     73  O   UNL A   1      42.401  26.359  24.625  1.00  0.00    -0.237 OA
ATOM     74  O   UNL A   1      42.091  28.774  24.987  1.00  0.00    -0.237 OA
ATOM     75  O   UNL A   1      44.054  27.636  25.935  1.00  0.00    -0.744 OA
ENDBRANCH  69  72
ENDBRANCH  51  65
BRANCH  52  76
ATOM     76  C   UNL A   1      39.818  33.508  37.171  1.00  0.00     0.023 A 
ATOM     77  C   UNL A   1      38.734  33.238  38.031  1.00  0.00     0.012 A 
ATOM     78  C   UNL A   1      40.706  34.551  37.498  1.00  0.00     0.148 A 
ATOM     79  C   UNL A   1      38.512  34.017  39.167  1.00  0.00     0.002 A 
ATOM     80  C   UNL A   1      40.512  35.287  38.662  1.00  0.00     0.091 A 
ATOM     81  F   UNL A   1      41.723  34.805  36.664  1.00  0.00    -0.205 F 
ATOM     82  C   UNL A   1      39.406  35.036  39.487  1.00  0.00     0.022 A 
BRANCH  80  83
ATOM     83  S   UNL A   1      41.688  36.527  39.215  1.00  0.00     0.127 S 
ATOM     84  O   UNL A   1      40.973  37.145  40.328  1.00  0.00    -0.237 OA
ATOM     85  O   UNL A   1      42.838  35.707  39.601  1.00  0.00    -0.237 OA
ATOM     86  O   UNL A   1      41.927  37.379  38.058  1.00  0.00    -0.744 OA
ENDBRANCH  80  83
ENDBRANCH  52  76
BRANCH  64  87
ATOM     87  C   UNL A   1      44.324  28.483  35.374  1.00  0.00     0.023 A 
ATOM     88  C   UNL A   1      45.620  28.983  35.144  1.00  0.00     0.012 A 
ATOM     89  C   UNL A   1      44.131  27.470  36.334  1.00  0.00     0.148 A 
ATOM     90  C   UNL A   1      46.711  28.464  35.841  1.00  0.00     0.002 A 
ATOM     91  C   UNL A   1      45.215  26.994  37.060  1.00  0.00     0.091 A 
ATOM     92  F   UNL A   1      42.890  26.998  36.523  1.00  0.00    -0.205 F 
ATOM     93  C   UNL A   1      46.506  27.480  36.807  1.00  0.00     0.022 A 
BRANCH  91  94
ATOM     94  S   UNL A   1      45.031  25.802  38.392  1.00  0.00     0.127 S 
ATOM     95  O   UNL A   1      46.421  25.572  38.780  1.00  0.00    -0.237 OA
ATOM     96  O   UNL A   1      44.240  26.550  39.371  1.00  0.00    -0.237 OA
ATOM     97  O   UNL A   1      44.345  24.655  37.813  1.00  0.00    -0.744 OA
ENDBRANCH  91  94
ENDBRANCH  64  87
ENDBRANCH  38  39
ENDBRANCH  30  33
ENDBRANCH  28  29
ENDBRANCH  27  28
ENDBRANCH  26  27
ENDBRANCH   1  26
TORSDOF 20
ENDMDL
