MODEL 1
REMARK VINA RESULT:     -11.0      0.000      0.000
REMARK SMILES Nc1ccc(C(=O)NC[C@@H]2CC[C@@H](C(=O)NCCCCCCNC(=O)c3ccc(-c4c5nc(c(-c6cccc(S(=O)(=O)[O-])c6F)c6ccc([nH]6)c(-c6cccc(S(=O)(=O)[O-])c6F)c6nc(c(-c7cccc(S(=O)(=O)[O-])c7F)c7ccc4[nH]7)C=C6)C=C5)cc3)O2)cc1Cl
REMARK SMILES IDX 19 1 18 2 17 3 16 4 14 5 15 6 13 8 10 9 11 10 89 11 12 12
REMARK SMILES IDX 9 13 8 14 6 15 7 16 5 18 2 19 3 20 91 21 4 22 90 23 92 24
REMARK SMILES IDX 1 25 20 28 21 29 22 30 23 31 24 32 25 34 26 35 27 36 88 37
REMARK SMILES IDX 28 38 87 39 29 40 30 41 31 42 81 43 32 44 86 45 80 46 82 47
REMARK SMILES IDX 33 48 85 49 79 50 78 51 34 53 66 54 46 55 65 56 47 57 50 58
REMARK SMILES IDX 64 59 83 60 48 61 49 62 63 64 84 65 51 66 35 67 36 68 44 69
REMARK SMILES IDX 37 70 39 71 45 72 38 73 40 74 41 75 42 76 43 77 67 78 68 79
REMARK SMILES IDX 76 80 69 81 71 82 77 83 70 84 72 85 73 86 74 87 75 88 52 89
REMARK SMILES IDX 53 90 61 91 54 92 56 93 62 94 55 95 57 96 58 97 59 98 60 99
REMARK H PARENT 16 7 8 17 1 26 1 27 23 33 82 52 50 63
REMARK Flexibility Score: inf
ROOT
ATOM      1  C   UNL A   1      34.058  30.404  27.617  1.00  0.00     0.002 C 
ENDROOT
BRANCH   1   2
ATOM      2  C   UNL A   1      34.832  29.273  26.930  1.00  0.00     0.021 C 
BRANCH   2   3
ATOM      3  C   UNL A   1      33.993  28.337  26.064  1.00  0.00     0.116 C 
BRANCH   3   4
ATOM      4  N   UNL A   1      34.051  28.699  24.661  1.00  0.00    -0.354 N 
ATOM      5  C   UNL A   1      33.794  27.925  23.566  1.00  0.00     0.249 C 
ATOM      6  O   UNL A   1      33.897  28.449  22.455  1.00  0.00    -0.272 OA
ATOM      7  H   UNL A   1      34.312  29.629  24.471  1.00  0.00     0.163 HD
BRANCH   5   8
ATOM      8  C   UNL A   1      33.460  26.431  23.755  1.00  0.00     0.207 C 
ATOM      9  C   UNL A   1      31.543  25.307  23.028  1.00  0.00     0.138 C 
ATOM     10  C   UNL A   1      32.747  24.542  22.507  1.00  0.00     0.037 C 
ATOM     11  O   UNL A   1      32.072  26.179  24.040  1.00  0.00    -0.363 OA
ATOM     12  C   UNL A   1      33.805  25.616  22.511  1.00  0.00     0.045 C 
BRANCH   9  13
ATOM     13  C   UNL A   1      30.366  24.471  23.566  1.00  0.00     0.148 C 
BRANCH  13  14
ATOM     14  N   UNL A   1      30.307  24.372  25.016  1.00  0.00    -0.349 N 
ATOM     15  C   UNL A   1      30.965  23.675  25.988  1.00  0.00     0.251 C 
ATOM     16  O   UNL A   1      30.524  23.833  27.131  1.00  0.00    -0.269 OA
ATOM     17  H   UNL A   1      29.612  24.959  25.394  1.00  0.00     0.163 HD
BRANCH  15  18
ATOM     18  C   UNL A   1      32.138  22.771  25.796  1.00  0.00     0.041 A 
ATOM     19  C   UNL A   1      34.539  21.286  25.420  1.00  0.00     0.050 A 
ATOM     20  C   UNL A   1      33.284  20.693  25.257  1.00  0.00     0.028 A 
ATOM     21  C   UNL A   1      34.577  22.621  25.843  1.00  0.00     0.064 A 
ATOM     22  C   UNL A   1      32.098  21.425  25.437  1.00  0.00     0.016 A 
ATOM     23  C   UNL A   1      33.400  23.354  26.011  1.00  0.00     0.036 A 
ATOM     24  Cl  UNL A   1      36.088  23.410  26.148  1.00  0.00    -0.082 Cl
BRANCH  19  25
ATOM     25  N   UNL A   1      35.689  20.508  25.307  1.00  0.00    -0.398 N 
ATOM     26  H   UNL A   1      36.574  20.938  25.295  1.00  0.00     0.156 HD
ATOM     27  H   UNL A   1      35.615  19.529  25.238  1.00  0.00     0.156 HD
ENDBRANCH  19  25
ENDBRANCH  15  18
ENDBRANCH  13  14
ENDBRANCH   9  13
ENDBRANCH   5   8
ENDBRANCH   3   4
ENDBRANCH   2   3
ENDBRANCH   1   2
BRANCH   1  28
ATOM     28  C   UNL A   1      32.565  30.483  27.287  1.00  0.00     0.002 C 
BRANCH  28  29
ATOM     29  C   UNL A   1      32.005  31.894  27.093  1.00  0.00     0.021 C 
BRANCH  29  30
ATOM     30  C   UNL A   1      33.051  32.994  26.934  1.00  0.00     0.116 C 
BRANCH  30  31
ATOM     31  N   UNL A   1      32.649  34.240  27.562  1.00  0.00    -0.352 N 
ATOM     32  C   UNL A   1      33.062  34.788  28.752  1.00  0.00     0.251 C 
ATOM     33  H   UNL A   1      31.985  34.767  27.063  1.00  0.00     0.163 HD
ATOM     34  O   UNL A   1      32.487  35.781  29.189  1.00  0.00    -0.269 OA
BRANCH  32  35
ATOM     35  C   UNL A   1      34.179  34.184  29.514  1.00  0.00     0.039 A 
ATOM     36  C   UNL A   1      35.490  34.523  29.161  1.00  0.00     0.014 A 
ATOM     37  C   UNL A   1      33.953  33.256  30.533  1.00  0.00     0.014 A 
ATOM     38  C   UNL A   1      36.567  33.950  29.844  1.00  0.00     0.010 A 
ATOM     39  C   UNL A   1      35.025  32.742  31.262  1.00  0.00     0.010 A 
ATOM     40  C   UNL A   1      36.344  33.062  30.907  1.00  0.00    -0.014 A 
BRANCH  40  41
ATOM     41  C   UNL A   1      37.482  32.422  31.620  1.00  0.00     0.031 A 
ATOM     42  C   UNL A   1      38.228  31.280  30.977  1.00  0.00     0.074 A 
ATOM     43  C   UNL A   1      37.816  32.830  32.859  1.00  0.00     0.049 A 
ATOM     44  N   UNL A   1      39.226  30.577  31.447  1.00  0.00    -0.248 NA
ATOM     45  C   UNL A   1      37.775  30.852  29.641  1.00  0.00     0.031 C 
ATOM     46  C   UNL A   1      37.125  33.869  33.625  1.00  0.00     0.029 A 
ATOM     47  N   UNL A   1      38.812  32.405  33.702  1.00  0.00    -0.354 N 
ATOM     48  C   UNL A   1      39.502  29.614  30.483  1.00  0.00     0.074 A 
ATOM     49  C   UNL A   1      38.537  29.790  29.421  1.00  0.00     0.031 C 
ATOM     50  C   UNL A   1      37.716  33.999  34.823  1.00  0.00     0.029 A 
ATOM     51  C   UNL A   1      38.818  33.046  34.920  1.00  0.00     0.049 A 
ATOM     52  H   UNL A   1      39.462  31.706  33.459  1.00  0.00     0.167 HD
ATOM     53  C   UNL A   1      40.495  28.691  30.460  1.00  0.00     0.034 A 
ATOM     54  C   UNL A   1      39.621  32.883  35.990  1.00  0.00     0.034 A 
ATOM     55  C   UNL A   1      41.486  28.548  31.490  1.00  0.00     0.049 A 
ATOM     56  C   UNL A   1      40.756  31.898  35.909  1.00  0.00     0.074 A 
ATOM     57  C   UNL A   1      42.566  27.683  31.533  1.00  0.00     0.029 A 
ATOM     58  N   UNL A   1      41.528  29.296  32.656  1.00  0.00    -0.354 N 
ATOM     59  N   UNL A   1      41.087  31.097  34.925  1.00  0.00    -0.248 NA
ATOM     60  C   UNL A   1      41.660  31.829  37.066  1.00  0.00     0.031 C 
ATOM     61  C   UNL A   1      43.258  27.908  32.728  1.00  0.00     0.029 A 
ATOM     62  C   UNL A   1      42.619  28.924  33.420  1.00  0.00     0.049 A 
ATOM     63  H   UNL A   1      40.875  29.991  32.903  1.00  0.00     0.167 HD
ATOM     64  C   UNL A   1      42.255  30.460  35.328  1.00  0.00     0.074 A 
ATOM     65  C   UNL A   1      42.590  30.991  36.633  1.00  0.00     0.031 C 
ATOM     66  C   UNL A   1      42.977  29.507  34.687  1.00  0.00     0.034 A 
BRANCH  53  67
ATOM     67  C   UNL A   1      40.603  27.813  29.239  1.00  0.00     0.023 A 
ATOM     68  C   UNL A   1      39.748  26.698  29.116  1.00  0.00     0.012 A 
ATOM     69  C   UNL A   1      41.494  28.119  28.193  1.00  0.00     0.148 A 
ATOM     70  C   UNL A   1      39.801  25.881  27.987  1.00  0.00     0.002 A 
ATOM     71  C   UNL A   1      41.510  27.326  27.050  1.00  0.00     0.091 A 
ATOM     72  F   UNL A   1      42.310  29.172  28.335  1.00  0.00    -0.205 F 
ATOM     73  C   UNL A   1      40.673  26.201  26.951  1.00  0.00     0.022 A 
BRANCH  71  74
ATOM     74  S   UNL A   1      42.539  27.691  25.625  1.00  0.00     0.127 S 
ATOM     75  O   UNL A   1      42.235  26.564  24.745  1.00  0.00    -0.237 OA
ATOM     76  O   UNL A   1      42.001  28.976  25.178  1.00  0.00    -0.237 OA
ATOM     77  O   UNL A   1      43.909  27.742  26.119  1.00  0.00    -0.744 OA
ENDBRANCH  71  74
ENDBRANCH  53  67
BRANCH  54  78
ATOM     78  C   UNL A   1      39.428  33.724  37.207  1.00  0.00     0.023 A 
ATOM     79  C   UNL A   1      39.956  35.029  37.240  1.00  0.00     0.012 A 
ATOM     80  C   UNL A   1      38.725  33.241  38.327  1.00  0.00     0.148 A 
ATOM     81  C   UNL A   1      39.827  35.822  38.381  1.00  0.00     0.002 A 
ATOM     82  C   UNL A   1      38.551  34.056  39.440  1.00  0.00     0.091 A 
ATOM     83  F   UNL A   1      38.241  31.991  38.285  1.00  0.00    -0.205 F 
ATOM     84  C   UNL A   1      39.118  35.339  39.477  1.00  0.00     0.022 A 
BRANCH  82  85
ATOM     85  S   UNL A   1      37.536  33.558  40.835  1.00  0.00     0.127 S 
ATOM     86  O   UNL A   1      37.356  34.823  41.542  1.00  0.00    -0.237 OA
ATOM     87  O   UNL A   1      36.336  33.045  40.174  1.00  0.00    -0.237 OA
ATOM     88  O   UNL A   1      38.312  32.541  41.533  1.00  0.00    -0.744 OA
ENDBRANCH  82  85
ENDBRANCH  54  78
BRANCH  66  89
ATOM     89  C   UNL A   1      44.225  29.006  35.363  1.00  0.00     0.023 A 
ATOM     90  C   UNL A   1      45.471  29.588  35.055  1.00  0.00     0.012 A 
ATOM     91  C   UNL A   1      44.157  27.996  36.342  1.00  0.00     0.148 A 
ATOM     92  C   UNL A   1      46.636  29.141  35.679  1.00  0.00     0.002 A 
ATOM     93  C   UNL A   1      45.315  27.590  36.996  1.00  0.00     0.091 A 
ATOM     94  F   UNL A   1      42.967  27.439  36.608  1.00  0.00    -0.205 F 
ATOM     95  C   UNL A   1      46.556  28.151  36.656  1.00  0.00     0.022 A 
BRANCH  93  96
ATOM     96  S   UNL A   1      45.285  26.391  38.332  1.00  0.00     0.127 S 
ATOM     97  O   UNL A   1      44.676  25.233  37.681  1.00  0.00    -0.237 OA
ATOM     98  O   UNL A   1      46.706  26.235  38.647  1.00  0.00    -0.237 OA
ATOM     99  O   UNL A   1      44.500  27.003  39.396  1.00  0.00    -0.744 OA
ENDBRANCH  93  96
ENDBRANCH  66  89
ENDBRANCH  40  41
ENDBRANCH  32  35
ENDBRANCH  30  31
ENDBRANCH  29  30
ENDBRANCH  28  29
ENDBRANCH   1  28
TORSDOF 20
ENDMDL
MODEL 2
REMARK VINA RESULT:     -10.8      2.209      7.812
REMARK SMILES Nc1ccc(C(=O)NC[C@@H]2CC[C@@H](C(=O)NCCCCCCNC(=O)c3ccc(-c4c5nc(c(-c6cccc(S(=O)(=O)[O-])c6F)c6ccc([nH]6)c(-c6cccc(S(=O)(=O)[O-])c6F)c6nc(c(-c7cccc(S(=O)(=O)[O-])c7F)c7ccc4[nH]7)C=C6)C=C5)cc3)O2)cc1Cl
REMARK SMILES IDX 19 1 18 2 17 3 16 4 14 5 15 6 13 8 10 9 11 10 89 11 12 12
REMARK SMILES IDX 9 13 8 14 6 15 7 16 5 18 2 19 3 20 91 21 4 22 90 23 92 24
REMARK SMILES IDX 1 25 20 28 21 29 22 30 23 31 24 32 25 34 26 35 27 36 88 37
REMARK SMILES IDX 28 38 87 39 29 40 30 41 31 42 81 43 32 44 86 45 80 46 82 47
REMARK SMILES IDX 33 48 85 49 79 50 78 51 34 53 66 54 46 55 65 56 47 57 50 58
REMARK SMILES IDX 64 59 83 60 48 61 49 62 63 64 84 65 51 66 35 67 36 68 44 69
REMARK SMILES IDX 37 70 39 71 45 72 38 73 40 74 41 75 42 76 43 77 67 78 68 79
REMARK SMILES IDX 76 80 69 81 71 82 77 83 70 84 72 85 73 86 74 87 75 88 52 89
REMARK SMILES IDX 53 90 61 91 54 92 56 93 62 94 55 95 57 96 58 97 59 98 60 99
REMARK H PARENT 16 7 8 17 1 26 1 27 23 33 82 52 50 63
REMARK Flexibility Score: inf
ROOT
ATOM      1  C   UNL A   1      35.265  30.661  28.578  1.00  0.00     0.002 C 
ENDROOT
BRANCH   1   2
ATOM      2  C   UNL A   1      35.390  29.401  27.713  1.00  0.00     0.021 C 
BRANCH   2   3
ATOM      3  C   UNL A   1      34.236  29.153  26.746  1.00  0.00     0.116 C 
BRANCH   3   4
ATOM      4  N   UNL A   1      33.045  28.685  27.430  1.00  0.00    -0.354 N 
ATOM      5  C   UNL A   1      32.021  27.926  26.943  1.00  0.00     0.249 C 
ATOM      6  O   UNL A   1      31.105  27.634  27.714  1.00  0.00    -0.272 OA
ATOM      7  H   UNL A   1      32.965  28.952  28.374  1.00  0.00     0.163 HD
BRANCH   5   8
ATOM      8  C   UNL A   1      32.013  27.530  25.452  1.00  0.00     0.207 C 
ATOM      9  C   UNL A   1      30.545  26.051  24.389  1.00  0.00     0.138 C 
ATOM     10  C   UNL A   1      30.524  27.355  23.612  1.00  0.00     0.037 C 
ATOM     11  O   UNL A   1      31.711  26.141  25.223  1.00  0.00    -0.363 OA
ATOM     12  C   UNL A   1      30.985  28.335  24.661  1.00  0.00     0.045 C 
BRANCH   9  13
ATOM     13  C   UNL A   1      30.541  24.749  23.567  1.00  0.00     0.148 C 
BRANCH  13  14
ATOM     14  N   UNL A   1      31.512  24.713  22.485  1.00  0.00    -0.349 N 
ATOM     15  C   UNL A   1      32.831  24.387  22.349  1.00  0.00     0.251 C 
ATOM     16  O   UNL A   1      33.303  24.587  21.225  1.00  0.00    -0.269 OA
ATOM     17  H   UNL A   1      31.116  24.997  21.629  1.00  0.00     0.163 HD
BRANCH  15  18
ATOM     18  C   UNL A   1      33.721  23.823  23.406  1.00  0.00     0.041 A 
ATOM     19  C   UNL A   1      35.258  22.508  25.411  1.00  0.00     0.050 A 
ATOM     20  C   UNL A   1      35.377  23.882  25.189  1.00  0.00     0.028 A 
ATOM     21  C   UNL A   1      34.407  21.783  24.567  1.00  0.00     0.064 A 
ATOM     22  C   UNL A   1      34.616  24.534  24.204  1.00  0.00     0.016 A 
ATOM     23  C   UNL A   1      33.640  22.431  23.594  1.00  0.00     0.036 A 
ATOM     24  Cl  UNL A   1      34.260  20.065  24.718  1.00  0.00    -0.082 Cl
BRANCH  19  25
ATOM     25  N   UNL A   1      36.084  21.886  26.345  1.00  0.00    -0.398 N 
ATOM     26  H   UNL A   1      35.698  21.511  27.170  1.00  0.00     0.156 HD
ATOM     27  H   UNL A   1      37.052  21.823  26.180  1.00  0.00     0.156 HD
ENDBRANCH  19  25
ENDBRANCH  15  18
ENDBRANCH  13  14
ENDBRANCH   9  13
ENDBRANCH   5   8
ENDBRANCH   3   4
ENDBRANCH   2   3
ENDBRANCH   1   2
BRANCH   1  28
ATOM     28  C   UNL A   1      35.020  31.966  27.816  1.00  0.00     0.002 C 
BRANCH  28  29
ATOM     29  C   UNL A   1      33.708  32.684  28.141  1.00  0.00     0.021 C 
BRANCH  29  30
ATOM     30  C   UNL A   1      33.775  34.208  28.113  1.00  0.00     0.116 C 
BRANCH  30  31
ATOM     31  N   UNL A   1      33.190  34.814  29.296  1.00  0.00    -0.352 N 
ATOM     32  C   UNL A   1      33.546  34.671  30.615  1.00  0.00     0.251 C 
ATOM     33  H   UNL A   1      32.428  35.413  29.128  1.00  0.00     0.163 HD
ATOM     34  O   UNL A   1      32.826  35.148  31.488  1.00  0.00    -0.269 OA
BRANCH  32  35
ATOM     35  C   UNL A   1      34.778  33.938  30.989  1.00  0.00     0.039 A 
ATOM     36  C   UNL A   1      34.655  32.764  31.740  1.00  0.00     0.014 A 
ATOM     37  C   UNL A   1      36.046  34.417  30.653  1.00  0.00     0.014 A 
ATOM     38  C   UNL A   1      35.800  32.063  32.130  1.00  0.00     0.010 A 
ATOM     39  C   UNL A   1      37.183  33.678  30.979  1.00  0.00     0.010 A 
ATOM     40  C   UNL A   1      37.074  32.508  31.746  1.00  0.00    -0.014 A 
BRANCH  40  41
ATOM     41  C   UNL A   1      38.300  31.789  32.183  1.00  0.00     0.031 A 
ATOM     42  C   UNL A   1      38.975  32.166  33.477  1.00  0.00     0.074 A 
ATOM     43  C   UNL A   1      38.835  30.832  31.399  1.00  0.00     0.049 A 
ATOM     44  N   UNL A   1      40.063  31.677  34.015  1.00  0.00    -0.248 NA
ATOM     45  C   UNL A   1      38.363  33.256  34.258  1.00  0.00     0.031 C 
ATOM     46  C   UNL A   1      38.326  30.428  30.087  1.00  0.00     0.029 A 
ATOM     47  N   UNL A   1      39.939  30.039  31.585  1.00  0.00    -0.354 N 
ATOM     48  C   UNL A   1      40.278  32.411  35.175  1.00  0.00     0.074 A 
ATOM     49  C   UNL A   1      39.237  33.412  35.242  1.00  0.00     0.031 C 
ATOM     50  C   UNL A   1      39.116  29.465  29.587  1.00  0.00     0.029 A 
ATOM     51  C   UNL A   1      40.195  29.192  30.532  1.00  0.00     0.049 A 
ATOM     52  H   UNL A   1      40.497  30.074  32.396  1.00  0.00     0.167 HD
ATOM     53  C   UNL A   1      41.232  32.245  36.124  1.00  0.00     0.034 A 
ATOM     54  C   UNL A   1      41.186  28.296  30.351  1.00  0.00     0.034 A 
ATOM     55  C   UNL A   1      42.237  31.219  36.085  1.00  0.00     0.049 A 
ATOM     56  C   UNL A   1      42.192  28.086  31.452  1.00  0.00     0.074 A 
ATOM     57  C   UNL A   1      43.211  30.930  37.024  1.00  0.00     0.029 A 
ATOM     58  N   UNL A   1      42.392  30.303  35.057  1.00  0.00    -0.354 N 
ATOM     59  N   UNL A   1      42.290  28.695  32.609  1.00  0.00    -0.248 NA
ATOM     60  C   UNL A   1      43.193  27.030  31.245  1.00  0.00     0.031 C 
ATOM     61  C   UNL A   1      43.957  29.841  36.561  1.00  0.00     0.029 A 
ATOM     62  C   UNL A   1      43.436  29.441  35.341  1.00  0.00     0.049 A 
ATOM     63  H   UNL A   1      41.839  30.271  34.242  1.00  0.00     0.167 HD
ATOM     64  C   UNL A   1      43.335  28.071  33.281  1.00  0.00     0.074 A 
ATOM     65  C   UNL A   1      43.819  27.018  32.413  1.00  0.00     0.031 C 
ATOM     66  C   UNL A   1      43.863  28.356  34.497  1.00  0.00     0.034 A 
BRANCH  53  67
ATOM     67  C   UNL A   1      41.183  33.149  37.328  1.00  0.00     0.023 A 
ATOM     68  C   UNL A   1      40.289  32.850  38.378  1.00  0.00     0.012 A 
ATOM     69  C   UNL A   1      42.054  34.248  37.456  1.00  0.00     0.148 A 
ATOM     70  C   UNL A   1      40.239  33.648  39.520  1.00  0.00     0.002 A 
ATOM     71  C   UNL A   1      42.029  35.014  38.617  1.00  0.00     0.091 A 
ATOM     72  F   UNL A   1      42.884  34.527  36.442  1.00  0.00    -0.205 F 
ATOM     73  C   UNL A   1      41.115  34.722  39.644  1.00  0.00     0.022 A 
BRANCH  71  74
ATOM     74  S   UNL A   1      43.166  36.372  38.913  1.00  0.00     0.127 S 
ATOM     75  O   UNL A   1      42.824  37.285  37.823  1.00  0.00    -0.237 OA
ATOM     76  O   UNL A   1      42.759  36.830  40.242  1.00  0.00    -0.237 OA
ATOM     77  O   UNL A   1      44.504  35.800  38.848  1.00  0.00    -0.744 OA
ENDBRANCH  71  74
ENDBRANCH  53  67
BRANCH  54  78
ATOM     78  C   UNL A   1      41.237  27.475  29.107  1.00  0.00     0.023 A 
ATOM     79  C   UNL A   1      40.452  26.309  29.012  1.00  0.00     0.012 A 
ATOM     80  C   UNL A   1      42.053  27.841  28.021  1.00  0.00     0.148 A 
ATOM     81  C   UNL A   1      40.513  25.500  27.877  1.00  0.00     0.002 A 
ATOM     82  C   UNL A   1      42.066  27.061  26.869  1.00  0.00     0.091 A 
ATOM     83  F   UNL A   1      42.804  28.947  28.132  1.00  0.00    -0.205 F 
ATOM     84  C   UNL A   1      41.313  25.880  26.803  1.00  0.00     0.022 A 
BRANCH  82  85
ATOM     85  S   UNL A   1      42.964  27.555  25.395  1.00  0.00     0.127 S 
ATOM     86  O   UNL A   1      43.048  26.296  24.659  1.00  0.00    -0.237 OA
ATOM     87  O   UNL A   1      42.068  28.553  24.809  1.00  0.00    -0.237 OA
ATOM     88  O   UNL A   1      44.227  28.100  25.875  1.00  0.00    -0.744 OA
ENDBRANCH  82  85
ENDBRANCH  54  78
BRANCH  66  89
ATOM     89  C   UNL A   1      44.995  27.490  34.985  1.00  0.00     0.023 A 
ATOM     90  C   UNL A   1      46.327  27.860  34.713  1.00  0.00     0.012 A 
ATOM     91  C   UNL A   1      44.739  26.341  35.758  1.00  0.00     0.148 A 
ATOM     92  C   UNL A   1      47.387  27.073  35.166  1.00  0.00     0.002 A 
ATOM     93  C   UNL A   1      45.802  25.590  36.248  1.00  0.00     0.091 A 
ATOM     94  F   UNL A   1      43.465  25.993  35.990  1.00  0.00    -0.205 F 
ATOM     95  C   UNL A   1      47.124  25.946  35.942  1.00  0.00     0.022 A 
BRANCH  93  96
ATOM     96  S   UNL A   1      45.552  24.181  37.332  1.00  0.00     0.127 S 
ATOM     97  O   UNL A   1      44.618  24.723  38.318  1.00  0.00    -0.237 OA
ATOM     98  O   UNL A   1      44.973  23.186  36.427  1.00  0.00    -0.237 OA
ATOM     99  O   UNL A   1      46.873  23.832  37.839  1.00  0.00    -0.744 OA
ENDBRANCH  93  96
ENDBRANCH  66  89
ENDBRANCH  40  41
ENDBRANCH  32  35
ENDBRANCH  30  31
ENDBRANCH  29  30
ENDBRANCH  28  29
ENDBRANCH   1  28
TORSDOF 20
ENDMDL
MODEL 3
REMARK VINA RESULT:     -10.6      1.808      7.793
REMARK SMILES Nc1ccc(C(=O)NC[C@@H]2CC[C@@H](C(=O)NCCCCCCNC(=O)c3ccc(-c4c5nc(c(-c6cccc(S(=O)(=O)[O-])c6F)c6ccc([nH]6)c(-c6cccc(S(=O)(=O)[O-])c6F)c6nc(c(-c7cccc(S(=O)(=O)[O-])c7F)c7ccc4[nH]7)C=C6)C=C5)cc3)O2)cc1Cl
REMARK SMILES IDX 19 1 18 2 17 3 16 4 14 5 15 6 13 8 10 9 11 10 89 11 12 12
REMARK SMILES IDX 9 13 8 14 6 15 7 16 5 18 2 19 3 20 91 21 4 22 90 23 92 24
REMARK SMILES IDX 1 25 20 28 21 29 22 30 23 31 24 32 25 34 26 35 27 36 88 37
REMARK SMILES IDX 28 38 87 39 29 40 30 41 31 42 81 43 32 44 86 45 80 46 82 47
REMARK SMILES IDX 33 48 85 49 79 50 78 51 34 53 66 54 46 55 65 56 47 57 50 58
REMARK SMILES IDX 64 59 83 60 48 61 49 62 63 64 84 65 51 66 35 67 36 68 44 69
REMARK SMILES IDX 37 70 39 71 45 72 38 73 40 74 41 75 42 76 43 77 67 78 68 79
REMARK SMILES IDX 76 80 69 81 71 82 77 83 70 84 72 85 73 86 74 87 75 88 52 89
REMARK SMILES IDX 53 90 61 91 54 92 56 93 62 94 55 95 57 96 58 97 59 98 60 99
REMARK H PARENT 16 7 8 17 1 26 1 27 23 33 82 52 50 63
REMARK Flexibility Score: inf
ROOT
ATOM      1  C   UNL A   1      32.780  29.735  27.094  1.00  0.00     0.002 C 
ENDROOT
BRANCH   1   2
ATOM      2  C   UNL A   1      33.398  28.645  26.211  1.00  0.00     0.021 C 
BRANCH   2   3
ATOM      3  C   UNL A   1      32.953  27.219  26.524  1.00  0.00     0.116 C 
BRANCH   3   4
ATOM      4  N   UNL A   1      31.671  26.906  25.922  1.00  0.00    -0.354 N 
ATOM      5  C   UNL A   1      31.336  25.855  25.119  1.00  0.00     0.249 C 
ATOM      6  O   UNL A   1      30.170  25.780  24.726  1.00  0.00    -0.272 OA
ATOM      7  H   UNL A   1      30.943  27.538  26.120  1.00  0.00     0.163 HD
BRANCH   5   8
ATOM      8  C   UNL A   1      32.427  24.857  24.681  1.00  0.00     0.207 C 
ATOM      9  C   UNL A   1      32.311  23.311  22.930  1.00  0.00     0.138 C 
ATOM     10  C   UNL A   1      33.572  24.133  22.732  1.00  0.00     0.037 C 
ATOM     11  O   UNL A   1      31.912  23.572  24.286  1.00  0.00    -0.363 OA
ATOM     12  C   UNL A   1      33.234  25.386  23.498  1.00  0.00     0.045 C 
BRANCH   9  13
ATOM     13  C   UNL A   1      32.414  21.799  22.656  1.00  0.00     0.148 C 
BRANCH  13  14
ATOM     14  N   UNL A   1      32.250  20.958  23.832  1.00  0.00    -0.349 N 
ATOM     15  C   UNL A   1      33.066  20.423  24.787  1.00  0.00     0.251 C 
ATOM     16  O   UNL A   1      32.504  19.670  25.588  1.00  0.00    -0.269 OA
ATOM     17  H   UNL A   1      31.308  20.710  23.975  1.00  0.00     0.163 HD
BRANCH  15  18
ATOM     18  C   UNL A   1      34.531  20.666  24.944  1.00  0.00     0.041 A 
ATOM     19  C   UNL A   1      37.265  21.412  25.227  1.00  0.00     0.050 A 
ATOM     20  C   UNL A   1      36.897  20.094  24.944  1.00  0.00     0.028 A 
ATOM     21  C   UNL A   1      36.240  22.343  25.435  1.00  0.00     0.064 A 
ATOM     22  C   UNL A   1      35.548  19.725  24.799  1.00  0.00     0.016 A 
ATOM     23  C   UNL A   1      34.899  21.981  25.280  1.00  0.00     0.036 A 
ATOM     24  Cl  UNL A   1      36.605  23.979  25.869  1.00  0.00    -0.082 Cl
BRANCH  19  25
ATOM     25  N   UNL A   1      38.606  21.722  25.437  1.00  0.00    -0.398 N 
ATOM     26  H   UNL A   1      39.241  21.699  24.684  1.00  0.00     0.156 HD
ATOM     27  H   UNL A   1      38.919  21.965  26.338  1.00  0.00     0.156 HD
ENDBRANCH  19  25
ENDBRANCH  15  18
ENDBRANCH  13  14
ENDBRANCH   9  13
ENDBRANCH   5   8
ENDBRANCH   3   4
ENDBRANCH   2   3
ENDBRANCH   1   2
BRANCH   1  28
ATOM     28  C   UNL A   1      31.468  30.337  26.584  1.00  0.00     0.002 C 
BRANCH  28  29
ATOM     29  C   UNL A   1      31.389  31.866  26.608  1.00  0.00     0.021 C 
BRANCH  29  30
ATOM     30  C   UNL A   1      32.711  32.583  26.866  1.00  0.00     0.116 C 
BRANCH  30  31
ATOM     31  N   UNL A   1      32.533  33.858  27.537  1.00  0.00    -0.352 N 
ATOM     32  C   UNL A   1      33.215  34.382  28.607  1.00  0.00     0.251 C 
ATOM     33  H   UNL A   1      31.819  34.428  27.172  1.00  0.00     0.163 HD
ATOM     34  O   UNL A   1      32.810  35.417  29.131  1.00  0.00    -0.269 OA
BRANCH  32  35
ATOM     35  C   UNL A   1      34.420  33.705  29.139  1.00  0.00     0.039 A 
ATOM     36  C   UNL A   1      34.251  32.564  29.932  1.00  0.00     0.014 A 
ATOM     37  C   UNL A   1      35.703  34.207  28.909  1.00  0.00     0.014 A 
ATOM     38  C   UNL A   1      35.367  31.918  30.470  1.00  0.00     0.010 A 
ATOM     39  C   UNL A   1      36.819  33.518  29.385  1.00  0.00     0.010 A 
ATOM     40  C   UNL A   1      36.662  32.383  30.194  1.00  0.00    -0.014 A 
BRANCH  40  41
ATOM     41  C   UNL A   1      37.855  31.723  30.788  1.00  0.00     0.031 A 
ATOM     42  C   UNL A   1      38.264  32.037  32.205  1.00  0.00     0.074 A 
ATOM     43  C   UNL A   1      38.598  30.879  30.045  1.00  0.00     0.049 A 
ATOM     44  N   UNL A   1      39.284  31.586  32.890  1.00  0.00    -0.248 NA
ATOM     45  C   UNL A   1      37.434  33.007  32.942  1.00  0.00     0.031 C 
ATOM     46  C   UNL A   1      38.358  30.553  28.638  1.00  0.00     0.029 A 
ATOM     47  N   UNL A   1      39.721  30.158  30.365  1.00  0.00    -0.354 N 
ATOM     48  C   UNL A   1      39.234  32.232  34.119  1.00  0.00     0.074 A 
ATOM     49  C   UNL A   1      38.112  33.142  34.073  1.00  0.00     0.031 C 
ATOM     50  C   UNL A   1      39.303  29.698  28.217  1.00  0.00     0.029 A 
ATOM     51  C   UNL A   1      40.226  29.426  29.316  1.00  0.00     0.049 A 
ATOM     52  H   UNL A   1      40.127  30.165  31.263  1.00  0.00     0.167 HD
ATOM     53  C   UNL A   1      40.023  32.057  35.207  1.00  0.00     0.034 A 
ATOM     54  C   UNL A   1      41.309  28.626  29.249  1.00  0.00     0.034 A 
ATOM     55  C   UNL A   1      41.107  31.116  35.273  1.00  0.00     0.049 A 
ATOM     56  C   UNL A   1      42.127  28.398  30.492  1.00  0.00     0.074 A 
ATOM     57  C   UNL A   1      41.929  30.821  36.346  1.00  0.00     0.029 A 
ATOM     58  N   UNL A   1      41.515  30.306  34.225  1.00  0.00    -0.354 N 
ATOM     59  N   UNL A   1      41.973  28.911  31.688  1.00  0.00    -0.248 NA
ATOM     60  C   UNL A   1      43.238  27.441  30.390  1.00  0.00     0.031 C 
ATOM     61  C   UNL A   1      42.837  29.835  35.944  1.00  0.00     0.029 A 
ATOM     62  C   UNL A   1      42.567  29.503  34.627  1.00  0.00     0.049 A 
ATOM     63  H   UNL A   1      41.114  30.303  33.325  1.00  0.00     0.167 HD
ATOM     64  C   UNL A   1      42.940  28.312  32.488  1.00  0.00     0.074 A 
ATOM     65  C   UNL A   1      43.656  27.376  31.646  1.00  0.00     0.031 C 
ATOM     66  C   UNL A   1      43.226  28.530  33.796  1.00  0.00     0.034 A 
BRANCH  53  67
ATOM     67  C   UNL A   1      39.690  32.848  36.446  1.00  0.00     0.023 A 
ATOM     68  C   UNL A   1      40.271  34.122  36.625  1.00  0.00     0.012 A 
ATOM     69  C   UNL A   1      38.765  32.372  37.394  1.00  0.00     0.148 A 
ATOM     70  C   UNL A   1      39.963  34.894  37.744  1.00  0.00     0.002 A 
ATOM     71  C   UNL A   1      38.429  33.166  38.486  1.00  0.00     0.091 A 
ATOM     72  F   UNL A   1      38.237  31.153  37.216  1.00  0.00    -0.205 F 
ATOM     73  C   UNL A   1      39.035  34.421  38.667  1.00  0.00     0.022 A 
BRANCH  71  74
ATOM     74  S   UNL A   1      37.190  32.687  39.694  1.00  0.00     0.127 S 
ATOM     75  O   UNL A   1      37.278  33.785  40.656  1.00  0.00    -0.237 OA
ATOM     76  O   UNL A   1      35.967  32.675  38.892  1.00  0.00    -0.237 OA
ATOM     77  O   UNL A   1      37.602  31.385  40.199  1.00  0.00    -0.744 OA
ENDBRANCH  71  74
ENDBRANCH  53  67
BRANCH  54  78
ATOM     78  C   UNL A   1      41.642  27.920  27.978  1.00  0.00     0.023 A 
ATOM     79  C   UNL A   1      42.161  28.653  26.892  1.00  0.00     0.012 A 
ATOM     80  C   UNL A   1      41.453  26.533  27.840  1.00  0.00     0.148 A 
ATOM     81  C   UNL A   1      42.441  28.025  25.678  1.00  0.00     0.002 A 
ATOM     82  C   UNL A   1      41.788  25.903  26.646  1.00  0.00     0.091 A 
ATOM     83  F   UNL A   1      40.946  25.852  28.878  1.00  0.00    -0.205 F 
ATOM     84  C   UNL A   1      42.263  26.650  25.557  1.00  0.00     0.022 A 
BRANCH  82  85
ATOM     85  S   UNL A   1      41.715  24.119  26.457  1.00  0.00     0.127 S 
ATOM     86  O   UNL A   1      42.426  23.921  25.197  1.00  0.00    -0.237 OA
ATOM     87  O   UNL A   1      42.430  23.655  27.647  1.00  0.00    -0.237 OA
ATOM     88  O   UNL A   1      40.296  23.788  26.449  1.00  0.00    -0.744 OA
ENDBRANCH  82  85
ENDBRANCH  54  78
BRANCH  66  89
ATOM     89  C   UNL A   1      44.331  27.713  34.412  1.00  0.00     0.023 A 
ATOM     90  C   UNL A   1      45.662  28.170  34.345  1.00  0.00     0.012 A 
ATOM     91  C   UNL A   1      44.043  26.520  35.104  1.00  0.00     0.148 A 
ATOM     92  C   UNL A   1      46.695  27.429  34.919  1.00  0.00     0.002 A 
ATOM     93  C   UNL A   1      45.072  25.813  35.716  1.00  0.00     0.091 A 
ATOM     94  F   UNL A   1      42.774  26.089  35.140  1.00  0.00    -0.205 F 
ATOM     95  C   UNL A   1      46.399  26.258  35.613  1.00  0.00     0.022 A 
BRANCH  93  96
ATOM     96  S   UNL A   1      44.762  24.348  36.708  1.00  0.00     0.127 S 
ATOM     97  O   UNL A   1      46.085  24.084  37.272  1.00  0.00    -0.237 OA
ATOM     98  O   UNL A   1      43.772  24.828  37.675  1.00  0.00    -0.237 OA
ATOM     99  O   UNL A   1      44.257  23.342  35.783  1.00  0.00    -0.744 OA
ENDBRANCH  93  96
ENDBRANCH  66  89
ENDBRANCH  40  41
ENDBRANCH  32  35
ENDBRANCH  30  31
ENDBRANCH  29  30
ENDBRANCH  28  29
ENDBRANCH   1  28
TORSDOF 20
ENDMDL
