MODEL 1
REMARK VINA RESULT:     -11.7      0.000      0.000
REMARK SMILES O=C(C[NH+]1CCN(C(=O)c2ccc(F)c(F)c2F)CC1)NCCCCCCNC(=O)c1ccc(-c2c3nc(c(-c4cccc(S(=O)(=O)[O-])c4F)c4ccc([nH]4)c(-c4cccc(S(=O)(=O)[O-])c4F)c4nc(c(-c5cccc(S(=O)(=O)[O-])c5F)c5ccc2[nH]5)C=C4)C=C3)cc1
REMARK SMILES IDX 25 1 24 2 23 3 22 4 21 5 1 6 2 7 3 9 4 10 5 11 20 12 6 14
REMARK SMILES IDX 19 15 7 16 8 17 9 18 10 19 11 20 17 21 12 22 15 23 18 24
REMARK SMILES IDX 13 25 16 26 14 27 26 28 27 29 28 30 29 31 30 33 31 34 32 35
REMARK SMILES IDX 93 36 33 37 92 38 34 39 35 40 36 41 86 42 37 43 91 44 85 45
REMARK SMILES IDX 87 46 38 47 90 48 84 49 83 50 39 52 71 53 51 54 70 55 52 56
REMARK SMILES IDX 55 57 69 58 88 59 53 60 54 61 68 63 89 64 56 65 40 66 41 67
REMARK SMILES IDX 49 68 42 69 44 70 50 71 43 72 45 73 46 74 47 75 48 76 72 77
REMARK SMILES IDX 73 78 81 79 74 80 76 81 82 82 75 83 77 84 78 85 79 86 80 87
REMARK SMILES IDX 57 88 58 89 66 90 59 91 61 92 67 93 60 94 62 95 63 96 64 97
REMARK SMILES IDX 65 98
REMARK H PARENT 21 8 4 13 28 32 87 51 55 62
REMARK Flexibility Score: inf
ROOT
ATOM      1  C   UNL A   1      31.843  30.118  26.854  1.00  0.00     0.002 C 
ENDROOT
BRANCH   1   2
ATOM      2  C   UNL A   1      32.300  29.440  25.559  1.00  0.00     0.002 C 
BRANCH   2   3
ATOM      3  C   UNL A   1      31.195  29.126  24.541  1.00  0.00     0.021 C 
BRANCH   3   4
ATOM      4  C   UNL A   1      31.670  28.995  23.095  1.00  0.00     0.116 C 
BRANCH   4   5
ATOM      5  N   UNL A   1      32.617  27.911  22.922  1.00  0.00    -0.351 N 
ATOM      6  O   UNL A   1      31.013  26.318  22.537  1.00  0.00    -0.269 OA
ATOM      7  C   UNL A   1      32.198  26.634  22.615  1.00  0.00     0.275 C 
ATOM      8  H   UNL A   1      33.580  28.091  23.024  1.00  0.00     0.163 HD
BRANCH   7   9
ATOM      9  C   UNL A   1      33.331  25.641  22.351  1.00  0.00     0.363 C 
BRANCH   9  10
ATOM     10  N   UNL A   1      33.943  25.015  23.543  1.00  0.00    -0.324 N 
ATOM     11  C   UNL A   1      33.112  24.889  24.755  1.00  0.00     0.284 C 
ATOM     12  C   UNL A   1      34.626  23.748  23.266  1.00  0.00     0.284 C 
ATOM     13  H   UNL A   1      34.634  25.729  23.780  1.00  0.00     0.348 HD
ATOM     14  C   UNL A   1      32.191  23.653  24.813  1.00  0.00     0.181 C 
ATOM     15  C   UNL A   1      33.680  22.545  23.151  1.00  0.00     0.181 C 
ATOM     16  N   UNL A   1      32.802  22.412  24.317  1.00  0.00    -0.327 N 
ATOM     17  C   UNL A   1      32.264  21.209  24.767  1.00  0.00     0.257 C 
ATOM     18  O   UNL A   1      31.367  21.126  25.604  1.00  0.00    -0.269 OA
BRANCH  17  19
ATOM     19  C   UNL A   1      32.818  19.945  24.262  1.00  0.00     0.079 A 
ATOM     20  C   UNL A   1      32.152  19.263  23.233  1.00  0.00     0.020 A 
ATOM     21  C   UNL A   1      34.029  19.468  24.761  1.00  0.00     0.174 A 
ATOM     22  C   UNL A   1      32.691  18.077  22.733  1.00  0.00     0.043 A 
ATOM     23  C   UNL A   1      34.565  18.293  24.253  1.00  0.00     0.195 A 
ATOM     24  F   UNL A   1      34.664  20.108  25.753  1.00  0.00    -0.203 F 
ATOM     25  C   UNL A   1      33.896  17.602  23.248  1.00  0.00     0.161 A 
ATOM     26  F   UNL A   1      35.717  17.811  24.739  1.00  0.00    -0.200 F 
ATOM     27  F   UNL A   1      34.400  16.458  22.765  1.00  0.00    -0.204 F 
ENDBRANCH  17  19
ENDBRANCH   9  10
ENDBRANCH   7   9
ENDBRANCH   4   5
ENDBRANCH   3   4
ENDBRANCH   2   3
ENDBRANCH   1   2
BRANCH   1  28
ATOM     28  C   UNL A   1      31.393  31.572  26.733  1.00  0.00     0.021 C 
BRANCH  28  29
ATOM     29  C   UNL A   1      32.505  32.586  26.495  1.00  0.00     0.116 C 
BRANCH  29  30
ATOM     30  N   UNL A   1      32.320  33.833  27.222  1.00  0.00    -0.352 N 
ATOM     31  C   UNL A   1      33.018  34.319  28.300  1.00  0.00     0.251 C 
ATOM     32  H   UNL A   1      31.592  34.410  26.894  1.00  0.00     0.163 HD
ATOM     33  O   UNL A   1      32.659  35.360  28.850  1.00  0.00    -0.269 OA
BRANCH  31  34
ATOM     34  C   UNL A   1      34.184  33.573  28.832  1.00  0.00     0.039 A 
ATOM     35  C   UNL A   1      35.451  34.154  28.742  1.00  0.00     0.014 A 
ATOM     36  C   UNL A   1      34.033  32.317  29.426  1.00  0.00     0.014 A 
ATOM     37  C   UNL A   1      36.555  33.508  29.308  1.00  0.00     0.010 A 
ATOM     38  C   UNL A   1      35.120  31.710  30.054  1.00  0.00     0.010 A 
ATOM     39  C   UNL A   1      36.393  32.296  29.999  1.00  0.00    -0.014 A 
BRANCH  39  40
ATOM     40  C   UNL A   1      37.538  31.649  30.691  1.00  0.00     0.031 A 
ATOM     41  C   UNL A   1      38.378  30.619  29.986  1.00  0.00     0.074 A 
ATOM     42  C   UNL A   1      37.771  31.928  31.989  1.00  0.00     0.049 A 
ATOM     43  N   UNL A   1      39.413  29.954  30.433  1.00  0.00    -0.248 NA
ATOM     44  C   UNL A   1      37.992  30.268  28.610  1.00  0.00     0.031 C 
ATOM     45  C   UNL A   1      36.972  32.834  32.816  1.00  0.00     0.029 A 
ATOM     46  N   UNL A   1      38.738  31.463  32.845  1.00  0.00    -0.354 N 
ATOM     47  C   UNL A   1      39.775  29.081  29.415  1.00  0.00     0.074 A 
ATOM     48  C   UNL A   1      38.830  29.278  28.336  1.00  0.00     0.031 C 
ATOM     49  C   UNL A   1      37.493  32.876  34.054  1.00  0.00     0.029 A 
ATOM     50  C   UNL A   1      38.649  31.987  34.115  1.00  0.00     0.049 A 
ATOM     51  H   UNL A   1      39.430  30.816  32.577  1.00  0.00     0.167 HD
ATOM     52  C   UNL A   1      40.817  28.217  29.365  1.00  0.00     0.034 A 
ATOM     53  C   UNL A   1      39.420  31.786  35.201  1.00  0.00     0.034 A 
ATOM     54  C   UNL A   1      41.792  28.067  30.411  1.00  0.00     0.049 A 
ATOM     55  C   UNL A   1      40.612  30.874  35.096  1.00  0.00     0.074 A 
ATOM     56  C   UNL A   1      42.953  27.314  30.406  1.00  0.00     0.029 A 
ATOM     57  N   UNL A   1      41.721  28.680  31.653  1.00  0.00    -0.354 N 
ATOM     58  N   UNL A   1      41.052  30.206  34.058  1.00  0.00    -0.248 NA
ATOM     59  C   UNL A   1      41.437  30.720  36.304  1.00  0.00     0.031 C 
ATOM     60  C   UNL A   1      43.576  27.459  31.652  1.00  0.00     0.029 A 
ATOM     61  C   UNL A   1      42.807  28.312  32.428  1.00  0.00     0.049 A 
ATOM     62  H   UNL A   1      41.001  29.286  31.941  1.00  0.00     0.167 HD
ATOM     63  C   UNL A   1      42.221  29.579  34.475  1.00  0.00     0.074 A 
ATOM     64  C   UNL A   1      42.434  29.968  35.855  1.00  0.00     0.031 C 
ATOM     65  C   UNL A   1      43.035  28.744  33.783  1.00  0.00     0.034 A 
BRANCH  52  66
ATOM     66  C   UNL A   1      40.993  27.411  28.104  1.00  0.00     0.023 A 
ATOM     67  C   UNL A   1      41.563  28.020  26.967  1.00  0.00     0.012 A 
ATOM     68  C   UNL A   1      40.641  26.048  28.053  1.00  0.00     0.148 A 
ATOM     69  C   UNL A   1      41.744  27.298  25.788  1.00  0.00     0.002 A 
ATOM     70  C   UNL A   1      40.862  25.324  26.886  1.00  0.00     0.091 A 
ATOM     71  F   UNL A   1      40.076  25.490  29.134  1.00  0.00    -0.205 F 
ATOM     72  C   UNL A   1      41.403  25.949  25.751  1.00  0.00     0.022 A 
BRANCH  70  73
ATOM     73  S   UNL A   1      40.522  23.563  26.771  1.00  0.00     0.127 S 
ATOM     74  O   UNL A   1      39.116  23.559  26.370  1.00  0.00    -0.237 OA
ATOM     75  O   UNL A   1      41.454  23.131  25.729  1.00  0.00    -0.237 OA
ATOM     76  O   UNL A   1      40.804  23.020  28.093  1.00  0.00    -0.744 OA
ENDBRANCH  70  73
ENDBRANCH  52  66
BRANCH  53  77
ATOM     77  C   UNL A   1      39.152  32.550  36.452  1.00  0.00     0.023 A 
ATOM     78  C   UNL A   1      39.729  33.825  36.607  1.00  0.00     0.012 A 
ATOM     79  C   UNL A   1      38.310  32.049  37.463  1.00  0.00     0.148 A 
ATOM     80  C   UNL A   1      39.493  34.579  37.757  1.00  0.00     0.002 A 
ATOM     81  C   UNL A   1      38.040  32.826  38.584  1.00  0.00     0.091 A 
ATOM     82  F   UNL A   1      37.782  30.827  37.302  1.00  0.00    -0.205 F 
ATOM     83  C   UNL A   1      38.641  34.085  38.739  1.00  0.00     0.022 A 
BRANCH  81  84
ATOM     84  S   UNL A   1      36.858  32.322  39.841  1.00  0.00     0.127 S 
ATOM     85  O   UNL A   1      36.993  33.398  40.824  1.00  0.00    -0.237 OA
ATOM     86  O   UNL A   1      35.599  32.329  39.092  1.00  0.00    -0.237 OA
ATOM     87  O   UNL A   1      37.288  31.005  40.279  1.00  0.00    -0.744 OA
ENDBRANCH  81  84
ENDBRANCH  53  77
BRANCH  65  88
ATOM     88  C   UNL A   1      44.244  28.201  34.500  1.00  0.00     0.023 A 
ATOM     89  C   UNL A   1      45.437  28.951  34.514  1.00  0.00     0.012 A 
ATOM     90  C   UNL A   1      44.184  26.983  35.205  1.00  0.00     0.148 A 
ATOM     91  C   UNL A   1      46.563  28.479  35.191  1.00  0.00     0.002 A 
ATOM     92  C   UNL A   1      45.297  26.542  35.914  1.00  0.00     0.091 A 
ATOM     93  F   UNL A   1      43.050  26.270  35.163  1.00  0.00    -0.205 F 
ATOM     94  C   UNL A   1      46.490  27.283  35.899  1.00  0.00     0.022 A 
BRANCH  92  95
ATOM     95  S   UNL A   1      45.251  25.058  36.926  1.00  0.00     0.127 S 
ATOM     96  O   UNL A   1      44.575  25.537  38.131  1.00  0.00    -0.237 OA
ATOM     97  O   UNL A   1      44.458  24.139  36.107  1.00  0.00    -0.237 OA
ATOM     98  O   UNL A   1      46.641  24.657  37.096  1.00  0.00    -0.744 OA
ENDBRANCH  92  95
ENDBRANCH  65  88
ENDBRANCH  39  40
ENDBRANCH  31  34
ENDBRANCH  29  30
ENDBRANCH  28  29
ENDBRANCH   1  28
TORSDOF 18
ENDMDL
MODEL 2
REMARK VINA RESULT:     -11.6      6.517     11.816
REMARK SMILES O=C(C[NH+]1CCN(C(=O)c2ccc(F)c(F)c2F)CC1)NCCCCCCNC(=O)c1ccc(-c2c3nc(c(-c4cccc(S(=O)(=O)[O-])c4F)c4ccc([nH]4)c(-c4cccc(S(=O)(=O)[O-])c4F)c4nc(c(-c5cccc(S(=O)(=O)[O-])c5F)c5ccc2[nH]5)C=C4)C=C3)cc1
REMARK SMILES IDX 25 1 24 2 23 3 22 4 21 5 1 6 2 7 3 9 4 10 5 11 20 12 6 14
REMARK SMILES IDX 19 15 7 16 8 17 9 18 10 19 11 20 17 21 12 22 15 23 18 24
REMARK SMILES IDX 13 25 16 26 14 27 26 28 27 29 28 30 29 31 30 33 31 34 32 35
REMARK SMILES IDX 93 36 33 37 92 38 34 39 35 40 36 41 86 42 37 43 91 44 85 45
REMARK SMILES IDX 87 46 38 47 90 48 84 49 83 50 39 52 71 53 51 54 70 55 52 56
REMARK SMILES IDX 55 57 69 58 88 59 53 60 54 61 68 63 89 64 56 65 40 66 41 67
REMARK SMILES IDX 49 68 42 69 44 70 50 71 43 72 45 73 46 74 47 75 48 76 72 77
REMARK SMILES IDX 73 78 81 79 74 80 76 81 82 82 75 83 77 84 78 85 79 86 80 87
REMARK SMILES IDX 57 88 58 89 66 90 59 91 61 92 67 93 60 94 62 95 63 96 64 97
REMARK SMILES IDX 65 98
REMARK H PARENT 21 8 4 13 28 32 87 51 55 62
REMARK Flexibility Score: inf
ROOT
ATOM      1  C   UNL A   1      37.042  19.761  24.995  1.00  0.00     0.002 C 
ENDROOT
BRANCH   1   2
ATOM      2  C   UNL A   1      36.349  21.097  25.278  1.00  0.00     0.002 C 
BRANCH   2   3
ATOM      3  C   UNL A   1      34.850  21.155  24.957  1.00  0.00     0.021 C 
BRANCH   3   4
ATOM      4  C   UNL A   1      33.927  21.079  26.173  1.00  0.00     0.116 C 
BRANCH   4   5
ATOM      5  N   UNL A   1      33.380  22.374  26.531  1.00  0.00    -0.351 N 
ATOM      6  O   UNL A   1      31.468  22.119  25.292  1.00  0.00    -0.269 OA
ATOM      7  C   UNL A   1      32.145  22.781  26.074  1.00  0.00     0.275 C 
ATOM      8  H   UNL A   1      33.900  22.973  27.114  1.00  0.00     0.163 HD
BRANCH   7   9
ATOM      9  C   UNL A   1      31.669  24.120  26.642  1.00  0.00     0.363 C 
BRANCH   9  10
ATOM     10  N   UNL A   1      32.394  25.322  26.177  1.00  0.00    -0.324 N 
ATOM     11  C   UNL A   1      32.994  25.285  24.831  1.00  0.00     0.284 C 
ATOM     12  C   UNL A   1      31.654  26.573  26.365  1.00  0.00     0.284 C 
ATOM     13  H   UNL A   1      33.193  25.301  26.813  1.00  0.00     0.348 HD
ATOM     14  C   UNL A   1      32.049  25.636  23.663  1.00  0.00     0.181 C 
ATOM     15  C   UNL A   1      30.589  26.832  25.291  1.00  0.00     0.181 C 
ATOM     16  N   UNL A   1      31.136  26.756  23.932  1.00  0.00    -0.327 N 
ATOM     17  C   UNL A   1      30.621  27.441  22.835  1.00  0.00     0.257 C 
ATOM     18  O   UNL A   1      30.942  27.215  21.670  1.00  0.00    -0.269 OA
BRANCH  17  19
ATOM     19  C   UNL A   1      29.672  28.540  23.059  1.00  0.00     0.079 A 
ATOM     20  C   UNL A   1      28.310  28.339  22.791  1.00  0.00     0.020 A 
ATOM     21  C   UNL A   1      30.118  29.746  23.595  1.00  0.00     0.174 A 
ATOM     22  C   UNL A   1      27.402  29.372  23.029  1.00  0.00     0.043 A 
ATOM     23  C   UNL A   1      29.209  30.767  23.840  1.00  0.00     0.195 A 
ATOM     24  F   UNL A   1      31.420  29.950  23.843  1.00  0.00    -0.203 F 
ATOM     25  C   UNL A   1      27.861  30.579  23.553  1.00  0.00     0.161 A 
ATOM     26  F   UNL A   1      29.629  31.939  24.334  1.00  0.00    -0.200 F 
ATOM     27  F   UNL A   1      26.981  31.567  23.772  1.00  0.00    -0.204 F 
ENDBRANCH  17  19
ENDBRANCH   9  10
ENDBRANCH   7   9
ENDBRANCH   4   5
ENDBRANCH   3   4
ENDBRANCH   2   3
ENDBRANCH   1   2
BRANCH   1  28
ATOM     28  C   UNL A   1      38.559  19.809  24.829  1.00  0.00     0.021 C 
BRANCH  28  29
ATOM     29  C   UNL A   1      39.362  19.843  26.124  1.00  0.00     0.116 C 
BRANCH  29  30
ATOM     30  N   UNL A   1      40.575  19.041  26.077  1.00  0.00    -0.352 N 
ATOM     31  C   UNL A   1      41.884  19.443  26.182  1.00  0.00     0.251 C 
ATOM     32  H   UNL A   1      40.438  18.073  25.954  1.00  0.00     0.163 HD
ATOM     33  O   UNL A   1      42.794  18.629  26.025  1.00  0.00    -0.269 OA
BRANCH  31  34
ATOM     34  C   UNL A   1      42.209  20.865  26.446  1.00  0.00     0.039 A 
ATOM     35  C   UNL A   1      42.443  21.267  27.764  1.00  0.00     0.014 A 
ATOM     36  C   UNL A   1      42.296  21.796  25.407  1.00  0.00     0.014 A 
ATOM     37  C   UNL A   1      42.830  22.583  28.032  1.00  0.00     0.010 A 
ATOM     38  C   UNL A   1      42.753  23.087  25.668  1.00  0.00     0.010 A 
ATOM     39  C   UNL A   1      43.023  23.496  26.982  1.00  0.00    -0.014 A 
BRANCH  39  40
ATOM     40  C   UNL A   1      43.530  24.868  27.242  1.00  0.00     0.031 A 
ATOM     41  C   UNL A   1      42.610  25.942  27.759  1.00  0.00     0.074 A 
ATOM     42  C   UNL A   1      44.805  25.174  26.930  1.00  0.00     0.049 A 
ATOM     43  N   UNL A   1      42.880  27.191  28.043  1.00  0.00    -0.248 NA
ATOM     44  C   UNL A   1      41.200  25.575  27.959  1.00  0.00     0.031 C 
ATOM     45  C   UNL A   1      45.773  24.252  26.332  1.00  0.00     0.029 A 
ATOM     46  N   UNL A   1      45.502  26.349  27.057  1.00  0.00    -0.354 N 
ATOM     47  C   UNL A   1      41.672  27.768  28.413  1.00  0.00     0.074 A 
ATOM     48  C   UNL A   1      40.660  26.741  28.289  1.00  0.00     0.031 C 
ATOM     49  C   UNL A   1      46.943  24.890  26.163  1.00  0.00     0.029 A 
ATOM     50  C   UNL A   1      46.805  26.268  26.622  1.00  0.00     0.049 A 
ATOM     51  H   UNL A   1      45.107  27.173  27.425  1.00  0.00     0.167 HD
ATOM     52  C   UNL A   1      41.428  29.027  28.848  1.00  0.00     0.034 A 
ATOM     53  C   UNL A   1      47.783  27.195  26.608  1.00  0.00     0.034 A 
ATOM     54  C   UNL A   1      42.444  30.028  29.032  1.00  0.00     0.049 A 
ATOM     55  C   UNL A   1      47.503  28.566  27.163  1.00  0.00     0.074 A 
ATOM     56  C   UNL A   1      42.320  31.290  29.586  1.00  0.00     0.029 A 
ATOM     57  N   UNL A   1      43.773  29.884  28.662  1.00  0.00    -0.354 N 
ATOM     58  N   UNL A   1      46.398  29.032  27.693  1.00  0.00    -0.248 NA
ATOM     59  C   UNL A   1      48.617  29.525  27.154  1.00  0.00     0.031 C 
ATOM     60  C   UNL A   1      43.572  31.916  29.537  1.00  0.00     0.029 A 
ATOM     61  C   UNL A   1      44.478  31.038  28.962  1.00  0.00     0.049 A 
ATOM     62  H   UNL A   1      44.158  29.080  28.246  1.00  0.00     0.167 HD
ATOM     63  C   UNL A   1      46.692  30.325  28.110  1.00  0.00     0.074 A 
ATOM     64  C   UNL A   1      48.087  30.560  27.793  1.00  0.00     0.031 C 
ATOM     65  C   UNL A   1      45.877  31.242  28.688  1.00  0.00     0.034 A 
BRANCH  52  66
ATOM     66  C   UNL A   1      40.010  29.373  29.221  1.00  0.00     0.023 A 
ATOM     67  C   UNL A   1      39.103  29.757  28.211  1.00  0.00     0.012 A 
ATOM     68  C   UNL A   1      39.560  29.275  30.552  1.00  0.00     0.148 A 
ATOM     69  C   UNL A   1      37.783  30.077  28.525  1.00  0.00     0.002 A 
ATOM     70  C   UNL A   1      38.231  29.556  30.851  1.00  0.00     0.091 A 
ATOM     71  F   UNL A   1      40.440  28.934  31.504  1.00  0.00    -0.205 F 
ATOM     72  C   UNL A   1      37.345  29.967  29.841  1.00  0.00     0.022 A 
BRANCH  70  73
ATOM     73  S   UNL A   1      37.560  29.370  32.507  1.00  0.00     0.127 S 
ATOM     74  O   UNL A   1      38.420  30.268  33.277  1.00  0.00    -0.237 OA
ATOM     75  O   UNL A   1      36.183  29.839  32.343  1.00  0.00    -0.237 OA
ATOM     76  O   UNL A   1      37.679  27.954  32.824  1.00  0.00    -0.744 OA
ENDBRANCH  70  73
ENDBRANCH  52  66
BRANCH  53  77
ATOM     77  C   UNL A   1      49.151  26.822  26.152  1.00  0.00     0.023 A 
ATOM     78  C   UNL A   1      49.952  26.020  26.987  1.00  0.00     0.012 A 
ATOM     79  C   UNL A   1      49.650  27.219  24.896  1.00  0.00     0.148 A 
ATOM     80  C   UNL A   1      51.234  25.637  26.592  1.00  0.00     0.002 A 
ATOM     81  C   UNL A   1      50.909  26.793  24.488  1.00  0.00     0.091 A 
ATOM     82  F   UNL A   1      48.877  27.995  24.122  1.00  0.00    -0.205 F 
ATOM     83  C   UNL A   1      51.708  26.015  25.340  1.00  0.00     0.022 A 
BRANCH  81  84
ATOM     84  S   UNL A   1      51.550  27.128  22.842  1.00  0.00     0.127 S 
ATOM     85  O   UNL A   1      52.719  26.250  22.795  1.00  0.00    -0.237 OA
ATOM     86  O   UNL A   1      50.433  26.711  21.992  1.00  0.00    -0.237 OA
ATOM     87  O   UNL A   1      51.827  28.554  22.812  1.00  0.00    -0.744 OA
ENDBRANCH  81  84
ENDBRANCH  53  77
BRANCH  65  88
ATOM     88  C   UNL A   1      46.472  32.583  29.030  1.00  0.00     0.023 A 
ATOM     89  C   UNL A   1      47.107  32.763  30.275  1.00  0.00     0.012 A 
ATOM     90  C   UNL A   1      46.454  33.644  28.104  1.00  0.00     0.148 A 
ATOM     91  C   UNL A   1      47.686  33.988  30.607  1.00  0.00     0.002 A 
ATOM     92  C   UNL A   1      47.073  34.849  28.424  1.00  0.00     0.091 A 
ATOM     93  F   UNL A   1      45.826  33.466  26.934  1.00  0.00    -0.205 F 
ATOM     94  C   UNL A   1      47.679  35.026  29.678  1.00  0.00     0.022 A 
BRANCH  92  95
ATOM     95  S   UNL A   1      47.186  36.200  27.246  1.00  0.00     0.127 S 
ATOM     96  O   UNL A   1      47.808  37.249  28.051  1.00  0.00    -0.237 OA
ATOM     97  O   UNL A   1      48.047  35.641  26.202  1.00  0.00    -0.237 OA
ATOM     98  O   UNL A   1      45.818  36.459  26.814  1.00  0.00    -0.744 OA
ENDBRANCH  92  95
ENDBRANCH  65  88
ENDBRANCH  39  40
ENDBRANCH  31  34
ENDBRANCH  29  30
ENDBRANCH  28  29
ENDBRANCH   1  28
TORSDOF 18
ENDMDL
MODEL 3
REMARK VINA RESULT:     -11.5      6.183     10.315
REMARK SMILES O=C(C[NH+]1CCN(C(=O)c2ccc(F)c(F)c2F)CC1)NCCCCCCNC(=O)c1ccc(-c2c3nc(c(-c4cccc(S(=O)(=O)[O-])c4F)c4ccc([nH]4)c(-c4cccc(S(=O)(=O)[O-])c4F)c4nc(c(-c5cccc(S(=O)(=O)[O-])c5F)c5ccc2[nH]5)C=C4)C=C3)cc1
REMARK SMILES IDX 25 1 24 2 23 3 22 4 21 5 1 6 2 7 3 9 4 10 5 11 20 12 6 14
REMARK SMILES IDX 19 15 7 16 8 17 9 18 10 19 11 20 17 21 12 22 15 23 18 24
REMARK SMILES IDX 13 25 16 26 14 27 26 28 27 29 28 30 29 31 30 33 31 34 32 35
REMARK SMILES IDX 93 36 33 37 92 38 34 39 35 40 36 41 86 42 37 43 91 44 85 45
REMARK SMILES IDX 87 46 38 47 90 48 84 49 83 50 39 52 71 53 51 54 70 55 52 56
REMARK SMILES IDX 55 57 69 58 88 59 53 60 54 61 68 63 89 64 56 65 40 66 41 67
REMARK SMILES IDX 49 68 42 69 44 70 50 71 43 72 45 73 46 74 47 75 48 76 72 77
REMARK SMILES IDX 73 78 81 79 74 80 76 81 82 82 75 83 77 84 78 85 79 86 80 87
REMARK SMILES IDX 57 88 58 89 66 90 59 91 61 92 67 93 60 94 62 95 63 96 64 97
REMARK SMILES IDX 65 98
REMARK H PARENT 21 8 4 13 28 32 87 51 55 62
REMARK Flexibility Score: inf
ROOT
ATOM      1  C   UNL A   1      37.160  20.320  24.788  1.00  0.00     0.002 C 
ENDROOT
BRANCH   1   2
ATOM      2  C   UNL A   1      37.383  21.831  24.678  1.00  0.00     0.002 C 
BRANCH   2   3
ATOM      3  C   UNL A   1      36.519  22.562  23.642  1.00  0.00     0.021 C 
BRANCH   3   4
ATOM      4  C   UNL A   1      35.127  22.961  24.130  1.00  0.00     0.116 C 
BRANCH   4   5
ATOM      5  N   UNL A   1      34.786  24.324  23.773  1.00  0.00    -0.351 N 
ATOM      6  O   UNL A   1      33.072  24.492  25.287  1.00  0.00    -0.269 OA
ATOM      7  C   UNL A   1      33.780  25.006  24.425  1.00  0.00     0.275 C 
ATOM      8  H   UNL A   1      35.284  24.773  23.052  1.00  0.00     0.163 HD
BRANCH   7   9
ATOM      9  C   UNL A   1      33.632  26.469  24.005  1.00  0.00     0.363 C 
BRANCH   9  10
ATOM     10  N   UNL A   1      32.930  26.715  22.727  1.00  0.00    -0.324 N 
ATOM     11  C   UNL A   1      31.688  25.964  22.470  1.00  0.00     0.284 C 
ATOM     12  C   UNL A   1      32.733  28.135  22.420  1.00  0.00     0.284 C 
ATOM     13  H   UNL A   1      33.609  26.318  22.076  1.00  0.00     0.348 HD
ATOM     14  C   UNL A   1      30.401  26.563  23.072  1.00  0.00     0.181 C 
ATOM     15  C   UNL A   1      31.550  28.773  23.161  1.00  0.00     0.181 C 
ATOM     16  N   UNL A   1      30.303  28.026  22.970  1.00  0.00    -0.327 N 
ATOM     17  C   UNL A   1      29.031  28.589  23.025  1.00  0.00     0.257 C 
ATOM     18  O   UNL A   1      27.991  27.934  23.078  1.00  0.00    -0.269 OA
BRANCH  17  19
ATOM     19  C   UNL A   1      28.892  30.050  22.969  1.00  0.00     0.079 A 
ATOM     20  C   UNL A   1      29.338  30.826  24.049  1.00  0.00     0.020 A 
ATOM     21  C   UNL A   1      28.380  30.657  21.823  1.00  0.00     0.174 A 
ATOM     22  C   UNL A   1      29.232  32.217  23.986  1.00  0.00     0.043 A 
ATOM     23  C   UNL A   1      28.288  32.041  21.763  1.00  0.00     0.195 A 
ATOM     24  F   UNL A   1      27.941  29.921  20.793  1.00  0.00    -0.203 F 
ATOM     25  C   UNL A   1      28.708  32.813  22.841  1.00  0.00     0.161 A 
ATOM     26  F   UNL A   1      27.777  32.635  20.676  1.00  0.00    -0.200 F 
ATOM     27  F   UNL A   1      28.605  34.148  22.795  1.00  0.00    -0.204 F 
ENDBRANCH  17  19
ENDBRANCH   9  10
ENDBRANCH   7   9
ENDBRANCH   4   5
ENDBRANCH   3   4
ENDBRANCH   2   3
ENDBRANCH   1   2
BRANCH   1  28
ATOM     28  C   UNL A   1      38.409  19.467  24.995  1.00  0.00     0.021 C 
BRANCH  28  29
ATOM     29  C   UNL A   1      39.352  19.938  26.095  1.00  0.00     0.116 C 
BRANCH  29  30
ATOM     30  N   UNL A   1      40.655  19.290  26.063  1.00  0.00    -0.352 N 
ATOM     31  C   UNL A   1      41.899  19.834  26.268  1.00  0.00     0.251 C 
ATOM     32  H   UNL A   1      40.641  18.324  25.866  1.00  0.00     0.163 HD
ATOM     33  O   UNL A   1      42.907  19.146  26.108  1.00  0.00    -0.269 OA
BRANCH  31  34
ATOM     34  C   UNL A   1      42.037  21.260  26.646  1.00  0.00     0.039 A 
ATOM     35  C   UNL A   1      42.205  21.585  27.995  1.00  0.00     0.014 A 
ATOM     36  C   UNL A   1      42.012  22.273  25.683  1.00  0.00     0.014 A 
ATOM     37  C   UNL A   1      42.418  22.915  28.369  1.00  0.00     0.010 A 
ATOM     38  C   UNL A   1      42.298  23.588  26.049  1.00  0.00     0.010 A 
ATOM     39  C   UNL A   1      42.501  23.924  27.396  1.00  0.00    -0.014 A 
BRANCH  39  40
ATOM     40  C   UNL A   1      42.826  25.325  27.769  1.00  0.00     0.031 A 
ATOM     41  C   UNL A   1      44.242  25.830  27.697  1.00  0.00     0.074 A 
ATOM     42  C   UNL A   1      41.856  26.123  28.258  1.00  0.00     0.049 A 
ATOM     43  N   UNL A   1      44.707  27.020  27.983  1.00  0.00    -0.248 NA
ATOM     44  C   UNL A   1      45.274  24.870  27.275  1.00  0.00     0.031 C 
ATOM     45  C   UNL A   1      40.462  25.726  28.471  1.00  0.00     0.029 A 
ATOM     46  N   UNL A   1      41.897  27.428  28.681  1.00  0.00    -0.354 N 
ATOM     47  C   UNL A   1      46.084  26.941  27.816  1.00  0.00     0.074 A 
ATOM     48  C   UNL A   1      46.385  25.578  27.434  1.00  0.00     0.031 C 
ATOM     49  C   UNL A   1      39.777  26.770  28.964  1.00  0.00     0.029 A 
ATOM     50  C   UNL A   1      40.683  27.904  29.121  1.00  0.00     0.049 A 
ATOM     51  H   UNL A   1      42.717  27.972  28.671  1.00  0.00     0.167 HD
ATOM     52  C   UNL A   1      47.014  27.919  27.938  1.00  0.00     0.034 A 
ATOM     53  C   UNL A   1      40.335  29.120  29.583  1.00  0.00     0.034 A 
ATOM     54  C   UNL A   1      46.708  29.288  28.256  1.00  0.00     0.049 A 
ATOM     55  C   UNL A   1      41.374  30.208  29.641  1.00  0.00     0.074 A 
ATOM     56  C   UNL A   1      47.559  30.378  28.278  1.00  0.00     0.029 A 
ATOM     57  N   UNL A   1      45.452  29.756  28.611  1.00  0.00    -0.354 N 
ATOM     58  N   UNL A   1      42.636  30.164  29.290  1.00  0.00    -0.248 NA
ATOM     59  C   UNL A   1      40.929  31.524  30.122  1.00  0.00     0.031 C 
ATOM     60  C   UNL A   1      46.820  31.504  28.662  1.00  0.00     0.029 A 
ATOM     61  C   UNL A   1      45.506  31.116  28.869  1.00  0.00     0.049 A 
ATOM     62  H   UNL A   1      44.641  29.202  28.673  1.00  0.00     0.167 HD
ATOM     63  C   UNL A   1      43.128  31.451  29.476  1.00  0.00     0.074 A 
ATOM     64  C   UNL A   1      42.020  32.258  29.947  1.00  0.00     0.031 C 
ATOM     65  C   UNL A   1      44.387  31.919  29.289  1.00  0.00     0.034 A 
BRANCH  52  66
ATOM     66  C   UNL A   1      48.449  27.555  27.659  1.00  0.00     0.023 A 
ATOM     67  C   UNL A   1      49.246  27.038  28.701  1.00  0.00     0.012 A 
ATOM     68  C   UNL A   1      48.996  27.677  26.367  1.00  0.00     0.148 A 
ATOM     69  C   UNL A   1      50.576  26.686  28.472  1.00  0.00     0.002 A 
ATOM     70  C   UNL A   1      50.311  27.286  26.137  1.00  0.00     0.091 A 
ATOM     71  F   UNL A   1      48.233  28.195  25.393  1.00  0.00    -0.205 F 
ATOM     72  C   UNL A   1      51.105  26.801  27.190  1.00  0.00     0.022 A 
BRANCH  70  73
ATOM     73  S   UNL A   1      51.052  27.329  24.501  1.00  0.00     0.127 S 
ATOM     74  O   UNL A   1      50.116  26.513  23.730  1.00  0.00    -0.237 OA
ATOM     75  O   UNL A   1      51.022  28.757  24.181  1.00  0.00    -0.237 OA
ATOM     76  O   UNL A   1      52.390  26.776  24.660  1.00  0.00    -0.744 OA
ENDBRANCH  70  73
ENDBRANCH  52  66
BRANCH  53  77
ATOM     77  C   UNL A   1      38.913  29.406  29.923  1.00  0.00     0.023 A 
ATOM     78  C   UNL A   1      38.475  29.207  31.246  1.00  0.00     0.012 A 
ATOM     79  C   UNL A   1      38.006  29.903  28.967  1.00  0.00     0.148 A 
ATOM     80  C   UNL A   1      37.156  29.475  31.609  1.00  0.00     0.002 A 
ATOM     81  C   UNL A   1      36.705  30.215  29.346  1.00  0.00     0.091 A 
ATOM     82  F   UNL A   1      38.439  30.072  27.709  1.00  0.00    -0.205 F 
ATOM     83  C   UNL A   1      36.274  29.988  30.662  1.00  0.00     0.022 A 
BRANCH  81  84
ATOM     84  S   UNL A   1      35.537  30.995  28.224  1.00  0.00     0.127 S 
ATOM     85  O   UNL A   1      36.308  32.143  27.746  1.00  0.00    -0.237 OA
ATOM     86  O   UNL A   1      35.323  29.941  27.230  1.00  0.00    -0.237 OA
ATOM     87  O   UNL A   1      34.368  31.307  29.029  1.00  0.00    -0.744 OA
ENDBRANCH  81  84
ENDBRANCH  53  77
BRANCH  65  88
ATOM     88  C   UNL A   1      44.637  33.376  29.580  1.00  0.00     0.023 A 
ATOM     89  C   UNL A   1      45.165  33.753  30.831  1.00  0.00     0.012 A 
ATOM     90  C   UNL A   1      44.403  34.362  28.602  1.00  0.00     0.148 A 
ATOM     91  C   UNL A   1      45.426  35.094  31.115  1.00  0.00     0.002 A 
ATOM     92  C   UNL A   1      44.708  35.692  28.877  1.00  0.00     0.091 A 
ATOM     93  F   UNL A   1      43.878  33.991  27.426  1.00  0.00    -0.205 F 
ATOM     94  C   UNL A   1      45.209  36.060  30.136  1.00  0.00     0.022 A 
BRANCH  92  95
ATOM     95  S   UNL A   1      44.543  36.980  27.637  1.00  0.00     0.127 S 
ATOM     96  O   UNL A   1      45.643  36.664  26.727  1.00  0.00    -0.237 OA
ATOM     97  O   UNL A   1      43.208  36.727  27.090  1.00  0.00    -0.237 OA
ATOM     98  O   UNL A   1      44.661  38.239  28.361  1.00  0.00    -0.744 OA
ENDBRANCH  92  95
ENDBRANCH  65  88
ENDBRANCH  39  40
ENDBRANCH  31  34
ENDBRANCH  29  30
ENDBRANCH  28  29
ENDBRANCH   1  28
TORSDOF 18
ENDMDL
