MODEL 1
REMARK VINA RESULT:     -10.9      0.000      0.000
REMARK SMILES O=C(NCCCCCCNC(=O)[C@H]1CC[C@@H](CNC(=O)[C@@H]2CCC[NH2+]C2)O1)c1ccc(-c2c3nc(c(-c4cccc(S(=O)(=O)[O-])c4F)c4ccc([nH]4)c(-c4cccc(S(=O)(=O)[O-])c4F)c4nc(c(-c5cccc(S(=O)(=O)[O-])c5F)c5ccc2[nH]5)C=C4)C=C3)cc1
REMARK SMILES IDX 6 1 5 2 4 3 3 4 1 5 2 6 28 8 29 9 90 10 30 11 89 12 31 13
REMARK SMILES IDX 32 14 33 15 83 16 34 17 88 18 82 19 84 20 35 21 87 22 81 23
REMARK SMILES IDX 80 24 36 26 68 27 48 28 67 29 49 30 52 31 66 32 85 33 50 34
REMARK SMILES IDX 51 35 65 37 86 38 53 39 37 40 38 41 46 42 39 43 41 44 47 45
REMARK SMILES IDX 40 46 42 47 43 48 44 49 45 50 69 51 70 52 78 53 71 54 73 55
REMARK SMILES IDX 79 56 72 57 74 58 75 59 76 60 77 61 54 62 55 63 63 64 56 65
REMARK SMILES IDX 58 66 64 67 57 68 59 69 60 70 61 71 62 72 7 73 8 74 9 75
REMARK SMILES IDX 10 76 11 77 12 79 13 80 14 81 27 82 15 83 16 84 17 85 18 86
REMARK SMILES IDX 19 87 20 89 21 90 22 91 26 92 23 93 25 94 24 95
REMARK H PARENT 3 7 84 25 52 36 10 78 18 88 25 96 25 97
REMARK Flexibility Score: inf
ROOT
ATOM      1  C   UNL A   1      31.993  27.536  23.780  1.00  0.00     0.002 C 
ENDROOT
BRANCH   1   2
ATOM      2  C   UNL A   1      32.985  28.659  24.103  1.00  0.00     0.021 C 
BRANCH   2   3
ATOM      3  C   UNL A   1      33.132  28.983  25.588  1.00  0.00     0.116 C 
BRANCH   3   4
ATOM      4  N   UNL A   1      32.703  30.338  25.891  1.00  0.00    -0.352 N 
ATOM      5  O   UNL A   1      32.460  32.191  27.141  1.00  0.00    -0.269 OA
ATOM      6  C   UNL A   1      33.133  31.189  26.872  1.00  0.00     0.251 C 
ATOM      7  H   UNL A   1      31.997  30.695  25.305  1.00  0.00     0.163 HD
BRANCH   6   8
ATOM      8  C   UNL A   1      34.384  30.918  27.609  1.00  0.00     0.039 A 
ATOM      9  C   UNL A   1      34.620  29.660  28.176  1.00  0.00     0.014 A 
ATOM     10  C   UNL A   1      35.357  31.915  27.687  1.00  0.00     0.014 A 
ATOM     11  C   UNL A   1      35.782  29.435  28.910  1.00  0.00     0.010 A 
ATOM     12  C   UNL A   1      36.551  31.667  28.367  1.00  0.00     0.010 A 
ATOM     13  C   UNL A   1      36.765  30.431  29.002  1.00  0.00    -0.014 A 
BRANCH  13  14
ATOM     14  C   UNL A   1      38.048  30.164  29.697  1.00  0.00     0.031 A 
ATOM     15  C   UNL A   1      39.051  29.209  29.117  1.00  0.00     0.074 A 
ATOM     16  C   UNL A   1      38.270  30.732  30.897  1.00  0.00     0.049 A 
ATOM     17  N   UNL A   1      40.175  28.783  29.630  1.00  0.00    -0.248 NA
ATOM     18  C   UNL A   1      38.744  28.648  27.791  1.00  0.00     0.031 C 
ATOM     19  C   UNL A   1      37.349  31.643  31.578  1.00  0.00     0.029 A 
ATOM     20  N   UNL A   1      39.318  30.600  31.774  1.00  0.00    -0.354 N 
ATOM     21  C   UNL A   1      40.689  27.870  28.718  1.00  0.00     0.074 A 
ATOM     22  C   UNL A   1      39.751  27.801  27.618  1.00  0.00     0.031 C 
ATOM     23  C   UNL A   1      37.856  31.968  32.775  1.00  0.00     0.029 A 
ATOM     24  C   UNL A   1      39.113  31.251  32.967  1.00  0.00     0.049 A 
ATOM     25  H   UNL A   1      40.134  30.088  31.569  1.00  0.00     0.167 HD
ATOM     26  C   UNL A   1      41.842  27.160  28.788  1.00  0.00     0.034 A 
ATOM     27  C   UNL A   1      39.830  31.242  34.108  1.00  0.00     0.034 A 
ATOM     28  C   UNL A   1      42.777  27.252  29.878  1.00  0.00     0.049 A 
ATOM     29  C   UNL A   1      41.108  30.457  34.161  1.00  0.00     0.074 A 
ATOM     30  C   UNL A   1      44.011  26.639  30.005  1.00  0.00     0.029 A 
ATOM     31  N   UNL A   1      42.575  27.987  31.036  1.00  0.00    -0.354 N 
ATOM     32  N   UNL A   1      41.650  29.708  33.232  1.00  0.00    -0.248 NA
ATOM     33  C   UNL A   1      41.891  30.538  35.402  1.00  0.00     0.031 C 
ATOM     34  C   UNL A   1      44.539  26.976  31.257  1.00  0.00     0.029 A 
ATOM     35  C   UNL A   1      43.651  27.829  31.893  1.00  0.00     0.049 A 
ATOM     36  H   UNL A   1      41.782  28.540  31.223  1.00  0.00     0.167 HD
ATOM     37  C   UNL A   1      42.853  29.254  33.760  1.00  0.00     0.074 A 
ATOM     38  C   UNL A   1      42.963  29.820  35.089  1.00  0.00     0.031 C 
ATOM     39  C   UNL A   1      43.775  28.439  33.194  1.00  0.00     0.034 A 
BRANCH  26  40
ATOM     40  C   UNL A   1      42.162  26.232  27.646  1.00  0.00     0.023 A 
ATOM     41  C   UNL A   1      42.905  26.704  26.545  1.00  0.00     0.012 A 
ATOM     42  C   UNL A   1      41.759  24.882  27.677  1.00  0.00     0.148 A 
ATOM     43  C   UNL A   1      43.204  25.861  25.474  1.00  0.00     0.002 A 
ATOM     44  C   UNL A   1      42.099  24.036  26.627  1.00  0.00     0.091 A 
ATOM     45  F   UNL A   1      41.034  24.452  28.720  1.00  0.00    -0.205 F 
ATOM     46  C   UNL A   1      42.808  24.527  25.519  1.00  0.00     0.022 A 
BRANCH  44  47
ATOM     47  S   UNL A   1      41.700  22.284  26.636  1.00  0.00     0.127 S 
ATOM     48  O   UNL A   1      42.294  21.839  25.378  1.00  0.00    -0.237 OA
ATOM     49  O   UNL A   1      42.391  21.813  27.836  1.00  0.00    -0.237 OA
ATOM     50  O   UNL A   1      40.247  22.210  26.712  1.00  0.00    -0.744 OA
ENDBRANCH  44  47
ENDBRANCH  26  40
BRANCH  27  51
ATOM     51  C   UNL A   1      39.345  32.035  35.271  1.00  0.00     0.023 A 
ATOM     52  C   UNL A   1      38.542  31.419  36.247  1.00  0.00     0.012 A 
ATOM     53  C   UNL A   1      39.761  33.369  35.459  1.00  0.00     0.148 A 
ATOM     54  C   UNL A   1      38.150  32.120  37.388  1.00  0.00     0.002 A 
ATOM     55  C   UNL A   1      39.417  34.042  36.623  1.00  0.00     0.091 A 
ATOM     56  F   UNL A   1      40.524  33.935  34.513  1.00  0.00    -0.205 F 
ATOM     57  C   UNL A   1      38.599  33.425  37.583  1.00  0.00     0.022 A 
BRANCH  55  58
ATOM     58  S   UNL A   1      40.061  35.668  37.032  1.00  0.00     0.127 S 
ATOM     59  O   UNL A   1      39.653  36.453  35.876  1.00  0.00    -0.237 OA
ATOM     60  O   UNL A   1      39.347  35.969  38.271  1.00  0.00    -0.237 OA
ATOM     61  O   UNL A   1      41.503  35.492  37.196  1.00  0.00    -0.744 OA
ENDBRANCH  55  58
ENDBRANCH  27  51
BRANCH  39  62
ATOM     62  C   UNL A   1      45.023  28.133  33.978  1.00  0.00     0.023 A 
ATOM     63  C   UNL A   1      46.125  29.008  33.916  1.00  0.00     0.012 A 
ATOM     64  C   UNL A   1      45.053  27.041  34.867  1.00  0.00     0.148 A 
ATOM     65  C   UNL A   1      47.245  28.791  34.719  1.00  0.00     0.002 A 
ATOM     66  C   UNL A   1      46.152  26.858  35.697  1.00  0.00     0.091 A 
ATOM     67  F   UNL A   1      44.000  26.212  34.894  1.00  0.00    -0.205 F 
ATOM     68  C   UNL A   1      47.252  27.727  35.618  1.00  0.00     0.022 A 
BRANCH  66  69
ATOM     69  S   UNL A   1      46.207  25.578  36.958  1.00  0.00     0.127 S 
ATOM     70  O   UNL A   1      47.541  25.778  37.525  1.00  0.00    -0.237 OA
ATOM     71  O   UNL A   1      45.105  25.967  37.839  1.00  0.00    -0.237 OA
ATOM     72  O   UNL A   1      46.012  24.316  36.261  1.00  0.00    -0.744 OA
ENDBRANCH  66  69
ENDBRANCH  39  62
ENDBRANCH  13  14
ENDBRANCH   6   8
ENDBRANCH   3   4
ENDBRANCH   2   3
ENDBRANCH   1   2
BRANCH   1  73
ATOM     73  C   UNL A   1      31.870  27.167  22.298  1.00  0.00     0.002 C 
BRANCH  73  74
ATOM     74  C   UNL A   1      33.061  26.401  21.721  1.00  0.00     0.021 C 
BRANCH  74  75
ATOM     75  C   UNL A   1      32.725  25.049  21.091  1.00  0.00     0.116 C 
BRANCH  75  76
ATOM     76  N   UNL A   1      32.170  24.148  22.084  1.00  0.00    -0.354 N 
ATOM     77  C   UNL A   1      32.734  23.460  23.114  1.00  0.00     0.249 C 
ATOM     78  H   UNL A   1      31.199  24.010  21.999  1.00  0.00     0.163 HD
ATOM     79  O   UNL A   1      31.979  22.713  23.749  1.00  0.00    -0.272 OA
BRANCH  77  80
ATOM     80  C   UNL A   1      34.227  23.612  23.539  1.00  0.00     0.207 C 
ATOM     81  C   UNL A   1      34.349  24.629  24.676  1.00  0.00     0.045 C 
ATOM     82  O   UNL A   1      34.964  22.469  23.970  1.00  0.00    -0.363 OA
ATOM     83  C   UNL A   1      34.383  23.715  25.876  1.00  0.00     0.037 C 
ATOM     84  C   UNL A   1      35.264  22.582  25.379  1.00  0.00     0.138 C 
BRANCH  84  85
ATOM     85  C   UNL A   1      35.092  21.199  26.038  1.00  0.00     0.147 C 
BRANCH  85  86
ATOM     86  N   UNL A   1      33.787  20.581  25.855  1.00  0.00    -0.353 N 
ATOM     87  C   UNL A   1      33.297  19.521  25.167  1.00  0.00     0.228 C 
ATOM     88  H   UNL A   1      33.083  21.051  26.356  1.00  0.00     0.163 HD
ATOM     89  O   UNL A   1      32.155  19.178  25.515  1.00  0.00    -0.275 OA
BRANCH  87  90
ATOM     90  C   UNL A   1      33.988  18.712  24.052  1.00  0.00     0.133 C 
ATOM     91  C   UNL A   1      33.236  17.673  23.234  1.00  0.00     0.025 C 
ATOM     92  C   UNL A   1      35.266  18.050  24.622  1.00  0.00     0.274 C 
ATOM     93  C   UNL A   1      32.985  16.436  24.078  1.00  0.00     0.062 C 
ATOM     94  N   UNL A   1      34.999  16.829  25.401  1.00  0.00    -0.346 N 
ATOM     95  C   UNL A   1      34.262  15.833  24.633  1.00  0.00     0.260 C 
ATOM     96  H   UNL A   1      35.889  16.425  25.693  1.00  0.00     0.346 HD
ATOM     97  H   UNL A   1      34.427  17.090  26.204  1.00  0.00     0.346 HD
ENDBRANCH  87  90
ENDBRANCH  85  86
ENDBRANCH  84  85
ENDBRANCH  77  80
ENDBRANCH  75  76
ENDBRANCH  74  75
ENDBRANCH  73  74
ENDBRANCH   1  73
TORSDOF 19
ENDMDL
MODEL 2
REMARK VINA RESULT:     -10.6      2.798      8.531
REMARK SMILES O=C(NCCCCCCNC(=O)[C@H]1CC[C@@H](CNC(=O)[C@@H]2CCC[NH2+]C2)O1)c1ccc(-c2c3nc(c(-c4cccc(S(=O)(=O)[O-])c4F)c4ccc([nH]4)c(-c4cccc(S(=O)(=O)[O-])c4F)c4nc(c(-c5cccc(S(=O)(=O)[O-])c5F)c5ccc2[nH]5)C=C4)C=C3)cc1
REMARK SMILES IDX 6 1 5 2 4 3 3 4 1 5 2 6 28 8 29 9 90 10 30 11 89 12 31 13
REMARK SMILES IDX 32 14 33 15 83 16 34 17 88 18 82 19 84 20 35 21 87 22 81 23
REMARK SMILES IDX 80 24 36 26 68 27 48 28 67 29 49 30 52 31 66 32 85 33 50 34
REMARK SMILES IDX 51 35 65 37 86 38 53 39 37 40 38 41 46 42 39 43 41 44 47 45
REMARK SMILES IDX 40 46 42 47 43 48 44 49 45 50 69 51 70 52 78 53 71 54 73 55
REMARK SMILES IDX 79 56 72 57 74 58 75 59 76 60 77 61 54 62 55 63 63 64 56 65
REMARK SMILES IDX 58 66 64 67 57 68 59 69 60 70 61 71 62 72 7 73 8 74 9 75
REMARK SMILES IDX 10 76 11 77 12 79 13 80 14 81 27 82 15 83 16 84 17 85 18 86
REMARK SMILES IDX 19 87 20 89 21 90 22 91 26 92 23 93 25 94 24 95
REMARK H PARENT 3 7 84 25 52 36 10 78 18 88 25 96 25 97
REMARK Flexibility Score: inf
ROOT
ATOM      1  C   UNL A   1      35.393  33.227  28.108  1.00  0.00     0.002 C 
ENDROOT
BRANCH   1   2
ATOM      2  C   UNL A   1      34.026  33.914  28.028  1.00  0.00     0.021 C 
BRANCH   2   3
ATOM      3  C   UNL A   1      34.028  35.400  28.380  1.00  0.00     0.116 C 
BRANCH   3   4
ATOM      4  N   UNL A   1      33.163  35.690  29.510  1.00  0.00    -0.352 N 
ATOM      5  O   UNL A   1      32.193  35.331  31.507  1.00  0.00    -0.269 OA
ATOM      6  C   UNL A   1      33.173  35.162  30.773  1.00  0.00     0.251 C 
ATOM      7  H   UNL A   1      32.466  36.364  29.343  1.00  0.00     0.163 HD
BRANCH   6   8
ATOM      8  C   UNL A   1      34.337  34.393  31.257  1.00  0.00     0.039 A 
ATOM      9  C   UNL A   1      35.612  34.968  31.288  1.00  0.00     0.014 A 
ATOM     10  C   UNL A   1      34.142  33.097  31.740  1.00  0.00     0.014 A 
ATOM     11  C   UNL A   1      36.708  34.214  31.702  1.00  0.00     0.010 A 
ATOM     12  C   UNL A   1      35.231  32.364  32.216  1.00  0.00     0.010 A 
ATOM     13  C   UNL A   1      36.526  32.909  32.182  1.00  0.00    -0.014 A 
BRANCH  13  14
ATOM     14  C   UNL A   1      37.673  32.136  32.718  1.00  0.00     0.031 A 
ATOM     15  C   UNL A   1      38.334  32.536  34.005  1.00  0.00     0.074 A 
ATOM     16  C   UNL A   1      38.165  31.112  31.993  1.00  0.00     0.049 A 
ATOM     17  N   UNL A   1      39.403  32.038  34.571  1.00  0.00    -0.248 NA
ATOM     18  C   UNL A   1      37.724  33.649  34.747  1.00  0.00     0.031 C 
ATOM     19  C   UNL A   1      37.630  30.661  30.708  1.00  0.00     0.029 A 
ATOM     20  N   UNL A   1      39.244  30.293  32.213  1.00  0.00    -0.354 N 
ATOM     21  C   UNL A   1      39.623  32.804  35.709  1.00  0.00     0.074 A 
ATOM     22  C   UNL A   1      38.577  33.803  35.751  1.00  0.00     0.031 C 
ATOM     23  C   UNL A   1      38.394  29.665  30.239  1.00  0.00     0.029 A 
ATOM     24  C   UNL A   1      39.501  29.441  31.165  1.00  0.00     0.049 A 
ATOM     25  H   UNL A   1      39.781  30.314  33.038  1.00  0.00     0.167 HD
ATOM     26  C   UNL A   1      40.603  32.680  36.636  1.00  0.00     0.034 A 
ATOM     27  C   UNL A   1      40.532  28.602  30.947  1.00  0.00     0.034 A 
ATOM     28  C   UNL A   1      41.627  31.670  36.594  1.00  0.00     0.049 A 
ATOM     29  C   UNL A   1      41.602  28.473  31.991  1.00  0.00     0.074 A 
ATOM     30  C   UNL A   1      42.615  31.407  37.527  1.00  0.00     0.029 A 
ATOM     31  N   UNL A   1      41.809  30.769  35.556  1.00  0.00    -0.354 N 
ATOM     32  N   UNL A   1      41.717  29.110  33.131  1.00  0.00    -0.248 NA
ATOM     33  C   UNL A   1      42.667  27.492  31.739  1.00  0.00     0.031 C 
ATOM     34  C   UNL A   1      43.415  30.370  37.035  1.00  0.00     0.029 A 
ATOM     35  C   UNL A   1      42.903  29.961  35.814  1.00  0.00     0.049 A 
ATOM     36  H   UNL A   1      41.243  30.711  34.752  1.00  0.00     0.167 HD
ATOM     37  C   UNL A   1      42.845  28.585  33.750  1.00  0.00     0.074 A 
ATOM     38  C   UNL A   1      43.374  27.571  32.860  1.00  0.00     0.031 C 
ATOM     39  C   UNL A   1      43.392  28.919  34.944  1.00  0.00     0.034 A 
BRANCH  26  40
ATOM     40  C   UNL A   1      40.606  33.655  37.785  1.00  0.00     0.023 A 
ATOM     41  C   UNL A   1      41.488  34.755  37.770  1.00  0.00     0.012 A 
ATOM     42  C   UNL A   1      39.711  33.505  38.863  1.00  0.00     0.148 A 
ATOM     43  C   UNL A   1      41.510  35.663  38.828  1.00  0.00     0.002 A 
ATOM     44  C   UNL A   1      39.708  34.440  39.892  1.00  0.00     0.091 A 
ATOM     45  F   UNL A   1      38.893  32.442  38.874  1.00  0.00    -0.205 F 
ATOM     46  C   UNL A   1      40.616  35.510  39.884  1.00  0.00     0.022 A 
BRANCH  44  47
ATOM     47  S   UNL A   1      38.537  34.366  41.253  1.00  0.00     0.127 S 
ATOM     48  O   UNL A   1      39.313  33.667  42.274  1.00  0.00    -0.237 OA
ATOM     49  O   UNL A   1      38.296  35.781  41.534  1.00  0.00    -0.237 OA
ATOM     50  O   UNL A   1      37.377  33.650  40.738  1.00  0.00    -0.744 OA
ENDBRANCH  44  47
ENDBRANCH  26  40
BRANCH  27  51
ATOM     51  C   UNL A   1      40.562  27.808  29.688  1.00  0.00     0.023 A 
ATOM     52  C   UNL A   1      39.628  26.775  29.495  1.00  0.00     0.012 A 
ATOM     53  C   UNL A   1      41.450  28.142  28.645  1.00  0.00     0.148 A 
ATOM     54  C   UNL A   1      39.583  26.077  28.287  1.00  0.00     0.002 A 
ATOM     55  C   UNL A   1      41.362  27.483  27.426  1.00  0.00     0.091 A 
ATOM     56  F   UNL A   1      42.333  29.128  28.855  1.00  0.00    -0.205 F 
ATOM     57  C   UNL A   1      40.438  26.440  27.248  1.00  0.00     0.022 A 
BRANCH  55  58
ATOM     58  S   UNL A   1      42.318  27.972  25.986  1.00  0.00     0.127 S 
ATOM     59  O   UNL A   1      41.907  26.981  25.001  1.00  0.00    -0.237 OA
ATOM     60  O   UNL A   1      41.826  29.327  25.747  1.00  0.00    -0.237 OA
ATOM     61  O   UNL A   1      43.719  27.904  26.401  1.00  0.00    -0.744 OA
ENDBRANCH  55  58
ENDBRANCH  27  51
BRANCH  39  62
ATOM     62  C   UNL A   1      44.606  28.157  35.403  1.00  0.00     0.023 A 
ATOM     63  C   UNL A   1      45.892  28.697  35.207  1.00  0.00     0.012 A 
ATOM     64  C   UNL A   1      44.460  26.962  36.134  1.00  0.00     0.148 A 
ATOM     65  C   UNL A   1      47.016  28.049  35.720  1.00  0.00     0.002 A 
ATOM     66  C   UNL A   1      45.578  26.348  36.683  1.00  0.00     0.091 A 
ATOM     67  F   UNL A   1      43.227  26.458  36.291  1.00  0.00    -0.205 F 
ATOM     68  C   UNL A   1      46.858  26.886  36.470  1.00  0.00     0.022 A 
BRANCH  66  69
ATOM     69  S   UNL A   1      45.462  24.905  37.748  1.00  0.00     0.127 S 
ATOM     70  O   UNL A   1      44.572  25.387  38.805  1.00  0.00    -0.237 OA
ATOM     71  O   UNL A   1      44.865  23.911  36.854  1.00  0.00    -0.237 OA
ATOM     72  O   UNL A   1      46.821  24.604  38.170  1.00  0.00    -0.744 OA
ENDBRANCH  66  69
ENDBRANCH  39  62
ENDBRANCH  13  14
ENDBRANCH   6   8
ENDBRANCH   3   4
ENDBRANCH   2   3
ENDBRANCH   1   2
BRANCH   1  73
ATOM     73  C   UNL A   1      35.432  31.771  27.633  1.00  0.00     0.002 C 
BRANCH  73  74
ATOM     74  C   UNL A   1      34.298  30.890  28.155  1.00  0.00     0.021 C 
BRANCH  74  75
ATOM     75  C   UNL A   1      33.268  30.460  27.109  1.00  0.00     0.116 C 
BRANCH  75  76
ATOM     76  N   UNL A   1      32.640  29.210  27.497  1.00  0.00    -0.354 N 
ATOM     77  C   UNL A   1      31.884  28.312  26.809  1.00  0.00     0.249 C 
ATOM     78  H   UNL A   1      32.791  28.964  28.439  1.00  0.00     0.163 HD
ATOM     79  O   UNL A   1      31.439  27.360  27.462  1.00  0.00    -0.272 OA
BRANCH  77  80
ATOM     80  C   UNL A   1      31.615  28.405  25.275  1.00  0.00     0.207 C 
ATOM     81  C   UNL A   1      32.918  28.205  24.499  1.00  0.00     0.045 C 
ATOM     82  O   UNL A   1      30.669  27.529  24.665  1.00  0.00    -0.363 OA
ATOM     83  C   UNL A   1      32.822  26.740  24.151  1.00  0.00     0.037 C 
ATOM     84  C   UNL A   1      31.352  26.600  23.794  1.00  0.00     0.138 C 
BRANCH  84  85
ATOM     85  C   UNL A   1      30.707  25.208  23.945  1.00  0.00     0.147 C 
BRANCH  85  86
ATOM     86  N   UNL A   1      30.759  24.641  25.284  1.00  0.00    -0.353 N 
ATOM     87  C   UNL A   1      31.695  24.024  26.047  1.00  0.00     0.228 C 
ATOM     88  H   UNL A   1      29.900  24.728  25.755  1.00  0.00     0.163 HD
ATOM     89  O   UNL A   1      31.395  23.949  27.250  1.00  0.00    -0.275 OA
BRANCH  87  90
ATOM     90  C   UNL A   1      33.050  23.442  25.601  1.00  0.00     0.133 C 
ATOM     91  C   UNL A   1      33.170  22.531  24.388  1.00  0.00     0.025 C 
ATOM     92  C   UNL A   1      33.723  22.740  26.805  1.00  0.00     0.274 C 
ATOM     93  C   UNL A   1      32.606  21.160  24.718  1.00  0.00     0.062 C 
ATOM     94  N   UNL A   1      33.188  21.396  27.077  1.00  0.00    -0.346 N 
ATOM     95  C   UNL A   1      33.280  20.518  25.916  1.00  0.00     0.260 C 
ATOM     96  H   UNL A   1      33.718  20.981  27.844  1.00  0.00     0.346 HD
ATOM     97  H   UNL A   1      32.201  21.495  27.316  1.00  0.00     0.346 HD
ENDBRANCH  87  90
ENDBRANCH  85  86
ENDBRANCH  84  85
ENDBRANCH  77  80
ENDBRANCH  75  76
ENDBRANCH  74  75
ENDBRANCH  73  74
ENDBRANCH   1  73
TORSDOF 19
ENDMDL
MODEL 3
REMARK VINA RESULT:     -10.3      2.101      2.398
REMARK SMILES O=C(NCCCCCCNC(=O)[C@H]1CC[C@@H](CNC(=O)[C@@H]2CCC[NH2+]C2)O1)c1ccc(-c2c3nc(c(-c4cccc(S(=O)(=O)[O-])c4F)c4ccc([nH]4)c(-c4cccc(S(=O)(=O)[O-])c4F)c4nc(c(-c5cccc(S(=O)(=O)[O-])c5F)c5ccc2[nH]5)C=C4)C=C3)cc1
REMARK SMILES IDX 6 1 5 2 4 3 3 4 1 5 2 6 28 8 29 9 90 10 30 11 89 12 31 13
REMARK SMILES IDX 32 14 33 15 83 16 34 17 88 18 82 19 84 20 35 21 87 22 81 23
REMARK SMILES IDX 80 24 36 26 68 27 48 28 67 29 49 30 52 31 66 32 85 33 50 34
REMARK SMILES IDX 51 35 65 37 86 38 53 39 37 40 38 41 46 42 39 43 41 44 47 45
REMARK SMILES IDX 40 46 42 47 43 48 44 49 45 50 69 51 70 52 78 53 71 54 73 55
REMARK SMILES IDX 79 56 72 57 74 58 75 59 76 60 77 61 54 62 55 63 63 64 56 65
REMARK SMILES IDX 58 66 64 67 57 68 59 69 60 70 61 71 62 72 7 73 8 74 9 75
REMARK SMILES IDX 10 76 11 77 12 79 13 80 14 81 27 82 15 83 16 84 17 85 18 86
REMARK SMILES IDX 19 87 20 89 21 90 22 91 26 92 23 93 25 94 24 95
REMARK H PARENT 3 7 84 25 52 36 10 78 18 88 25 96 25 97
REMARK Flexibility Score: inf
ROOT
ATOM      1  C   UNL A   1      32.035  28.056  24.134  1.00  0.00     0.002 C 
ENDROOT
BRANCH   1   2
ATOM      2  C   UNL A   1      33.462  28.503  24.466  1.00  0.00     0.021 C 
BRANCH   2   3
ATOM      3  C   UNL A   1      33.707  28.850  25.932  1.00  0.00     0.116 C 
BRANCH   3   4
ATOM      4  N   UNL A   1      33.252  30.192  26.254  1.00  0.00    -0.352 N 
ATOM      5  O   UNL A   1      33.026  32.046  27.507  1.00  0.00    -0.269 OA
ATOM      6  C   UNL A   1      33.715  31.065  27.201  1.00  0.00     0.251 C 
ATOM      7  H   UNL A   1      32.499  30.521  25.712  1.00  0.00     0.163 HD
BRANCH   6   8
ATOM      8  C   UNL A   1      35.018  30.841  27.858  1.00  0.00     0.039 A 
ATOM      9  C   UNL A   1      35.304  29.621  28.481  1.00  0.00     0.014 A 
ATOM     10  C   UNL A   1      35.988  31.844  27.804  1.00  0.00     0.014 A 
ATOM     11  C   UNL A   1      36.519  29.443  29.139  1.00  0.00     0.010 A 
ATOM     12  C   UNL A   1      37.230  31.640  28.407  1.00  0.00     0.010 A 
ATOM     13  C   UNL A   1      37.499  30.445  29.097  1.00  0.00    -0.014 A 
BRANCH  13  14
ATOM     14  C   UNL A   1      38.832  30.223  29.710  1.00  0.00     0.031 A 
ATOM     15  C   UNL A   1      39.823  29.292  29.074  1.00  0.00     0.074 A 
ATOM     16  C   UNL A   1      39.114  30.811  30.889  1.00  0.00     0.049 A 
ATOM     17  N   UNL A   1      40.991  28.905  29.518  1.00  0.00    -0.248 NA
ATOM     18  C   UNL A   1      39.449  28.708  27.777  1.00  0.00     0.031 C 
ATOM     19  C   UNL A   1      38.211  31.701  31.620  1.00  0.00     0.029 A 
ATOM     20  N   UNL A   1      40.219  30.718  31.697  1.00  0.00    -0.354 N 
ATOM     21  C   UNL A   1      41.472  27.998  28.582  1.00  0.00     0.074 A 
ATOM     22  C   UNL A   1      40.467  27.890  27.546  1.00  0.00     0.031 C 
ATOM     23  C   UNL A   1      38.785  32.054  32.778  1.00  0.00     0.029 A 
ATOM     24  C   UNL A   1      40.072  31.376  32.895  1.00  0.00     0.049 A 
ATOM     25  H   UNL A   1      41.035  30.229  31.444  1.00  0.00     0.167 HD
ATOM     26  C   UNL A   1      42.647  27.323  28.584  1.00  0.00     0.034 A 
ATOM     27  C   UNL A   1      40.861  31.400  33.987  1.00  0.00     0.034 A 
ATOM     28  C   UNL A   1      43.648  27.454  29.610  1.00  0.00     0.049 A 
ATOM     29  C   UNL A   1      42.163  30.654  33.964  1.00  0.00     0.074 A 
ATOM     30  C   UNL A   1      44.906  26.878  29.662  1.00  0.00     0.029 A 
ATOM     31  N   UNL A   1      43.499  28.195  30.772  1.00  0.00    -0.354 N 
ATOM     32  N   UNL A   1      42.666  29.911  33.008  1.00  0.00    -0.248 NA
ATOM     33  C   UNL A   1      43.022  30.771  35.151  1.00  0.00     0.031 C 
ATOM     34  C   UNL A   1      45.503  27.244  30.874  1.00  0.00     0.029 A 
ATOM     35  C   UNL A   1      44.632  28.078  31.559  1.00  0.00     0.049 A 
ATOM     36  H   UNL A   1      42.703  28.727  31.006  1.00  0.00     0.167 HD
ATOM     37  C   UNL A   1      43.914  29.498  33.461  1.00  0.00     0.074 A 
ATOM     38  C   UNL A   1      44.093  30.082  34.776  1.00  0.00     0.031 C 
ATOM     39  C   UNL A   1      44.822  28.705  32.844  1.00  0.00     0.034 A 
BRANCH  26  40
ATOM     40  C   UNL A   1      42.921  26.392  27.431  1.00  0.00     0.023 A 
ATOM     41  C   UNL A   1      43.696  26.835  26.340  1.00  0.00     0.012 A 
ATOM     42  C   UNL A   1      42.442  25.067  27.443  1.00  0.00     0.148 A 
ATOM     43  C   UNL A   1      43.952  25.990  25.261  1.00  0.00     0.002 A 
ATOM     44  C   UNL A   1      42.740  24.216  26.384  1.00  0.00     0.091 A 
ATOM     45  F   UNL A   1      41.688  24.666  28.477  1.00  0.00    -0.205 F 
ATOM     46  C   UNL A   1      43.482  24.680  25.287  1.00  0.00     0.022 A 
BRANCH  44  47
ATOM     47  S   UNL A   1      42.243  22.490  26.370  1.00  0.00     0.127 S 
ATOM     48  O   UNL A   1      42.798  22.011  27.633  1.00  0.00    -0.237 OA
ATOM     49  O   UNL A   1      40.784  22.585  26.343  1.00  0.00    -0.237 OA
ATOM     50  O   UNL A   1      42.830  21.920  25.163  1.00  0.00    -0.744 OA
ENDBRANCH  44  47
ENDBRANCH  26  40
BRANCH  27  51
ATOM     51  C   UNL A   1      40.429  32.192  35.172  1.00  0.00     0.023 A 
ATOM     52  C   UNL A   1      40.877  33.516  35.325  1.00  0.00     0.012 A 
ATOM     53  C   UNL A   1      39.498  31.666  36.090  1.00  0.00     0.148 A 
ATOM     54  C   UNL A   1      40.415  34.302  36.381  1.00  0.00     0.002 A 
ATOM     55  C   UNL A   1      38.998  32.471  37.104  1.00  0.00     0.091 A 
ATOM     56  F   UNL A   1      39.089  30.400  35.924  1.00  0.00    -0.205 F 
ATOM     57  C   UNL A   1      39.466  33.786  37.261  1.00  0.00     0.022 A 
BRANCH  55  58
ATOM     58  S   UNL A   1      37.672  31.947  38.197  1.00  0.00     0.127 S 
ATOM     59  O   UNL A   1      38.313  32.017  39.503  1.00  0.00    -0.237 OA
ATOM     60  O   UNL A   1      36.658  32.969  37.948  1.00  0.00    -0.237 OA
ATOM     61  O   UNL A   1      37.299  30.606  37.750  1.00  0.00    -0.744 OA
ENDBRANCH  55  58
ENDBRANCH  27  51
BRANCH  39  62
ATOM     62  C   UNL A   1      46.126  28.445  33.548  1.00  0.00     0.023 A 
ATOM     63  C   UNL A   1      46.270  27.309  34.368  1.00  0.00     0.012 A 
ATOM     64  C   UNL A   1      47.244  29.266  33.298  1.00  0.00     0.148 A 
ATOM     65  C   UNL A   1      47.505  27.003  34.940  1.00  0.00     0.002 A 
ATOM     66  C   UNL A   1      48.480  28.928  33.832  1.00  0.00     0.091 A 
ATOM     67  F   UNL A   1      47.077  30.352  32.529  1.00  0.00    -0.205 F 
ATOM     68  C   UNL A   1      48.611  27.802  34.660  1.00  0.00     0.022 A 
BRANCH  66  69
ATOM     69  S   UNL A   1      49.981  29.838  33.444  1.00  0.00     0.127 S 
ATOM     70  O   UNL A   1      49.899  30.958  34.382  1.00  0.00    -0.237 OA
ATOM     71  O   UNL A   1      51.023  28.859  33.753  1.00  0.00    -0.237 OA
ATOM     72  O   UNL A   1      49.883  30.199  32.038  1.00  0.00    -0.744 OA
ENDBRANCH  66  69
ENDBRANCH  39  62
ENDBRANCH  13  14
ENDBRANCH   6   8
ENDBRANCH   3   4
ENDBRANCH   2   3
ENDBRANCH   1   2
BRANCH   1  73
ATOM     73  C   UNL A   1      31.767  27.733  22.661  1.00  0.00     0.002 C 
BRANCH  73  74
ATOM     74  C   UNL A   1      32.910  27.025  21.935  1.00  0.00     0.021 C 
BRANCH  74  75
ATOM     75  C   UNL A   1      32.534  25.715  21.241  1.00  0.00     0.116 C 
BRANCH  75  76
ATOM     76  N   UNL A   1      31.663  24.923  22.090  1.00  0.00    -0.354 N 
ATOM     77  C   UNL A   1      31.859  24.318  23.293  1.00  0.00     0.249 C 
ATOM     78  H   UNL A   1      30.756  24.800  21.727  1.00  0.00     0.163 HD
ATOM     79  O   UNL A   1      30.912  23.651  23.729  1.00  0.00    -0.272 OA
BRANCH  77  80
ATOM     80  C   UNL A   1      33.162  24.474  24.136  1.00  0.00     0.207 C 
ATOM     81  C   UNL A   1      32.821  24.536  25.626  1.00  0.00     0.045 C 
ATOM     82  O   UNL A   1      34.202  23.503  24.023  1.00  0.00    -0.363 OA
ATOM     83  C   UNL A   1      33.053  23.101  26.033  1.00  0.00     0.037 C 
ATOM     84  C   UNL A   1      34.311  22.756  25.256  1.00  0.00     0.138 C 
BRANCH  84  85
ATOM     85  C   UNL A   1      34.561  21.272  24.920  1.00  0.00     0.147 C 
BRANCH  85  86
ATOM     86  N   UNL A   1      33.491  20.361  25.297  1.00  0.00    -0.353 N 
ATOM     87  C   UNL A   1      33.191  19.060  25.066  1.00  0.00     0.228 C 
ATOM     88  H   UNL A   1      32.816  20.799  25.864  1.00  0.00     0.163 HD
ATOM     89  O   UNL A   1      32.314  18.603  25.818  1.00  0.00    -0.275 OA
BRANCH  87  90
ATOM     90  C   UNL A   1      33.811  18.114  24.020  1.00  0.00     0.133 C 
ATOM     91  C   UNL A   1      33.144  16.804  23.630  1.00  0.00     0.025 C 
ATOM     92  C   UNL A   1      35.278  17.815  24.412  1.00  0.00     0.274 C 
ATOM     93  C   UNL A   1      33.306  15.791  24.750  1.00  0.00     0.062 C 
ATOM     94  N   UNL A   1      35.410  16.799  25.470  1.00  0.00    -0.346 N 
ATOM     95  C   UNL A   1      34.758  15.544  25.116  1.00  0.00     0.260 C 
ATOM     96  H   UNL A   1      36.401  16.620  25.631  1.00  0.00     0.346 HD
ATOM     97  H   UNL A   1      34.955  17.161  26.308  1.00  0.00     0.346 HD
ENDBRANCH  87  90
ENDBRANCH  85  86
ENDBRANCH  84  85
ENDBRANCH  77  80
ENDBRANCH  75  76
ENDBRANCH  74  75
ENDBRANCH  73  74
ENDBRANCH   1  73
TORSDOF 19
ENDMDL
