MODEL 1
REMARK VINA RESULT:     -10.8      0.000      0.000
REMARK SMILES Cc1ccc(S(=O)(=O)Nc2cc(C(=O)NCCCCCCNC(=O)c3ccc(-c4c5nc(c(-c6cccc(S(=O)(=O)[O-])c6F)c6ccc([nH]6)c(-c6cccc(S(=O)(=O)[O-])c6F)c6nc(c(-c7cccc(S(=O)(=O)[O-])c7F)c7ccc4[nH]7)C=C6)C=C5)cc3)cnc2N2CCCC2)c(C)c1
REMARK SMILES IDX 18 1 17 2 16 3 15 4 13 5 14 6 12 8 10 9 11 10 90 11 89 12
REMARK SMILES IDX 88 13 9 14 6 16 7 17 8 18 5 19 1 20 2 21 3 22 98 23 4 24
REMARK SMILES IDX 96 25 97 26 91 27 92 28 95 29 93 30 94 31 19 32 20 33 21 34
REMARK SMILES IDX 22 35 23 36 24 38 25 39 26 40 87 41 27 42 86 43 28 44 29 45
REMARK SMILES IDX 30 46 80 47 31 48 85 49 79 50 81 51 32 52 84 53 78 54 77 55
REMARK SMILES IDX 33 57 65 58 45 59 64 60 46 61 49 62 63 63 82 64 47 65 48 66
REMARK SMILES IDX 62 68 83 69 50 70 34 71 35 72 43 73 36 74 38 75 44 76 37 77
REMARK SMILES IDX 39 78 40 79 41 80 42 81 66 82 67 83 75 84 68 85 70 86 76 87
REMARK SMILES IDX 69 88 71 89 72 90 73 91 74 92 51 93 52 94 60 95 53 96 55 97
REMARK SMILES IDX 61 98 54 99 56 100 57 101 58 102 59 103
REMARK H PARENT 15 7 9 15 22 37 81 56 49 67
REMARK Flexibility Score: inf
ROOT
ATOM      1  C   UNL A   1      35.500  32.380  27.932  1.00  0.00     0.002 C 
ENDROOT
BRANCH   1   2
ATOM      2  C   UNL A   1      35.400  30.891  28.284  1.00  0.00     0.021 C 
BRANCH   2   3
ATOM      3  C   UNL A   1      34.742  30.064  27.180  1.00  0.00     0.116 C 
BRANCH   3   4
ATOM      4  N   UNL A   1      33.516  30.706  26.731  1.00  0.00    -0.352 N 
ATOM      5  C   UNL A   1      32.346  30.219  26.213  1.00  0.00     0.252 C 
ATOM      6  O   UNL A   1      31.461  31.031  25.937  1.00  0.00    -0.269 OA
ATOM      7  H   UNL A   1      33.532  31.686  26.816  1.00  0.00     0.163 HD
BRANCH   5   8
ATOM      8  C   UNL A   1      32.061  28.775  26.038  1.00  0.00     0.060 A 
ATOM      9  C   UNL A   1      32.004  26.689  24.860  1.00  0.00     0.092 A 
ATOM     10  C   UNL A   1      32.077  28.080  24.837  1.00  0.00     0.046 A 
ATOM     11  C   UNL A   1      31.692  26.018  26.065  1.00  0.00     0.153 A 
ATOM     12  N   UNL A   1      31.548  26.702  27.218  1.00  0.00    -0.236 NA
ATOM     13  C   UNL A   1      31.775  28.042  27.187  1.00  0.00     0.127 A 
BRANCH   9  14
ATOM     14  N   UNL A   1      32.260  25.911  23.698  1.00  0.00    -0.276 N 
ATOM     15  H   UNL A   1      31.519  25.804  23.058  1.00  0.00     0.180 HD
BRANCH  14  16
ATOM     16  S   UNL A   1      33.705  25.165  23.321  1.00  0.00     0.262 S 
ATOM     17  O   UNL A   1      34.608  25.475  24.419  1.00  0.00    -0.201 OA
ATOM     18  O   UNL A   1      33.970  25.580  21.967  1.00  0.00    -0.201 OA
BRANCH  16  19
ATOM     19  C   UNL A   1      33.562  23.373  23.302  1.00  0.00     0.090 A 
ATOM     20  C   UNL A   1      32.656  19.333  24.516  1.00  0.00     0.044 C 
ATOM     21  C   UNL A   1      32.999  20.708  24.022  1.00  0.00    -0.051 A 
ATOM     22  C   UNL A   1      32.141  21.406  23.171  1.00  0.00     0.005 A 
ATOM     23  C   UNL A   1      34.216  21.296  24.375  1.00  0.00     0.008 A 
ATOM     24  C   UNL A   1      32.432  22.723  22.793  1.00  0.00     0.023 A 
ATOM     25  C   UNL A   1      34.520  22.623  24.015  1.00  0.00    -0.030 A 
ATOM     26  C   UNL A   1      35.885  23.136  24.398  1.00  0.00     0.046 C 
ENDBRANCH  16  19
ENDBRANCH  14  16
ENDBRANCH   9  14
BRANCH  11  27
ATOM     27  N   UNL A   1      31.469  24.669  26.102  1.00  0.00    -0.355 N 
ATOM     28  C   UNL A   1      30.330  23.932  25.589  1.00  0.00     0.118 C 
ATOM     29  C   UNL A   1      32.408  23.822  26.821  1.00  0.00     0.118 C 
ATOM     30  C   UNL A   1      30.266  22.749  26.553  1.00  0.00     0.023 C 
ATOM     31  C   UNL A   1      31.740  22.444  26.806  1.00  0.00     0.023 C 
ENDBRANCH  11  27
ENDBRANCH   5   8
ENDBRANCH   3   4
ENDBRANCH   2   3
ENDBRANCH   1   2
BRANCH   1  32
ATOM     32  C   UNL A   1      35.651  33.314  29.141  1.00  0.00     0.002 C 
BRANCH  32  33
ATOM     33  C   UNL A   1      34.988  32.824  30.432  1.00  0.00     0.021 C 
BRANCH  33  34
ATOM     34  C   UNL A   1      35.924  32.724  31.635  1.00  0.00     0.116 C 
BRANCH  34  35
ATOM     35  N   UNL A   1      35.935  31.384  32.202  1.00  0.00    -0.352 N 
ATOM     36  C   UNL A   1      36.912  30.422  32.136  1.00  0.00     0.251 C 
ATOM     37  H   UNL A   1      35.128  31.131  32.705  1.00  0.00     0.163 HD
ATOM     38  O   UNL A   1      36.673  29.278  32.514  1.00  0.00    -0.269 OA
BRANCH  36  39
ATOM     39  C   UNL A   1      38.248  30.760  31.601  1.00  0.00     0.039 A 
ATOM     40  C   UNL A   1      38.466  30.677  30.222  1.00  0.00     0.014 A 
ATOM     41  C   UNL A   1      39.289  31.133  32.456  1.00  0.00     0.014 A 
ATOM     42  C   UNL A   1      39.715  31.013  29.696  1.00  0.00     0.010 A 
ATOM     43  C   UNL A   1      40.518  31.518  31.925  1.00  0.00     0.010 A 
ATOM     44  C   UNL A   1      40.744  31.454  30.542  1.00  0.00    -0.014 A 
BRANCH  44  45
ATOM     45  C   UNL A   1      42.063  31.862  30.000  1.00  0.00     0.031 A 
ATOM     46  C   UNL A   1      42.332  33.302  29.666  1.00  0.00     0.074 A 
ATOM     47  C   UNL A   1      42.980  30.919  29.711  1.00  0.00     0.049 A 
ATOM     48  N   UNL A   1      43.401  33.837  29.135  1.00  0.00    -0.248 NA
ATOM     49  C   UNL A   1      41.250  34.262  29.939  1.00  0.00     0.031 C 
ATOM     50  C   UNL A   1      42.796  29.479  29.901  1.00  0.00     0.029 A 
ATOM     51  N   UNL A   1      44.232  31.027  29.162  1.00  0.00    -0.354 N 
ATOM     52  C   UNL A   1      43.108  35.185  28.974  1.00  0.00     0.074 A 
ATOM     53  C   UNL A   1      41.751  35.382  29.441  1.00  0.00     0.031 C 
ATOM     54  C   UNL A   1      43.891  28.836  29.462  1.00  0.00     0.029 A 
ATOM     55  C   UNL A   1      44.846  29.815  28.951  1.00  0.00     0.049 A 
ATOM     56  H   UNL A   1      44.651  31.890  28.940  1.00  0.00     0.167 HD
ATOM     57  C   UNL A   1      43.905  36.177  28.510  1.00  0.00     0.034 A 
ATOM     58  C   UNL A   1      46.044  29.525  28.405  1.00  0.00     0.034 A 
ATOM     59  C   UNL A   1      45.271  35.989  28.104  1.00  0.00     0.049 A 
ATOM     60  C   UNL A   1      46.944  30.649  27.972  1.00  0.00     0.074 A 
ATOM     61  C   UNL A   1      46.199  36.945  27.731  1.00  0.00     0.029 A 
ATOM     62  N   UNL A   1      45.906  34.759  28.016  1.00  0.00    -0.354 N 
ATOM     63  N   UNL A   1      46.721  31.940  28.006  1.00  0.00    -0.248 NA
ATOM     64  C   UNL A   1      48.274  30.282  27.466  1.00  0.00     0.031 C 
ATOM     65  C   UNL A   1      47.397  36.291  27.416  1.00  0.00     0.029 A 
ATOM     66  C   UNL A   1      47.212  34.929  27.591  1.00  0.00     0.049 A 
ATOM     67  H   UNL A   1      45.488  33.893  28.224  1.00  0.00     0.167 HD
ATOM     68  C   UNL A   1      47.888  32.542  27.550  1.00  0.00     0.074 A 
ATOM     69  C   UNL A   1      48.824  31.474  27.268  1.00  0.00     0.031 C 
ATOM     70  C   UNL A   1      48.151  33.860  27.364  1.00  0.00     0.034 A 
BRANCH  57  71
ATOM     71  C   UNL A   1      43.336  37.570  28.495  1.00  0.00     0.023 A 
ATOM     72  C   UNL A   1      42.552  37.979  27.397  1.00  0.00     0.012 A 
ATOM     73  C   UNL A   1      43.544  38.461  29.564  1.00  0.00     0.148 A 
ATOM     74  C   UNL A   1      42.015  39.264  27.346  1.00  0.00     0.002 A 
ATOM     75  C   UNL A   1      42.975  39.730  29.523  1.00  0.00     0.091 A 
ATOM     76  F   UNL A   1      44.316  38.070  30.589  1.00  0.00    -0.205 F 
ATOM     77  C   UNL A   1      42.219  40.137  28.412  1.00  0.00     0.022 A 
BRANCH  75  78
ATOM     78  S   UNL A   1      43.141  40.884  30.890  1.00  0.00     0.127 S 
ATOM     79  O   UNL A   1      42.135  41.890  30.555  1.00  0.00    -0.237 OA
ATOM     80  O   UNL A   1      42.807  40.056  32.051  1.00  0.00    -0.237 OA
ATOM     81  O   UNL A   1      44.528  41.327  30.852  1.00  0.00    -0.744 OA
ENDBRANCH  75  78
ENDBRANCH  57  71
BRANCH  58  82
ATOM     82  C   UNL A   1      46.484  28.104  28.335  1.00  0.00     0.023 A 
ATOM     83  C   UNL A   1      47.108  27.524  29.456  1.00  0.00     0.012 A 
ATOM     84  C   UNL A   1      46.213  27.304  27.207  1.00  0.00     0.148 A 
ATOM     85  C   UNL A   1      47.469  26.176  29.451  1.00  0.00     0.002 A 
ATOM     86  C   UNL A   1      46.528  25.950  27.229  1.00  0.00     0.091 A 
ATOM     87  F   UNL A   1      45.630  27.879  26.146  1.00  0.00    -0.205 F 
ATOM     88  C   UNL A   1      47.166  25.387  28.345  1.00  0.00     0.022 A 
BRANCH  86  89
ATOM     89  S   UNL A   1      46.047  24.830  25.908  1.00  0.00     0.127 S 
ATOM     90  O   UNL A   1      46.931  23.692  26.143  1.00  0.00    -0.237 OA
ATOM     91  O   UNL A   1      44.635  24.588  26.211  1.00  0.00    -0.237 OA
ATOM     92  O   UNL A   1      46.271  25.566  24.671  1.00  0.00    -0.744 OA
ENDBRANCH  86  89
ENDBRANCH  58  82
BRANCH  70  93
ATOM     93  C   UNL A   1      49.509  34.229  26.833  1.00  0.00     0.023 A 
ATOM     94  C   UNL A   1      49.676  34.424  25.448  1.00  0.00     0.012 A 
ATOM     95  C   UNL A   1      50.592  34.468  27.701  1.00  0.00     0.148 A 
ATOM     96  C   UNL A   1      50.906  34.831  24.932  1.00  0.00     0.002 A 
ATOM     97  C   UNL A   1      51.805  34.910  27.184  1.00  0.00     0.091 A 
ATOM     98  F   UNL A   1      50.421  34.254  29.014  1.00  0.00    -0.205 F 
ATOM     99  C   UNL A   1      51.966  35.086  25.800  1.00  0.00     0.022 A 
BRANCH  97 100
ATOM    100  S   UNL A   1      53.190  35.339  28.246  1.00  0.00     0.127 S 
ATOM    101  O   UNL A   1      54.220  35.689  27.270  1.00  0.00    -0.237 OA
ATOM    102  O   UNL A   1      52.666  36.471  29.011  1.00  0.00    -0.237 OA
ATOM    103  O   UNL A   1      53.452  34.148  29.045  1.00  0.00    -0.744 OA
ENDBRANCH  97 100
ENDBRANCH  70  93
ENDBRANCH  44  45
ENDBRANCH  36  39
ENDBRANCH  34  35
ENDBRANCH  33  34
ENDBRANCH  32  33
ENDBRANCH   1  32
TORSDOF 20
ENDMDL
MODEL 2
REMARK VINA RESULT:     -10.7      5.521     10.260
REMARK SMILES Cc1ccc(S(=O)(=O)Nc2cc(C(=O)NCCCCCCNC(=O)c3ccc(-c4c5nc(c(-c6cccc(S(=O)(=O)[O-])c6F)c6ccc([nH]6)c(-c6cccc(S(=O)(=O)[O-])c6F)c6nc(c(-c7cccc(S(=O)(=O)[O-])c7F)c7ccc4[nH]7)C=C6)C=C5)cc3)cnc2N2CCCC2)c(C)c1
REMARK SMILES IDX 18 1 17 2 16 3 15 4 13 5 14 6 12 8 10 9 11 10 90 11 89 12
REMARK SMILES IDX 88 13 9 14 6 16 7 17 8 18 5 19 1 20 2 21 3 22 98 23 4 24
REMARK SMILES IDX 96 25 97 26 91 27 92 28 95 29 93 30 94 31 19 32 20 33 21 34
REMARK SMILES IDX 22 35 23 36 24 38 25 39 26 40 87 41 27 42 86 43 28 44 29 45
REMARK SMILES IDX 30 46 80 47 31 48 85 49 79 50 81 51 32 52 84 53 78 54 77 55
REMARK SMILES IDX 33 57 65 58 45 59 64 60 46 61 49 62 63 63 82 64 47 65 48 66
REMARK SMILES IDX 62 68 83 69 50 70 34 71 35 72 43 73 36 74 38 75 44 76 37 77
REMARK SMILES IDX 39 78 40 79 41 80 42 81 66 82 67 83 75 84 68 85 70 86 76 87
REMARK SMILES IDX 69 88 71 89 72 90 73 91 74 92 51 93 52 94 60 95 53 96 55 97
REMARK SMILES IDX 61 98 54 99 56 100 57 101 58 102 59 103
REMARK H PARENT 15 7 9 15 22 37 81 56 49 67
REMARK Flexibility Score: inf
ROOT
ATOM      1  C   UNL A   1      37.393  33.768  30.793  1.00  0.00     0.002 C 
ENDROOT
BRANCH   1   2
ATOM      2  C   UNL A   1      38.419  33.866  29.658  1.00  0.00     0.021 C 
BRANCH   2   3
ATOM      3  C   UNL A   1      39.767  34.414  30.123  1.00  0.00     0.116 C 
BRANCH   3   4
ATOM      4  N   UNL A   1      40.332  35.292  29.110  1.00  0.00    -0.352 N 
ATOM      5  C   UNL A   1      41.611  35.498  28.663  1.00  0.00     0.252 C 
ATOM      6  O   UNL A   1      41.775  36.316  27.757  1.00  0.00    -0.269 OA
ATOM      7  H   UNL A   1      39.661  35.849  28.654  1.00  0.00     0.163 HD
BRANCH   5   8
ATOM      8  C   UNL A   1      42.786  34.741  29.156  1.00  0.00     0.060 A 
ATOM      9  C   UNL A   1      44.457  33.024  29.095  1.00  0.00     0.092 A 
ATOM     10  C   UNL A   1      43.216  33.507  28.686  1.00  0.00     0.046 A 
ATOM     11  C   UNL A   1      45.157  33.671  30.139  1.00  0.00     0.153 A 
ATOM     12  N   UNL A   1      44.680  34.804  30.691  1.00  0.00    -0.236 NA
ATOM     13  C   UNL A   1      43.543  35.330  30.165  1.00  0.00     0.127 A 
BRANCH   9  14
ATOM     14  N   UNL A   1      45.060  31.899  28.470  1.00  0.00    -0.276 N 
ATOM     15  H   UNL A   1      46.039  31.821  28.534  1.00  0.00     0.180 HD
BRANCH  14  16
ATOM     16  S   UNL A   1      44.254  30.696  27.638  1.00  0.00     0.262 S 
ATOM     17  O   UNL A   1      44.239  31.121  26.246  1.00  0.00    -0.201 OA
ATOM     18  O   UNL A   1      43.044  30.498  28.395  1.00  0.00    -0.201 OA
BRANCH  16  19
ATOM     19  C   UNL A   1      45.147  29.137  27.659  1.00  0.00     0.090 A 
ATOM     20  C   UNL A   1      48.005  26.051  26.697  1.00  0.00     0.044 C 
ATOM     21  C   UNL A   1      46.981  27.075  27.091  1.00  0.00    -0.051 A 
ATOM     22  C   UNL A   1      47.183  27.919  28.183  1.00  0.00     0.005 A 
ATOM     23  C   UNL A   1      45.777  27.167  26.388  1.00  0.00     0.008 A 
ATOM     24  C   UNL A   1      46.260  28.929  28.482  1.00  0.00     0.023 A 
ATOM     25  C   UNL A   1      44.843  28.183  26.665  1.00  0.00    -0.030 A 
ATOM     26  C   UNL A   1      43.553  28.153  25.886  1.00  0.00     0.046 C 
ENDBRANCH  16  19
ENDBRANCH  14  16
ENDBRANCH   9  14
BRANCH  11  27
ATOM     27  N   UNL A   1      46.306  33.149  30.668  1.00  0.00    -0.355 N 
ATOM     28  C   UNL A   1      47.616  33.766  30.753  1.00  0.00     0.118 C 
ATOM     29  C   UNL A   1      46.304  31.770  31.129  1.00  0.00     0.118 C 
ATOM     30  C   UNL A   1      48.537  32.550  30.667  1.00  0.00     0.023 C 
ATOM     31  C   UNL A   1      47.774  31.495  31.462  1.00  0.00     0.023 C 
ENDBRANCH  11  27
ENDBRANCH   5   8
ENDBRANCH   3   4
ENDBRANCH   2   3
ENDBRANCH   1   2
BRANCH   1  32
ATOM     32  C   UNL A   1      36.142  32.944  30.455  1.00  0.00     0.002 C 
BRANCH  32  33
ATOM     33  C   UNL A   1      35.102  33.659  29.588  1.00  0.00     0.021 C 
BRANCH  33  34
ATOM     34  C   UNL A   1      35.116  33.266  28.113  1.00  0.00     0.116 C 
BRANCH  34  35
ATOM     35  N   UNL A   1      34.257  32.121  27.849  1.00  0.00    -0.352 N 
ATOM     36  C   UNL A   1      34.574  30.786  27.825  1.00  0.00     0.251 C 
ATOM     37  H   UNL A   1      33.315  32.335  27.660  1.00  0.00     0.163 HD
ATOM     38  O   UNL A   1      33.761  29.971  27.397  1.00  0.00    -0.269 OA
BRANCH  36  39
ATOM     39  C   UNL A   1      35.897  30.331  28.303  1.00  0.00     0.039 A 
ATOM     40  C   UNL A   1      35.977  29.640  29.516  1.00  0.00     0.014 A 
ATOM     41  C   UNL A   1      37.056  30.604  27.571  1.00  0.00     0.014 A 
ATOM     42  C   UNL A   1      37.214  29.183  29.974  1.00  0.00     0.010 A 
ATOM     43  C   UNL A   1      38.282  30.103  28.002  1.00  0.00     0.010 A 
ATOM     44  C   UNL A   1      38.374  29.395  29.210  1.00  0.00    -0.014 A 
BRANCH  44  45
ATOM     45  C   UNL A   1      39.691  28.876  29.652  1.00  0.00     0.031 A 
ATOM     46  C   UNL A   1      40.462  29.585  30.730  1.00  0.00     0.074 A 
ATOM     47  C   UNL A   1      40.239  27.828  29.008  1.00  0.00     0.049 A 
ATOM     48  N   UNL A   1      41.648  29.313  31.207  1.00  0.00    -0.248 NA
ATOM     49  C   UNL A   1      39.829  30.770  31.330  1.00  0.00     0.031 C 
ATOM     50  C   UNL A   1      39.628  27.118  27.883  1.00  0.00     0.029 A 
ATOM     51  N   UNL A   1      41.446  27.202  29.184  1.00  0.00    -0.354 N 
ATOM     52  C   UNL A   1      41.921  30.311  32.133  1.00  0.00     0.074 A 
ATOM     53  C   UNL A   1      40.786  31.210  32.134  1.00  0.00     0.031 C 
ATOM     54  C   UNL A   1      40.471  26.162  27.459  1.00  0.00     0.029 A 
ATOM     55  C   UNL A   1      41.683  26.200  28.273  1.00  0.00     0.049 A 
ATOM     56  H   UNL A   1      42.083  27.447  29.894  1.00  0.00     0.167 HD
ATOM     57  C   UNL A   1      43.003  30.450  32.936  1.00  0.00     0.034 A 
ATOM     58  C   UNL A   1      42.756  25.401  28.111  1.00  0.00     0.034 A 
ATOM     59  C   UNL A   1      44.101  29.522  32.977  1.00  0.00     0.049 A 
ATOM     60  C   UNL A   1      43.911  25.522  29.066  1.00  0.00     0.074 A 
ATOM     61  C   UNL A   1      45.186  29.507  33.835  1.00  0.00     0.029 A 
ATOM     62  N   UNL A   1      44.254  28.443  32.120  1.00  0.00    -0.354 N 
ATOM     63  N   UNL A   1      44.066  26.355  30.066  1.00  0.00    -0.248 NA
ATOM     64  C   UNL A   1      45.017  24.568  28.901  1.00  0.00     0.031 C 
ATOM     65  C   UNL A   1      45.997  28.418  33.494  1.00  0.00     0.029 A 
ATOM     66  C   UNL A   1      45.416  27.757  32.424  1.00  0.00     0.049 A 
ATOM     67  H   UNL A   1      43.627  28.201  31.401  1.00  0.00     0.167 HD
ATOM     68  C   UNL A   1      45.274  26.013  30.665  1.00  0.00     0.074 A 
ATOM     69  C   UNL A   1      45.798  24.881  29.928  1.00  0.00     0.031 C 
ATOM     70  C   UNL A   1      45.900  26.598  31.717  1.00  0.00     0.034 A 
BRANCH  57  71
ATOM     71  C   UNL A   1      43.008  31.612  33.892  1.00  0.00     0.023 A 
ATOM     72  C   UNL A   1      43.631  32.816  33.506  1.00  0.00     0.012 A 
ATOM     73  C   UNL A   1      42.381  31.532  35.149  1.00  0.00     0.148 A 
ATOM     74  C   UNL A   1      43.661  33.910  34.368  1.00  0.00     0.002 A 
ATOM     75  C   UNL A   1      42.384  32.641  35.991  1.00  0.00     0.091 A 
ATOM     76  F   UNL A   1      41.819  30.372  35.517  1.00  0.00    -0.205 F 
ATOM     77  C   UNL A   1      43.031  33.826  35.607  1.00  0.00     0.022 A 
BRANCH  75  78
ATOM     78  S   UNL A   1      41.535  32.626  37.575  1.00  0.00     0.127 S 
ATOM     79  O   UNL A   1      41.936  33.912  38.141  1.00  0.00    -0.237 OA
ATOM     80  O   UNL A   1      40.126  32.548  37.182  1.00  0.00    -0.237 OA
ATOM     81  O   UNL A   1      42.028  31.440  38.263  1.00  0.00    -0.744 OA
ENDBRANCH  75  78
ENDBRANCH  57  71
BRANCH  58  82
ATOM     82  C   UNL A   1      42.729  24.355  27.051  1.00  0.00     0.023 A 
ATOM     83  C   UNL A   1      43.423  24.581  25.847  1.00  0.00     0.012 A 
ATOM     84  C   UNL A   1      42.096  23.113  27.260  1.00  0.00     0.148 A 
ATOM     85  C   UNL A   1      43.477  23.594  24.862  1.00  0.00     0.002 A 
ATOM     86  C   UNL A   1      42.199  22.116  26.296  1.00  0.00     0.091 A 
ATOM     87  F   UNL A   1      41.430  22.924  28.406  1.00  0.00    -0.205 F 
ATOM     88  C   UNL A   1      42.878  22.359  25.092  1.00  0.00     0.022 A 
BRANCH  86  89
ATOM     89  S   UNL A   1      41.581  20.450  26.567  1.00  0.00     0.127 S 
ATOM     90  O   UNL A   1      40.146  20.625  26.364  1.00  0.00    -0.237 OA
ATOM     91  O   UNL A   1      42.265  19.695  25.515  1.00  0.00    -0.237 OA
ATOM     92  O   UNL A   1      41.995  20.095  27.918  1.00  0.00    -0.744 OA
ENDBRANCH  86  89
ENDBRANCH  58  82
BRANCH  70  93
ATOM     93  C   UNL A   1      47.224  26.026  32.144  1.00  0.00     0.023 A 
ATOM     94  C   UNL A   1      48.406  26.504  31.546  1.00  0.00     0.012 A 
ATOM     95  C   UNL A   1      47.309  25.085  33.188  1.00  0.00     0.148 A 
ATOM     96  C   UNL A   1      49.651  26.041  31.967  1.00  0.00     0.002 A 
ATOM     97  C   UNL A   1      48.556  24.655  33.629  1.00  0.00     0.091 A 
ATOM     98  F   UNL A   1      46.171  24.623  33.729  1.00  0.00    -0.205 F 
ATOM     99  C   UNL A   1      49.727  25.127  33.015  1.00  0.00     0.022 A 
BRANCH  97 100
ATOM    100  S   UNL A   1      48.737  23.544  35.029  1.00  0.00     0.127 S 
ATOM    101  O   UNL A   1      50.188  23.386  35.102  1.00  0.00    -0.237 OA
ATOM    102  O   UNL A   1      48.152  24.315  36.127  1.00  0.00    -0.237 OA
ATOM    103  O   UNL A   1      47.986  22.345  34.676  1.00  0.00    -0.744 OA
ENDBRANCH  97 100
ENDBRANCH  70  93
ENDBRANCH  44  45
ENDBRANCH  36  39
ENDBRANCH  34  35
ENDBRANCH  33  34
ENDBRANCH  32  33
ENDBRANCH   1  32
TORSDOF 20
ENDMDL
MODEL 3
REMARK VINA RESULT:     -10.4      3.101      8.572
REMARK SMILES Cc1ccc(S(=O)(=O)Nc2cc(C(=O)NCCCCCCNC(=O)c3ccc(-c4c5nc(c(-c6cccc(S(=O)(=O)[O-])c6F)c6ccc([nH]6)c(-c6cccc(S(=O)(=O)[O-])c6F)c6nc(c(-c7cccc(S(=O)(=O)[O-])c7F)c7ccc4[nH]7)C=C6)C=C5)cc3)cnc2N2CCCC2)c(C)c1
REMARK SMILES IDX 18 1 17 2 16 3 15 4 13 5 14 6 12 8 10 9 11 10 90 11 89 12
REMARK SMILES IDX 88 13 9 14 6 16 7 17 8 18 5 19 1 20 2 21 3 22 98 23 4 24
REMARK SMILES IDX 96 25 97 26 91 27 92 28 95 29 93 30 94 31 19 32 20 33 21 34
REMARK SMILES IDX 22 35 23 36 24 38 25 39 26 40 87 41 27 42 86 43 28 44 29 45
REMARK SMILES IDX 30 46 80 47 31 48 85 49 79 50 81 51 32 52 84 53 78 54 77 55
REMARK SMILES IDX 33 57 65 58 45 59 64 60 46 61 49 62 63 63 82 64 47 65 48 66
REMARK SMILES IDX 62 68 83 69 50 70 34 71 35 72 43 73 36 74 38 75 44 76 37 77
REMARK SMILES IDX 39 78 40 79 41 80 42 81 66 82 67 83 75 84 68 85 70 86 76 87
REMARK SMILES IDX 69 88 71 89 72 90 73 91 74 92 51 93 52 94 60 95 53 96 55 97
REMARK SMILES IDX 61 98 54 99 56 100 57 101 58 102 59 103
REMARK H PARENT 15 7 9 15 22 37 81 56 49 67
REMARK Flexibility Score: inf
ROOT
ATOM      1  C   UNL A   1      41.111  25.316  27.102  1.00  0.00     0.002 C 
ENDROOT
BRANCH   1   2
ATOM      2  C   UNL A   1      39.882  24.871  26.300  1.00  0.00     0.021 C 
BRANCH   2   3
ATOM      3  C   UNL A   1      38.902  24.043  27.131  1.00  0.00     0.116 C 
BRANCH   3   4
ATOM      4  N   UNL A   1      38.805  22.692  26.598  1.00  0.00    -0.352 N 
ATOM      5  C   UNL A   1      37.897  22.077  25.778  1.00  0.00     0.252 C 
ATOM      6  O   UNL A   1      38.099  20.899  25.482  1.00  0.00    -0.269 OA
ATOM      7  H   UNL A   1      39.539  22.103  26.885  1.00  0.00     0.163 HD
BRANCH   5   8
ATOM      8  C   UNL A   1      36.735  22.770  25.172  1.00  0.00     0.060 A 
ATOM      9  C   UNL A   1      34.721  24.070  25.181  1.00  0.00     0.092 A 
ATOM     10  C   UNL A   1      35.626  23.251  25.854  1.00  0.00     0.046 A 
ATOM     11  C   UNL A   1      34.813  24.218  23.778  1.00  0.00     0.153 A 
ATOM     12  N   UNL A   1      35.819  23.645  23.087  1.00  0.00    -0.236 NA
ATOM     13  C   UNL A   1      36.768  22.979  23.796  1.00  0.00     0.127 A 
BRANCH   9  14
ATOM     14  N   UNL A   1      33.710  24.787  25.874  1.00  0.00    -0.276 N 
ATOM     15  H   UNL A   1      33.973  25.635  26.301  1.00  0.00     0.180 HD
BRANCH  14  16
ATOM     16  S   UNL A   1      32.113  24.322  26.029  1.00  0.00     0.262 S 
ATOM     17  O   UNL A   1      31.852  24.278  27.460  1.00  0.00    -0.201 OA
ATOM     18  O   UNL A   1      32.007  23.154  25.191  1.00  0.00    -0.201 OA
BRANCH  16  19
ATOM     19  C   UNL A   1      30.979  25.548  25.366  1.00  0.00     0.090 A 
ATOM     20  C   UNL A   1      29.301  28.626  22.850  1.00  0.00     0.044 C 
ATOM     21  C   UNL A   1      29.815  27.556  23.769  1.00  0.00    -0.051 A 
ATOM     22  C   UNL A   1      29.448  26.221  23.602  1.00  0.00     0.005 A 
ATOM     23  C   UNL A   1      30.640  27.895  24.845  1.00  0.00     0.008 A 
ATOM     24  C   UNL A   1      30.008  25.224  24.412  1.00  0.00     0.023 A 
ATOM     25  C   UNL A   1      31.221  26.906  25.661  1.00  0.00    -0.030 A 
ATOM     26  C   UNL A   1      32.047  27.385  26.827  1.00  0.00     0.046 C 
ENDBRANCH  16  19
ENDBRANCH  14  16
ENDBRANCH   9  14
BRANCH  11  27
ATOM     27  N   UNL A   1      33.863  24.893  23.061  1.00  0.00    -0.355 N 
ATOM     28  C   UNL A   1      32.884  24.355  22.136  1.00  0.00     0.118 C 
ATOM     29  C   UNL A   1      33.845  26.347  23.114  1.00  0.00     0.118 C 
ATOM     30  C   UNL A   1      32.714  25.513  21.155  1.00  0.00     0.023 C 
ATOM     31  C   UNL A   1      32.800  26.736  22.063  1.00  0.00     0.023 C 
ENDBRANCH  11  27
ENDBRANCH   5   8
ENDBRANCH   3   4
ENDBRANCH   2   3
ENDBRANCH   1   2
BRANCH   1  32
ATOM     32  C   UNL A   1      41.805  24.193  27.885  1.00  0.00     0.002 C 
BRANCH  32  33
ATOM     33  C   UNL A   1      42.520  23.143  27.029  1.00  0.00     0.021 C 
BRANCH  33  34
ATOM     34  C   UNL A   1      43.624  22.371  27.749  1.00  0.00     0.116 C 
BRANCH  34  35
ATOM     35  N   UNL A   1      44.818  22.241  26.927  1.00  0.00    -0.352 N 
ATOM     36  C   UNL A   1      45.605  23.223  26.379  1.00  0.00     0.251 C 
ATOM     37  H   UNL A   1      45.102  21.319  26.738  1.00  0.00     0.163 HD
ATOM     38  O   UNL A   1      46.467  22.929  25.555  1.00  0.00    -0.269 OA
BRANCH  36  39
ATOM     39  C   UNL A   1      45.408  24.635  26.771  1.00  0.00     0.039 A 
ATOM     40  C   UNL A   1      45.726  25.026  28.075  1.00  0.00     0.014 A 
ATOM     41  C   UNL A   1      44.890  25.564  25.865  1.00  0.00     0.014 A 
ATOM     42  C   UNL A   1      45.568  26.359  28.457  1.00  0.00     0.010 A 
ATOM     43  C   UNL A   1      44.781  26.904  26.231  1.00  0.00     0.010 A 
ATOM     44  C   UNL A   1      45.111  27.312  27.532  1.00  0.00    -0.014 A 
BRANCH  44  45
ATOM     45  C   UNL A   1      44.982  28.742  27.901  1.00  0.00     0.031 A 
ATOM     46  C   UNL A   1      46.170  29.658  27.813  1.00  0.00     0.074 A 
ATOM     47  C   UNL A   1      43.821  29.189  28.417  1.00  0.00     0.049 A 
ATOM     48  N   UNL A   1      46.261  30.920  28.144  1.00  0.00    -0.248 NA
ATOM     49  C   UNL A   1      47.425  29.074  27.313  1.00  0.00     0.031 C 
ATOM     50  C   UNL A   1      42.628  28.371  28.641  1.00  0.00     0.029 A 
ATOM     51  N   UNL A   1      43.467  30.431  28.879  1.00  0.00    -0.354 N 
ATOM     52  C   UNL A   1      47.588  31.271  27.931  1.00  0.00     0.074 A 
ATOM     53  C   UNL A   1      48.271  30.082  27.465  1.00  0.00     0.031 C 
ATOM     54  C   UNL A   1      41.678  29.129  29.211  1.00  0.00     0.029 A 
ATOM     55  C   UNL A   1      42.196  30.481  29.403  1.00  0.00     0.049 A 
ATOM     56  H   UNL A   1      44.065  31.212  28.839  1.00  0.00     0.167 HD
ATOM     57  C   UNL A   1      48.179  32.481  28.077  1.00  0.00     0.034 A 
ATOM     58  C   UNL A   1      41.525  31.500  29.974  1.00  0.00     0.034 A 
ATOM     59  C   UNL A   1      47.485  33.673  28.482  1.00  0.00     0.049 A 
ATOM     60  C   UNL A   1      42.176  32.854  30.051  1.00  0.00     0.074 A 
ATOM     61  C   UNL A   1      47.964  34.969  28.547  1.00  0.00     0.029 A 
ATOM     62  N   UNL A   1      46.161  33.715  28.891  1.00  0.00    -0.354 N 
ATOM     63  N   UNL A   1      43.375  33.213  29.664  1.00  0.00    -0.248 NA
ATOM     64  C   UNL A   1      41.368  33.952  30.602  1.00  0.00     0.031 C 
ATOM     65  C   UNL A   1      46.928  35.795  28.999  1.00  0.00     0.029 A 
ATOM     66  C   UNL A   1      45.806  35.012  29.215  1.00  0.00     0.049 A 
ATOM     67  H   UNL A   1      45.563  32.936  28.944  1.00  0.00     0.167 HD
ATOM     68  C   UNL A   1      43.461  34.580  29.901  1.00  0.00     0.074 A 
ATOM     69  C   UNL A   1      42.182  34.989  30.445  1.00  0.00     0.031 C 
ATOM     70  C   UNL A   1      44.511  35.415  29.705  1.00  0.00     0.034 A 
BRANCH  57  71
ATOM     71  C   UNL A   1      49.638  32.584  27.719  1.00  0.00     0.023 A 
ATOM     72  C   UNL A   1      50.606  32.204  28.670  1.00  0.00     0.012 A 
ATOM     73  C   UNL A   1      50.053  33.023  26.448  1.00  0.00     0.148 A 
ATOM     74  C   UNL A   1      51.965  32.293  28.375  1.00  0.00     0.002 A 
ATOM     75  C   UNL A   1      51.411  33.076  26.149  1.00  0.00     0.091 A 
ATOM     76  F   UNL A   1      49.122  33.410  25.563  1.00  0.00    -0.205 F 
ATOM     77  C   UNL A   1      52.368  32.721  27.112  1.00  0.00     0.022 A 
BRANCH  75  78
ATOM     78  S   UNL A   1      52.000  33.554  24.520  1.00  0.00     0.127 S 
ATOM     79  O   UNL A   1      51.161  34.713  24.227  1.00  0.00    -0.237 OA
ATOM     80  O   UNL A   1      53.408  33.871  24.769  1.00  0.00    -0.237 OA
ATOM     81  O   UNL A   1      51.793  32.383  23.678  1.00  0.00    -0.744 OA
ENDBRANCH  75  78
ENDBRANCH  57  71
BRANCH  58  82
ATOM     82  C   UNL A   1      40.123  31.283  30.425  1.00  0.00     0.023 A 
ATOM     83  C   UNL A   1      39.076  31.410  29.492  1.00  0.00     0.012 A 
ATOM     84  C   UNL A   1      39.828  30.870  31.740  1.00  0.00     0.148 A 
ATOM     85  C   UNL A   1      37.757  31.144  29.864  1.00  0.00     0.002 A 
ATOM     86  C   UNL A   1      38.519  30.557  32.088  1.00  0.00     0.091 A 
ATOM     87  F   UNL A   1      40.838  30.769  32.615  1.00  0.00    -0.205 F 
ATOM     88  C   UNL A   1      37.481  30.705  31.155  1.00  0.00     0.022 A 
BRANCH  86  89
ATOM     89  S   UNL A   1      38.092  29.849  33.684  1.00  0.00     0.127 S 
ATOM     90  O   UNL A   1      39.398  29.433  34.187  1.00  0.00    -0.237 OA
ATOM     91  O   UNL A   1      37.501  30.995  34.378  1.00  0.00    -0.237 OA
ATOM     92  O   UNL A   1      37.149  28.777  33.396  1.00  0.00    -0.744 OA
ENDBRANCH  86  89
ENDBRANCH  58  82
BRANCH  70  93
ATOM     93  C   UNL A   1      44.328  36.862  30.075  1.00  0.00     0.023 A 
ATOM     94  C   UNL A   1      44.694  37.294  31.364  1.00  0.00     0.012 A 
ATOM     95  C   UNL A   1      43.881  37.805  29.129  1.00  0.00     0.148 A 
ATOM     96  C   UNL A   1      44.598  38.640  31.715  1.00  0.00     0.002 A 
ATOM     97  C   UNL A   1      43.823  39.151  29.473  1.00  0.00     0.091 A 
ATOM     98  F   UNL A   1      43.514  37.371  27.914  1.00  0.00    -0.205 F 
ATOM     99  C   UNL A   1      44.174  39.570  30.767  1.00  0.00     0.022 A 
BRANCH  97 100
ATOM    100  S   UNL A   1      43.368  40.417  28.282  1.00  0.00     0.127 S 
ATOM    101  O   UNL A   1      43.595  41.643  29.044  1.00  0.00    -0.237 OA
ATOM    102  O   UNL A   1      44.321  40.190  27.195  1.00  0.00    -0.237 OA
ATOM    103  O   UNL A   1      41.982  40.139  27.928  1.00  0.00    -0.744 OA
ENDBRANCH  97 100
ENDBRANCH  70  93
ENDBRANCH  44  45
ENDBRANCH  36  39
ENDBRANCH  34  35
ENDBRANCH  33  34
ENDBRANCH  32  33
ENDBRANCH   1  32
TORSDOF 20
ENDMDL
