MODEL 1
REMARK VINA RESULT:     -12.0      0.000      0.000
REMARK SMILES O=C(C[C@H](Cc1ccc(Cl)cc1)C(=O)Nc1cc(Cl)ccc1Cl)NCCCCCCNC(=O)c1ccc(-c2c3nc(c(-c4cccc(S(=O)(=O)[O-])c4F)c4ccc([nH]4)c(-c4cccc(S(=O)(=O)[O-])c4F)c4nc(c(-c5cccc(S(=O)(=O)[O-])c5F)c5ccc2[nH]5)C=C4)C=C3)cc1
REMARK SMILES IDX 27 1 26 2 25 3 24 4 1 5 2 6 3 8 4 9 13 10 14 11 15 12 16 14
REMARK SMILES IDX 17 15 22 16 18 17 21 18 23 19 19 20 20 21 5 22 6 23 7 24
REMARK SMILES IDX 12 25 8 26 11 27 9 28 10 29 28 30 29 31 30 32 31 33 32 34
REMARK SMILES IDX 33 36 34 37 35 38 96 39 36 40 95 41 37 42 38 43 39 44 89 45
REMARK SMILES IDX 40 46 94 47 88 48 90 49 41 50 93 51 87 52 86 53 42 55 74 56
REMARK SMILES IDX 54 57 73 58 55 59 58 60 72 61 91 62 56 63 57 64 71 66 92 67
REMARK SMILES IDX 59 68 43 69 44 70 52 71 45 72 47 73 53 74 46 75 48 76 49 77
REMARK SMILES IDX 50 78 51 79 75 80 76 81 84 82 77 83 79 84 85 85 78 86 80 87
REMARK SMILES IDX 81 88 82 89 83 90 60 91 61 92 69 93 62 94 64 95 70 96 63 97
REMARK SMILES IDX 65 98 66 99 67 100 68 101
REMARK H PARENT 24 7 15 13 31 35 90 54 58 65
REMARK Flexibility Score: inf
ROOT
ATOM      1  C   UNL A   1      34.995  22.811  26.397  1.00  0.00     0.002 C 
ENDROOT
BRANCH   1   2
ATOM      2  C   UNL A   1      34.381  22.562  27.782  1.00  0.00     0.021 C 
BRANCH   2   3
ATOM      3  C   UNL A   1      32.896  22.203  27.760  1.00  0.00     0.116 C 
BRANCH   3   4
ATOM      4  N   UNL A   1      32.308  22.500  26.469  1.00  0.00    -0.356 N 
ATOM      5  O   UNL A   1      30.513  23.709  27.252  1.00  0.00    -0.275 OA
ATOM      6  C   UNL A   1      31.136  23.202  26.326  1.00  0.00     0.220 C 
ATOM      7  H   UNL A   1      32.768  22.184  25.659  1.00  0.00     0.163 HD
BRANCH   6   8
ATOM      8  C   UNL A   1      30.655  23.298  24.898  1.00  0.00     0.113 C 
BRANCH   8   9
ATOM      9  C   UNL A   1      31.196  24.506  24.113  1.00  0.00     0.092 C 
BRANCH   9  10
ATOM     10  C   UNL A   1      32.672  24.208  23.679  1.00  0.00     0.228 C 
ATOM     11  O   UNL A   1      32.967  23.061  23.321  1.00  0.00    -0.274 OA
ATOM     12  N   UNL A   1      33.624  25.190  23.493  1.00  0.00    -0.324 N 
ATOM     13  H   UNL A   1      34.230  25.092  22.724  1.00  0.00     0.169 HD
BRANCH  12  14
ATOM     14  C   UNL A   1      33.801  26.323  24.314  1.00  0.00     0.061 A 
ATOM     15  C   UNL A   1      33.115  26.160  25.953  1.00  0.00     0.048 A 
ATOM     16  C   UNL A   1      33.851  27.923  23.590  1.00  0.00     0.064 A 
ATOM     17  C   UNL A   1      32.298  27.786  26.845  1.00  0.00     0.043 A 
ATOM     18  C   UNL A   1      33.191  29.378  24.366  1.00  0.00     0.024 A 
ATOM     19  Cl  UNL A   1      34.403  28.075  21.959  1.00  0.00    -0.082 Cl
ATOM     20  Cl  UNL A   1      31.392  28.201  28.370  1.00  0.00    -0.084 Cl
ATOM     21  C   UNL A   1      32.410  29.357  25.950  1.00  0.00     0.022 A 
ENDBRANCH  12  14
ENDBRANCH   9  10
BRANCH   9  22
ATOM     22  C   UNL A   1      30.195  25.254  23.171  1.00  0.00     0.049 C 
BRANCH  22  23
ATOM     23  C   UNL A   1      29.856  26.697  23.496  1.00  0.00    -0.047 A 
ATOM     24  C   UNL A   1      30.757  27.938  22.604  1.00  0.00     0.005 A 
ATOM     25  C   UNL A   1      28.133  27.011  23.876  1.00  0.00     0.005 A 
ATOM     26  C   UNL A   1      30.010  29.446  21.999  1.00  0.00     0.021 A 
ATOM     27  C   UNL A   1      27.277  28.690  23.140  1.00  0.00     0.021 A 
ATOM     28  C   UNL A   1      28.314  29.844  22.239  1.00  0.00     0.041 A 
ATOM     29  Cl  UNL A   1      27.653  31.289  21.603  1.00  0.00    -0.084 Cl
ENDBRANCH  22  23
ENDBRANCH   9  22
ENDBRANCH   8   9
ENDBRANCH   6   8
ENDBRANCH   3   4
ENDBRANCH   2   3
ENDBRANCH   1   2
BRANCH   1  30
ATOM     30  C   UNL A   1      35.412  21.555  25.627  1.00  0.00     0.002 C 
BRANCH  30  31
ATOM     31  C   UNL A   1      36.360  21.797  24.451  1.00  0.00     0.021 C 
BRANCH  31  32
ATOM     32  C   UNL A   1      37.772  22.230  24.836  1.00  0.00     0.116 C 
BRANCH  32  33
ATOM     33  N   UNL A   1      38.470  21.223  25.620  1.00  0.00    -0.352 N 
ATOM     34  C   UNL A   1      39.519  21.378  26.492  1.00  0.00     0.251 C 
ATOM     35  H   UNL A   1      38.144  20.300  25.510  1.00  0.00     0.163 HD
ATOM     36  O   UNL A   1      40.080  20.387  26.952  1.00  0.00    -0.269 OA
BRANCH  34  37
ATOM     37  C   UNL A   1      39.988  22.734  26.859  1.00  0.00     0.039 A 
ATOM     38  C   UNL A   1      40.955  22.864  27.859  1.00  0.00     0.014 A 
ATOM     39  C   UNL A   1      39.464  23.872  26.239  1.00  0.00     0.014 A 
ATOM     40  C   UNL A   1      41.429  24.133  28.207  1.00  0.00     0.010 A 
ATOM     41  C   UNL A   1      39.985  25.129  26.539  1.00  0.00     0.010 A 
ATOM     42  C   UNL A   1      40.962  25.275  27.536  1.00  0.00    -0.014 A 
BRANCH  42  43
ATOM     43  C   UNL A   1      41.462  26.631  27.880  1.00  0.00     0.031 A 
ATOM     44  C   UNL A   1      42.889  27.006  27.579  1.00  0.00     0.074 A 
ATOM     45  C   UNL A   1      40.658  27.498  28.528  1.00  0.00     0.049 A 
ATOM     46  N   UNL A   1      43.531  28.111  27.863  1.00  0.00    -0.248 NA
ATOM     47  C   UNL A   1      43.713  25.997  26.892  1.00  0.00     0.031 C 
ATOM     48  C   UNL A   1      39.281  27.228  28.945  1.00  0.00     0.029 A 
ATOM     49  N   UNL A   1      40.895  28.776  28.972  1.00  0.00    -0.354 N 
ATOM     50  C   UNL A   1      44.833  27.921  27.417  1.00  0.00     0.074 A 
ATOM     51  C   UNL A   1      44.903  26.579  26.880  1.00  0.00     0.031 C 
ATOM     52  C   UNL A   1      38.798  28.303  29.592  1.00  0.00     0.029 A 
ATOM     53  C   UNL A   1      39.833  29.331  29.650  1.00  0.00     0.049 A 
ATOM     54  H   UNL A   1      41.744  29.250  28.822  1.00  0.00     0.167 HD
ATOM     55  C   UNL A   1      45.868  28.794  27.415  1.00  0.00     0.034 A 
ATOM     56  C   UNL A   1      39.710  30.531  30.249  1.00  0.00     0.034 A 
ATOM     57  C   UNL A   1      45.784  30.143  27.904  1.00  0.00     0.049 A 
ATOM     58  C   UNL A   1      40.855  31.506  30.174  1.00  0.00     0.074 A 
ATOM     59  C   UNL A   1      46.764  31.121  27.911  1.00  0.00     0.029 A 
ATOM     60  N   UNL A   1      44.650  30.712  28.463  1.00  0.00    -0.354 N 
ATOM     61  N   UNL A   1      42.036  31.352  29.626  1.00  0.00    -0.248 NA
ATOM     62  C   UNL A   1      40.634  32.840  30.753  1.00  0.00     0.031 C 
ATOM     63  C   UNL A   1      46.218  32.284  28.468  1.00  0.00     0.029 A 
ATOM     64  C   UNL A   1      44.897  32.031  28.796  1.00  0.00     0.049 A 
ATOM     65  H   UNL A   1      43.794  30.244  28.601  1.00  0.00     0.167 HD
ATOM     66  C   UNL A   1      42.679  32.577  29.753  1.00  0.00     0.074 A 
ATOM     67  C   UNL A   1      41.748  33.471  30.412  1.00  0.00     0.031 C 
ATOM     68  C   UNL A   1      43.933  32.929  29.377  1.00  0.00     0.034 A 
BRANCH  55  69
ATOM     69  C   UNL A   1      47.162  28.344  26.788  1.00  0.00     0.023 A 
ATOM     70  C   UNL A   1      48.259  28.046  27.623  1.00  0.00     0.012 A 
ATOM     71  C   UNL A   1      47.280  28.152  25.398  1.00  0.00     0.148 A 
ATOM     72  C   UNL A   1      49.462  27.595  27.084  1.00  0.00     0.002 A 
ATOM     73  C   UNL A   1      48.470  27.662  24.871  1.00  0.00     0.091 A 
ATOM     74  F   UNL A   1      46.233  28.457  24.619  1.00  0.00    -0.205 F 
ATOM     75  C   UNL A   1      49.565  27.393  25.711  1.00  0.00     0.022 A 
BRANCH  73  76
ATOM     76  S   UNL A   1      48.684  27.294  23.126  1.00  0.00     0.127 S 
ATOM     77  O   UNL A   1      48.278  25.890  23.068  1.00  0.00    -0.237 OA
ATOM     78  O   UNL A   1      47.746  28.225  22.498  1.00  0.00    -0.237 OA
ATOM     79  O   UNL A   1      50.086  27.550  22.829  1.00  0.00    -0.744 OA
ENDBRANCH  73  76
ENDBRANCH  55  69
BRANCH  56  80
ATOM     80  C   UNL A   1      38.427  30.912  30.908  1.00  0.00     0.023 A 
ATOM     81  C   UNL A   1      38.237  30.617  32.273  1.00  0.00     0.012 A 
ATOM     82  C   UNL A   1      37.402  31.567  30.200  1.00  0.00     0.148 A 
ATOM     83  C   UNL A   1      37.033  30.928  32.908  1.00  0.00     0.002 A 
ATOM     84  C   UNL A   1      36.227  31.923  30.852  1.00  0.00     0.091 A 
ATOM     85  F   UNL A   1      37.593  31.827  28.898  1.00  0.00    -0.205 F 
ATOM     86  C   UNL A   1      36.032  31.588  32.201  1.00  0.00     0.022 A 
BRANCH  84  87
ATOM     87  S   UNL A   1      34.950  32.894  30.044  1.00  0.00     0.127 S 
ATOM     88  O   UNL A   1      34.447  31.956  29.043  1.00  0.00    -0.237 OA
ATOM     89  O   UNL A   1      34.028  33.172  31.146  1.00  0.00    -0.237 OA
ATOM     90  O   UNL A   1      35.634  34.074  29.531  1.00  0.00    -0.744 OA
ENDBRANCH  84  87
ENDBRANCH  56  80
BRANCH  68  91
ATOM     91  C   UNL A   1      44.361  34.354  29.609  1.00  0.00     0.023 A 
ATOM     92  C   UNL A   1      44.908  34.728  30.852  1.00  0.00     0.012 A 
ATOM     93  C   UNL A   1      44.283  35.303  28.572  1.00  0.00     0.148 A 
ATOM     94  C   UNL A   1      45.341  36.036  31.070  1.00  0.00     0.002 A 
ATOM     95  C   UNL A   1      44.759  36.593  28.781  1.00  0.00     0.091 A 
ATOM     96  F   UNL A   1      43.739  34.934  27.403  1.00  0.00    -0.205 F 
ATOM     97  C   UNL A   1      45.277  36.963  30.033  1.00  0.00     0.022 A 
BRANCH  95  98
ATOM     98  S   UNL A   1      44.799  37.821  27.470  1.00  0.00     0.127 S 
ATOM     99  O   UNL A   1      43.403  37.840  27.037  1.00  0.00    -0.237 OA
ATOM    100  O   UNL A   1      45.233  39.024  28.180  1.00  0.00    -0.237 OA
ATOM    101  O   UNL A   1      45.756  37.323  26.492  1.00  0.00    -0.744 OA
ENDBRANCH  95  98
ENDBRANCH  68  91
ENDBRANCH  42  43
ENDBRANCH  34  37
ENDBRANCH  32  33
ENDBRANCH  31  32
ENDBRANCH  30  31
ENDBRANCH   1  30
TORSDOF 21
ENDMDL
MODEL 2
REMARK VINA RESULT:     -11.9      2.727      4.133
REMARK SMILES O=C(C[C@H](Cc1ccc(Cl)cc1)C(=O)Nc1cc(Cl)ccc1Cl)NCCCCCCNC(=O)c1ccc(-c2c3nc(c(-c4cccc(S(=O)(=O)[O-])c4F)c4ccc([nH]4)c(-c4cccc(S(=O)(=O)[O-])c4F)c4nc(c(-c5cccc(S(=O)(=O)[O-])c5F)c5ccc2[nH]5)C=C4)C=C3)cc1
REMARK SMILES IDX 27 1 26 2 25 3 24 4 1 5 2 6 3 8 4 9 13 10 14 11 15 12 16 14
REMARK SMILES IDX 17 15 22 16 18 17 21 18 23 19 19 20 20 21 5 22 6 23 7 24
REMARK SMILES IDX 12 25 8 26 11 27 9 28 10 29 28 30 29 31 30 32 31 33 32 34
REMARK SMILES IDX 33 36 34 37 35 38 96 39 36 40 95 41 37 42 38 43 39 44 89 45
REMARK SMILES IDX 40 46 94 47 88 48 90 49 41 50 93 51 87 52 86 53 42 55 74 56
REMARK SMILES IDX 54 57 73 58 55 59 58 60 72 61 91 62 56 63 57 64 71 66 92 67
REMARK SMILES IDX 59 68 43 69 44 70 52 71 45 72 47 73 53 74 46 75 48 76 49 77
REMARK SMILES IDX 50 78 51 79 75 80 76 81 84 82 77 83 79 84 85 85 78 86 80 87
REMARK SMILES IDX 81 88 82 89 83 90 60 91 61 92 69 93 62 94 64 95 70 96 63 97
REMARK SMILES IDX 65 98 66 99 67 100 68 101
REMARK H PARENT 24 7 15 13 31 35 90 54 58 65
REMARK Flexibility Score: inf
ROOT
ATOM      1  C   UNL A   1      34.251  22.914  27.680  1.00  0.00     0.002 C 
ENDROOT
BRANCH   1   2
ATOM      2  C   UNL A   1      32.941  22.153  27.432  1.00  0.00     0.021 C 
BRANCH   2   3
ATOM      3  C   UNL A   1      31.716  23.048  27.246  1.00  0.00     0.116 C 
BRANCH   3   4
ATOM      4  N   UNL A   1      31.410  23.226  25.841  1.00  0.00    -0.356 N 
ATOM      5  O   UNL A   1      32.790  25.031  25.481  1.00  0.00    -0.275 OA
ATOM      6  C   UNL A   1      31.949  24.234  25.081  1.00  0.00     0.220 C 
ATOM      7  H   UNL A   1      30.786  22.596  25.412  1.00  0.00     0.163 HD
BRANCH   6   8
ATOM      8  C   UNL A   1      31.405  24.293  23.674  1.00  0.00     0.113 C 
BRANCH   8   9
ATOM      9  C   UNL A   1      32.472  24.263  22.566  1.00  0.00     0.092 C 
BRANCH   9  10
ATOM     10  C   UNL A   1      33.516  25.400  22.837  1.00  0.00     0.228 C 
ATOM     11  O   UNL A   1      34.715  25.103  22.907  1.00  0.00    -0.274 OA
ATOM     12  N   UNL A   1      33.199  26.744  22.821  1.00  0.00    -0.324 N 
ATOM     13  H   UNL A   1      33.847  27.355  22.403  1.00  0.00     0.169 HD
BRANCH  12  14
ATOM     14  C   UNL A   1      32.024  27.313  23.354  1.00  0.00     0.061 A 
ATOM     15  C   UNL A   1      30.721  27.564  22.162  1.00  0.00     0.048 A 
ATOM     16  C   UNL A   1      32.133  28.423  24.711  1.00  0.00     0.064 A 
ATOM     17  C   UNL A   1      29.520  29.187  22.341  1.00  0.00     0.043 A 
ATOM     18  C   UNL A   1      31.064  29.826  24.927  1.00  0.00     0.024 A 
ATOM     19  Cl  UNL A   1      33.461  28.262  25.806  1.00  0.00    -0.082 Cl
ATOM     20  Cl  UNL A   1      28.170  30.000  21.427  1.00  0.00    -0.084 Cl
ATOM     21  C   UNL A   1      29.783  30.247  23.787  1.00  0.00     0.022 A 
ENDBRANCH  12  14
ENDBRANCH   9  10
BRANCH   9  22
ATOM     22  C   UNL A   1      32.906  22.858  22.027  1.00  0.00     0.049 C 
BRANCH  22  23
ATOM     23  C   UNL A   1      32.547  21.638  22.853  1.00  0.00    -0.047 A 
ATOM     24  C   UNL A   1      31.807  20.283  21.980  1.00  0.00     0.005 A 
ATOM     25  C   UNL A   1      33.675  21.265  24.195  1.00  0.00     0.005 A 
ATOM     26  C   UNL A   1      32.194  18.571  22.319  1.00  0.00     0.021 A 
ATOM     27  C   UNL A   1      34.155  19.330  24.538  1.00  0.00     0.021 A 
ATOM     28  C   UNL A   1      33.337  18.068  23.557  1.00  0.00     0.041 A 
ATOM     29  Cl  UNL A   1      33.690  16.413  23.808  1.00  0.00    -0.084 Cl
ENDBRANCH  22  23
ENDBRANCH   9  22
ENDBRANCH   8   9
ENDBRANCH   6   8
ENDBRANCH   3   4
ENDBRANCH   2   3
ENDBRANCH   1   2
BRANCH   1  30
ATOM     30  C   UNL A   1      35.369  22.646  26.670  1.00  0.00     0.002 C 
BRANCH  30  31
ATOM     31  C   UNL A   1      35.852  23.871  25.892  1.00  0.00     0.021 C 
BRANCH  31  32
ATOM     32  C   UNL A   1      37.091  23.642  25.030  1.00  0.00     0.116 C 
BRANCH  32  33
ATOM     33  N   UNL A   1      37.943  22.583  25.547  1.00  0.00    -0.352 N 
ATOM     34  C   UNL A   1      39.099  22.684  26.282  1.00  0.00     0.251 C 
ATOM     35  H   UNL A   1      37.650  21.666  25.343  1.00  0.00     0.163 HD
ATOM     36  O   UNL A   1      39.768  21.678  26.504  1.00  0.00    -0.269 OA
BRANCH  34  37
ATOM     37  C   UNL A   1      39.549  24.001  26.785  1.00  0.00     0.039 A 
ATOM     38  C   UNL A   1      40.236  24.856  25.917  1.00  0.00     0.014 A 
ATOM     39  C   UNL A   1      39.318  24.387  28.108  1.00  0.00     0.014 A 
ATOM     40  C   UNL A   1      40.651  26.113  26.364  1.00  0.00     0.010 A 
ATOM     41  C   UNL A   1      39.672  25.666  28.532  1.00  0.00     0.010 A 
ATOM     42  C   UNL A   1      40.355  26.538  27.670  1.00  0.00    -0.014 A 
BRANCH  42  43
ATOM     43  C   UNL A   1      40.775  27.876  28.160  1.00  0.00     0.031 A 
ATOM     44  C   UNL A   1      42.239  28.224  28.236  1.00  0.00     0.074 A 
ATOM     45  C   UNL A   1      39.850  28.749  28.606  1.00  0.00     0.049 A 
ATOM     46  N   UNL A   1      42.807  29.309  28.697  1.00  0.00    -0.248 NA
ATOM     47  C   UNL A   1      43.192  27.210  27.754  1.00  0.00     0.031 C 
ATOM     48  C   UNL A   1      38.408  28.501  28.658  1.00  0.00     0.029 A 
ATOM     49  N   UNL A   1      39.989  30.012  29.126  1.00  0.00    -0.354 N 
ATOM     50  C   UNL A   1      44.176  29.098  28.588  1.00  0.00     0.074 A 
ATOM     51  C   UNL A   1      44.357  27.766  28.054  1.00  0.00     0.031 C 
ATOM     52  C   UNL A   1      37.796  29.575  29.188  1.00  0.00     0.029 A 
ATOM     53  C   UNL A   1      38.801  30.578  29.528  1.00  0.00     0.049 A 
ATOM     54  H   UNL A   1      40.857  30.470  29.205  1.00  0.00     0.167 HD
ATOM     55  C   UNL A   1      45.193  29.948  28.866  1.00  0.00     0.034 A 
ATOM     56  C   UNL A   1      38.551  31.769  30.106  1.00  0.00     0.034 A 
ATOM     57  C   UNL A   1      45.011  31.290  29.350  1.00  0.00     0.049 A 
ATOM     58  C   UNL A   1      39.695  32.720  30.343  1.00  0.00     0.074 A 
ATOM     59  C   UNL A   1      45.975  32.245  29.625  1.00  0.00     0.029 A 
ATOM     60  N   UNL A   1      43.783  31.873  29.620  1.00  0.00    -0.354 N 
ATOM     61  N   UNL A   1      40.973  32.549  30.105  1.00  0.00    -0.248 NA
ATOM     62  C   UNL A   1      39.357  34.047  30.879  1.00  0.00     0.031 C 
ATOM     63  C   UNL A   1      45.327  33.409  30.055  1.00  0.00     0.029 A 
ATOM     64  C   UNL A   1      43.961  33.180  30.036  1.00  0.00     0.049 A 
ATOM     65  H   UNL A   1      42.913  31.422  29.528  1.00  0.00     0.167 HD
ATOM     66  C   UNL A   1      41.583  33.758  30.418  1.00  0.00     0.074 A 
ATOM     67  C   UNL A   1      40.533  34.660  30.844  1.00  0.00     0.031 C 
ATOM     68  C   UNL A   1      42.898  34.088  30.377  1.00  0.00     0.034 A 
BRANCH  55  69
ATOM     69  C   UNL A   1      46.595  29.481  28.573  1.00  0.00     0.023 A 
ATOM     70  C   UNL A   1      47.179  29.806  27.331  1.00  0.00     0.012 A 
ATOM     71  C   UNL A   1      47.356  28.787  29.533  1.00  0.00     0.148 A 
ATOM     72  C   UNL A   1      48.485  29.421  27.035  1.00  0.00     0.002 A 
ATOM     73  C   UNL A   1      48.673  28.443  29.247  1.00  0.00     0.091 A 
ATOM     74  F   UNL A   1      46.780  28.471  30.701  1.00  0.00    -0.205 F 
ATOM     75  C   UNL A   1      49.235  28.750  27.995  1.00  0.00     0.022 A 
BRANCH  73  76
ATOM     76  S   UNL A   1      49.752  27.643  30.440  1.00  0.00     0.127 S 
ATOM     77  O   UNL A   1      49.823  28.651  31.497  1.00  0.00    -0.237 OA
ATOM     78  O   UNL A   1      48.988  26.445  30.792  1.00  0.00    -0.237 OA
ATOM     79  O   UNL A   1      51.003  27.383  29.742  1.00  0.00    -0.744 OA
ENDBRANCH  73  76
ENDBRANCH  55  69
BRANCH  56  80
ATOM     80  C   UNL A   1      37.151  32.166  30.430  1.00  0.00     0.023 A 
ATOM     81  C   UNL A   1      36.642  31.914  31.720  1.00  0.00     0.012 A 
ATOM     82  C   UNL A   1      36.324  32.794  29.480  1.00  0.00     0.148 A 
ATOM     83  C   UNL A   1      35.324  32.241  32.043  1.00  0.00     0.002 A 
ATOM     84  C   UNL A   1      35.030  33.167  29.824  1.00  0.00     0.091 A 
ATOM     85  F   UNL A   1      36.818  33.013  28.253  1.00  0.00    -0.205 F 
ATOM     86  C   UNL A   1      34.521  32.874  31.099  1.00  0.00     0.022 A 
BRANCH  84  87
ATOM     87  S   UNL A   1      33.984  34.107  28.707  1.00  0.00     0.127 S 
ATOM     88  O   UNL A   1      33.610  33.096  27.723  1.00  0.00    -0.237 OA
ATOM     89  O   UNL A   1      32.899  34.540  29.589  1.00  0.00    -0.237 OA
ATOM     90  O   UNL A   1      34.823  35.195  28.223  1.00  0.00    -0.744 OA
ENDBRANCH  84  87
ENDBRANCH  56  80
BRANCH  68  91
ATOM     91  C   UNL A   1      43.277  35.498  30.743  1.00  0.00     0.023 A 
ATOM     92  C   UNL A   1      43.669  35.800  32.061  1.00  0.00     0.012 A 
ATOM     93  C   UNL A   1      43.311  36.509  29.762  1.00  0.00     0.148 A 
ATOM     94  C   UNL A   1      44.057  37.094  32.407  1.00  0.00     0.002 A 
ATOM     95  C   UNL A   1      43.743  37.785  30.103  1.00  0.00     0.091 A 
ATOM     96  F   UNL A   1      42.913  36.208  28.517  1.00  0.00    -0.205 F 
ATOM     97  C   UNL A   1      44.105  38.082  31.427  1.00  0.00     0.022 A 
BRANCH  95  98
ATOM     98  S   UNL A   1      43.922  39.091  28.881  1.00  0.00     0.127 S 
ATOM     99  O   UNL A   1      44.787  38.455  27.890  1.00  0.00    -0.237 OA
ATOM    100  O   UNL A   1      42.542  39.300  28.441  1.00  0.00    -0.237 OA
ATOM    101  O   UNL A   1      44.503  40.221  29.593  1.00  0.00    -0.744 OA
ENDBRANCH  95  98
ENDBRANCH  68  91
ENDBRANCH  42  43
ENDBRANCH  34  37
ENDBRANCH  32  33
ENDBRANCH  31  32
ENDBRANCH  30  31
ENDBRANCH   1  30
TORSDOF 21
ENDMDL
MODEL 3
REMARK VINA RESULT:     -11.8      5.897     10.432
REMARK SMILES O=C(C[C@H](Cc1ccc(Cl)cc1)C(=O)Nc1cc(Cl)ccc1Cl)NCCCCCCNC(=O)c1ccc(-c2c3nc(c(-c4cccc(S(=O)(=O)[O-])c4F)c4ccc([nH]4)c(-c4cccc(S(=O)(=O)[O-])c4F)c4nc(c(-c5cccc(S(=O)(=O)[O-])c5F)c5ccc2[nH]5)C=C4)C=C3)cc1
REMARK SMILES IDX 27 1 26 2 25 3 24 4 1 5 2 6 3 8 4 9 13 10 14 11 15 12 16 14
REMARK SMILES IDX 17 15 22 16 18 17 21 18 23 19 19 20 20 21 5 22 6 23 7 24
REMARK SMILES IDX 12 25 8 26 11 27 9 28 10 29 28 30 29 31 30 32 31 33 32 34
REMARK SMILES IDX 33 36 34 37 35 38 96 39 36 40 95 41 37 42 38 43 39 44 89 45
REMARK SMILES IDX 40 46 94 47 88 48 90 49 41 50 93 51 87 52 86 53 42 55 74 56
REMARK SMILES IDX 54 57 73 58 55 59 58 60 72 61 91 62 56 63 57 64 71 66 92 67
REMARK SMILES IDX 59 68 43 69 44 70 52 71 45 72 47 73 53 74 46 75 48 76 49 77
REMARK SMILES IDX 50 78 51 79 75 80 76 81 84 82 77 83 79 84 85 85 78 86 80 87
REMARK SMILES IDX 81 88 82 89 83 90 60 91 61 92 69 93 62 94 64 95 70 96 63 97
REMARK SMILES IDX 65 98 66 99 67 100 68 101
REMARK H PARENT 24 7 15 13 31 35 90 54 58 65
REMARK Flexibility Score: inf
ROOT
ATOM      1  C   UNL A   1      35.303  31.843  28.806  1.00  0.00     0.002 C 
ENDROOT
BRANCH   1   2
ATOM      2  C   UNL A   1      34.986  30.538  28.063  1.00  0.00     0.021 C 
BRANCH   2   3
ATOM      3  C   UNL A   1      33.723  30.590  27.204  1.00  0.00     0.116 C 
BRANCH   3   4
ATOM      4  N   UNL A   1      33.028  29.319  27.221  1.00  0.00    -0.356 N 
ATOM      5  O   UNL A   1      34.177  28.348  25.480  1.00  0.00    -0.275 OA
ATOM      6  C   UNL A   1      33.291  28.312  26.327  1.00  0.00     0.220 C 
ATOM      7  H   UNL A   1      32.336  29.171  27.906  1.00  0.00     0.163 HD
BRANCH   6   8
ATOM      8  C   UNL A   1      32.372  27.121  26.463  1.00  0.00     0.113 C 
BRANCH   8   9
ATOM      9  C   UNL A   1      32.842  25.854  25.727  1.00  0.00     0.092 C 
BRANCH   9  10
ATOM     10  C   UNL A   1      32.141  24.607  26.368  1.00  0.00     0.228 C 
ATOM     11  O   UNL A   1      31.267  24.790  27.224  1.00  0.00    -0.274 OA
ATOM     12  N   UNL A   1      32.309  23.318  25.904  1.00  0.00    -0.324 N 
ATOM     13  H   UNL A   1      31.511  22.741  25.875  1.00  0.00     0.169 HD
BRANCH  12  14
ATOM     14  C   UNL A   1      33.527  22.757  25.469  1.00  0.00     0.061 A 
ATOM     15  C   UNL A   1      34.889  22.985  26.598  1.00  0.00     0.048 A 
ATOM     16  C   UNL A   1      33.879  22.670  23.750  1.00  0.00     0.064 A 
ATOM     17  C   UNL A   1      36.751  23.276  25.851  1.00  0.00     0.043 A 
ATOM     18  C   UNL A   1      35.506  22.869  23.064  1.00  0.00     0.024 A 
ATOM     19  Cl  UNL A   1      32.558  22.569  22.639  1.00  0.00    -0.082 Cl
ATOM     20  Cl  UNL A   1      38.426  23.658  26.457  1.00  0.00    -0.084 Cl
ATOM     21  C   UNL A   1      36.937  23.181  24.052  1.00  0.00     0.022 A 
ENDBRANCH  12  14
ENDBRANCH   9  10
BRANCH   9  22
ATOM     22  C   UNL A   1      33.073  25.966  24.182  1.00  0.00     0.049 C 
BRANCH  22  23
ATOM     23  C   UNL A   1      31.893  26.362  23.315  1.00  0.00    -0.047 A 
ATOM     24  C   UNL A   1      30.324  25.656  23.748  1.00  0.00     0.005 A 
ATOM     25  C   UNL A   1      31.923  28.048  22.707  1.00  0.00     0.005 A 
ATOM     26  C   UNL A   1      28.788  26.569  23.683  1.00  0.00     0.021 A 
ATOM     27  C   UNL A   1      30.192  29.095  22.690  1.00  0.00     0.021 A 
ATOM     28  C   UNL A   1      28.686  28.249  23.175  1.00  0.00     0.041 A 
ATOM     29  Cl  UNL A   1      27.188  29.076  23.169  1.00  0.00    -0.084 Cl
ENDBRANCH  22  23
ENDBRANCH   9  22
ENDBRANCH   8   9
ENDBRANCH   6   8
ENDBRANCH   3   4
ENDBRANCH   2   3
ENDBRANCH   1   2
BRANCH   1  30
ATOM     30  C   UNL A   1      35.554  33.063  27.914  1.00  0.00     0.002 C 
BRANCH  30  31
ATOM     31  C   UNL A   1      34.601  34.239  28.135  1.00  0.00     0.021 C 
BRANCH  31  32
ATOM     32  C   UNL A   1      33.326  33.903  28.904  1.00  0.00     0.116 C 
BRANCH  32  33
ATOM     33  N   UNL A   1      33.024  34.879  29.939  1.00  0.00    -0.352 N 
ATOM     34  C   UNL A   1      33.602  35.038  31.174  1.00  0.00     0.251 C 
ATOM     35  H   UNL A   1      32.305  35.516  29.723  1.00  0.00     0.163 HD
ATOM     36  O   UNL A   1      33.113  35.828  31.978  1.00  0.00    -0.269 OA
BRANCH  34  37
ATOM     37  C   UNL A   1      34.797  34.247  31.544  1.00  0.00     0.039 A 
ATOM     38  C   UNL A   1      36.063  34.754  31.238  1.00  0.00     0.014 A 
ATOM     39  C   UNL A   1      34.674  33.003  32.169  1.00  0.00     0.014 A 
ATOM     40  C   UNL A   1      37.206  34.034  31.598  1.00  0.00     0.010 A 
ATOM     41  C   UNL A   1      35.814  32.319  32.587  1.00  0.00     0.010 A 
ATOM     42  C   UNL A   1      37.092  32.820  32.293  1.00  0.00    -0.014 A 
BRANCH  42  43
ATOM     43  C   UNL A   1      38.294  32.045  32.697  1.00  0.00     0.031 A 
ATOM     44  C   UNL A   1      38.996  32.366  33.991  1.00  0.00     0.074 A 
ATOM     45  C   UNL A   1      38.797  31.106  31.872  1.00  0.00     0.049 A 
ATOM     46  N   UNL A   1      40.095  31.854  34.484  1.00  0.00    -0.248 NA
ATOM     47  C   UNL A   1      38.402  33.423  34.829  1.00  0.00     0.031 C 
ATOM     48  C   UNL A   1      38.254  30.755  30.558  1.00  0.00     0.029 A 
ATOM     49  N   UNL A   1      39.895  30.292  32.006  1.00  0.00    -0.354 N 
ATOM     50  C   UNL A   1      40.337  32.538  35.668  1.00  0.00     0.074 A 
ATOM     51  C   UNL A   1      39.295  33.533  35.801  1.00  0.00     0.031 C 
ATOM     52  C   UNL A   1      39.026  29.804  30.003  1.00  0.00     0.029 A 
ATOM     53  C   UNL A   1      40.124  29.490  30.912  1.00  0.00     0.049 A 
ATOM     54  H   UNL A   1      40.465  30.285  32.808  1.00  0.00     0.167 HD
ATOM     55  C   UNL A   1      41.313  32.335  36.585  1.00  0.00     0.034 A 
ATOM     56  C   UNL A   1      41.109  28.602  30.670  1.00  0.00     0.034 A 
ATOM     57  C   UNL A   1      42.320  31.314  36.476  1.00  0.00     0.049 A 
ATOM     58  C   UNL A   1      42.143  28.350  31.735  1.00  0.00     0.074 A 
ATOM     59  C   UNL A   1      43.329  31.000  37.370  1.00  0.00     0.029 A 
ATOM     60  N   UNL A   1      42.438  30.432  35.414  1.00  0.00    -0.354 N 
ATOM     61  N   UNL A   1      42.273  28.917  32.910  1.00  0.00    -0.248 NA
ATOM     62  C   UNL A   1      43.134  27.298  31.465  1.00  0.00     0.031 C 
ATOM     63  C   UNL A   1      44.054  29.921  36.849  1.00  0.00     0.029 A 
ATOM     64  C   UNL A   1      43.488  29.559  35.638  1.00  0.00     0.049 A 
ATOM     65  H   UNL A   1      41.860  30.428  34.617  1.00  0.00     0.167 HD
ATOM     66  C   UNL A   1      43.328  28.263  33.534  1.00  0.00     0.074 A 
ATOM     67  C   UNL A   1      43.789  27.241  32.616  1.00  0.00     0.031 C 
ATOM     68  C   UNL A   1      43.881  28.497  34.750  1.00  0.00     0.034 A 
BRANCH  55  69
ATOM     69  C   UNL A   1      41.289  33.181  37.831  1.00  0.00     0.023 A 
ATOM     70  C   UNL A   1      40.508  32.761  38.928  1.00  0.00     0.012 A 
ATOM     71  C   UNL A   1      42.077  34.342  37.949  1.00  0.00     0.148 A 
ATOM     72  C   UNL A   1      40.486  33.498  40.111  1.00  0.00     0.002 A 
ATOM     73  C   UNL A   1      42.082  35.050  39.147  1.00  0.00     0.091 A 
ATOM     74  F   UNL A   1      42.798  34.736  36.891  1.00  0.00    -0.205 F 
ATOM     75  C   UNL A   1      41.280  34.635  40.224  1.00  0.00     0.022 A 
BRANCH  73  76
ATOM     76  S   UNL A   1      43.125  36.486  39.424  1.00  0.00     0.127 S 
ATOM     77  O   UNL A   1      44.434  35.986  39.002  1.00  0.00    -0.237 OA
ATOM     78  O   UNL A   1      42.533  37.476  38.525  1.00  0.00    -0.237 OA
ATOM     79  O   UNL A   1      43.007  36.802  40.841  1.00  0.00    -0.744 OA
ENDBRANCH  73  76
ENDBRANCH  55  69
BRANCH  56  80
ATOM     80  C   UNL A   1      41.123  27.827  29.396  1.00  0.00     0.023 A 
ATOM     81  C   UNL A   1      40.396  26.623  29.312  1.00  0.00     0.012 A 
ATOM     82  C   UNL A   1      41.840  28.273  28.270  1.00  0.00     0.148 A 
ATOM     83  C   UNL A   1      40.419  25.855  28.146  1.00  0.00     0.002 A 
ATOM     84  C   UNL A   1      41.814  27.533  27.094  1.00  0.00     0.091 A 
ATOM     85  F   UNL A   1      42.538  29.413  28.370  1.00  0.00    -0.205 F 
ATOM     86  C   UNL A   1      41.120  26.314  27.035  1.00  0.00     0.022 A 
BRANCH  84  87
ATOM     87  S   UNL A   1      42.581  28.127  25.581  1.00  0.00     0.127 S 
ATOM     88  O   UNL A   1      41.792  29.321  25.294  1.00  0.00    -0.237 OA
ATOM     89  O   UNL A   1      43.956  28.385  26.011  1.00  0.00    -0.237 OA
ATOM     90  O   UNL A   1      42.453  27.029  24.631  1.00  0.00    -0.744 OA
ENDBRANCH  84  87
ENDBRANCH  56  80
BRANCH  68  91
ATOM     91  C   UNL A   1      45.005  27.600  35.193  1.00  0.00     0.023 A 
ATOM     92  C   UNL A   1      46.341  27.978  34.952  1.00  0.00     0.012 A 
ATOM     93  C   UNL A   1      44.740  26.416  35.909  1.00  0.00     0.148 A 
ATOM     94  C   UNL A   1      47.394  27.175  35.387  1.00  0.00     0.002 A 
ATOM     95  C   UNL A   1      45.795  25.644  36.380  1.00  0.00     0.091 A 
ATOM     96  F   UNL A   1      43.461  26.062  36.109  1.00  0.00    -0.205 F 
ATOM     97  C   UNL A   1      47.122  26.016  36.110  1.00  0.00     0.022 A 
BRANCH  95  98
ATOM     98  S   UNL A   1      45.532  24.187  37.397  1.00  0.00     0.127 S 
ATOM     99  O   UNL A   1      44.838  23.296  36.470  1.00  0.00    -0.237 OA
ATOM    100  O   UNL A   1      46.899  23.782  37.725  1.00  0.00    -0.237 OA
ATOM    101  O   UNL A   1      44.750  24.639  38.541  1.00  0.00    -0.744 OA
ENDBRANCH  95  98
ENDBRANCH  68  91
ENDBRANCH  42  43
ENDBRANCH  34  37
ENDBRANCH  32  33
ENDBRANCH  31  32
ENDBRANCH  30  31
ENDBRANCH   1  30
TORSDOF 21
ENDMDL
