MODEL 1
REMARK VINA RESULT:     -11.6      0.000      0.000
REMARK SMILES O=C(NCCCCCCNC(=O)c1ccc(-c2c3nc(c(-c4cccc(S(=O)(=O)[O-])c4F)c4ccc([nH]4)c(-c4cccc(S(=O)(=O)[O-])c4F)c4nc(c(-c5cccc(S(=O)(=O)[O-])c5F)c5ccc2[nH]5)C=C4)C=C3)cc1)C1=NN(c2ccc(S(=O)(=O)[O-])cc2)C(=O)/C1=C\Nc1ccccc1
REMARK SMILES IDX 7 1 6 2 5 3 4 4 3 5 1 6 2 7 76 9 77 10 91 11 78 12 89 13
REMARK SMILES IDX 92 14 90 15 79 16 80 17 88 18 81 19 87 20 82 21 83 22 84 23
REMARK SMILES IDX 85 24 86 25 93 26 94 28 95 29 99 30 96 31 98 32 97 33 8 34
REMARK SMILES IDX 9 35 10 36 11 37 12 39 13 40 14 41 75 42 15 43 74 44 16 45
REMARK SMILES IDX 17 46 18 47 68 48 19 49 73 50 67 51 69 52 20 53 72 54 66 55
REMARK SMILES IDX 65 56 21 58 53 59 33 60 52 61 34 62 37 63 51 64 70 65 35 66
REMARK SMILES IDX 36 67 50 69 71 70 38 71 22 72 23 73 31 74 24 75 26 76 32 77
REMARK SMILES IDX 25 78 27 79 28 80 29 81 30 82 54 83 55 84 63 85 56 86 58 87
REMARK SMILES IDX 64 88 57 89 59 90 60 91 61 92 62 93 39 94 40 95 48 96 41 97
REMARK SMILES IDX 43 98 49 99 42 100 44 101 45 102 46 103 47 104
REMARK H PARENT 3 8 93 27 10 38 69 57 37 68
REMARK Flexibility Score: inf
ROOT
ATOM      1  C   UNL A   1      35.243  31.860  28.013  1.00  0.00     0.002 C 
ENDROOT
BRANCH   1   2
ATOM      2  C   UNL A   1      35.144  30.379  28.387  1.00  0.00     0.002 C 
BRANCH   2   3
ATOM      3  C   UNL A   1      35.454  29.376  27.268  1.00  0.00     0.021 C 
BRANCH   3   4
ATOM      4  C   UNL A   1      34.263  28.581  26.741  1.00  0.00     0.116 C 
BRANCH   4   5
ATOM      5  N   UNL A   1      33.085  28.724  27.577  1.00  0.00    -0.351 N 
ATOM      6  O   UNL A   1      30.996  28.251  28.314  1.00  0.00    -0.267 OA
ATOM      7  C   UNL A   1      31.878  28.084  27.480  1.00  0.00     0.272 C 
ATOM      8  H   UNL A   1      33.166  29.370  28.316  1.00  0.00     0.163 HD
BRANCH   7   9
ATOM      9  C   UNL A   1      31.628  27.121  26.362  1.00  0.00     0.163 C 
ATOM     10  N   UNL A   1      31.762  25.823  26.479  1.00  0.00    -0.158 NA
ATOM     11  C   UNL A   1      31.285  27.535  25.001  1.00  0.00     0.091 C 
ATOM     12  N   UNL A   1      31.571  25.316  25.188  1.00  0.00    -0.196 N 
ATOM     13  C   UNL A   1      31.210  26.279  24.236  1.00  0.00     0.282 C 
ATOM     14  C   UNL A   1      31.117  28.756  24.487  1.00  0.00     0.099 C 
ATOM     15  O   UNL A   1      30.930  26.180  23.054  1.00  0.00    -0.267 OA
BRANCH  12  16
ATOM     16  C   UNL A   1      31.994  23.995  24.914  1.00  0.00     0.069 A 
ATOM     17  C   UNL A   1      31.203  23.132  24.143  1.00  0.00     0.030 A 
ATOM     18  C   UNL A   1      33.174  23.496  25.489  1.00  0.00     0.030 A 
ATOM     19  C   UNL A   1      31.582  21.797  23.953  1.00  0.00     0.021 A 
ATOM     20  C   UNL A   1      33.540  22.157  25.336  1.00  0.00     0.021 A 
ATOM     21  C   UNL A   1      32.744  21.316  24.563  1.00  0.00     0.054 A 
BRANCH  21  22
ATOM     22  S   UNL A   1      33.152  19.601  24.415  1.00  0.00     0.124 S 
ATOM     23  O   UNL A   1      32.582  19.107  23.181  1.00  0.00    -0.237 OA
ATOM     24  O   UNL A   1      34.558  19.448  24.718  1.00  0.00    -0.237 OA
ATOM     25  O   UNL A   1      32.368  18.859  25.616  1.00  0.00    -0.744 OA
ENDBRANCH  21  22
ENDBRANCH  12  16
BRANCH  14  26
ATOM     26  N   UNL A   1      30.696  29.056  23.218  1.00  0.00    -0.361 N 
ATOM     27  H   UNL A   1      31.105  28.531  22.493  1.00  0.00     0.166 HD
BRANCH  26  28
ATOM     28  C   UNL A   1      29.755  30.017  22.824  1.00  0.00     0.038 A 
ATOM     29  C   UNL A   1      29.223  30.881  23.790  1.00  0.00     0.026 A 
ATOM     30  C   UNL A   1      29.367  30.185  21.490  1.00  0.00     0.026 A 
ATOM     31  C   UNL A   1      28.303  31.869  23.437  1.00  0.00     0.002 A 
ATOM     32  C   UNL A   1      28.428  31.157  21.137  1.00  0.00     0.002 A 
ATOM     33  C   UNL A   1      27.897  32.000  22.112  1.00  0.00     0.000 A 
ENDBRANCH  26  28
ENDBRANCH  14  26
ENDBRANCH   7   9
ENDBRANCH   4   5
ENDBRANCH   3   4
ENDBRANCH   2   3
ENDBRANCH   1   2
BRANCH   1  34
ATOM     34  C   UNL A   1      33.921  32.630  27.961  1.00  0.00     0.021 C 
BRANCH  34  35
ATOM     35  C   UNL A   1      34.040  34.151  27.938  1.00  0.00     0.116 C 
BRANCH  35  36
ATOM     36  N   UNL A   1      33.253  34.799  28.974  1.00  0.00    -0.352 N 
ATOM     37  C   UNL A   1      33.424  34.782  30.338  1.00  0.00     0.251 C 
ATOM     38  H   UNL A   1      32.486  35.327  28.653  1.00  0.00     0.163 HD
ATOM     39  O   UNL A   1      32.577  35.295  31.065  1.00  0.00    -0.269 OA
BRANCH  37  40
ATOM     40  C   UNL A   1      34.610  34.124  30.936  1.00  0.00     0.039 A 
ATOM     41  C   UNL A   1      34.419  32.994  31.737  1.00  0.00     0.014 A 
ATOM     42  C   UNL A   1      35.900  34.614  30.718  1.00  0.00     0.014 A 
ATOM     43  C   UNL A   1      35.524  32.319  32.265  1.00  0.00     0.010 A 
ATOM     44  C   UNL A   1      37.003  33.905  31.192  1.00  0.00     0.010 A 
ATOM     45  C   UNL A   1      36.828  32.750  31.970  1.00  0.00    -0.014 A 
BRANCH  45  46
ATOM     46  C   UNL A   1      38.017  31.996  32.447  1.00  0.00     0.031 A 
ATOM     47  C   UNL A   1      38.704  32.387  33.727  1.00  0.00     0.074 A 
ATOM     48  C   UNL A   1      38.537  31.019  31.677  1.00  0.00     0.049 A 
ATOM     49  N   UNL A   1      39.793  31.897  34.262  1.00  0.00    -0.248 NA
ATOM     50  C   UNL A   1      38.103  33.489  34.497  1.00  0.00     0.031 C 
ATOM     51  C   UNL A   1      38.015  30.600  30.375  1.00  0.00     0.029 A 
ATOM     52  N   UNL A   1      39.640  30.223  31.863  1.00  0.00    -0.354 N 
ATOM     53  C   UNL A   1      40.027  32.646  35.408  1.00  0.00     0.074 A 
ATOM     54  C   UNL A   1      38.983  33.646  35.476  1.00  0.00     0.031 C 
ATOM     55  C   UNL A   1      38.801  29.632  29.876  1.00  0.00     0.029 A 
ATOM     56  C   UNL A   1      39.895  29.376  30.809  1.00  0.00     0.049 A 
ATOM     57  H   UNL A   1      40.197  30.255  32.675  1.00  0.00     0.167 HD
ATOM     58  C   UNL A   1      41.000  32.497  36.339  1.00  0.00     0.034 A 
ATOM     59  C   UNL A   1      40.897  28.497  30.610  1.00  0.00     0.034 A 
ATOM     60  C   UNL A   1      42.009  31.472  36.295  1.00  0.00     0.049 A 
ATOM     61  C   UNL A   1      41.934  28.313  31.685  1.00  0.00     0.074 A 
ATOM     62  C   UNL A   1      42.991  31.193  37.230  1.00  0.00     0.029 A 
ATOM     63  N   UNL A   1      42.166  30.558  35.266  1.00  0.00    -0.354 N 
ATOM     64  N   UNL A   1      42.044  28.927  32.839  1.00  0.00    -0.248 NA
ATOM     65  C   UNL A   1      42.962  27.288  31.452  1.00  0.00     0.031 C 
ATOM     66  C   UNL A   1      43.746  30.113  36.761  1.00  0.00     0.029 A 
ATOM     67  C   UNL A   1      43.227  29.713  35.541  1.00  0.00     0.049 A 
ATOM     68  H   UNL A   1      41.606  30.517  34.457  1.00  0.00     0.167 HD
ATOM     69  C   UNL A   1      43.129  28.341  33.480  1.00  0.00     0.074 A 
ATOM     70  C   UNL A   1      43.628  27.307  32.598  1.00  0.00     0.031 C 
ATOM     71  C   UNL A   1      43.675  28.646  34.683  1.00  0.00     0.034 A 
BRANCH  58  72
ATOM     72  C   UNL A   1      40.979  33.422  37.527  1.00  0.00     0.023 A 
ATOM     73  C   UNL A   1      41.802  34.566  37.523  1.00  0.00     0.012 A 
ATOM     74  C   UNL A   1      40.103  33.204  38.609  1.00  0.00     0.148 A 
ATOM     75  C   UNL A   1      41.779  35.463  38.589  1.00  0.00     0.002 A 
ATOM     76  C   UNL A   1      40.056  34.125  39.651  1.00  0.00     0.091 A 
ATOM     77  F   UNL A   1      39.342  32.100  38.605  1.00  0.00    -0.205 F 
ATOM     78  C   UNL A   1      40.900  35.248  39.646  1.00  0.00     0.022 A 
BRANCH  76  79
ATOM     79  S   UNL A   1      38.907  33.978  41.023  1.00  0.00     0.127 S 
ATOM     80  O   UNL A   1      39.463  32.839  41.752  1.00  0.00    -0.237 OA
ATOM     81  O   UNL A   1      39.064  35.268  41.697  1.00  0.00    -0.237 OA
ATOM     82  O   UNL A   1      37.596  33.760  40.427  1.00  0.00    -0.744 OA
ENDBRANCH  76  79
ENDBRANCH  58  72
BRANCH  59  83
ATOM     83  C   UNL A   1      40.927  27.673  29.368  1.00  0.00     0.023 A 
ATOM     84  C   UNL A   1      40.075  26.558  29.259  1.00  0.00     0.012 A 
ATOM     85  C   UNL A   1      41.768  28.003  28.287  1.00  0.00     0.148 A 
ATOM     86  C   UNL A   1      40.081  25.767  28.109  1.00  0.00     0.002 A 
ATOM     87  C   UNL A   1      41.729  27.244  27.123  1.00  0.00     0.091 A 
ATOM     88  F   UNL A   1      42.584  29.058  28.415  1.00  0.00    -0.205 F 
ATOM     89  C   UNL A   1      40.899  26.116  27.038  1.00  0.00     0.022 A 
BRANCH  87  90
ATOM     90  S   UNL A   1      42.649  27.707  25.651  1.00  0.00     0.127 S 
ATOM     91  O   UNL A   1      42.237  26.678  24.702  1.00  0.00    -0.237 OA
ATOM     92  O   UNL A   1      42.129  29.047  25.371  1.00  0.00    -0.237 OA
ATOM     93  O   UNL A   1      44.051  27.686  26.048  1.00  0.00    -0.744 OA
ENDBRANCH  87  90
ENDBRANCH  59  83
BRANCH  71  94
ATOM     94  C   UNL A   1      44.860  27.837  35.140  1.00  0.00     0.023 A 
ATOM     95  C   UNL A   1      46.163  28.315  34.903  1.00  0.00     0.012 A 
ATOM     96  C   UNL A   1      44.683  26.645  35.870  1.00  0.00     0.148 A 
ATOM     97  C   UNL A   1      47.273  27.607  35.361  1.00  0.00     0.002 A 
ATOM     98  C   UNL A   1      45.792  25.967  36.363  1.00  0.00     0.091 A 
ATOM     99  F   UNL A   1      43.434  26.194  36.068  1.00  0.00    -0.205 F 
ATOM    100  C   UNL A   1      47.087  26.441  36.101  1.00  0.00     0.022 A 
BRANCH  98 101
ATOM    101  S   UNL A   1      45.642  24.508  37.400  1.00  0.00     0.127 S 
ATOM    102  O   UNL A   1      47.041  24.218  37.710  1.00  0.00    -0.237 OA
ATOM    103  O   UNL A   1      44.858  25.007  38.530  1.00  0.00    -0.237 OA
ATOM    104  O   UNL A   1      44.958  23.510  36.589  1.00  0.00    -0.744 OA
ENDBRANCH  98 101
ENDBRANCH  71  94
ENDBRANCH  45  46
ENDBRANCH  37  40
ENDBRANCH  35  36
ENDBRANCH  34  35
ENDBRANCH   1  34
TORSDOF 20
ENDMDL
MODEL 2
REMARK VINA RESULT:     -11.4      1.113      7.273
REMARK SMILES O=C(NCCCCCCNC(=O)c1ccc(-c2c3nc(c(-c4cccc(S(=O)(=O)[O-])c4F)c4ccc([nH]4)c(-c4cccc(S(=O)(=O)[O-])c4F)c4nc(c(-c5cccc(S(=O)(=O)[O-])c5F)c5ccc2[nH]5)C=C4)C=C3)cc1)C1=NN(c2ccc(S(=O)(=O)[O-])cc2)C(=O)/C1=C\Nc1ccccc1
REMARK SMILES IDX 7 1 6 2 5 3 4 4 3 5 1 6 2 7 76 9 77 10 91 11 78 12 89 13
REMARK SMILES IDX 92 14 90 15 79 16 80 17 88 18 81 19 87 20 82 21 83 22 84 23
REMARK SMILES IDX 85 24 86 25 93 26 94 28 95 29 99 30 96 31 98 32 97 33 8 34
REMARK SMILES IDX 9 35 10 36 11 37 12 39 13 40 14 41 75 42 15 43 74 44 16 45
REMARK SMILES IDX 17 46 18 47 68 48 19 49 73 50 67 51 69 52 20 53 72 54 66 55
REMARK SMILES IDX 65 56 21 58 53 59 33 60 52 61 34 62 37 63 51 64 70 65 35 66
REMARK SMILES IDX 36 67 50 69 71 70 38 71 22 72 23 73 31 74 24 75 26 76 32 77
REMARK SMILES IDX 25 78 27 79 28 80 29 81 30 82 54 83 55 84 63 85 56 86 58 87
REMARK SMILES IDX 64 88 57 89 59 90 60 91 61 92 62 93 39 94 40 95 48 96 41 97
REMARK SMILES IDX 43 98 49 99 42 100 44 101 45 102 46 103 47 104
REMARK H PARENT 3 8 93 27 10 38 69 57 37 68
REMARK Flexibility Score: inf
ROOT
ATOM      1  C   UNL A   1      35.270  31.765  28.149  1.00  0.00     0.002 C 
ENDROOT
BRANCH   1   2
ATOM      2  C   UNL A   1      35.205  30.267  28.459  1.00  0.00     0.002 C 
BRANCH   2   3
ATOM      3  C   UNL A   1      35.491  29.319  27.288  1.00  0.00     0.021 C 
BRANCH   3   4
ATOM      4  C   UNL A   1      34.282  28.578  26.724  1.00  0.00     0.116 C 
BRANCH   4   5
ATOM      5  N   UNL A   1      33.105  28.715  27.563  1.00  0.00    -0.351 N 
ATOM      6  O   UNL A   1      31.008  28.253  28.283  1.00  0.00    -0.267 OA
ATOM      7  C   UNL A   1      31.889  28.097  27.445  1.00  0.00     0.272 C 
ATOM      8  H   UNL A   1      33.195  29.338  28.320  1.00  0.00     0.163 HD
BRANCH   7   9
ATOM      9  C   UNL A   1      31.626  27.171  26.300  1.00  0.00     0.163 C 
ATOM     10  N   UNL A   1      31.723  25.867  26.383  1.00  0.00    -0.158 NA
ATOM     11  C   UNL A   1      31.308  27.630  24.947  1.00  0.00     0.091 C 
ATOM     12  N   UNL A   1      31.534  25.399  25.078  1.00  0.00    -0.196 N 
ATOM     13  C   UNL A   1      31.209  26.397  24.148  1.00  0.00     0.282 C 
ATOM     14  C   UNL A   1      31.179  28.868  24.464  1.00  0.00     0.099 C 
ATOM     15  O   UNL A   1      30.940  26.336  22.961  1.00  0.00    -0.267 OA
BRANCH  12  16
ATOM     16  C   UNL A   1      31.924  24.075  24.773  1.00  0.00     0.069 A 
ATOM     17  C   UNL A   1      31.257  23.338  23.785  1.00  0.00     0.030 A 
ATOM     18  C   UNL A   1      32.930  23.444  25.523  1.00  0.00     0.030 A 
ATOM     19  C   UNL A   1      31.587  21.997  23.552  1.00  0.00     0.021 A 
ATOM     20  C   UNL A   1      33.239  22.097  25.324  1.00  0.00     0.021 A 
ATOM     21  C   UNL A   1      32.568  21.381  24.335  1.00  0.00     0.054 A 
BRANCH  21  22
ATOM     22  S   UNL A   1      32.895  19.657  24.114  1.00  0.00     0.124 S 
ATOM     23  O   UNL A   1      32.369  19.259  22.827  1.00  0.00    -0.237 OA
ATOM     24  O   UNL A   1      34.273  19.413  24.479  1.00  0.00    -0.237 OA
ATOM     25  O   UNL A   1      32.010  18.897  25.230  1.00  0.00    -0.744 OA
ENDBRANCH  21  22
ENDBRANCH  12  16
BRANCH  14  26
ATOM     26  N   UNL A   1      30.780  29.212  23.199  1.00  0.00    -0.361 N 
ATOM     27  H   UNL A   1      31.255  28.767  22.461  1.00  0.00     0.166 HD
BRANCH  26  28
ATOM     28  C   UNL A   1      29.780  30.119  22.825  1.00  0.00     0.038 A 
ATOM     29  C   UNL A   1      29.233  30.032  21.538  1.00  0.00     0.026 A 
ATOM     30  C   UNL A   1      29.264  31.075  23.707  1.00  0.00     0.026 A 
ATOM     31  C   UNL A   1      28.217  30.899  21.132  1.00  0.00     0.002 A 
ATOM     32  C   UNL A   1      28.266  31.960  23.296  1.00  0.00     0.002 A 
ATOM     33  C   UNL A   1      27.741  31.871  22.008  1.00  0.00     0.000 A 
ENDBRANCH  26  28
ENDBRANCH  14  26
ENDBRANCH   7   9
ENDBRANCH   4   5
ENDBRANCH   3   4
ENDBRANCH   2   3
ENDBRANCH   1   2
BRANCH   1  34
ATOM     34  C   UNL A   1      33.930  32.454  27.884  1.00  0.00     0.021 C 
BRANCH  34  35
ATOM     35  C   UNL A   1      33.980  33.975  27.763  1.00  0.00     0.116 C 
BRANCH  35  36
ATOM     36  N   UNL A   1      33.186  34.653  28.774  1.00  0.00    -0.352 N 
ATOM     37  C   UNL A   1      33.386  34.729  30.133  1.00  0.00     0.251 C 
ATOM     38  H   UNL A   1      32.390  35.126  28.439  1.00  0.00     0.163 HD
ATOM     39  O   UNL A   1      32.532  35.250  30.846  1.00  0.00    -0.269 OA
BRANCH  37  40
ATOM     40  C   UNL A   1      34.612  34.163  30.742  1.00  0.00     0.039 A 
ATOM     41  C   UNL A   1      34.492  33.055  31.588  1.00  0.00     0.014 A 
ATOM     42  C   UNL A   1      35.871  34.716  30.492  1.00  0.00     0.014 A 
ATOM     43  C   UNL A   1      35.638  32.464  32.129  1.00  0.00     0.010 A 
ATOM     44  C   UNL A   1      37.016  34.089  30.981  1.00  0.00     0.010 A 
ATOM     45  C   UNL A   1      36.913  32.956  31.804  1.00  0.00    -0.014 A 
BRANCH  45  46
ATOM     46  C   UNL A   1      38.147  32.289  32.296  1.00  0.00     0.031 A 
ATOM     47  C   UNL A   1      38.782  31.179  31.502  1.00  0.00     0.074 A 
ATOM     48  C   UNL A   1      38.644  32.619  33.505  1.00  0.00     0.049 A 
ATOM     49  N   UNL A   1      39.813  30.434  31.806  1.00  0.00    -0.248 NA
ATOM     50  C   UNL A   1      38.163  30.846  30.208  1.00  0.00     0.031 C 
ATOM     51  C   UNL A   1      38.073  33.620  34.409  1.00  0.00     0.029 A 
ATOM     52  N   UNL A   1      39.722  32.124  34.196  1.00  0.00    -0.354 N 
ATOM     53  C   UNL A   1      39.948  29.525  30.764  1.00  0.00     0.074 A 
ATOM     54  C   UNL A   1      38.874  29.793  29.831  1.00  0.00     0.031 C 
ATOM     55  C   UNL A   1      38.800  33.658  35.537  1.00  0.00     0.029 A 
ATOM     56  C   UNL A   1      39.874  32.672  35.449  1.00  0.00     0.049 A 
ATOM     57  H   UNL A   1      40.329  31.441  33.831  1.00  0.00     0.167 HD
ATOM     58  C   UNL A   1      40.898  28.577  30.579  1.00  0.00     0.034 A 
ATOM     59  C   UNL A   1      40.769  32.408  36.421  1.00  0.00     0.034 A 
ATOM     60  C   UNL A   1      41.994  28.344  31.482  1.00  0.00     0.049 A 
ATOM     61  C   UNL A   1      41.846  31.388  36.167  1.00  0.00     0.074 A 
ATOM     62  C   UNL A   1      43.048  27.458  31.344  1.00  0.00     0.029 A 
ATOM     63  N   UNL A   1      42.178  28.999  32.689  1.00  0.00    -0.354 N 
ATOM     64  N   UNL A   1      42.048  30.650  35.103  1.00  0.00    -0.248 NA
ATOM     65  C   UNL A   1      42.844  31.193  37.230  1.00  0.00     0.031 C 
ATOM     66  C   UNL A   1      43.867  27.574  32.472  1.00  0.00     0.029 A 
ATOM     67  C   UNL A   1      43.329  28.540  33.306  1.00  0.00     0.049 A 
ATOM     68  H   UNL A   1      41.578  29.689  33.055  1.00  0.00     0.167 HD
ATOM     69  C   UNL A   1      43.211  29.930  35.354  1.00  0.00     0.074 A 
ATOM     70  C   UNL A   1      43.682  30.337  36.661  1.00  0.00     0.031 C 
ATOM     71  C   UNL A   1      43.822  28.999  34.579  1.00  0.00     0.034 A 
BRANCH  58  72
ATOM     72  C   UNL A   1      40.838  27.765  29.312  1.00  0.00     0.023 A 
ATOM     73  C   UNL A   1      39.873  26.743  29.196  1.00  0.00     0.012 A 
ATOM     74  C   UNL A   1      41.678  28.051  28.218  1.00  0.00     0.148 A 
ATOM     75  C   UNL A   1      39.765  25.998  28.023  1.00  0.00     0.002 A 
ATOM     76  C   UNL A   1      41.537  27.330  27.036  1.00  0.00     0.091 A 
ATOM     77  F   UNL A   1      42.602  29.012  28.354  1.00  0.00    -0.205 F 
ATOM     78  C   UNL A   1      40.589  26.298  26.942  1.00  0.00     0.022 A 
BRANCH  76  79
ATOM     79  S   UNL A   1      42.498  27.687  25.562  1.00  0.00     0.127 S 
ATOM     80  O   UNL A   1      42.219  26.512  24.737  1.00  0.00    -0.237 OA
ATOM     81  O   UNL A   1      41.883  28.926  25.084  1.00  0.00    -0.237 OA
ATOM     82  O   UNL A   1      43.878  27.826  26.007  1.00  0.00    -0.744 OA
ENDBRANCH  76  79
ENDBRANCH  58  72
BRANCH  59  83
ATOM     83  C   UNL A   1      40.725  33.173  37.700  1.00  0.00     0.023 A 
ATOM     84  C   UNL A   1      39.881  32.735  38.738  1.00  0.00     0.012 A 
ATOM     85  C   UNL A   1      41.533  34.308  37.905  1.00  0.00     0.148 A 
ATOM     86  C   UNL A   1      39.818  33.430  39.946  1.00  0.00     0.002 A 
ATOM     87  C   UNL A   1      41.506  34.964  39.131  1.00  0.00     0.091 A 
ATOM     88  F   UNL A   1      42.318  34.721  36.901  1.00  0.00    -0.205 F 
ATOM     89  C   UNL A   1      40.637  34.537  40.146  1.00  0.00     0.022 A 
BRANCH  87  90
ATOM     90  S   UNL A   1      42.629  36.313  39.515  1.00  0.00     0.127 S 
ATOM     91  O   UNL A   1      42.188  37.347  38.584  1.00  0.00    -0.237 OA
ATOM     92  O   UNL A   1      42.321  36.580  40.922  1.00  0.00    -0.237 OA
ATOM     93  O   UNL A   1      43.967  35.780  39.292  1.00  0.00    -0.744 OA
ENDBRANCH  87  90
ENDBRANCH  59  83
BRANCH  71  94
ATOM     94  C   UNL A   1      45.086  28.372  35.104  1.00  0.00     0.023 A 
ATOM     95  C   UNL A   1      46.325  28.992  34.857  1.00  0.00     0.012 A 
ATOM     96  C   UNL A   1      45.038  27.215  35.907  1.00  0.00     0.148 A 
ATOM     97  C   UNL A   1      47.503  28.455  35.376  1.00  0.00     0.002 A 
ATOM     98  C   UNL A   1      46.211  26.710  36.458  1.00  0.00     0.091 A 
ATOM     99  F   UNL A   1      43.851  26.627  36.114  1.00  0.00    -0.205 F 
ATOM    100  C   UNL A   1      47.444  27.323  36.186  1.00  0.00     0.022 A 
BRANCH  98 101
ATOM    101  S   UNL A   1      46.216  25.310  37.584  1.00  0.00     0.127 S 
ATOM    102  O   UNL A   1      45.326  25.778  38.645  1.00  0.00    -0.237 OA
ATOM    103  O   UNL A   1      45.665  24.239  36.754  1.00  0.00    -0.237 OA
ATOM    104  O   UNL A   1      47.607  25.115  37.971  1.00  0.00    -0.744 OA
ENDBRANCH  98 101
ENDBRANCH  71  94
ENDBRANCH  45  46
ENDBRANCH  37  40
ENDBRANCH  35  36
ENDBRANCH  34  35
ENDBRANCH   1  34
TORSDOF 20
ENDMDL
MODEL 3
REMARK VINA RESULT:     -10.6      4.940      9.747
REMARK SMILES O=C(NCCCCCCNC(=O)c1ccc(-c2c3nc(c(-c4cccc(S(=O)(=O)[O-])c4F)c4ccc([nH]4)c(-c4cccc(S(=O)(=O)[O-])c4F)c4nc(c(-c5cccc(S(=O)(=O)[O-])c5F)c5ccc2[nH]5)C=C4)C=C3)cc1)C1=NN(c2ccc(S(=O)(=O)[O-])cc2)C(=O)/C1=C\Nc1ccccc1
REMARK SMILES IDX 7 1 6 2 5 3 4 4 3 5 1 6 2 7 76 9 77 10 91 11 78 12 89 13
REMARK SMILES IDX 92 14 90 15 79 16 80 17 88 18 81 19 87 20 82 21 83 22 84 23
REMARK SMILES IDX 85 24 86 25 93 26 94 28 95 29 99 30 96 31 98 32 97 33 8 34
REMARK SMILES IDX 9 35 10 36 11 37 12 39 13 40 14 41 75 42 15 43 74 44 16 45
REMARK SMILES IDX 17 46 18 47 68 48 19 49 73 50 67 51 69 52 20 53 72 54 66 55
REMARK SMILES IDX 65 56 21 58 53 59 33 60 52 61 34 62 37 63 51 64 70 65 35 66
REMARK SMILES IDX 36 67 50 69 71 70 38 71 22 72 23 73 31 74 24 75 26 76 32 77
REMARK SMILES IDX 25 78 27 79 28 80 29 81 30 82 54 83 55 84 63 85 56 86 58 87
REMARK SMILES IDX 64 88 57 89 59 90 60 91 61 92 62 93 39 94 40 95 48 96 41 97
REMARK SMILES IDX 43 98 49 99 42 100 44 101 45 102 46 103 47 104
REMARK H PARENT 3 8 93 27 10 38 69 57 37 68
REMARK Flexibility Score: inf
ROOT
ATOM      1  C   UNL A   1      36.383  34.220  29.317  1.00  0.00     0.002 C 
ENDROOT
BRANCH   1   2
ATOM      2  C   UNL A   1      37.904  34.331  29.449  1.00  0.00     0.002 C 
BRANCH   2   3
ATOM      3  C   UNL A   1      38.647  33.046  29.834  1.00  0.00     0.021 C 
BRANCH   3   4
ATOM      4  C   UNL A   1      38.711  32.740  31.328  1.00  0.00     0.116 C 
BRANCH   4   5
ATOM      5  N   UNL A   1      38.076  31.480  31.665  1.00  0.00    -0.351 N 
ATOM      6  O   UNL A   1      36.759  30.077  32.860  1.00  0.00    -0.267 OA
ATOM      7  C   UNL A   1      37.296  31.173  32.748  1.00  0.00     0.272 C 
ATOM      8  H   UNL A   1      38.228  30.745  31.028  1.00  0.00     0.163 HD
BRANCH   7   9
ATOM      9  C   UNL A   1      37.046  32.199  33.807  1.00  0.00     0.163 C 
ATOM     10  N   UNL A   1      37.842  32.398  34.829  1.00  0.00    -0.158 NA
ATOM     11  C   UNL A   1      35.846  33.035  33.854  1.00  0.00     0.091 C 
ATOM     12  N   UNL A   1      37.181  33.332  35.635  1.00  0.00    -0.196 N 
ATOM     13  C   UNL A   1      35.989  33.827  35.087  1.00  0.00     0.282 C 
ATOM     14  C   UNL A   1      34.795  33.083  33.032  1.00  0.00     0.099 C 
ATOM     15  O   UNL A   1      35.204  34.667  35.491  1.00  0.00    -0.267 OA
BRANCH  12  16
ATOM     16  C   UNL A   1      37.609  33.491  36.972  1.00  0.00     0.069 A 
ATOM     17  C   UNL A   1      36.933  32.856  38.024  1.00  0.00     0.030 A 
ATOM     18  C   UNL A   1      38.665  34.364  37.279  1.00  0.00     0.030 A 
ATOM     19  C   UNL A   1      37.304  33.090  39.354  1.00  0.00     0.021 A 
ATOM     20  C   UNL A   1      39.017  34.633  38.603  1.00  0.00     0.021 A 
ATOM     21  C   UNL A   1      38.336  33.990  39.635  1.00  0.00     0.054 A 
BRANCH  21  22
ATOM     22  S   UNL A   1      38.719  34.369  41.319  1.00  0.00     0.124 S 
ATOM     23  O   UNL A   1      37.654  35.190  41.850  1.00  0.00    -0.237 OA
ATOM     24  O   UNL A   1      39.133  33.147  41.971  1.00  0.00    -0.237 OA
ATOM     25  O   UNL A   1      40.038  35.300  41.269  1.00  0.00    -0.744 OA
ENDBRANCH  21  22
ENDBRANCH  12  16
BRANCH  14  26
ATOM     26  N   UNL A   1      33.752  33.970  33.091  1.00  0.00    -0.361 N 
ATOM     27  H   UNL A   1      33.022  33.736  33.708  1.00  0.00     0.166 HD
BRANCH  26  28
ATOM     28  C   UNL A   1      33.595  35.169  32.382  1.00  0.00     0.038 A 
ATOM     29  C   UNL A   1      33.886  36.378  33.025  1.00  0.00     0.026 A 
ATOM     30  C   UNL A   1      33.212  35.201  31.037  1.00  0.00     0.026 A 
ATOM     31  C   UNL A   1      33.768  37.594  32.349  1.00  0.00     0.002 A 
ATOM     32  C   UNL A   1      33.069  36.417  30.365  1.00  0.00     0.002 A 
ATOM     33  C   UNL A   1      33.349  37.614  31.022  1.00  0.00     0.000 A 
ENDBRANCH  26  28
ENDBRANCH  14  26
ENDBRANCH   7   9
ENDBRANCH   4   5
ENDBRANCH   3   4
ENDBRANCH   2   3
ENDBRANCH   1   2
BRANCH   1  34
ATOM     34  C   UNL A   1      35.863  33.015  28.530  1.00  0.00     0.021 C 
BRANCH  34  35
ATOM     35  C   UNL A   1      35.145  31.947  29.350  1.00  0.00     0.116 C 
BRANCH  35  36
ATOM     36  N   UNL A   1      34.604  30.871  28.535  1.00  0.00    -0.352 N 
ATOM     37  C   UNL A   1      35.248  29.795  27.973  1.00  0.00     0.251 C 
ATOM     38  H   UNL A   1      33.636  30.921  28.360  1.00  0.00     0.163 HD
ATOM     39  O   UNL A   1      34.639  29.052  27.208  1.00  0.00    -0.269 OA
BRANCH  37  40
ATOM     40  C   UNL A   1      36.679  29.543  28.264  1.00  0.00     0.039 A 
ATOM     41  C   UNL A   1      37.022  28.932  29.475  1.00  0.00     0.014 A 
ATOM     42  C   UNL A   1      37.680  29.908  27.360  1.00  0.00     0.014 A 
ATOM     43  C   UNL A   1      38.359  28.630  29.749  1.00  0.00     0.010 A 
ATOM     44  C   UNL A   1      39.005  29.550  27.606  1.00  0.00     0.010 A 
ATOM     45  C   UNL A   1      39.359  28.906  28.803  1.00  0.00    -0.014 A 
BRANCH  45  46
ATOM     46  C   UNL A   1      40.774  28.513  29.036  1.00  0.00     0.031 A 
ATOM     47  C   UNL A   1      41.674  29.371  29.884  1.00  0.00     0.074 A 
ATOM     48  C   UNL A   1      41.275  27.431  28.406  1.00  0.00     0.049 A 
ATOM     49  N   UNL A   1      42.949  29.228  30.137  1.00  0.00    -0.248 NA
ATOM     50  C   UNL A   1      41.068  30.558  30.509  1.00  0.00     0.031 C 
ATOM     51  C   UNL A   1      40.530  26.564  27.492  1.00  0.00     0.029 A 
ATOM     52  N   UNL A   1      42.540  26.897  28.413  1.00  0.00    -0.354 N 
ATOM     53  C   UNL A   1      43.307  30.318  30.921  1.00  0.00     0.074 A 
ATOM     54  C   UNL A   1      42.120  31.131  31.077  1.00  0.00     0.031 C 
ATOM     55  C   UNL A   1      41.351  25.612  27.020  1.00  0.00     0.029 A 
ATOM     56  C   UNL A   1      42.686  25.813  27.578  1.00  0.00     0.049 A 
ATOM     57  H   UNL A   1      43.274  27.255  28.963  1.00  0.00     0.167 HD
ATOM     58  C   UNL A   1      44.504  30.602  31.489  1.00  0.00     0.034 A 
ATOM     59  C   UNL A   1      43.771  25.068  27.287  1.00  0.00     0.034 A 
ATOM     60  C   UNL A   1      45.671  29.768  31.374  1.00  0.00     0.049 A 
ATOM     61  C   UNL A   1      45.074  25.372  27.974  1.00  0.00     0.074 A 
ATOM     62  C   UNL A   1      46.907  29.932  31.975  1.00  0.00     0.029 A 
ATOM     63  N   UNL A   1      45.747  28.615  30.610  1.00  0.00    -0.354 N 
ATOM     64  N   UNL A   1      45.349  26.319  28.839  1.00  0.00    -0.248 NA
ATOM     65  C   UNL A   1      46.208  24.482  27.680  1.00  0.00     0.031 C 
ATOM     66  C   UNL A   1      47.733  28.879  31.568  1.00  0.00     0.029 A 
ATOM     67  C   UNL A   1      47.008  28.055  30.724  1.00  0.00     0.049 A 
ATOM     68  H   UNL A   1      45.013  28.249  30.065  1.00  0.00     0.167 HD
ATOM     69  C   UNL A   1      46.672  26.119  29.215  1.00  0.00     0.074 A 
ATOM     70  C   UNL A   1      47.137  24.946  28.504  1.00  0.00     0.031 C 
ATOM     71  C   UNL A   1      47.440  26.852  30.059  1.00  0.00     0.034 A 
BRANCH  58  72
ATOM     72  C   UNL A   1      44.594  31.833  32.351  1.00  0.00     0.023 A 
ATOM     73  C   UNL A   1      45.035  33.044  31.778  1.00  0.00     0.012 A 
ATOM     74  C   UNL A   1      44.180  31.816  33.698  1.00  0.00     0.148 A 
ATOM     75  C   UNL A   1      45.094  34.210  32.538  1.00  0.00     0.002 A 
ATOM     76  C   UNL A   1      44.204  32.994  34.439  1.00  0.00     0.091 A 
ATOM     77  F   UNL A   1      43.783  30.653  34.232  1.00  0.00    -0.205 F 
ATOM     78  C   UNL A   1      44.669  34.187  33.863  1.00  0.00     0.022 A 
BRANCH  76  79
ATOM     79  S   UNL A   1      43.609  33.087  36.131  1.00  0.00     0.127 S 
ATOM     80  O   UNL A   1      43.944  34.466  36.485  1.00  0.00    -0.237 OA
ATOM     81  O   UNL A   1      42.178  32.830  35.971  1.00  0.00    -0.237 OA
ATOM     82  O   UNL A   1      44.333  32.059  36.867  1.00  0.00    -0.744 OA
ENDBRANCH  76  79
ENDBRANCH  58  72
BRANCH  59  83
ATOM     83  C   UNL A   1      43.651  23.917  26.348  1.00  0.00     0.023 A 
ATOM     84  C   UNL A   1      44.294  23.977  25.096  1.00  0.00     0.012 A 
ATOM     85  C   UNL A   1      42.934  22.755  26.696  1.00  0.00     0.148 A 
ATOM     86  C   UNL A   1      44.199  22.915  24.195  1.00  0.00     0.002 A 
ATOM     87  C   UNL A   1      42.891  21.679  25.816  1.00  0.00     0.091 A 
ATOM     88  F   UNL A   1      42.316  22.722  27.884  1.00  0.00    -0.205 F 
ATOM     89  C   UNL A   1      43.508  21.763  24.559  1.00  0.00     0.022 A 
BRANCH  87  90
ATOM     90  S   UNL A   1      42.138  20.110  26.266  1.00  0.00     0.127 S 
ATOM     91  O   UNL A   1      40.715  20.421  26.169  1.00  0.00    -0.237 OA
ATOM     92  O   UNL A   1      42.645  19.215  25.224  1.00  0.00    -0.237 OA
ATOM     93  O   UNL A   1      42.637  19.809  27.601  1.00  0.00    -0.744 OA
ENDBRANCH  87  90
ENDBRANCH  59  83
BRANCH  71  94
ATOM     94  C   UNL A   1      48.857  26.399  30.289  1.00  0.00     0.023 A 
ATOM     95  C   UNL A   1      49.880  26.854  29.435  1.00  0.00     0.012 A 
ATOM     96  C   UNL A   1      49.186  25.590  31.394  1.00  0.00     0.148 A 
ATOM     97  C   UNL A   1      51.207  26.487  29.660  1.00  0.00     0.002 A 
ATOM     98  C   UNL A   1      50.516  25.265  31.639  1.00  0.00     0.091 A 
ATOM     99  F   UNL A   1      48.195  25.150  32.184  1.00  0.00    -0.205 F 
ATOM    100  C   UNL A   1      51.526  25.704  30.767  1.00  0.00     0.022 A 
BRANCH  98 101
ATOM    101  S   UNL A   1      51.026  24.336  33.090  1.00  0.00     0.127 S 
ATOM    102  O   UNL A   1      50.489  23.008  32.797  1.00  0.00    -0.237 OA
ATOM    103  O   UNL A   1      52.484  24.433  33.026  1.00  0.00    -0.237 OA
ATOM    104  O   UNL A   1      50.428  25.018  34.230  1.00  0.00    -0.744 OA
ENDBRANCH  98 101
ENDBRANCH  71  94
ENDBRANCH  45  46
ENDBRANCH  37  40
ENDBRANCH  35  36
ENDBRANCH  34  35
ENDBRANCH   1  34
TORSDOF 20
ENDMDL
