MODEL 1
REMARK VINA RESULT:     -11.3      0.000      0.000
REMARK SMILES O=C(NCCCCCCNC(=O)[C@@H]1CCc2[nH]ncc2C1)c1ccc(-c2c3nc(c(-c4cccc(S(=O)(=O)[O-])c4F)c4ccc([nH]4)c(-c4cccc(S(=O)(=O)[O-])c4F)c4nc(c(-c5cccc(S(=O)(=O)[O-])c5F)c5ccc2[nH]5)C=C4)C=C3)cc1
REMARK SMILES IDX 5 1 4 2 3 3 1 4 2 5 22 7 23 8 84 9 24 10 83 11 25 12 26 13
REMARK SMILES IDX 27 14 77 15 28 16 82 17 76 18 78 19 29 20 81 21 75 22 74 23
REMARK SMILES IDX 30 25 62 26 42 27 61 28 43 29 46 30 60 31 79 32 44 33 45 34
REMARK SMILES IDX 59 36 80 37 47 38 31 39 32 40 40 41 33 42 35 43 41 44 34 45
REMARK SMILES IDX 36 46 37 47 38 48 39 49 63 50 64 51 72 52 65 53 67 54 73 55
REMARK SMILES IDX 66 56 68 57 69 58 70 59 71 60 48 61 49 62 57 63 50 64 52 65
REMARK SMILES IDX 58 66 51 67 53 68 54 69 55 70 56 71 6 72 7 73 8 74 9 75
REMARK SMILES IDX 10 76 11 77 12 79 13 80 14 81 21 82 15 83 20 84 16 85 19 86
REMARK SMILES IDX 17 87 18 88
REMARK H PARENT 3 6 78 24 46 35 10 78 17 89
REMARK Flexibility Score: inf
ROOT
ATOM      1  C   UNL A   1      37.789  19.545  25.010  1.00  0.00     0.021 C 
ENDROOT
BRANCH   1   2
ATOM      2  C   UNL A   1      38.949  20.194  25.750  1.00  0.00     0.116 C 
BRANCH   2   3
ATOM      3  N   UNL A   1      40.034  19.253  25.968  1.00  0.00    -0.352 N 
ATOM      4  O   UNL A   1      42.189  18.607  26.075  1.00  0.00    -0.269 OA
ATOM      5  C   UNL A   1      41.370  19.511  26.164  1.00  0.00     0.251 C 
ATOM      6  H   UNL A   1      39.779  18.302  25.976  1.00  0.00     0.163 HD
BRANCH   5   7
ATOM      7  C   UNL A   1      41.797  20.893  26.473  1.00  0.00     0.039 A 
ATOM      8  C   UNL A   1      41.805  21.865  25.468  1.00  0.00     0.014 A 
ATOM      9  C   UNL A   1      42.179  21.223  27.775  1.00  0.00     0.014 A 
ATOM     10  C   UNL A   1      42.313  23.130  25.734  1.00  0.00     0.010 A 
ATOM     11  C   UNL A   1      42.602  22.524  28.062  1.00  0.00     0.010 A 
ATOM     12  C   UNL A   1      42.688  23.482  27.039  1.00  0.00    -0.014 A 
BRANCH  12  13
ATOM     13  C   UNL A   1      43.054  24.892  27.327  1.00  0.00     0.031 A 
ATOM     14  C   UNL A   1      42.093  25.834  27.992  1.00  0.00     0.074 A 
ATOM     15  C   UNL A   1      44.284  25.312  26.965  1.00  0.00     0.049 A 
ATOM     16  N   UNL A   1      42.273  27.089  28.317  1.00  0.00    -0.248 NA
ATOM     17  C   UNL A   1      40.759  25.314  28.330  1.00  0.00     0.031 C 
ATOM     18  C   UNL A   1      45.281  24.492  26.268  1.00  0.00     0.029 A 
ATOM     19  N   UNL A   1      44.905  26.523  27.121  1.00  0.00    -0.354 N 
ATOM     20  C   UNL A   1      41.068  27.521  28.859  1.00  0.00     0.074 A 
ATOM     21  C   UNL A   1      40.162  26.393  28.820  1.00  0.00     0.031 C 
ATOM     22  C   UNL A   1      46.393  25.215  26.078  1.00  0.00     0.029 A 
ATOM     23  C   UNL A   1      46.169  26.564  26.580  1.00  0.00     0.049 A 
ATOM     24  H   UNL A   1      44.487  27.290  27.576  1.00  0.00     0.167 HD
ATOM     25  C   UNL A   1      40.755  28.743  29.352  1.00  0.00     0.034 A 
ATOM     26  C   UNL A   1      47.044  27.580  26.474  1.00  0.00     0.034 A 
ATOM     27  C   UNL A   1      41.676  29.848  29.413  1.00  0.00     0.049 A 
ATOM     28  C   UNL A   1      46.671  28.916  27.047  1.00  0.00     0.074 A 
ATOM     29  C   UNL A   1      41.476  31.105  29.958  1.00  0.00     0.029 A 
ATOM     30  N   UNL A   1      42.964  29.839  28.901  1.00  0.00    -0.354 N 
ATOM     31  N   UNL A   1      45.576  29.263  27.680  1.00  0.00    -0.248 NA
ATOM     32  C   UNL A   1      47.660  29.993  26.917  1.00  0.00     0.031 C 
ATOM     33  C   UNL A   1      42.631  31.864  29.749  1.00  0.00     0.029 A 
ATOM     34  C   UNL A   1      43.565  31.070  29.102  1.00  0.00     0.049 A 
ATOM     35  H   UNL A   1      43.390  29.070  28.457  1.00  0.00     0.167 HD
ATOM     36  C   UNL A   1      45.757  30.589  28.049  1.00  0.00     0.074 A 
ATOM     37  C   UNL A   1      47.079  30.973  27.594  1.00  0.00     0.031 C 
ATOM     38  C   UNL A   1      44.899  31.421  28.688  1.00  0.00     0.034 A 
BRANCH  25  39
ATOM     39  C   UNL A   1      39.368  28.958  29.900  1.00  0.00     0.023 A 
ATOM     40  C   UNL A   1      39.062  28.539  31.210  1.00  0.00     0.012 A 
ATOM     41  C   UNL A   1      38.401  29.666  29.157  1.00  0.00     0.148 A 
ATOM     42  C   UNL A   1      37.810  28.804  31.766  1.00  0.00     0.002 A 
ATOM     43  C   UNL A   1      37.171  29.962  29.732  1.00  0.00     0.091 A 
ATOM     44  F   UNL A   1      38.706  30.041  27.906  1.00  0.00    -0.205 F 
ATOM     45  C   UNL A   1      36.871  29.525  31.033  1.00  0.00     0.022 A 
BRANCH  43  46
ATOM     46  S   UNL A   1      35.922  30.952  28.903  1.00  0.00     0.127 S 
ATOM     47  O   UNL A   1      36.740  31.975  28.253  1.00  0.00    -0.237 OA
ATOM     48  O   UNL A   1      35.320  29.982  27.988  1.00  0.00    -0.237 OA
ATOM     49  O   UNL A   1      35.032  31.438  29.948  1.00  0.00    -0.744 OA
ENDBRANCH  43  46
ENDBRANCH  25  39
BRANCH  26  50
ATOM     50  C   UNL A   1      48.364  27.361  25.819  1.00  0.00     0.023 A 
ATOM     51  C   UNL A   1      49.469  26.959  26.594  1.00  0.00     0.012 A 
ATOM     52  C   UNL A   1      48.523  27.521  24.428  1.00  0.00     0.148 A 
ATOM     53  C   UNL A   1      50.715  26.755  26.002  1.00  0.00     0.002 A 
ATOM     54  C   UNL A   1      49.751  27.255  23.836  1.00  0.00     0.091 A 
ATOM     55  F   UNL A   1      47.464  27.920  23.708  1.00  0.00    -0.205 F 
ATOM     56  C   UNL A   1      50.853  26.891  24.622  1.00  0.00     0.022 A 
BRANCH  54  57
ATOM     57  S   UNL A   1      49.971  27.266  22.054  1.00  0.00     0.127 S 
ATOM     58  O   UNL A   1      48.933  26.336  21.618  1.00  0.00    -0.237 OA
ATOM     59  O   UNL A   1      49.721  28.669  21.724  1.00  0.00    -0.237 OA
ATOM     60  O   UNL A   1      51.346  26.838  21.831  1.00  0.00    -0.744 OA
ENDBRANCH  54  57
ENDBRANCH  26  50
BRANCH  38  61
ATOM     61  C   UNL A   1      45.376  32.821  28.968  1.00  0.00     0.023 A 
ATOM     62  C   UNL A   1      46.112  33.090  30.139  1.00  0.00     0.012 A 
ATOM     63  C   UNL A   1      45.145  33.856  28.041  1.00  0.00     0.148 A 
ATOM     64  C   UNL A   1      46.579  34.376  30.402  1.00  0.00     0.002 A 
ATOM     65  C   UNL A   1      45.657  35.125  28.286  1.00  0.00     0.091 A 
ATOM     66  F   UNL A   1      44.425  33.584  26.944  1.00  0.00    -0.205 F 
ATOM     67  C   UNL A   1      46.362  35.389  29.471  1.00  0.00     0.022 A 
BRANCH  65  68
ATOM     68  S   UNL A   1      45.510  36.465  27.099  1.00  0.00     0.127 S 
ATOM     69  O   UNL A   1      46.206  37.550  27.789  1.00  0.00    -0.237 OA
ATOM     70  O   UNL A   1      46.216  35.927  25.936  1.00  0.00    -0.237 OA
ATOM     71  O   UNL A   1      44.082  36.668  26.897  1.00  0.00    -0.744 OA
ENDBRANCH  65  68
ENDBRANCH  38  61
ENDBRANCH  12  13
ENDBRANCH   5   7
ENDBRANCH   2   3
ENDBRANCH   1   2
BRANCH   1  72
ATOM     72  C   UNL A   1      36.539  20.422  24.922  1.00  0.00     0.002 C 
BRANCH  72  73
ATOM     73  C   UNL A   1      36.769  21.827  24.344  1.00  0.00     0.002 C 
BRANCH  73  74
ATOM     74  C   UNL A   1      36.038  22.959  25.074  1.00  0.00     0.021 C 
BRANCH  74  75
ATOM     75  C   UNL A   1      34.841  22.488  25.894  1.00  0.00     0.116 C 
BRANCH  75  76
ATOM     76  N   UNL A   1      33.606  22.583  25.144  1.00  0.00    -0.356 N 
ATOM     77  C   UNL A   1      32.826  21.709  24.471  1.00  0.00     0.223 C 
ATOM     78  H   UNL A   1      33.251  23.501  25.118  1.00  0.00     0.163 HD
ATOM     79  O   UNL A   1      31.817  22.210  23.956  1.00  0.00    -0.275 OA
BRANCH  77  80
ATOM     80  C   UNL A   1      33.134  20.224  24.235  1.00  0.00     0.083 C 
ATOM     81  C   UNL A   1      32.226  19.728  23.060  1.00  0.00     0.020 C 
ATOM     82  C   UNL A   1      33.030  19.263  25.432  1.00  0.00     0.052 C 
ATOM     83  C   UNL A   1      32.570  18.309  22.564  1.00  0.00     0.057 C 
ATOM     84  C   UNL A   1      33.082  17.843  25.012  1.00  0.00    -0.006 A 
ATOM     85  C   UNL A   1      32.853  17.436  23.721  1.00  0.00     0.038 A 
ATOM     86  C   UNL A   1      33.328  16.656  25.721  1.00  0.00     0.138 A 
ATOM     87  N   UNL A   1      32.971  16.081  23.717  1.00  0.00    -0.282 N 
ATOM     88  N   UNL A   1      33.264  15.578  24.930  1.00  0.00    -0.184 NA
ATOM     89  H   UNL A   1      32.854  15.526  22.912  1.00  0.00     0.190 HD
ENDBRANCH  77  80
ENDBRANCH  75  76
ENDBRANCH  74  75
ENDBRANCH  73  74
ENDBRANCH  72  73
ENDBRANCH   1  72
TORSDOF 16
ENDMDL
MODEL 2
REMARK VINA RESULT:     -11.2      7.095     12.279
REMARK SMILES O=C(NCCCCCCNC(=O)[C@@H]1CCc2[nH]ncc2C1)c1ccc(-c2c3nc(c(-c4cccc(S(=O)(=O)[O-])c4F)c4ccc([nH]4)c(-c4cccc(S(=O)(=O)[O-])c4F)c4nc(c(-c5cccc(S(=O)(=O)[O-])c5F)c5ccc2[nH]5)C=C4)C=C3)cc1
REMARK SMILES IDX 5 1 4 2 3 3 1 4 2 5 22 7 23 8 84 9 24 10 83 11 25 12 26 13
REMARK SMILES IDX 27 14 77 15 28 16 82 17 76 18 78 19 29 20 81 21 75 22 74 23
REMARK SMILES IDX 30 25 62 26 42 27 61 28 43 29 46 30 60 31 79 32 44 33 45 34
REMARK SMILES IDX 59 36 80 37 47 38 31 39 32 40 40 41 33 42 35 43 41 44 34 45
REMARK SMILES IDX 36 46 37 47 38 48 39 49 63 50 64 51 72 52 65 53 67 54 73 55
REMARK SMILES IDX 66 56 68 57 69 58 70 59 71 60 48 61 49 62 57 63 50 64 52 65
REMARK SMILES IDX 58 66 51 67 53 68 54 69 55 70 56 71 6 72 7 73 8 74 9 75
REMARK SMILES IDX 10 76 11 77 12 79 13 80 14 81 21 82 15 83 20 84 16 85 19 86
REMARK SMILES IDX 17 87 18 88
REMARK H PARENT 3 6 78 24 46 35 10 78 17 89
REMARK Flexibility Score: inf
ROOT
ATOM      1  C   UNL A   1      31.449  32.355  26.522  1.00  0.00     0.021 C 
ENDROOT
BRANCH   1   2
ATOM      2  C   UNL A   1      32.733  32.866  27.158  1.00  0.00     0.116 C 
BRANCH   2   3
ATOM      3  N   UNL A   1      32.574  34.217  27.666  1.00  0.00    -0.352 N 
ATOM      4  O   UNL A   1      32.713  35.849  29.212  1.00  0.00    -0.269 OA
ATOM      5  C   UNL A   1      33.146  34.791  28.777  1.00  0.00     0.251 C 
ATOM      6  H   UNL A   1      31.977  34.801  27.146  1.00  0.00     0.163 HD
BRANCH   5   7
ATOM      7  C   UNL A   1      34.279  34.106  29.437  1.00  0.00     0.039 A 
ATOM      8  C   UNL A   1      35.568  34.213  28.907  1.00  0.00     0.014 A 
ATOM      9  C   UNL A   1      34.054  33.364  30.599  1.00  0.00     0.014 A 
ATOM     10  C   UNL A   1      36.607  33.478  29.462  1.00  0.00     0.010 A 
ATOM     11  C   UNL A   1      35.120  32.700  31.211  1.00  0.00     0.010 A 
ATOM     12  C   UNL A   1      36.401  32.738  30.637  1.00  0.00    -0.014 A 
BRANCH  12  13
ATOM     13  C   UNL A   1      37.570  32.112  31.306  1.00  0.00     0.031 A 
ATOM     14  C   UNL A   1      38.344  31.001  30.659  1.00  0.00     0.074 A 
ATOM     15  C   UNL A   1      37.918  32.568  32.527  1.00  0.00     0.049 A 
ATOM     16  N   UNL A   1      39.392  30.363  31.114  1.00  0.00    -0.248 NA
ATOM     17  C   UNL A   1      37.887  30.535  29.340  1.00  0.00     0.031 C 
ATOM     18  C   UNL A   1      37.204  33.614  33.269  1.00  0.00     0.029 A 
ATOM     19  N   UNL A   1      38.945  32.215  33.362  1.00  0.00    -0.354 N 
ATOM     20  C   UNL A   1      39.697  29.398  30.163  1.00  0.00     0.074 A 
ATOM     21  C   UNL A   1      38.722  29.531  29.102  1.00  0.00     0.031 C 
ATOM     22  C   UNL A   1      37.827  33.831  34.435  1.00  0.00     0.029 A 
ATOM     23  C   UNL A   1      38.943  32.902  34.554  1.00  0.00     0.049 A 
ATOM     24  H   UNL A   1      39.620  31.536  33.131  1.00  0.00     0.167 HD
ATOM     25  C   UNL A   1      40.704  28.491  30.174  1.00  0.00     0.034 A 
ATOM     26  C   UNL A   1      39.735  32.783  35.635  1.00  0.00     0.034 A 
ATOM     27  C   UNL A   1      41.686  28.389  31.221  1.00  0.00     0.049 A 
ATOM     28  C   UNL A   1      40.851  31.781  35.604  1.00  0.00     0.074 A 
ATOM     29  C   UNL A   1      42.786  27.550  31.289  1.00  0.00     0.029 A 
ATOM     30  N   UNL A   1      41.682  29.134  32.390  1.00  0.00    -0.354 N 
ATOM     31  N   UNL A   1      41.205  30.972  34.634  1.00  0.00    -0.248 NA
ATOM     32  C   UNL A   1      41.695  31.692  36.802  1.00  0.00     0.031 C 
ATOM     33  C   UNL A   1      43.429  27.768  32.511  1.00  0.00     0.029 A 
ATOM     34  C   UNL A   1      42.749  28.766  33.192  1.00  0.00     0.049 A 
ATOM     35  H   UNL A   1      41.017  29.824  32.618  1.00  0.00     0.167 HD
ATOM     36  C   UNL A   1      42.329  30.299  35.094  1.00  0.00     0.074 A 
ATOM     37  C   UNL A   1      42.614  30.817  36.417  1.00  0.00     0.031 C 
ATOM     38  C   UNL A   1      43.048  29.326  34.484  1.00  0.00     0.034 A 
BRANCH  25  39
ATOM     39  C   UNL A   1      40.827  27.549  29.004  1.00  0.00     0.023 A 
ATOM     40  C   UNL A   1      39.956  26.446  28.899  1.00  0.00     0.012 A 
ATOM     41  C   UNL A   1      41.734  27.815  27.957  1.00  0.00     0.148 A 
ATOM     42  C   UNL A   1      39.998  25.612  27.782  1.00  0.00     0.002 A 
ATOM     43  C   UNL A   1      41.740  27.004  26.828  1.00  0.00     0.091 A 
ATOM     44  F   UNL A   1      42.565  28.860  28.082  1.00  0.00    -0.205 F 
ATOM     45  C   UNL A   1      40.880  25.897  26.743  1.00  0.00     0.022 A 
BRANCH  43  46
ATOM     46  S   UNL A   1      42.782  27.330  25.401  1.00  0.00     0.127 S 
ATOM     47  O   UNL A   1      42.618  26.099  24.628  1.00  0.00    -0.237 OA
ATOM     48  O   UNL A   1      42.140  28.507  24.815  1.00  0.00    -0.237 OA
ATOM     49  O   UNL A   1      44.122  27.562  25.923  1.00  0.00    -0.744 OA
ENDBRANCH  43  46
ENDBRANCH  25  39
BRANCH  26  50
ATOM     50  C   UNL A   1      39.508  33.653  36.823  1.00  0.00     0.023 A 
ATOM     51  C   UNL A   1      39.908  35.003  36.785  1.00  0.00     0.012 A 
ATOM     52  C   UNL A   1      38.874  33.156  37.979  1.00  0.00     0.148 A 
ATOM     53  C   UNL A   1      39.711  35.832  37.888  1.00  0.00     0.002 A 
ATOM     54  C   UNL A   1      38.625  34.005  39.050  1.00  0.00     0.091 A 
ATOM     55  F   UNL A   1      38.515  31.865  38.003  1.00  0.00    -0.205 F 
ATOM     56  C   UNL A   1      39.060  35.337  39.016  1.00  0.00     0.022 A 
BRANCH  54  57
ATOM     57  S   UNL A   1      37.664  33.483  40.475  1.00  0.00     0.127 S 
ATOM     58  O   UNL A   1      37.594  34.715  41.256  1.00  0.00    -0.237 OA
ATOM     59  O   UNL A   1      36.404  33.070  39.858  1.00  0.00    -0.237 OA
ATOM     60  O   UNL A   1      38.421  32.391  41.074  1.00  0.00    -0.744 OA
ENDBRANCH  54  57
ENDBRANCH  26  50
BRANCH  38  61
ATOM     61  C   UNL A   1      44.238  28.781  35.228  1.00  0.00     0.023 A 
ATOM     62  C   UNL A   1      45.513  29.344  35.020  1.00  0.00     0.012 A 
ATOM     63  C   UNL A   1      44.082  27.749  36.175  1.00  0.00     0.148 A 
ATOM     64  C   UNL A   1      46.620  28.864  35.716  1.00  0.00     0.002 A 
ATOM     65  C   UNL A   1      45.182  27.311  36.902  1.00  0.00     0.091 A 
ATOM     66  F   UNL A   1      42.864  27.214  36.342  1.00  0.00    -0.205 F 
ATOM     67  C   UNL A   1      46.453  27.858  36.665  1.00  0.00     0.022 A 
BRANCH  65  68
ATOM     68  S   UNL A   1      45.043  26.089  38.210  1.00  0.00     0.127 S 
ATOM     69  O   UNL A   1      46.427  25.986  38.669  1.00  0.00    -0.237 OA
ATOM     70  O   UNL A   1      44.134  26.744  39.151  1.00  0.00    -0.237 OA
ATOM     71  O   UNL A   1      44.502  24.890  37.584  1.00  0.00    -0.744 OA
ENDBRANCH  65  68
ENDBRANCH  38  61
ENDBRANCH  12  13
ENDBRANCH   5   7
ENDBRANCH   2   3
ENDBRANCH   1   2
BRANCH   1  72
ATOM     72  C   UNL A   1      31.415  30.839  26.319  1.00  0.00     0.002 C 
BRANCH  72  73
ATOM     73  C   UNL A   1      32.327  30.037  27.259  1.00  0.00     0.002 C 
BRANCH  73  74
ATOM     74  C   UNL A   1      32.618  28.599  26.814  1.00  0.00     0.021 C 
BRANCH  74  75
ATOM     75  C   UNL A   1      33.562  28.507  25.619  1.00  0.00     0.116 C 
BRANCH  75  76
ATOM     76  N   UNL A   1      33.243  27.378  24.770  1.00  0.00    -0.356 N 
ATOM     77  C   UNL A   1      32.223  27.063  23.941  1.00  0.00     0.223 C 
ATOM     78  H   UNL A   1      33.930  26.675  24.805  1.00  0.00     0.163 HD
ATOM     79  O   UNL A   1      32.338  25.965  23.378  1.00  0.00    -0.275 OA
BRANCH  77  80
ATOM     80  C   UNL A   1      30.949  27.891  23.726  1.00  0.00     0.083 C 
ATOM     81  C   UNL A   1      29.774  26.896  23.442  1.00  0.00     0.020 C 
ATOM     82  C   UNL A   1      30.977  29.001  22.660  1.00  0.00     0.052 C 
ATOM     83  C   UNL A   1      28.385  27.564  23.413  1.00  0.00     0.057 C 
ATOM     84  C   UNL A   1      29.622  29.526  22.368  1.00  0.00    -0.006 A 
ATOM     85  C   UNL A   1      28.472  28.854  22.698  1.00  0.00     0.038 A 
ATOM     86  C   UNL A   1      29.180  30.699  21.734  1.00  0.00     0.138 A 
ATOM     87  N   UNL A   1      27.437  29.625  22.268  1.00  0.00    -0.282 N 
ATOM     88  N   UNL A   1      27.845  30.763  21.676  1.00  0.00    -0.184 NA
ATOM     89  H   UNL A   1      26.490  29.378  22.379  1.00  0.00     0.190 HD
ENDBRANCH  77  80
ENDBRANCH  75  76
ENDBRANCH  74  75
ENDBRANCH  73  74
ENDBRANCH  72  73
ENDBRANCH   1  72
TORSDOF 16
ENDMDL
MODEL 3
REMARK VINA RESULT:     -11.2      2.383      3.731
REMARK SMILES O=C(NCCCCCCNC(=O)[C@@H]1CCc2[nH]ncc2C1)c1ccc(-c2c3nc(c(-c4cccc(S(=O)(=O)[O-])c4F)c4ccc([nH]4)c(-c4cccc(S(=O)(=O)[O-])c4F)c4nc(c(-c5cccc(S(=O)(=O)[O-])c5F)c5ccc2[nH]5)C=C4)C=C3)cc1
REMARK SMILES IDX 5 1 4 2 3 3 1 4 2 5 22 7 23 8 84 9 24 10 83 11 25 12 26 13
REMARK SMILES IDX 27 14 77 15 28 16 82 17 76 18 78 19 29 20 81 21 75 22 74 23
REMARK SMILES IDX 30 25 62 26 42 27 61 28 43 29 46 30 60 31 79 32 44 33 45 34
REMARK SMILES IDX 59 36 80 37 47 38 31 39 32 40 40 41 33 42 35 43 41 44 34 45
REMARK SMILES IDX 36 46 37 47 38 48 39 49 63 50 64 51 72 52 65 53 67 54 73 55
REMARK SMILES IDX 66 56 68 57 69 58 70 59 71 60 48 61 49 62 57 63 50 64 52 65
REMARK SMILES IDX 58 66 51 67 53 68 54 69 55 70 56 71 6 72 7 73 8 74 9 75
REMARK SMILES IDX 10 76 11 77 12 79 13 80 14 81 21 82 15 83 20 84 16 85 19 86
REMARK SMILES IDX 17 87 18 88
REMARK H PARENT 3 6 78 24 46 35 10 78 17 89
REMARK Flexibility Score: inf
ROOT
ATOM      1  C   UNL A   1      37.661  19.762  24.782  1.00  0.00     0.021 C 
ENDROOT
BRANCH   1   2
ATOM      2  C   UNL A   1      38.726  20.331  25.708  1.00  0.00     0.116 C 
BRANCH   2   3
ATOM      3  N   UNL A   1      39.791  19.374  25.947  1.00  0.00    -0.352 N 
ATOM      4  O   UNL A   1      41.934  18.695  26.097  1.00  0.00    -0.269 OA
ATOM      5  C   UNL A   1      41.127  19.611  26.171  1.00  0.00     0.251 C 
ATOM      6  H   UNL A   1      39.522  18.427  25.947  1.00  0.00     0.163 HD
BRANCH   5   7
ATOM      7  C   UNL A   1      41.568  20.987  26.491  1.00  0.00     0.039 A 
ATOM      8  C   UNL A   1      41.668  21.944  25.476  1.00  0.00     0.014 A 
ATOM      9  C   UNL A   1      41.871  21.325  27.811  1.00  0.00     0.014 A 
ATOM     10  C   UNL A   1      42.191  23.199  25.760  1.00  0.00     0.010 A 
ATOM     11  C   UNL A   1      42.307  22.619  28.110  1.00  0.00     0.010 A 
ATOM     12  C   UNL A   1      42.487  23.560  27.084  1.00  0.00    -0.014 A 
BRANCH  12  13
ATOM     13  C   UNL A   1      42.870  24.964  27.377  1.00  0.00     0.031 A 
ATOM     14  C   UNL A   1      41.912  25.921  28.027  1.00  0.00     0.074 A 
ATOM     15  C   UNL A   1      44.111  25.365  27.036  1.00  0.00     0.049 A 
ATOM     16  N   UNL A   1      42.106  27.172  28.356  1.00  0.00    -0.248 NA
ATOM     17  C   UNL A   1      40.565  25.420  28.343  1.00  0.00     0.031 C 
ATOM     18  C   UNL A   1      45.107  24.529  26.356  1.00  0.00     0.029 A 
ATOM     19  N   UNL A   1      44.749  26.566  27.203  1.00  0.00    -0.354 N 
ATOM     20  C   UNL A   1      40.900  27.622  28.879  1.00  0.00     0.074 A 
ATOM     21  C   UNL A   1      39.977  26.509  28.824  1.00  0.00     0.031 C 
ATOM     22  C   UNL A   1      46.233  25.235  26.185  1.00  0.00     0.029 A 
ATOM     23  C   UNL A   1      46.022  26.588  26.683  1.00  0.00     0.049 A 
ATOM     24  H   UNL A   1      44.335  27.339  27.652  1.00  0.00     0.167 HD
ATOM     25  C   UNL A   1      40.597  28.850  29.366  1.00  0.00     0.034 A 
ATOM     26  C   UNL A   1      46.914  27.591  26.592  1.00  0.00     0.034 A 
ATOM     27  C   UNL A   1      41.534  29.940  29.443  1.00  0.00     0.049 A 
ATOM     28  C   UNL A   1      46.552  28.932  27.159  1.00  0.00     0.074 A 
ATOM     29  C   UNL A   1      41.344  31.200  29.986  1.00  0.00     0.029 A 
ATOM     30  N   UNL A   1      42.830  29.911  28.952  1.00  0.00    -0.354 N 
ATOM     31  N   UNL A   1      45.453  29.296  27.775  1.00  0.00    -0.248 NA
ATOM     32  C   UNL A   1      47.560  29.993  27.047  1.00  0.00     0.031 C 
ATOM     33  C   UNL A   1      42.514  31.941  29.796  1.00  0.00     0.029 A 
ATOM     34  C   UNL A   1      43.447  31.133  29.164  1.00  0.00     0.049 A 
ATOM     35  H   UNL A   1      43.251  29.136  28.515  1.00  0.00     0.167 HD
ATOM     36  C   UNL A   1      45.648  30.618  28.147  1.00  0.00     0.074 A 
ATOM     37  C   UNL A   1      46.982  30.982  27.714  1.00  0.00     0.031 C 
ATOM     38  C   UNL A   1      44.792  31.463  28.772  1.00  0.00     0.034 A 
BRANCH  25  39
ATOM     39  C   UNL A   1      39.204  29.085  29.891  1.00  0.00     0.023 A 
ATOM     40  C   UNL A   1      38.878  28.695  31.206  1.00  0.00     0.012 A 
ATOM     41  C   UNL A   1      38.253  29.785  29.122  1.00  0.00     0.148 A 
ATOM     42  C   UNL A   1      37.621  28.981  31.739  1.00  0.00     0.002 A 
ATOM     43  C   UNL A   1      37.018  30.103  29.675  1.00  0.00     0.091 A 
ATOM     44  F   UNL A   1      38.577  30.134  27.868  1.00  0.00    -0.205 F 
ATOM     45  C   UNL A   1      36.697  29.694  30.980  1.00  0.00     0.022 A 
BRANCH  43  46
ATOM     46  S   UNL A   1      35.787  31.085  28.809  1.00  0.00     0.127 S 
ATOM     47  O   UNL A   1      36.624  32.073  28.129  1.00  0.00    -0.237 OA
ATOM     48  O   UNL A   1      35.172  30.096  27.924  1.00  0.00    -0.237 OA
ATOM     49  O   UNL A   1      34.903  31.620  29.835  1.00  0.00    -0.744 OA
ENDBRANCH  43  46
ENDBRANCH  25  39
BRANCH  26  50
ATOM     50  C   UNL A   1      48.241  27.351  25.959  1.00  0.00     0.023 A 
ATOM     51  C   UNL A   1      49.319  26.902  26.747  1.00  0.00     0.012 A 
ATOM     52  C   UNL A   1      48.433  27.539  24.576  1.00  0.00     0.148 A 
ATOM     53  C   UNL A   1      50.571  26.678  26.175  1.00  0.00     0.002 A 
ATOM     54  C   UNL A   1      49.665  27.254  24.003  1.00  0.00     0.091 A 
ATOM     55  F   UNL A   1      47.400  27.982  23.844  1.00  0.00    -0.205 F 
ATOM     56  C   UNL A   1      50.741  26.843  24.802  1.00  0.00     0.022 A 
BRANCH  54  57
ATOM     57  S   UNL A   1      49.924  27.300  22.226  1.00  0.00     0.127 S 
ATOM     58  O   UNL A   1      48.882  26.394  21.749  1.00  0.00    -0.237 OA
ATOM     59  O   UNL A   1      49.699  28.713  21.922  1.00  0.00    -0.237 OA
ATOM     60  O   UNL A   1      51.296  26.857  22.022  1.00  0.00    -0.744 OA
ENDBRANCH  54  57
ENDBRANCH  26  50
BRANCH  38  61
ATOM     61  C   UNL A   1      45.286  32.856  29.061  1.00  0.00     0.023 A 
ATOM     62  C   UNL A   1      45.961  33.124  30.268  1.00  0.00     0.012 A 
ATOM     63  C   UNL A   1      45.131  33.883  28.109  1.00  0.00     0.148 A 
ATOM     64  C   UNL A   1      46.443  34.403  30.540  1.00  0.00     0.002 A 
ATOM     65  C   UNL A   1      45.659  35.142  28.366  1.00  0.00     0.091 A 
ATOM     66  F   UNL A   1      44.468  33.611  26.976  1.00  0.00    -0.205 F 
ATOM     67  C   UNL A   1      46.303  35.407  29.585  1.00  0.00     0.022 A 
BRANCH  65  68
ATOM     68  S   UNL A   1      45.611  36.469  27.156  1.00  0.00     0.127 S 
ATOM     69  O   UNL A   1      44.172  36.692  27.018  1.00  0.00    -0.237 OA
ATOM     70  O   UNL A   1      46.333  37.540  27.842  1.00  0.00    -0.237 OA
ATOM     71  O   UNL A   1      46.280  35.954  25.969  1.00  0.00    -0.744 OA
ENDBRANCH  65  68
ENDBRANCH  38  61
ENDBRANCH  12  13
ENDBRANCH   5   7
ENDBRANCH   2   3
ENDBRANCH   1   2
BRANCH   1  72
ATOM     72  C   UNL A   1      36.277  20.386  24.968  1.00  0.00     0.002 C 
BRANCH  72  73
ATOM     73  C   UNL A   1      36.141  21.830  24.465  1.00  0.00     0.002 C 
BRANCH  73  74
ATOM     74  C   UNL A   1      34.704  22.303  24.217  1.00  0.00     0.021 C 
BRANCH  74  75
ATOM     75  C   UNL A   1      34.595  23.789  23.893  1.00  0.00     0.116 C 
BRANCH  75  76
ATOM     76  N   UNL A   1      34.143  24.555  25.036  1.00  0.00    -0.356 N 
ATOM     77  C   UNL A   1      33.405  25.675  25.205  1.00  0.00     0.223 C 
ATOM     78  H   UNL A   1      34.445  24.171  25.890  1.00  0.00     0.163 HD
ATOM     79  O   UNL A   1      33.237  26.007  26.387  1.00  0.00    -0.275 OA
BRANCH  77  80
ATOM     80  C   UNL A   1      32.859  26.571  24.086  1.00  0.00     0.083 C 
ATOM     81  C   UNL A   1      33.763  27.846  24.010  1.00  0.00     0.020 C 
ATOM     82  C   UNL A   1      31.374  26.973  24.139  1.00  0.00     0.052 C 
ATOM     83  C   UNL A   1      33.470  28.747  22.794  1.00  0.00     0.057 C 
ATOM     84  C   UNL A   1      31.053  28.046  23.168  1.00  0.00    -0.006 A 
ATOM     85  C   UNL A   1      32.010  28.844  22.591  1.00  0.00     0.038 A 
ATOM     86  C   UNL A   1      29.837  28.511  22.642  1.00  0.00     0.138 A 
ATOM     87  N   UNL A   1      31.350  29.710  21.777  1.00  0.00    -0.282 N 
ATOM     88  N   UNL A   1      30.017  29.525  21.787  1.00  0.00    -0.184 NA
ATOM     89  H   UNL A   1      31.799  30.400  21.235  1.00  0.00     0.190 HD
ENDBRANCH  77  80
ENDBRANCH  75  76
ENDBRANCH  74  75
ENDBRANCH  73  74
ENDBRANCH  72  73
ENDBRANCH   1  72
TORSDOF 16
ENDMDL
