MODEL 1
REMARK VINA RESULT:     -12.3      0.000      0.000
REMARK SMILES COc1ccc(-n2c(=O)[nH]c3cc(C(=O)NCCCCCCNC(=O)c4ccc(-c5c6nc(c(-c7cccc(S(=O)(=O)[O-])c7F)c7ccc([nH]7)c(-c7cccc(S(=O)(=O)[O-])c7F)c7nc(c(-c8cccc(S(=O)(=O)[O-])c8F)c8ccc5[nH]8)C=C7)C=C6)cc4)ccc3c2=O)cc1
REMARK SMILES IDX 20 1 19 2 18 3 17 4 16 5 14 6 15 7 13 9 7 10 8 11 92 12 9 13
REMARK SMILES IDX 10 14 91 15 93 16 11 17 90 19 12 20 89 21 6 22 3 23 4 24
REMARK SMILES IDX 95 25 5 26 94 27 2 28 1 29 21 30 22 31 23 32 24 33 25 35
REMARK SMILES IDX 26 36 27 37 88 38 28 39 87 40 29 41 30 42 31 43 81 44 32 45
REMARK SMILES IDX 86 46 80 47 82 48 33 49 85 50 79 51 78 52 34 54 66 55 46 56
REMARK SMILES IDX 65 57 47 58 50 59 64 60 83 61 48 62 49 63 63 65 84 66 51 67
REMARK SMILES IDX 35 68 36 69 44 70 37 71 39 72 45 73 38 74 40 75 41 76 42 77
REMARK SMILES IDX 43 78 67 79 68 80 76 81 69 82 71 83 77 84 70 85 72 86 73 87
REMARK SMILES IDX 74 88 75 89 52 90 53 91 61 92 54 93 56 94 62 95 55 96 57 97
REMARK SMILES IDX 58 98 59 99 60 100
REMARK H PARENT 16 8 10 18 23 34 82 53 50 64
REMARK Flexibility Score: inf
ROOT
ATOM      1  C   UNL A   1      34.300  30.483  27.560  1.00  0.00     0.002 C 
ENDROOT
BRANCH   1   2
ATOM      2  C   UNL A   1      33.368  29.452  26.919  1.00  0.00     0.002 C 
BRANCH   2   3
ATOM      3  C   UNL A   1      32.873  29.783  25.509  1.00  0.00     0.021 C 
BRANCH   3   4
ATOM      4  C   UNL A   1      31.376  30.038  25.378  1.00  0.00     0.116 C 
BRANCH   4   5
ATOM      5  N   UNL A   1      30.912  29.960  24.006  1.00  0.00    -0.352 N 
ATOM      6  C   UNL A   1      30.809  28.889  23.159  1.00  0.00     0.251 C 
ATOM      7  O   UNL A   1      30.513  29.087  21.981  1.00  0.00    -0.269 OA
ATOM      8  H   UNL A   1      30.625  30.820  23.619  1.00  0.00     0.163 HD
BRANCH   6   9
ATOM      9  C   UNL A   1      31.055  27.495  23.612  1.00  0.00     0.041 A 
ATOM     10  N   UNL A   1      32.897  22.814  23.866  1.00  0.00    -0.228 N 
ATOM     11  C   UNL A   1      33.895  23.579  23.246  1.00  0.00     0.333 A 
ATOM     12  C   UNL A   1      31.908  23.450  24.636  1.00  0.00     0.268 A 
ATOM     13  O   UNL A   1      34.960  23.187  22.770  1.00  0.00    -0.247 OA
ATOM     14  N   UNL A   1      33.668  24.929  23.136  1.00  0.00    -0.306 N 
ATOM     15  C   UNL A   1      31.592  24.844  24.298  1.00  0.00     0.064 A 
ATOM     16  O   UNL A   1      31.311  22.975  25.601  1.00  0.00    -0.268 OA
ATOM     17  C   UNL A   1      32.513  25.564  23.563  1.00  0.00     0.056 A 
ATOM     18  H   UNL A   1      34.372  25.482  22.727  1.00  0.00     0.171 HD
ATOM     19  C   UNL A   1      30.384  25.426  24.686  1.00  0.00     0.017 A 
ATOM     20  C   UNL A   1      32.271  26.898  23.238  1.00  0.00     0.040 A 
ATOM     21  C   UNL A   1      30.100  26.736  24.299  1.00  0.00     0.015 A 
BRANCH  10  22
ATOM     22  C   UNL A   1      32.918  21.356  23.831  1.00  0.00     0.054 A 
ATOM     23  C   UNL A   1      33.002  18.503  23.814  1.00  0.00     0.119 A 
ATOM     24  C   UNL A   1      33.716  19.218  24.762  1.00  0.00     0.048 A 
ATOM     25  C   UNL A   1      32.196  19.191  22.918  1.00  0.00     0.048 A 
ATOM     26  C   UNL A   1      33.670  20.619  24.770  1.00  0.00     0.031 A 
ATOM     27  C   UNL A   1      32.158  20.596  22.928  1.00  0.00     0.031 A 
BRANCH  23  28
ATOM     28  O   UNL A   1      33.102  17.142  23.864  1.00  0.00    -0.497 OA
ATOM     29  C   UNL A   1      34.221  16.631  23.143  1.00  0.00     0.278 C 
ENDBRANCH  23  28
ENDBRANCH  10  22
ENDBRANCH   6   9
ENDBRANCH   4   5
ENDBRANCH   3   4
ENDBRANCH   2   3
ENDBRANCH   1   2
BRANCH   1  30
ATOM     30  C   UNL A   1      34.006  31.946  27.227  1.00  0.00     0.021 C 
BRANCH  30  31
ATOM     31  C   UNL A   1      32.676  32.480  27.744  1.00  0.00     0.116 C 
BRANCH  31  32
ATOM     32  N   UNL A   1      32.651  33.930  27.828  1.00  0.00    -0.352 N 
ATOM     33  C   UNL A   1      33.425  34.770  28.591  1.00  0.00     0.251 C 
ATOM     34  H   UNL A   1      31.984  34.374  27.256  1.00  0.00     0.163 HD
ATOM     35  O   UNL A   1      33.152  35.962  28.657  1.00  0.00    -0.269 OA
BRANCH  33  36
ATOM     36  C   UNL A   1      34.574  34.227  29.349  1.00  0.00     0.039 A 
ATOM     37  C   UNL A   1      34.325  33.465  30.492  1.00  0.00     0.014 A 
ATOM     38  C   UNL A   1      35.887  34.466  28.935  1.00  0.00     0.014 A 
ATOM     39  C   UNL A   1      35.393  32.899  31.191  1.00  0.00     0.010 A 
ATOM     40  C   UNL A   1      36.944  33.834  29.586  1.00  0.00     0.010 A 
ATOM     41  C   UNL A   1      36.710  33.055  30.728  1.00  0.00    -0.014 A 
BRANCH  41  42
ATOM     42  C   UNL A   1      37.848  32.399  31.420  1.00  0.00     0.031 A 
ATOM     43  C   UNL A   1      38.562  31.238  30.785  1.00  0.00     0.074 A 
ATOM     44  C   UNL A   1      38.187  32.794  32.662  1.00  0.00     0.049 A 
ATOM     45  N   UNL A   1      39.546  30.517  31.255  1.00  0.00    -0.248 NA
ATOM     46  C   UNL A   1      38.086  30.811  29.459  1.00  0.00     0.031 C 
ATOM     47  C   UNL A   1      37.513  33.847  33.426  1.00  0.00     0.029 A 
ATOM     48  N   UNL A   1      39.160  32.336  33.515  1.00  0.00    -0.354 N 
ATOM     49  C   UNL A   1      39.785  29.532  30.304  1.00  0.00     0.074 A 
ATOM     50  C   UNL A   1      38.812  29.722  29.250  1.00  0.00     0.031 C 
ATOM     51  C   UNL A   1      38.090  33.951  34.632  1.00  0.00     0.029 A 
ATOM     52  C   UNL A   1      39.151  32.954  34.743  1.00  0.00     0.049 A 
ATOM     53  H   UNL A   1      39.804  31.632  33.269  1.00  0.00     0.167 HD
ATOM     54  C   UNL A   1      40.742  28.572  30.293  1.00  0.00     0.034 A 
ATOM     55  C   UNL A   1      39.897  32.734  35.842  1.00  0.00     0.034 A 
ATOM     56  C   UNL A   1      41.720  28.400  31.334  1.00  0.00     0.049 A 
ATOM     57  C   UNL A   1      40.979  31.691  35.799  1.00  0.00     0.074 A 
ATOM     58  C   UNL A   1      42.789  27.523  31.375  1.00  0.00     0.029 A 
ATOM     59  N   UNL A   1      41.735  29.105  32.529  1.00  0.00    -0.354 N 
ATOM     60  N   UNL A   1      41.301  30.880  34.820  1.00  0.00    -0.248 NA
ATOM     61  C   UNL A   1      41.826  31.561  36.992  1.00  0.00     0.031 C 
ATOM     62  C   UNL A   1      43.426  27.668  32.612  1.00  0.00     0.029 A 
ATOM     63  C   UNL A   1      42.782  28.668  33.324  1.00  0.00     0.049 A 
ATOM     64  H   UNL A   1      41.096  29.811  32.777  1.00  0.00     0.167 HD
ATOM     65  C   UNL A   1      42.404  30.161  35.267  1.00  0.00     0.074 A 
ATOM     66  C   UNL A   1      42.706  30.649  36.598  1.00  0.00     0.031 C 
ATOM     67  C   UNL A   1      43.096  29.180  34.636  1.00  0.00     0.034 A 
BRANCH  54  68
ATOM     68  C   UNL A   1      40.787  27.655  29.096  1.00  0.00     0.023 A 
ATOM     69  C   UNL A   1      39.926  26.538  29.034  1.00  0.00     0.012 A 
ATOM     70  C   UNL A   1      41.667  27.905  28.024  1.00  0.00     0.148 A 
ATOM     71  C   UNL A   1      39.983  25.654  27.958  1.00  0.00     0.002 A 
ATOM     72  C   UNL A   1      41.680  27.047  26.930  1.00  0.00     0.091 A 
ATOM     73  F   UNL A   1      42.492  28.958  28.105  1.00  0.00    -0.205 F 
ATOM     74  C   UNL A   1      40.853  25.912  26.903  1.00  0.00     0.022 A 
BRANCH  72  75
ATOM     75  S   UNL A   1      42.704  27.344  25.485  1.00  0.00     0.127 S 
ATOM     76  O   UNL A   1      42.042  28.502  24.888  1.00  0.00    -0.237 OA
ATOM     77  O   UNL A   1      44.008  27.630  26.084  1.00  0.00    -0.237 OA
ATOM     78  O   UNL A   1      42.655  26.117  24.702  1.00  0.00    -0.744 OA
ENDBRANCH  72  75
ENDBRANCH  54  68
BRANCH  55  79
ATOM     79  C   UNL A   1      39.661  33.559  37.059  1.00  0.00     0.023 A 
ATOM     80  C   UNL A   1      40.105  34.894  37.097  1.00  0.00     0.012 A 
ATOM     81  C   UNL A   1      38.930  33.044  38.147  1.00  0.00     0.148 A 
ATOM     82  C   UNL A   1      39.841  35.699  38.206  1.00  0.00     0.002 A 
ATOM     83  C   UNL A   1      38.618  33.868  39.222  1.00  0.00     0.091 A 
ATOM     84  F   UNL A   1      38.522  31.770  38.089  1.00  0.00    -0.205 F 
ATOM     85  C   UNL A   1      39.087  35.190  39.262  1.00  0.00     0.022 A 
BRANCH  83  86
ATOM     86  S   UNL A   1      37.534  33.345  40.555  1.00  0.00     0.127 S 
ATOM     87  O   UNL A   1      36.339  32.932  39.825  1.00  0.00    -0.237 OA
ATOM     88  O   UNL A   1      38.303  32.252  41.152  1.00  0.00    -0.237 OA
ATOM     89  O   UNL A   1      37.373  34.509  41.416  1.00  0.00    -0.744 OA
ENDBRANCH  83  86
ENDBRANCH  55  79
BRANCH  67  90
ATOM     90  C   UNL A   1      44.274  28.579  35.358  1.00  0.00     0.023 A 
ATOM     91  C   UNL A   1      45.574  29.066  35.116  1.00  0.00     0.012 A 
ATOM     92  C   UNL A   1      44.082  27.577  36.331  1.00  0.00     0.148 A 
ATOM     93  C   UNL A   1      46.667  28.542  35.807  1.00  0.00     0.002 A 
ATOM     94  C   UNL A   1      45.168  27.098  37.051  1.00  0.00     0.091 A 
ATOM     95  F   UNL A   1      42.840  27.113  36.533  1.00  0.00    -0.205 F 
ATOM     96  C   UNL A   1      46.464  27.569  36.781  1.00  0.00     0.022 A 
BRANCH  94  97
ATOM     97  S   UNL A   1      44.990  25.916  38.393  1.00  0.00     0.127 S 
ATOM     98  O   UNL A   1      44.474  24.743  37.690  1.00  0.00    -0.237 OA
ATOM     99  O   UNL A   1      46.365  25.785  38.875  1.00  0.00    -0.237 OA
ATOM    100  O   UNL A   1      44.071  26.524  39.346  1.00  0.00    -0.744 OA
ENDBRANCH  94  97
ENDBRANCH  67  90
ENDBRANCH  41  42
ENDBRANCH  33  36
ENDBRANCH  31  32
ENDBRANCH  30  31
ENDBRANCH   1  30
TORSDOF 18
ENDMDL
MODEL 2
REMARK VINA RESULT:     -12.1      1.645      2.620
REMARK SMILES COc1ccc(-n2c(=O)[nH]c3cc(C(=O)NCCCCCCNC(=O)c4ccc(-c5c6nc(c(-c7cccc(S(=O)(=O)[O-])c7F)c7ccc([nH]7)c(-c7cccc(S(=O)(=O)[O-])c7F)c7nc(c(-c8cccc(S(=O)(=O)[O-])c8F)c8ccc5[nH]8)C=C7)C=C6)cc4)ccc3c2=O)cc1
REMARK SMILES IDX 20 1 19 2 18 3 17 4 16 5 14 6 15 7 13 9 7 10 8 11 92 12 9 13
REMARK SMILES IDX 10 14 91 15 93 16 11 17 90 19 12 20 89 21 6 22 3 23 4 24
REMARK SMILES IDX 95 25 5 26 94 27 2 28 1 29 21 30 22 31 23 32 24 33 25 35
REMARK SMILES IDX 26 36 27 37 88 38 28 39 87 40 29 41 30 42 31 43 81 44 32 45
REMARK SMILES IDX 86 46 80 47 82 48 33 49 85 50 79 51 78 52 34 54 66 55 46 56
REMARK SMILES IDX 65 57 47 58 50 59 64 60 83 61 48 62 49 63 63 65 84 66 51 67
REMARK SMILES IDX 35 68 36 69 44 70 37 71 39 72 45 73 38 74 40 75 41 76 42 77
REMARK SMILES IDX 43 78 67 79 68 80 76 81 69 82 71 83 77 84 70 85 72 86 73 87
REMARK SMILES IDX 74 88 75 89 52 90 53 91 61 92 54 93 56 94 62 95 55 96 57 97
REMARK SMILES IDX 58 98 59 99 60 100
REMARK H PARENT 16 8 10 18 23 34 82 53 50 64
REMARK Flexibility Score: inf
ROOT
ATOM      1  C   UNL A   1      31.548  30.652  26.787  1.00  0.00     0.002 C 
ENDROOT
BRANCH   1   2
ATOM      2  C   UNL A   1      32.282  29.977  25.626  1.00  0.00     0.002 C 
BRANCH   2   3
ATOM      3  C   UNL A   1      32.656  28.507  25.835  1.00  0.00     0.021 C 
BRANCH   3   4
ATOM      4  C   UNL A   1      31.501  27.574  26.176  1.00  0.00     0.116 C 
BRANCH   4   5
ATOM      5  N   UNL A   1      30.653  27.290  25.034  1.00  0.00    -0.352 N 
ATOM      6  C   UNL A   1      30.864  26.487  23.945  1.00  0.00     0.251 C 
ATOM      7  O   UNL A   1      30.049  26.507  23.023  1.00  0.00    -0.269 OA
ATOM      8  H   UNL A   1      29.783  27.752  25.042  1.00  0.00     0.163 HD
BRANCH   6   9
ATOM      9  C   UNL A   1      32.052  25.601  23.833  1.00  0.00     0.041 A 
ATOM     10  N   UNL A   1      35.637  22.257  24.985  1.00  0.00    -0.228 N 
ATOM     11  C   UNL A   1      34.540  21.927  25.794  1.00  0.00     0.333 A 
ATOM     12  C   UNL A   1      35.442  23.023  23.824  1.00  0.00     0.268 A 
ATOM     13  O   UNL A   1      34.482  21.069  26.673  1.00  0.00    -0.247 OA
ATOM     14  N   UNL A   1      33.387  22.649  25.604  1.00  0.00    -0.306 N 
ATOM     15  C   UNL A   1      34.283  23.924  23.804  1.00  0.00     0.064 A 
ATOM     16  O   UNL A   1      36.116  22.982  22.795  1.00  0.00    -0.268 OA
ATOM     17  C   UNL A   1      33.257  23.689  24.699  1.00  0.00     0.056 A 
ATOM     18  H   UNL A   1      32.601  22.410  26.147  1.00  0.00     0.171 HD
ATOM     19  C   UNL A   1      34.221  25.006  22.926  1.00  0.00     0.017 A 
ATOM     20  C   UNL A   1      32.124  24.501  24.704  1.00  0.00     0.040 A 
ATOM     21  C   UNL A   1      33.127  25.869  22.977  1.00  0.00     0.015 A 
BRANCH  10  22
ATOM     22  C   UNL A   1      36.970  21.728  25.251  1.00  0.00     0.054 A 
ATOM     23  C   UNL A   1      39.596  20.752  25.797  1.00  0.00     0.119 A 
ATOM     24  C   UNL A   1      39.252  22.052  26.126  1.00  0.00     0.048 A 
ATOM     25  C   UNL A   1      38.628  19.913  25.262  1.00  0.00     0.048 A 
ATOM     26  C   UNL A   1      37.961  22.528  25.859  1.00  0.00     0.031 A 
ATOM     27  C   UNL A   1      37.337  20.397  24.993  1.00  0.00     0.031 A 
BRANCH  23  28
ATOM     28  O   UNL A   1      40.875  20.362  26.079  1.00  0.00    -0.497 OA
ATOM     29  C   UNL A   1      41.713  21.438  26.497  1.00  0.00     0.278 C 
ENDBRANCH  23  28
ENDBRANCH  10  22
ENDBRANCH   6   9
ENDBRANCH   4   5
ENDBRANCH   3   4
ENDBRANCH   2   3
ENDBRANCH   1   2
BRANCH   1  30
ATOM     30  C   UNL A   1      31.426  32.175  26.703  1.00  0.00     0.021 C 
BRANCH  30  31
ATOM     31  C   UNL A   1      32.720  32.947  26.931  1.00  0.00     0.116 C 
BRANCH  31  32
ATOM     32  N   UNL A   1      32.503  34.207  27.622  1.00  0.00    -0.352 N 
ATOM     33  C   UNL A   1      33.106  34.691  28.758  1.00  0.00     0.251 C 
ATOM     34  H   UNL A   1      31.826  34.798  27.218  1.00  0.00     0.163 HD
ATOM     35  O   UNL A   1      32.678  35.706  29.292  1.00  0.00    -0.269 OA
BRANCH  33  36
ATOM     36  C   UNL A   1      34.258  33.970  29.343  1.00  0.00     0.039 A 
ATOM     37  C   UNL A   1      35.548  34.357  28.978  1.00  0.00     0.014 A 
ATOM     38  C   UNL A   1      34.066  32.922  30.247  1.00  0.00     0.014 A 
ATOM     39  C   UNL A   1      36.649  33.725  29.558  1.00  0.00     0.010 A 
ATOM     40  C   UNL A   1      35.164  32.350  30.885  1.00  0.00     0.010 A 
ATOM     41  C   UNL A   1      36.467  32.736  30.539  1.00  0.00    -0.014 A 
BRANCH  41  42
ATOM     42  C   UNL A   1      37.628  32.106  31.217  1.00  0.00     0.031 A 
ATOM     43  C   UNL A   1      38.362  30.962  30.573  1.00  0.00     0.074 A 
ATOM     44  C   UNL A   1      37.972  32.508  32.457  1.00  0.00     0.049 A 
ATOM     45  N   UNL A   1      39.368  30.264  31.032  1.00  0.00    -0.248 NA
ATOM     46  C   UNL A   1      37.881  30.525  29.253  1.00  0.00     0.031 C 
ATOM     47  C   UNL A   1      37.282  33.544  33.228  1.00  0.00     0.029 A 
ATOM     48  N   UNL A   1      38.965  32.072  33.298  1.00  0.00    -0.354 N 
ATOM     49  C   UNL A   1      39.619  29.285  30.078  1.00  0.00     0.074 A 
ATOM     50  C   UNL A   1      38.630  29.454  29.034  1.00  0.00     0.031 C 
ATOM     51  C   UNL A   1      37.869  33.661  34.429  1.00  0.00     0.029 A 
ATOM     52  C   UNL A   1      38.954  32.689  34.526  1.00  0.00     0.049 A 
ATOM     53  H   UNL A   1      39.622  31.384  33.045  1.00  0.00     0.167 HD
ATOM     54  C   UNL A   1      40.597  28.349  30.055  1.00  0.00     0.034 A 
ATOM     55  C   UNL A   1      39.718  32.486  35.617  1.00  0.00     0.034 A 
ATOM     56  C   UNL A   1      41.591  28.199  31.085  1.00  0.00     0.049 A 
ATOM     57  C   UNL A   1      40.823  31.469  35.561  1.00  0.00     0.074 A 
ATOM     58  C   UNL A   1      42.680  27.347  31.114  1.00  0.00     0.029 A 
ATOM     59  N   UNL A   1      41.603  28.903  32.281  1.00  0.00    -0.354 N 
ATOM     60  N   UNL A   1      41.153  30.666  34.578  1.00  0.00    -0.248 NA
ATOM     61  C   UNL A   1      41.686  31.357  36.745  1.00  0.00     0.031 C 
ATOM     62  C   UNL A   1      43.327  27.506  32.344  1.00  0.00     0.029 A 
ATOM     63  C   UNL A   1      42.669  28.490  33.064  1.00  0.00     0.049 A 
ATOM     64  H   UNL A   1      40.950  29.594  32.536  1.00  0.00     0.167 HD
ATOM     65  C   UNL A   1      42.277  29.972  35.013  1.00  0.00     0.074 A 
ATOM     66  C   UNL A   1      42.582  30.466  36.340  1.00  0.00     0.031 C 
ATOM     67  C   UNL A   1      42.984  29.008  34.372  1.00  0.00     0.034 A 
BRANCH  54  68
ATOM     68  C   UNL A   1      40.651  27.434  28.857  1.00  0.00     0.023 A 
ATOM     69  C   UNL A   1      39.715  26.384  28.732  1.00  0.00     0.012 A 
ATOM     70  C   UNL A   1      41.614  27.619  27.845  1.00  0.00     0.148 A 
ATOM     71  C   UNL A   1      39.774  25.501  27.655  1.00  0.00     0.002 A 
ATOM     72  C   UNL A   1      41.633  26.765  26.748  1.00  0.00     0.091 A 
ATOM     73  F   UNL A   1      42.508  28.607  27.986  1.00  0.00    -0.205 F 
ATOM     74  C   UNL A   1      40.727  25.696  26.660  1.00  0.00     0.022 A 
BRANCH  72  75
ATOM     75  S   UNL A   1      42.767  26.988  25.374  1.00  0.00     0.127 S 
ATOM     76  O   UNL A   1      44.047  27.118  26.067  1.00  0.00    -0.237 OA
ATOM     77  O   UNL A   1      42.601  25.738  24.631  1.00  0.00    -0.237 OA
ATOM     78  O   UNL A   1      42.310  28.176  24.666  1.00  0.00    -0.744 OA
ENDBRANCH  72  75
ENDBRANCH  54  68
BRANCH  55  79
ATOM     79  C   UNL A   1      39.475  33.305  36.837  1.00  0.00     0.023 A 
ATOM     80  C   UNL A   1      39.926  34.637  36.887  1.00  0.00     0.012 A 
ATOM     81  C   UNL A   1      38.733  32.786  37.917  1.00  0.00     0.148 A 
ATOM     82  C   UNL A   1      39.657  35.436  37.999  1.00  0.00     0.002 A 
ATOM     83  C   UNL A   1      38.417  33.605  38.994  1.00  0.00     0.091 A 
ATOM     84  F   UNL A   1      38.319  31.514  37.847  1.00  0.00    -0.205 F 
ATOM     85  C   UNL A   1      38.892  34.924  39.046  1.00  0.00     0.022 A 
BRANCH  83  86
ATOM     86  S   UNL A   1      37.319  33.079  40.315  1.00  0.00     0.127 S 
ATOM     87  O   UNL A   1      37.418  34.197  41.249  1.00  0.00    -0.237 OA
ATOM     88  O   UNL A   1      36.039  32.972  39.612  1.00  0.00    -0.237 OA
ATOM     89  O   UNL A   1      37.852  31.811  40.793  1.00  0.00    -0.744 OA
ENDBRANCH  83  86
ENDBRANCH  55  79
BRANCH  67  90
ATOM     90  C   UNL A   1      44.185  28.434  35.081  1.00  0.00     0.023 A 
ATOM     91  C   UNL A   1      45.475  28.920  34.792  1.00  0.00     0.012 A 
ATOM     92  C   UNL A   1      44.023  27.461  36.087  1.00  0.00     0.148 A 
ATOM     93  C   UNL A   1      46.588  28.422  35.468  1.00  0.00     0.002 A 
ATOM     94  C   UNL A   1      45.130  27.007  36.793  1.00  0.00     0.091 A 
ATOM     95  F   UNL A   1      42.789  26.997  36.335  1.00  0.00    -0.205 F 
ATOM     96  C   UNL A   1      46.415  27.477  36.476  1.00  0.00     0.022 A 
BRANCH  94  97
ATOM     97  S   UNL A   1      44.993  25.865  38.173  1.00  0.00     0.127 S 
ATOM     98  O   UNL A   1      44.578  24.635  37.502  1.00  0.00    -0.237 OA
ATOM     99  O   UNL A   1      46.359  25.846  38.696  1.00  0.00    -0.237 OA
ATOM    100  O   UNL A   1      44.008  26.442  39.078  1.00  0.00    -0.744 OA
ENDBRANCH  94  97
ENDBRANCH  67  90
ENDBRANCH  41  42
ENDBRANCH  33  36
ENDBRANCH  31  32
ENDBRANCH  30  31
ENDBRANCH   1  30
TORSDOF 18
ENDMDL
MODEL 3
REMARK VINA RESULT:     -12.1      1.697      2.211
REMARK SMILES COc1ccc(-n2c(=O)[nH]c3cc(C(=O)NCCCCCCNC(=O)c4ccc(-c5c6nc(c(-c7cccc(S(=O)(=O)[O-])c7F)c7ccc([nH]7)c(-c7cccc(S(=O)(=O)[O-])c7F)c7nc(c(-c8cccc(S(=O)(=O)[O-])c8F)c8ccc5[nH]8)C=C7)C=C6)cc4)ccc3c2=O)cc1
REMARK SMILES IDX 20 1 19 2 18 3 17 4 16 5 14 6 15 7 13 9 7 10 8 11 92 12 9 13
REMARK SMILES IDX 10 14 91 15 93 16 11 17 90 19 12 20 89 21 6 22 3 23 4 24
REMARK SMILES IDX 95 25 5 26 94 27 2 28 1 29 21 30 22 31 23 32 24 33 25 35
REMARK SMILES IDX 26 36 27 37 88 38 28 39 87 40 29 41 30 42 31 43 81 44 32 45
REMARK SMILES IDX 86 46 80 47 82 48 33 49 85 50 79 51 78 52 34 54 66 55 46 56
REMARK SMILES IDX 65 57 47 58 50 59 64 60 83 61 48 62 49 63 63 65 84 66 51 67
REMARK SMILES IDX 35 68 36 69 44 70 37 71 39 72 45 73 38 74 40 75 41 76 42 77
REMARK SMILES IDX 43 78 67 79 68 80 76 81 69 82 71 83 77 84 70 85 72 86 73 87
REMARK SMILES IDX 74 88 75 89 52 90 53 91 61 92 54 93 56 94 62 95 55 96 57 97
REMARK SMILES IDX 58 98 59 99 60 100
REMARK H PARENT 16 8 10 18 23 34 82 53 50 64
REMARK Flexibility Score: inf
ROOT
ATOM      1  C   UNL A   1      31.258  30.618  25.664  1.00  0.00     0.002 C 
ENDROOT
BRANCH   1   2
ATOM      2  C   UNL A   1      30.322  30.592  24.453  1.00  0.00     0.002 C 
BRANCH   2   3
ATOM      3  C   UNL A   1      30.166  29.238  23.756  1.00  0.00     0.021 C 
BRANCH   3   4
ATOM      4  C   UNL A   1      30.795  29.131  22.373  1.00  0.00     0.116 C 
BRANCH   4   5
ATOM      5  N   UNL A   1      32.228  29.358  22.390  1.00  0.00    -0.352 N 
ATOM      6  C   UNL A   1      33.266  28.488  22.589  1.00  0.00     0.251 C 
ATOM      7  O   UNL A   1      34.407  28.936  22.696  1.00  0.00    -0.269 OA
ATOM      8  H   UNL A   1      32.498  30.292  22.232  1.00  0.00     0.163 HD
BRANCH   6   9
ATOM      9  C   UNL A   1      33.060  27.020  22.694  1.00  0.00     0.041 A 
ATOM     10  N   UNL A   1      33.018  22.324  24.514  1.00  0.00    -0.228 N 
ATOM     11  C   UNL A   1      32.951  23.164  25.635  1.00  0.00     0.333 A 
ATOM     12  C   UNL A   1      32.652  22.817  23.251  1.00  0.00     0.268 A 
ATOM     13  O   UNL A   1      32.975  22.841  26.822  1.00  0.00    -0.247 OA
ATOM     14  N   UNL A   1      32.860  24.514  25.398  1.00  0.00    -0.306 N 
ATOM     15  C   UNL A   1      32.789  24.262  23.032  1.00  0.00     0.064 A 
ATOM     16  O   UNL A   1      32.179  22.169  22.318  1.00  0.00    -0.268 OA
ATOM     17  C   UNL A   1      32.866  25.087  24.137  1.00  0.00     0.056 A 
ATOM     18  H   UNL A   1      32.785  25.113  26.176  1.00  0.00     0.171 HD
ATOM     19  C   UNL A   1      32.864  24.796  21.745  1.00  0.00     0.017 A 
ATOM     20  C   UNL A   1      32.972  26.468  23.983  1.00  0.00     0.040 A 
ATOM     21  C   UNL A   1      33.048  26.169  21.582  1.00  0.00     0.015 A 
BRANCH  10  22
ATOM     22  C   UNL A   1      33.350  20.909  24.638  1.00  0.00     0.054 A 
ATOM     23  C   UNL A   1      34.063  18.155  24.873  1.00  0.00     0.119 A 
ATOM     24  C   UNL A   1      35.046  19.123  24.744  1.00  0.00     0.048 A 
ATOM     25  C   UNL A   1      32.735  18.550  24.955  1.00  0.00     0.048 A 
ATOM     26  C   UNL A   1      34.693  20.475  24.631  1.00  0.00     0.031 A 
ATOM     27  C   UNL A   1      32.387  19.906  24.836  1.00  0.00     0.031 A 
BRANCH  23  28
ATOM     28  O   UNL A   1      34.484  16.859  24.970  1.00  0.00    -0.497 OA
ATOM     29  C   UNL A   1      33.457  15.963  25.389  1.00  0.00     0.278 C 
ENDBRANCH  23  28
ENDBRANCH  10  22
ENDBRANCH   6   9
ENDBRANCH   4   5
ENDBRANCH   3   4
ENDBRANCH   2   3
ENDBRANCH   1   2
BRANCH   1  30
ATOM     30  C   UNL A   1      31.227  31.896  26.504  1.00  0.00     0.021 C 
BRANCH  30  31
ATOM     31  C   UNL A   1      32.589  32.489  26.841  1.00  0.00     0.116 C 
BRANCH  31  32
ATOM     32  N   UNL A   1      32.493  33.832  27.389  1.00  0.00    -0.352 N 
ATOM     33  C   UNL A   1      33.215  34.411  28.404  1.00  0.00     0.251 C 
ATOM     34  H   UNL A   1      31.811  34.409  26.973  1.00  0.00     0.163 HD
ATOM     35  O   UNL A   1      32.883  35.505  28.844  1.00  0.00    -0.269 OA
BRANCH  33  36
ATOM     36  C   UNL A   1      34.380  33.701  28.976  1.00  0.00     0.039 A 
ATOM     37  C   UNL A   1      35.662  34.179  28.699  1.00  0.00     0.014 A 
ATOM     38  C   UNL A   1      34.209  32.571  29.781  1.00  0.00     0.014 A 
ATOM     39  C   UNL A   1      36.771  33.555  29.272  1.00  0.00     0.010 A 
ATOM     40  C   UNL A   1      35.310  32.001  30.416  1.00  0.00     0.010 A 
ATOM     41  C   UNL A   1      36.604  32.478  30.158  1.00  0.00    -0.014 A 
BRANCH  41  42
ATOM     42  C   UNL A   1      37.769  31.851  30.831  1.00  0.00     0.031 A 
ATOM     43  C   UNL A   1      38.577  30.793  30.132  1.00  0.00     0.074 A 
ATOM     44  C   UNL A   1      38.051  32.172  32.109  1.00  0.00     0.049 A 
ATOM     45  N   UNL A   1      39.599  30.107  30.574  1.00  0.00    -0.248 NA
ATOM     46  C   UNL A   1      38.163  30.437  28.765  1.00  0.00     0.031 C 
ATOM     47  C   UNL A   1      37.287  33.115  32.929  1.00  0.00     0.029 A 
ATOM     48  N   UNL A   1      39.034  31.718  32.952  1.00  0.00    -0.354 N 
ATOM     49  C   UNL A   1      39.928  29.216  29.560  1.00  0.00     0.074 A 
ATOM     50  C   UNL A   1      38.969  29.420  28.495  1.00  0.00     0.031 C 
ATOM     51  C   UNL A   1      37.827  33.165  34.156  1.00  0.00     0.029 A 
ATOM     52  C   UNL A   1      38.952  32.238  34.222  1.00  0.00     0.049 A 
ATOM     53  H   UNL A   1      39.731  31.080  32.673  1.00  0.00     0.167 HD
ATOM     54  C   UNL A   1      40.950  28.328  29.504  1.00  0.00     0.034 A 
ATOM     55  C   UNL A   1      39.687  31.986  35.323  1.00  0.00     0.034 A 
ATOM     56  C   UNL A   1      41.913  28.145  30.557  1.00  0.00     0.049 A 
ATOM     57  C   UNL A   1      40.840  31.026  35.232  1.00  0.00     0.074 A 
ATOM     58  C   UNL A   1      43.040  27.342  30.562  1.00  0.00     0.029 A 
ATOM     59  N   UNL A   1      41.852  28.755  31.801  1.00  0.00    -0.354 N 
ATOM     60  N   UNL A   1      41.241  30.316  34.205  1.00  0.00    -0.248 NA
ATOM     61  C   UNL A   1      41.666  30.863  36.436  1.00  0.00     0.031 C 
ATOM     62  C   UNL A   1      43.637  27.435  31.824  1.00  0.00     0.029 A 
ATOM     63  C   UNL A   1      42.908  28.331  32.591  1.00  0.00     0.049 A 
ATOM     64  H   UNL A   1      41.159  29.395  32.082  1.00  0.00     0.167 HD
ATOM     65  C   UNL A   1      42.381  29.642  34.629  1.00  0.00     0.074 A 
ATOM     66  C   UNL A   1      42.617  30.046  36.000  1.00  0.00     0.031 C 
ATOM     67  C   UNL A   1      43.154  28.762  33.945  1.00  0.00     0.034 A 
BRANCH  54  68
ATOM     68  C   UNL A   1      41.087  27.511  28.244  1.00  0.00     0.023 A 
ATOM     69  C   UNL A   1      41.687  28.079  27.099  1.00  0.00     0.012 A 
ATOM     70  C   UNL A   1      40.639  26.176  28.192  1.00  0.00     0.148 A 
ATOM     71  C   UNL A   1      41.784  27.356  25.912  1.00  0.00     0.002 A 
ATOM     72  C   UNL A   1      40.786  25.445  27.019  1.00  0.00     0.091 A 
ATOM     73  F   UNL A   1      40.053  25.655  29.280  1.00  0.00    -0.205 F 
ATOM     74  C   UNL A   1      41.341  26.038  25.874  1.00  0.00     0.022 A 
BRANCH  72  75
ATOM     75  S   UNL A   1      40.325  23.713  26.899  1.00  0.00     0.127 S 
ATOM     76  O   UNL A   1      41.084  23.288  25.725  1.00  0.00    -0.237 OA
ATOM     77  O   UNL A   1      40.814  23.174  28.168  1.00  0.00    -0.237 OA
ATOM     78  O   UNL A   1      38.876  23.694  26.753  1.00  0.00    -0.744 OA
ENDBRANCH  72  75
ENDBRANCH  54  68
BRANCH  55  79
ATOM     79  C   UNL A   1      39.365  32.698  36.590  1.00  0.00     0.023 A 
ATOM     80  C   UNL A   1      39.922  33.965  36.843  1.00  0.00     0.012 A 
ATOM     81  C   UNL A   1      38.448  32.152  37.510  1.00  0.00     0.148 A 
ATOM     82  C   UNL A   1      39.585  34.671  37.998  1.00  0.00     0.002 A 
ATOM     83  C   UNL A   1      38.071  32.885  38.628  1.00  0.00     0.091 A 
ATOM     84  F   UNL A   1      37.935  30.942  37.249  1.00  0.00    -0.205 F 
ATOM     85  C   UNL A   1      38.651  34.137  38.883  1.00  0.00     0.022 A 
BRANCH  83  86
ATOM     86  S   UNL A   1      36.771  32.344  39.743  1.00  0.00     0.127 S 
ATOM     87  O   UNL A   1      37.269  31.040  40.173  1.00  0.00    -0.237 OA
ATOM     88  O   UNL A   1      36.806  33.388  40.768  1.00  0.00    -0.237 OA
ATOM     89  O   UNL A   1      35.551  32.319  38.949  1.00  0.00    -0.744 OA
ENDBRANCH  83  86
ENDBRANCH  55  79
BRANCH  67  90
ATOM     90  C   UNL A   1      44.355  28.189  34.654  1.00  0.00     0.023 A 
ATOM     91  C   UNL A   1      45.569  28.905  34.678  1.00  0.00     0.012 A 
ATOM     92  C   UNL A   1      44.258  26.972  35.357  1.00  0.00     0.148 A 
ATOM     93  C   UNL A   1      46.675  28.401  35.362  1.00  0.00     0.002 A 
ATOM     94  C   UNL A   1      45.347  26.503  36.080  1.00  0.00     0.091 A 
ATOM     95  F   UNL A   1      43.100  26.296  35.307  1.00  0.00    -0.205 F 
ATOM     96  C   UNL A   1      46.561  27.209  36.072  1.00  0.00     0.022 A 
BRANCH  94  97
ATOM     97  S   UNL A   1      45.264  25.029  37.104  1.00  0.00     0.127 S 
ATOM     98  O   UNL A   1      43.849  25.001  37.471  1.00  0.00    -0.237 OA
ATOM     99  O   UNL A   1      45.674  23.980  36.170  1.00  0.00    -0.237 OA
ATOM    100  O   UNL A   1      46.189  25.252  38.207  1.00  0.00    -0.744 OA
ENDBRANCH  94  97
ENDBRANCH  67  90
ENDBRANCH  41  42
ENDBRANCH  33  36
ENDBRANCH  31  32
ENDBRANCH  30  31
ENDBRANCH   1  30
TORSDOF 18
ENDMDL
