MODEL 1
REMARK VINA RESULT:      -9.6      0.000      0.000
REMARK SMILES COc1ccc(-c2ncn(CC(=O)NCCCCCCNC(=O)c3ccc(-c4c5nc(c(-c6cccc(S(=O)(=O)[O-])c6F)c6ccc([nH]6)c(-c6cccc(S(=O)(=O)[O-])c6F)c6nc(c(-c7cccc(S(=O)(=O)[O-])c7F)c7ccc4[nH]7)C=C6)C=C5)cc3)c2-c2ccc(OC)cc2)cc1
REMARK SMILES IDX 17 1 16 2 15 3 14 4 12 5 13 6 11 8 10 9 7 10 8 11 87 12 9 13
REMARK SMILES IDX 6 14 3 15 4 16 97 17 5 18 96 19 2 20 1 21 88 22 89 23 95 24
REMARK SMILES IDX 90 25 94 26 91 27 92 28 93 29 18 30 19 31 20 32 21 33 22 34
REMARK SMILES IDX 23 36 24 37 25 38 86 39 26 40 85 41 27 42 28 43 29 44 79 45
REMARK SMILES IDX 30 46 84 47 78 48 80 49 31 50 83 51 77 52 76 53 32 55 64 56
REMARK SMILES IDX 44 57 63 58 45 59 48 60 62 61 81 62 46 63 47 64 61 66 82 67
REMARK SMILES IDX 49 68 33 69 34 70 42 71 35 72 37 73 43 74 36 75 38 76 39 77
REMARK SMILES IDX 40 78 41 79 65 80 66 81 74 82 67 83 69 84 75 85 68 86 70 87
REMARK SMILES IDX 71 88 72 89 73 90 50 91 51 92 59 93 52 94 54 95 60 96 53 97
REMARK SMILES IDX 55 98 56 99 57 100 58 101
REMARK H PARENT 14 7 21 35 80 54 48 65
REMARK Flexibility Score: inf
ROOT
ATOM      1  C   UNL A   1      45.375  28.948  36.031  1.00  0.00     0.002 C 
ENDROOT
BRANCH   1   2
ATOM      2  C   UNL A   1      44.205  29.735  35.428  1.00  0.00     0.021 C 
BRANCH   2   3
ATOM      3  C   UNL A   1      43.007  29.919  36.359  1.00  0.00     0.116 C 
BRANCH   3   4
ATOM      4  N   UNL A   1      41.782  29.371  35.811  1.00  0.00    -0.355 N 
ATOM      5  C   UNL A   1      40.643  30.013  35.420  1.00  0.00     0.239 C 
ATOM      6  O   UNL A   1      39.785  29.344  34.835  1.00  0.00    -0.273 OA
ATOM      7  H   UNL A   1      41.770  28.392  35.706  1.00  0.00     0.163 HD
BRANCH   5   8
ATOM      8  C   UNL A   1      40.476  31.507  35.607  1.00  0.00     0.223 C 
BRANCH   8   9
ATOM      9  N   UNL A   1      39.115  31.980  35.443  1.00  0.00    -0.321 N 
ATOM     10  C   UNL A   1      37.237  32.796  34.708  1.00  0.00     0.096 A 
ATOM     11  N   UNL A   1      37.040  32.505  36.030  1.00  0.00    -0.236 NA
ATOM     12  C   UNL A   1      38.542  32.523  34.320  1.00  0.00     0.076 A 
ATOM     13  C   UNL A   1      38.193  32.048  36.454  1.00  0.00     0.201 A 
BRANCH  10  14
ATOM     14  C   UNL A   1      36.298  33.449  33.823  1.00  0.00     0.003 A 
ATOM     15  C   UNL A   1      34.102  34.567  32.479  1.00  0.00     0.118 A 
ATOM     16  C   UNL A   1      34.858  35.340  33.365  1.00  0.00     0.047 A 
ATOM     17  C   UNL A   1      34.462  33.236  32.257  1.00  0.00     0.047 A 
ATOM     18  C   UNL A   1      35.951  34.789  34.035  1.00  0.00     0.014 A 
ATOM     19  C   UNL A   1      35.569  32.684  32.911  1.00  0.00     0.014 A 
BRANCH  15  20
ATOM     20  O   UNL A   1      33.049  35.229  31.906  1.00  0.00    -0.497 OA
ATOM     21  C   UNL A   1      33.027  35.284  30.486  1.00  0.00     0.278 C 
ENDBRANCH  15  20
ENDBRANCH  10  14
BRANCH  12  22
ATOM     22  C   UNL A   1      39.207  32.870  33.070  1.00  0.00     0.001 A 
ATOM     23  C   UNL A   1      39.815  34.109  32.876  1.00  0.00     0.014 A 
ATOM     24  C   UNL A   1      39.361  31.875  32.096  1.00  0.00     0.014 A 
ATOM     25  C   UNL A   1      40.535  34.357  31.705  1.00  0.00     0.047 A 
ATOM     26  C   UNL A   1      40.110  32.111  30.944  1.00  0.00     0.047 A 
ATOM     27  C   UNL A   1      40.696  33.359  30.740  1.00  0.00     0.118 A 
BRANCH  27  28
ATOM     28  O   UNL A   1      41.442  33.717  29.651  1.00  0.00    -0.497 OA
ATOM     29  C   UNL A   1      41.725  35.105  29.519  1.00  0.00     0.278 C 
ENDBRANCH  27  28
ENDBRANCH  12  22
ENDBRANCH   8   9
ENDBRANCH   5   8
ENDBRANCH   3   4
ENDBRANCH   2   3
ENDBRANCH   1   2
BRANCH   1  30
ATOM     30  C   UNL A   1      45.289  28.652  37.536  1.00  0.00     0.002 C 
BRANCH  30  31
ATOM     31  C   UNL A   1      45.967  27.365  38.027  1.00  0.00     0.021 C 
BRANCH  31  32
ATOM     32  C   UNL A   1      47.329  27.100  37.403  1.00  0.00     0.116 C 
BRANCH  32  33
ATOM     33  N   UNL A   1      47.604  25.671  37.259  1.00  0.00    -0.352 N 
ATOM     34  C   UNL A   1      47.020  24.773  36.385  1.00  0.00     0.251 C 
ATOM     35  H   UNL A   1      48.292  25.303  37.860  1.00  0.00     0.163 HD
ATOM     36  O   UNL A   1      47.054  23.575  36.606  1.00  0.00    -0.269 OA
BRANCH  34  37
ATOM     37  C   UNL A   1      46.352  25.301  35.179  1.00  0.00     0.039 A 
ATOM     38  C   UNL A   1      47.092  25.727  34.074  1.00  0.00     0.014 A 
ATOM     39  C   UNL A   1      44.960  25.333  35.159  1.00  0.00     0.014 A 
ATOM     40  C   UNL A   1      46.411  26.106  32.918  1.00  0.00     0.010 A 
ATOM     41  C   UNL A   1      44.299  25.555  33.976  1.00  0.00     0.010 A 
ATOM     42  C   UNL A   1      45.012  25.995  32.867  1.00  0.00    -0.014 A 
BRANCH  42  43
ATOM     43  C   UNL A   1      44.294  26.221  31.613  1.00  0.00     0.031 A 
ATOM     44  C   UNL A   1      44.510  25.163  30.586  1.00  0.00     0.074 A 
ATOM     45  C   UNL A   1      43.353  27.179  31.457  1.00  0.00     0.049 A 
ATOM     46  N   UNL A   1      45.143  25.269  29.463  1.00  0.00    -0.248 NA
ATOM     47  C   UNL A   1      44.112  23.785  30.917  1.00  0.00     0.031 C 
ATOM     48  C   UNL A   1      42.788  28.071  32.481  1.00  0.00     0.029 A 
ATOM     49  N   UNL A   1      42.591  27.466  30.365  1.00  0.00    -0.354 N 
ATOM     50  C   UNL A   1      44.996  24.032  28.834  1.00  0.00     0.074 A 
ATOM     51  C   UNL A   1      44.560  23.116  29.852  1.00  0.00     0.031 C 
ATOM     52  C   UNL A   1      41.623  28.591  32.035  1.00  0.00     0.029 A 
ATOM     53  C   UNL A   1      41.462  28.233  30.641  1.00  0.00     0.049 A 
ATOM     54  H   UNL A   1      42.819  27.157  29.458  1.00  0.00     0.167 HD
ATOM     55  C   UNL A   1      44.984  23.930  27.474  1.00  0.00     0.034 A 
ATOM     56  C   UNL A   1      40.444  28.518  29.794  1.00  0.00     0.034 A 
ATOM     57  C   UNL A   1      45.493  25.134  26.860  1.00  0.00     0.049 A 
ATOM     58  C   UNL A   1      40.910  28.258  28.422  1.00  0.00     0.074 A 
ATOM     59  C   UNL A   1      46.673  25.848  26.917  1.00  0.00     0.029 A 
ATOM     60  N   UNL A   1      44.562  25.988  26.323  1.00  0.00    -0.354 N 
ATOM     61  N   UNL A   1      41.805  28.988  27.825  1.00  0.00    -0.248 NA
ATOM     62  C   UNL A   1      40.681  26.940  27.856  1.00  0.00     0.031 C 
ATOM     63  C   UNL A   1      46.277  27.218  26.860  1.00  0.00     0.029 A 
ATOM     64  C   UNL A   1      44.891  27.258  26.704  1.00  0.00     0.049 A 
ATOM     65  H   UNL A   1      43.794  25.731  25.764  1.00  0.00     0.167 HD
ATOM     66  C   UNL A   1      42.579  28.067  27.140  1.00  0.00     0.074 A 
ATOM     67  C   UNL A   1      41.766  26.853  27.082  1.00  0.00     0.031 C 
ATOM     68  C   UNL A   1      43.913  28.289  26.959  1.00  0.00     0.034 A 
BRANCH  55  69
ATOM     69  C   UNL A   1      44.155  22.939  26.672  1.00  0.00     0.023 A 
ATOM     70  C   UNL A   1      42.747  23.057  26.773  1.00  0.00     0.012 A 
ATOM     71  C   UNL A   1      44.647  21.757  26.074  1.00  0.00     0.148 A 
ATOM     72  C   UNL A   1      41.887  22.024  26.384  1.00  0.00     0.002 A 
ATOM     73  C   UNL A   1      43.784  20.768  25.612  1.00  0.00     0.091 A 
ATOM     74  F   UNL A   1      45.957  21.505  26.052  1.00  0.00    -0.205 F 
ATOM     75  C   UNL A   1      42.407  20.877  25.801  1.00  0.00     0.022 A 
BRANCH  73  76
ATOM     76  S   UNL A   1      44.393  19.290  24.786  1.00  0.00     0.127 S 
ATOM     77  O   UNL A   1      43.324  18.339  25.066  1.00  0.00    -0.237 OA
ATOM     78  O   UNL A   1      44.473  19.741  23.396  1.00  0.00    -0.237 OA
ATOM     79  O   UNL A   1      45.688  19.008  25.392  1.00  0.00    -0.744 OA
ENDBRANCH  73  76
ENDBRANCH  55  69
BRANCH  56  80
ATOM     80  C   UNL A   1      39.002  28.686  30.056  1.00  0.00     0.023 A 
ATOM     81  C   UNL A   1      38.469  28.366  31.318  1.00  0.00     0.012 A 
ATOM     82  C   UNL A   1      38.268  29.530  29.207  1.00  0.00     0.148 A 
ATOM     83  C   UNL A   1      37.244  28.900  31.736  1.00  0.00     0.002 A 
ATOM     84  C   UNL A   1      37.077  30.095  29.649  1.00  0.00     0.091 A 
ATOM     85  F   UNL A   1      38.809  29.884  28.032  1.00  0.00    -0.205 F 
ATOM     86  C   UNL A   1      36.553  29.777  30.906  1.00  0.00     0.022 A 
BRANCH  84  87
ATOM     87  S   UNL A   1      36.266  31.367  28.687  1.00  0.00     0.127 S 
ATOM     88  O   UNL A   1      36.006  30.688  27.416  1.00  0.00    -0.237 OA
ATOM     89  O   UNL A   1      35.073  31.632  29.482  1.00  0.00    -0.237 OA
ATOM     90  O   UNL A   1      37.249  32.436  28.627  1.00  0.00    -0.744 OA
ENDBRANCH  84  87
ENDBRANCH  56  80
BRANCH  68  91
ATOM     91  C   UNL A   1      44.439  29.661  27.294  1.00  0.00     0.023 A 
ATOM     92  C   UNL A   1      44.302  30.764  26.422  1.00  0.00     0.012 A 
ATOM     93  C   UNL A   1      44.970  29.871  28.574  1.00  0.00     0.148 A 
ATOM     94  C   UNL A   1      44.714  32.042  26.810  1.00  0.00     0.002 A 
ATOM     95  C   UNL A   1      45.336  31.150  28.974  1.00  0.00     0.091 A 
ATOM     96  F   UNL A   1      45.094  28.813  29.390  1.00  0.00    -0.205 F 
ATOM     97  C   UNL A   1      45.221  32.237  28.093  1.00  0.00     0.022 A 
BRANCH  95  98
ATOM     98  S   UNL A   1      45.882  31.484  30.649  1.00  0.00     0.127 S 
ATOM     99  O   UNL A   1      47.226  30.911  30.652  1.00  0.00    -0.237 OA
ATOM    100  O   UNL A   1      45.838  32.946  30.708  1.00  0.00    -0.237 OA
ATOM    101  O   UNL A   1      44.916  30.826  31.523  1.00  0.00    -0.744 OA
ENDBRANCH  95  98
ENDBRANCH  68  91
ENDBRANCH  42  43
ENDBRANCH  34  37
ENDBRANCH  32  33
ENDBRANCH  31  32
ENDBRANCH  30  31
ENDBRANCH   1  30
TORSDOF 21
ENDMDL
MODEL 2
REMARK VINA RESULT:      -8.1      3.350      8.796
REMARK SMILES COc1ccc(-c2ncn(CC(=O)NCCCCCCNC(=O)c3ccc(-c4c5nc(c(-c6cccc(S(=O)(=O)[O-])c6F)c6ccc([nH]6)c(-c6cccc(S(=O)(=O)[O-])c6F)c6nc(c(-c7cccc(S(=O)(=O)[O-])c7F)c7ccc4[nH]7)C=C6)C=C5)cc3)c2-c2ccc(OC)cc2)cc1
REMARK SMILES IDX 17 1 16 2 15 3 14 4 12 5 13 6 11 8 10 9 7 10 8 11 87 12 9 13
REMARK SMILES IDX 6 14 3 15 4 16 97 17 5 18 96 19 2 20 1 21 88 22 89 23 95 24
REMARK SMILES IDX 90 25 94 26 91 27 92 28 93 29 18 30 19 31 20 32 21 33 22 34
REMARK SMILES IDX 23 36 24 37 25 38 86 39 26 40 85 41 27 42 28 43 29 44 79 45
REMARK SMILES IDX 30 46 84 47 78 48 80 49 31 50 83 51 77 52 76 53 32 55 64 56
REMARK SMILES IDX 44 57 63 58 45 59 48 60 62 61 81 62 46 63 47 64 61 66 82 67
REMARK SMILES IDX 49 68 33 69 34 70 42 71 35 72 37 73 43 74 36 75 38 76 39 77
REMARK SMILES IDX 40 78 41 79 65 80 66 81 74 82 67 83 69 84 75 85 68 86 70 87
REMARK SMILES IDX 71 88 72 89 73 90 50 91 51 92 59 93 52 94 54 95 60 96 53 97
REMARK SMILES IDX 55 98 56 99 57 100 58 101
REMARK H PARENT 14 7 21 35 80 54 48 65
REMARK Flexibility Score: inf
ROOT
ATOM      1  C   UNL A   1      36.254  31.717  32.850  1.00  0.00     0.002 C 
ENDROOT
BRANCH   1   2
ATOM      2  C   UNL A   1      37.652  31.103  33.006  1.00  0.00     0.021 C 
BRANCH   2   3
ATOM      3  C   UNL A   1      38.706  32.047  33.582  1.00  0.00     0.116 C 
BRANCH   3   4
ATOM      4  N   UNL A   1      39.881  32.157  32.740  1.00  0.00    -0.355 N 
ATOM      5  C   UNL A   1      40.679  33.238  32.502  1.00  0.00     0.239 C 
ATOM      6  O   UNL A   1      41.720  33.048  31.865  1.00  0.00    -0.273 OA
ATOM      7  H   UNL A   1      40.141  31.332  32.272  1.00  0.00     0.163 HD
BRANCH   5   8
ATOM      8  C   UNL A   1      40.353  34.602  33.076  1.00  0.00     0.223 C 
BRANCH   8   9
ATOM      9  N   UNL A   1      41.305  35.076  34.062  1.00  0.00    -0.321 N 
ATOM     10  C   UNL A   1      42.437  35.502  35.869  1.00  0.00     0.096 A 
ATOM     11  N   UNL A   1      43.020  36.230  34.869  1.00  0.00    -0.236 NA
ATOM     12  C   UNL A   1      41.330  34.804  35.407  1.00  0.00     0.076 A 
ATOM     13  C   UNL A   1      42.299  35.982  33.803  1.00  0.00     0.201 A 
BRANCH  10  14
ATOM     14  C   UNL A   1      42.787  35.537  37.273  1.00  0.00     0.003 A 
ATOM     15  C   UNL A   1      43.001  35.325  40.063  1.00  0.00     0.118 A 
ATOM     16  C   UNL A   1      43.597  34.372  39.234  1.00  0.00     0.047 A 
ATOM     17  C   UNL A   1      42.312  36.396  39.488  1.00  0.00     0.047 A 
ATOM     18  C   UNL A   1      43.494  34.473  37.846  1.00  0.00     0.014 A 
ATOM     19  C   UNL A   1      42.223  36.513  38.096  1.00  0.00     0.014 A 
BRANCH  15  20
ATOM     20  O   UNL A   1      43.165  35.094  41.403  1.00  0.00    -0.497 OA
ATOM     21  C   UNL A   1      42.036  34.597  42.108  1.00  0.00     0.278 C 
ENDBRANCH  15  20
ENDBRANCH  10  14
BRANCH  12  22
ATOM     22  C   UNL A   1      40.329  34.078  36.179  1.00  0.00     0.001 A 
ATOM     23  C   UNL A   1      39.115  34.658  36.545  1.00  0.00     0.014 A 
ATOM     24  C   UNL A   1      40.538  32.717  36.432  1.00  0.00     0.014 A 
ATOM     25  C   UNL A   1      38.141  33.890  37.188  1.00  0.00     0.047 A 
ATOM     26  C   UNL A   1      39.552  31.943  37.042  1.00  0.00     0.047 A 
ATOM     27  C   UNL A   1      38.349  32.529  37.430  1.00  0.00     0.118 A 
BRANCH  27  28
ATOM     28  O   UNL A   1      37.311  31.882  38.043  1.00  0.00    -0.497 OA
ATOM     29  C   UNL A   1      36.669  32.594  39.094  1.00  0.00     0.278 C 
ENDBRANCH  27  28
ENDBRANCH  12  22
ENDBRANCH   8   9
ENDBRANCH   5   8
ENDBRANCH   3   4
ENDBRANCH   2   3
ENDBRANCH   1   2
BRANCH   1  30
ATOM     30  C   UNL A   1      36.195  33.246  32.724  1.00  0.00     0.002 C 
BRANCH  30  31
ATOM     31  C   UNL A   1      35.243  33.815  31.662  1.00  0.00     0.021 C 
BRANCH  31  32
ATOM     32  C   UNL A   1      34.512  32.758  30.849  1.00  0.00     0.116 C 
BRANCH  32  33
ATOM     33  N   UNL A   1      34.536  33.046  29.415  1.00  0.00    -0.352 N 
ATOM     34  C   UNL A   1      35.586  32.880  28.530  1.00  0.00     0.251 C 
ATOM     35  H   UNL A   1      33.702  33.401  29.033  1.00  0.00     0.163 HD
ATOM     36  O   UNL A   1      35.612  33.486  27.473  1.00  0.00    -0.269 OA
BRANCH  34  37
ATOM     37  C   UNL A   1      36.674  31.951  28.896  1.00  0.00     0.039 A 
ATOM     38  C   UNL A   1      36.537  30.573  28.711  1.00  0.00     0.014 A 
ATOM     39  C   UNL A   1      37.854  32.489  29.401  1.00  0.00     0.014 A 
ATOM     40  C   UNL A   1      37.635  29.753  28.962  1.00  0.00     0.010 A 
ATOM     41  C   UNL A   1      38.975  31.702  29.498  1.00  0.00     0.010 A 
ATOM     42  C   UNL A   1      38.862  30.327  29.335  1.00  0.00    -0.014 A 
BRANCH  42  43
ATOM     43  C   UNL A   1      40.068  29.505  29.434  1.00  0.00     0.031 A 
ATOM     44  C   UNL A   1      40.477  29.186  30.831  1.00  0.00     0.074 A 
ATOM     45  C   UNL A   1      40.649  28.906  28.371  1.00  0.00     0.049 A 
ATOM     46  N   UNL A   1      41.522  29.607  31.466  1.00  0.00    -0.248 NA
ATOM     47  C   UNL A   1      39.531  28.437  31.674  1.00  0.00     0.031 C 
ATOM     48  C   UNL A   1      40.163  28.848  26.984  1.00  0.00     0.029 A 
ATOM     49  N   UNL A   1      41.742  28.092  28.334  1.00  0.00    -0.354 N 
ATOM     50  C   UNL A   1      41.492  28.964  32.704  1.00  0.00     0.074 A 
ATOM     51  C   UNL A   1      40.159  28.450  32.853  1.00  0.00     0.031 C 
ATOM     52  C   UNL A   1      40.791  27.849  26.326  1.00  0.00     0.029 A 
ATOM     53  C   UNL A   1      41.850  27.335  27.170  1.00  0.00     0.049 A 
ATOM     54  H   UNL A   1      42.397  28.044  29.067  1.00  0.00     0.167 HD
ATOM     55  C   UNL A   1      42.643  28.677  33.377  1.00  0.00     0.034 A 
ATOM     56  C   UNL A   1      42.723  26.326  26.934  1.00  0.00     0.034 A 
ATOM     57  C   UNL A   1      43.756  29.424  32.841  1.00  0.00     0.049 A 
ATOM     58  C   UNL A   1      43.815  26.431  27.916  1.00  0.00     0.074 A 
ATOM     59  C   UNL A   1      44.053  30.760  32.659  1.00  0.00     0.029 A 
ATOM     60  N   UNL A   1      44.625  28.733  32.033  1.00  0.00    -0.354 N 
ATOM     61  N   UNL A   1      44.692  27.390  27.903  1.00  0.00    -0.248 NA
ATOM     62  C   UNL A   1      43.690  25.698  29.164  1.00  0.00     0.031 C 
ATOM     63  C   UNL A   1      44.746  30.817  31.413  1.00  0.00     0.029 A 
ATOM     64  C   UNL A   1      44.890  29.512  30.942  1.00  0.00     0.049 A 
ATOM     65  H   UNL A   1      44.990  27.836  32.208  1.00  0.00     0.167 HD
ATOM     66  C   UNL A   1      44.868  27.695  29.242  1.00  0.00     0.074 A 
ATOM     67  C   UNL A   1      44.340  26.541  29.969  1.00  0.00     0.031 C 
ATOM     68  C   UNL A   1      45.144  28.974  29.626  1.00  0.00     0.034 A 
BRANCH  55  69
ATOM     69  C   UNL A   1      42.875  27.446  34.238  1.00  0.00     0.023 A 
ATOM     70  C   UNL A   1      41.868  26.450  34.214  1.00  0.00     0.012 A 
ATOM     71  C   UNL A   1      43.846  27.335  35.259  1.00  0.00     0.148 A 
ATOM     72  C   UNL A   1      41.783  25.458  35.196  1.00  0.00     0.002 A 
ATOM     73  C   UNL A   1      43.805  26.297  36.185  1.00  0.00     0.091 A 
ATOM     74  F   UNL A   1      44.756  28.294  35.435  1.00  0.00    -0.205 F 
ATOM     75  C   UNL A   1      42.754  25.380  36.184  1.00  0.00     0.022 A 
BRANCH  73  76
ATOM     76  S   UNL A   1      45.074  26.101  37.447  1.00  0.00     0.127 S 
ATOM     77  O   UNL A   1      44.649  24.868  38.098  1.00  0.00    -0.237 OA
ATOM     78  O   UNL A   1      46.284  25.988  36.633  1.00  0.00    -0.237 OA
ATOM     79  O   UNL A   1      45.013  27.315  38.252  1.00  0.00    -0.744 OA
ENDBRANCH  73  76
ENDBRANCH  55  69
BRANCH  56  80
ATOM     80  C   UNL A   1      42.560  25.085  26.155  1.00  0.00     0.023 A 
ATOM     81  C   UNL A   1      43.559  24.677  25.251  1.00  0.00     0.012 A 
ATOM     82  C   UNL A   1      41.632  24.134  26.610  1.00  0.00     0.148 A 
ATOM     83  C   UNL A   1      43.649  23.343  24.835  1.00  0.00     0.002 A 
ATOM     84  C   UNL A   1      41.759  22.802  26.231  1.00  0.00     0.091 A 
ATOM     85  F   UNL A   1      40.722  24.512  27.519  1.00  0.00    -0.205 F 
ATOM     86  C   UNL A   1      42.756  22.400  25.337  1.00  0.00     0.022 A 
BRANCH  84  87
ATOM     87  S   UNL A   1      40.750  21.541  27.001  1.00  0.00     0.127 S 
ATOM     88  O   UNL A   1      39.391  21.973  26.667  1.00  0.00    -0.237 OA
ATOM     89  O   UNL A   1      41.188  20.337  26.305  1.00  0.00    -0.237 OA
ATOM     90  O   UNL A   1      41.098  21.631  28.410  1.00  0.00    -0.744 OA
ENDBRANCH  84  87
ENDBRANCH  56  80
BRANCH  68  91
ATOM     91  C   UNL A   1      45.500  29.961  28.544  1.00  0.00     0.023 A 
ATOM     92  C   UNL A   1      44.528  30.710  27.846  1.00  0.00     0.012 A 
ATOM     93  C   UNL A   1      46.857  30.234  28.317  1.00  0.00     0.148 A 
ATOM     94  C   UNL A   1      44.903  31.687  26.919  1.00  0.00     0.002 A 
ATOM     95  C   UNL A   1      47.226  31.237  27.430  1.00  0.00     0.091 A 
ATOM     96  F   UNL A   1      47.768  29.513  28.988  1.00  0.00    -0.205 F 
ATOM     97  C   UNL A   1      46.254  31.959  26.720  1.00  0.00     0.022 A 
BRANCH  95  98
ATOM     98  S   UNL A   1      48.942  31.712  27.221  1.00  0.00     0.127 S 
ATOM     99  O   UNL A   1      48.837  32.839  26.296  1.00  0.00    -0.237 OA
ATOM    100  O   UNL A   1      49.335  32.074  28.584  1.00  0.00    -0.237 OA
ATOM    101  O   UNL A   1      49.624  30.533  26.701  1.00  0.00    -0.744 OA
ENDBRANCH  95  98
ENDBRANCH  68  91
ENDBRANCH  42  43
ENDBRANCH  34  37
ENDBRANCH  32  33
ENDBRANCH  31  32
ENDBRANCH  30  31
ENDBRANCH   1  30
TORSDOF 21
ENDMDL
MODEL 3
REMARK VINA RESULT:      -8.0      3.781      8.319
REMARK SMILES COc1ccc(-c2ncn(CC(=O)NCCCCCCNC(=O)c3ccc(-c4c5nc(c(-c6cccc(S(=O)(=O)[O-])c6F)c6ccc([nH]6)c(-c6cccc(S(=O)(=O)[O-])c6F)c6nc(c(-c7cccc(S(=O)(=O)[O-])c7F)c7ccc4[nH]7)C=C6)C=C5)cc3)c2-c2ccc(OC)cc2)cc1
REMARK SMILES IDX 17 1 16 2 15 3 14 4 12 5 13 6 11 8 10 9 7 10 8 11 87 12 9 13
REMARK SMILES IDX 6 14 3 15 4 16 97 17 5 18 96 19 2 20 1 21 88 22 89 23 95 24
REMARK SMILES IDX 90 25 94 26 91 27 92 28 93 29 18 30 19 31 20 32 21 33 22 34
REMARK SMILES IDX 23 36 24 37 25 38 86 39 26 40 85 41 27 42 28 43 29 44 79 45
REMARK SMILES IDX 30 46 84 47 78 48 80 49 31 50 83 51 77 52 76 53 32 55 64 56
REMARK SMILES IDX 44 57 63 58 45 59 48 60 62 61 81 62 46 63 47 64 61 66 82 67
REMARK SMILES IDX 49 68 33 69 34 70 42 71 35 72 37 73 43 74 36 75 38 76 39 77
REMARK SMILES IDX 40 78 41 79 65 80 66 81 74 82 67 83 69 84 75 85 68 86 70 87
REMARK SMILES IDX 71 88 72 89 73 90 50 91 51 92 59 93 52 94 54 95 60 96 53 97
REMARK SMILES IDX 55 98 56 99 57 100 58 101
REMARK H PARENT 14 7 21 35 80 54 48 65
REMARK Flexibility Score: inf
ROOT
ATOM      1  C   UNL A   1      39.820  24.423  26.524  1.00  0.00     0.002 C 
ENDROOT
BRANCH   1   2
ATOM      2  C   UNL A   1      40.806  25.513  26.085  1.00  0.00     0.021 C 
BRANCH   2   3
ATOM      3  C   UNL A   1      40.651  26.848  26.811  1.00  0.00     0.116 C 
BRANCH   3   4
ATOM      4  N   UNL A   1      40.043  26.708  28.120  1.00  0.00    -0.355 N 
ATOM      5  C   UNL A   1      39.725  27.668  29.036  1.00  0.00     0.239 C 
ATOM      6  O   UNL A   1      39.068  27.318  30.022  1.00  0.00    -0.273 OA
ATOM      7  H   UNL A   1      39.829  25.785  28.387  1.00  0.00     0.163 HD
BRANCH   5   8
ATOM      8  C   UNL A   1      40.078  29.124  28.808  1.00  0.00     0.223 C 
BRANCH   8   9
ATOM      9  N   UNL A   1      40.071  29.933  30.011  1.00  0.00    -0.321 N 
ATOM     10  C   UNL A   1      39.578  31.275  31.650  1.00  0.00     0.096 A 
ATOM     11  N   UNL A   1      40.868  30.871  31.858  1.00  0.00    -0.236 NA
ATOM     12  C   UNL A   1      39.064  30.743  30.475  1.00  0.00     0.076 A 
ATOM     13  C   UNL A   1      41.149  30.094  30.841  1.00  0.00     0.201 A 
BRANCH  10  14
ATOM     14  C   UNL A   1      38.847  32.249  32.431  1.00  0.00     0.003 A 
ATOM     15  C   UNL A   1      37.138  34.209  33.488  1.00  0.00     0.118 A 
ATOM     16  C   UNL A   1      36.829  32.853  33.624  1.00  0.00     0.047 A 
ATOM     17  C   UNL A   1      38.316  34.578  32.836  1.00  0.00     0.047 A 
ATOM     18  C   UNL A   1      37.676  31.874  33.101  1.00  0.00     0.014 A 
ATOM     19  C   UNL A   1      39.179  33.600  32.327  1.00  0.00     0.014 A 
BRANCH  15  20
ATOM     20  O   UNL A   1      36.213  35.059  34.032  1.00  0.00    -0.497 OA
ATOM     21  C   UNL A   1      34.845  34.744  33.806  1.00  0.00     0.278 C 
ENDBRANCH  15  20
ENDBRANCH  10  14
BRANCH  12  22
ATOM     22  C   UNL A   1      37.817  31.076  29.798  1.00  0.00     0.001 A 
ATOM     23  C   UNL A   1      37.659  32.261  29.083  1.00  0.00     0.014 A 
ATOM     24  C   UNL A   1      36.804  30.110  29.750  1.00  0.00     0.014 A 
ATOM     25  C   UNL A   1      36.486  32.487  28.359  1.00  0.00     0.047 A 
ATOM     26  C   UNL A   1      35.649  30.321  28.999  1.00  0.00     0.047 A 
ATOM     27  C   UNL A   1      35.482  31.517  28.303  1.00  0.00     0.118 A 
BRANCH  27  28
ATOM     28  O   UNL A   1      34.394  31.847  27.542  1.00  0.00    -0.497 OA
ATOM     29  C   UNL A   1      33.533  30.772  27.188  1.00  0.00     0.278 C 
ENDBRANCH  27  28
ENDBRANCH  12  22
ENDBRANCH   8   9
ENDBRANCH   5   8
ENDBRANCH   3   4
ENDBRANCH   2   3
ENDBRANCH   1   2
BRANCH   1  30
ATOM     30  C   UNL A   1      40.433  23.186  27.198  1.00  0.00     0.002 C 
BRANCH  30  31
ATOM     31  C   UNL A   1      41.057  22.133  26.271  1.00  0.00     0.021 C 
BRANCH  31  32
ATOM     32  C   UNL A   1      42.328  21.499  26.813  1.00  0.00     0.116 C 
BRANCH  32  33
ATOM     33  N   UNL A   1      43.060  20.758  25.786  1.00  0.00    -0.352 N 
ATOM     34  C   UNL A   1      44.027  21.233  24.918  1.00  0.00     0.251 C 
ATOM     35  H   UNL A   1      42.837  19.803  25.702  1.00  0.00     0.163 HD
ATOM     36  O   UNL A   1      44.286  20.637  23.887  1.00  0.00    -0.269 OA
BRANCH  34  37
ATOM     37  C   UNL A   1      44.736  22.479  25.270  1.00  0.00     0.039 A 
ATOM     38  C   UNL A   1      44.283  23.719  24.813  1.00  0.00     0.014 A 
ATOM     39  C   UNL A   1      45.853  22.389  26.096  1.00  0.00     0.014 A 
ATOM     40  C   UNL A   1      44.919  24.873  25.268  1.00  0.00     0.010 A 
ATOM     41  C   UNL A   1      46.375  23.525  26.663  1.00  0.00     0.010 A 
ATOM     42  C   UNL A   1      45.952  24.771  26.214  1.00  0.00    -0.014 A 
BRANCH  42  43
ATOM     43  C   UNL A   1      46.514  25.970  26.833  1.00  0.00     0.031 A 
ATOM     44  C   UNL A   1      47.946  26.216  26.501  1.00  0.00     0.074 A 
ATOM     45  C   UNL A   1      45.767  26.893  27.478  1.00  0.00     0.049 A 
ATOM     46  N   UNL A   1      48.966  26.144  27.293  1.00  0.00    -0.248 NA
ATOM     47  C   UNL A   1      48.304  26.412  25.087  1.00  0.00     0.031 C 
ATOM     48  C   UNL A   1      44.302  26.960  27.587  1.00  0.00     0.029 A 
ATOM     49  N   UNL A   1      46.158  28.062  28.060  1.00  0.00    -0.354 N 
ATOM     50  C   UNL A   1      50.063  26.539  26.527  1.00  0.00     0.074 A 
ATOM     51  C   UNL A   1      49.636  26.472  25.156  1.00  0.00     0.031 C 
ATOM     52  C   UNL A   1      43.931  28.208  27.949  1.00  0.00     0.029 A 
ATOM     53  C   UNL A   1      45.119  28.962  28.288  1.00  0.00     0.049 A 
ATOM     54  H   UNL A   1      47.094  28.253  28.299  1.00  0.00     0.167 HD
ATOM     55  C   UNL A   1      51.140  27.147  27.100  1.00  0.00     0.034 A 
ATOM     56  C   UNL A   1      45.233  30.252  28.685  1.00  0.00     0.034 A 
ATOM     57  C   UNL A   1      51.131  26.974  28.533  1.00  0.00     0.049 A 
ATOM     58  C   UNL A   1      46.580  30.435  29.251  1.00  0.00     0.074 A 
ATOM     59  C   UNL A   1      51.127  25.897  29.397  1.00  0.00     0.029 A 
ATOM     60  N   UNL A   1      50.732  28.056  29.278  1.00  0.00    -0.354 N 
ATOM     61  N   UNL A   1      46.957  29.903  30.375  1.00  0.00    -0.248 NA
ATOM     62  C   UNL A   1      47.644  30.875  28.365  1.00  0.00     0.031 C 
ATOM     63  C   UNL A   1      50.278  26.293  30.474  1.00  0.00     0.029 A 
ATOM     64  C   UNL A   1      49.870  27.606  30.239  1.00  0.00     0.049 A 
ATOM     65  H   UNL A   1      51.015  28.989  29.144  1.00  0.00     0.167 HD
ATOM     66  C   UNL A   1      48.259  29.499  30.129  1.00  0.00     0.074 A 
ATOM     67  C   UNL A   1      48.670  30.242  28.939  1.00  0.00     0.031 C 
ATOM     68  C   UNL A   1      48.759  28.384  30.735  1.00  0.00     0.034 A 
BRANCH  55  69
ATOM     69  C   UNL A   1      51.985  28.234  26.453  1.00  0.00     0.023 A 
ATOM     70  C   UNL A   1      53.390  28.062  26.497  1.00  0.00     0.012 A 
ATOM     71  C   UNL A   1      51.518  29.513  26.072  1.00  0.00     0.148 A 
ATOM     72  C   UNL A   1      54.274  29.121  26.264  1.00  0.00     0.002 A 
ATOM     73  C   UNL A   1      52.403  30.541  25.759  1.00  0.00     0.091 A 
ATOM     74  F   UNL A   1      50.217  29.802  26.124  1.00  0.00    -0.205 F 
ATOM     75  C   UNL A   1      53.780  30.363  25.892  1.00  0.00     0.022 A 
BRANCH  73  76
ATOM     76  S   UNL A   1      51.825  32.152  25.204  1.00  0.00     0.127 S 
ATOM     77  O   UNL A   1      52.917  33.017  25.634  1.00  0.00    -0.237 OA
ATOM     78  O   UNL A   1      51.727  31.949  23.758  1.00  0.00    -0.237 OA
ATOM     79  O   UNL A   1      50.540  32.354  25.862  1.00  0.00    -0.744 OA
ENDBRANCH  73  76
ENDBRANCH  55  69
BRANCH  56  80
ATOM     80  C   UNL A   1      44.420  31.433  28.340  1.00  0.00     0.023 A 
ATOM     81  C   UNL A   1      43.862  32.232  29.356  1.00  0.00     0.012 A 
ATOM     82  C   UNL A   1      44.549  31.974  27.050  1.00  0.00     0.148 A 
ATOM     83  C   UNL A   1      43.470  33.551  29.098  1.00  0.00     0.002 A 
ATOM     84  C   UNL A   1      44.204  33.300  26.816  1.00  0.00     0.091 A 
ATOM     85  F   UNL A   1      45.140  31.233  26.102  1.00  0.00    -0.205 F 
ATOM     86  C   UNL A   1      43.654  34.091  27.829  1.00  0.00     0.022 A 
BRANCH  84  87
ATOM     87  S   UNL A   1      44.604  34.076  25.254  1.00  0.00     0.127 S 
ATOM     88  O   UNL A   1      43.894  35.354  25.343  1.00  0.00    -0.237 OA
ATOM     89  O   UNL A   1      46.055  34.187  25.335  1.00  0.00    -0.237 OA
ATOM     90  O   UNL A   1      44.084  33.149  24.263  1.00  0.00    -0.744 OA
ENDBRANCH  84  87
ENDBRANCH  56  80
BRANCH  68  91
ATOM     91  C   UNL A   1      47.948  27.779  31.852  1.00  0.00     0.023 A 
ATOM     92  C   UNL A   1      48.100  28.168  33.201  1.00  0.00     0.012 A 
ATOM     93  C   UNL A   1      46.919  26.888  31.515  1.00  0.00     0.148 A 
ATOM     94  C   UNL A   1      47.261  27.656  34.195  1.00  0.00     0.002 A 
ATOM     95  C   UNL A   1      46.058  26.417  32.498  1.00  0.00     0.091 A 
ATOM     96  F   UNL A   1      46.788  26.528  30.229  1.00  0.00    -0.205 F 
ATOM     97  C   UNL A   1      46.230  26.789  33.841  1.00  0.00     0.022 A 
BRANCH  95  98
ATOM     98  S   UNL A   1      44.643  25.395  32.087  1.00  0.00     0.127 S 
ATOM     99  O   UNL A   1      44.388  24.705  33.349  1.00  0.00    -0.237 OA
ATOM    100  O   UNL A   1      43.635  26.389  31.717  1.00  0.00    -0.237 OA
ATOM    101  O   UNL A   1      45.071  24.545  30.981  1.00  0.00    -0.744 OA
ENDBRANCH  95  98
ENDBRANCH  68  91
ENDBRANCH  42  43
ENDBRANCH  34  37
ENDBRANCH  32  33
ENDBRANCH  31  32
ENDBRANCH  30  31
ENDBRANCH   1  30
TORSDOF 21
ENDMDL
