MODEL 1
REMARK VINA RESULT:     -12.3      0.000      0.000
REMARK SMILES CS(=O)(=O)c1ccc(N2N=C(C(=O)NCCCCCCNC(=O)c3ccc(-c4c5nc(c(-c6cccc(S(=O)(=O)[O-])c6F)c6ccc([nH]6)c(-c6cccc(S(=O)(=O)[O-])c6F)c6nc(c(-c7cccc(S(=O)(=O)[O-])c7F)c7ccc4[nH]7)C=C6)C=C5)cc3)C[C@H]2c2cccs2)cc1
REMARK SMILES IDX 18 1 17 2 16 3 15 4 14 5 12 6 13 7 11 9 9 10 10 11 88 12
REMARK SMILES IDX 87 13 8 14 5 15 6 16 95 17 7 18 94 19 2 20 1 21 3 22 4 23
REMARK SMILES IDX 89 24 90 25 93 26 91 27 92 28 19 29 20 30 21 31 22 32 23 34
REMARK SMILES IDX 24 35 25 36 86 37 26 38 85 39 27 40 28 41 29 42 79 43 30 44
REMARK SMILES IDX 84 45 78 46 80 47 31 48 83 49 77 50 76 51 32 53 64 54 44 55
REMARK SMILES IDX 63 56 45 57 48 58 62 59 81 60 46 61 47 62 61 64 82 65 49 66
REMARK SMILES IDX 33 67 34 68 42 69 35 70 37 71 43 72 36 73 38 74 39 75 40 76
REMARK SMILES IDX 41 77 65 78 66 79 74 80 67 81 69 82 75 83 68 84 70 85 71 86
REMARK SMILES IDX 72 87 73 88 50 89 51 90 59 91 52 92 54 93 60 94 53 95 55 96
REMARK SMILES IDX 56 97 57 98 58 99
REMARK H PARENT 14 8 21 33 80 52 48 63
REMARK Flexibility Score: inf
ROOT
ATOM      1  C   UNL A   1      31.600  28.476  25.365  1.00  0.00     0.002 C 
ENDROOT
BRANCH   1   2
ATOM      2  C   UNL A   1      31.311  28.122  23.904  1.00  0.00     0.002 C 
BRANCH   2   3
ATOM      3  C   UNL A   1      29.867  27.715  23.609  1.00  0.00     0.021 C 
BRANCH   3   4
ATOM      4  C   UNL A   1      29.602  26.216  23.695  1.00  0.00     0.116 C 
BRANCH   4   5
ATOM      5  N   UNL A   1      29.544  25.770  25.072  1.00  0.00    -0.351 N 
ATOM      6  C   UNL A   1      30.127  24.742  25.766  1.00  0.00     0.267 C 
ATOM      7  O   UNL A   1      29.781  24.575  26.934  1.00  0.00    -0.268 OA
ATOM      8  H   UNL A   1      28.956  26.327  25.632  1.00  0.00     0.163 HD
BRANCH   6   9
ATOM      9  C   UNL A   1      31.205  23.831  25.193  1.00  0.00     0.128 C 
ATOM     10  N   UNL A   1      32.403  22.078  24.984  1.00  0.00    -0.256 N 
ATOM     11  N   UNL A   1      31.245  22.569  25.504  1.00  0.00    -0.171 NA
ATOM     12  C   UNL A   1      33.161  23.053  24.193  1.00  0.00     0.154 C 
ATOM     13  C   UNL A   1      32.255  24.284  24.234  1.00  0.00     0.097 C 
BRANCH  10  14
ATOM     14  C   UNL A   1      32.593  20.711  24.819  1.00  0.00     0.060 A 
ATOM     15  C   UNL A   1      33.133  17.970  24.492  1.00  0.00     0.067 A 
ATOM     16  C   UNL A   1      32.714  18.728  23.397  1.00  0.00     0.022 A 
ATOM     17  C   UNL A   1      33.246  18.557  25.752  1.00  0.00     0.022 A 
ATOM     18  C   UNL A   1      32.435  20.090  23.571  1.00  0.00     0.029 A 
ATOM     19  C   UNL A   1      32.972  19.914  25.906  1.00  0.00     0.029 A 
BRANCH  15  20
ATOM     20  S   UNL A   1      33.543  16.250  24.375  1.00  0.00     0.175 S 
ATOM     21  C   UNL A   1      35.010  15.983  25.321  1.00  0.00     0.163 C 
ATOM     22  O   UNL A   1      33.880  15.996  22.985  1.00  0.00    -0.224 OA
ATOM     23  O   UNL A   1      32.470  15.525  25.026  1.00  0.00    -0.224 OA
ENDBRANCH  15  20
ENDBRANCH  10  14
BRANCH  12  24
ATOM     24  C   UNL A   1      34.592  23.327  24.619  1.00  0.00     0.030 A 
ATOM     25  C   UNL A   1      35.022  23.703  25.880  1.00  0.00     0.017 A 
ATOM     26  S   UNL A   1      35.920  23.235  23.531  1.00  0.00    -0.147 S 
ATOM     27  C   UNL A   1      36.433  23.866  25.958  1.00  0.00     0.012 A 
ATOM     28  C   UNL A   1      37.049  23.578  24.763  1.00  0.00     0.065 A 
ENDBRANCH  12  24
ENDBRANCH   6   9
ENDBRANCH   4   5
ENDBRANCH   3   4
ENDBRANCH   2   3
ENDBRANCH   1   2
BRANCH   1  29
ATOM     29  C   UNL A   1      32.750  27.700  26.014  1.00  0.00     0.021 C 
BRANCH  29  30
ATOM     30  C   UNL A   1      34.038  28.496  26.191  1.00  0.00     0.116 C 
BRANCH  30  31
ATOM     31  N   UNL A   1      33.779  29.885  26.526  1.00  0.00    -0.352 N 
ATOM     32  C   UNL A   1      34.444  30.703  27.406  1.00  0.00     0.251 C 
ATOM     33  H   UNL A   1      33.020  30.299  26.056  1.00  0.00     0.163 HD
ATOM     34  O   UNL A   1      33.963  31.789  27.716  1.00  0.00    -0.269 OA
BRANCH  32  35
ATOM     35  C   UNL A   1      35.730  30.265  27.987  1.00  0.00     0.039 A 
ATOM     36  C   UNL A   1      35.737  29.708  29.267  1.00  0.00     0.014 A 
ATOM     37  C   UNL A   1      36.924  30.407  27.274  1.00  0.00     0.014 A 
ATOM     38  C   UNL A   1      36.937  29.245  29.812  1.00  0.00     0.010 A 
ATOM     39  C   UNL A   1      38.103  29.874  27.785  1.00  0.00     0.010 A 
ATOM     40  C   UNL A   1      38.125  29.296  29.064  1.00  0.00    -0.014 A 
BRANCH  40  41
ATOM     41  C   UNL A   1      39.394  28.744  29.600  1.00  0.00     0.031 A 
ATOM     42  C   UNL A   1      40.101  29.427  30.740  1.00  0.00     0.074 A 
ATOM     43  C   UNL A   1      39.954  27.671  29.008  1.00  0.00     0.049 A 
ATOM     44  N   UNL A   1      41.238  29.119  31.307  1.00  0.00    -0.248 NA
ATOM     45  C   UNL A   1      39.459  30.628  31.298  1.00  0.00     0.031 C 
ATOM     46  C   UNL A   1      39.408  26.967  27.845  1.00  0.00     0.029 A 
ATOM     47  N   UNL A   1      41.119  27.000  29.284  1.00  0.00    -0.354 N 
ATOM     48  C   UNL A   1      41.465  30.101  32.263  1.00  0.00     0.074 A 
ATOM     49  C   UNL A   1      40.367  31.039  32.171  1.00  0.00     0.031 C 
ATOM     50  C   UNL A   1      40.233  25.963  27.512  1.00  0.00     0.029 A 
ATOM     51  C   UNL A   1      41.382  25.970  28.411  1.00  0.00     0.049 A 
ATOM     52  H   UNL A   1      41.710  27.233  30.036  1.00  0.00     0.167 HD
ATOM     53  C   UNL A   1      42.479  30.201  33.156  1.00  0.00     0.034 A 
ATOM     54  C   UNL A   1      42.438  25.136  28.332  1.00  0.00     0.034 A 
ATOM     55  C   UNL A   1      43.555  29.252  33.261  1.00  0.00     0.049 A 
ATOM     56  C   UNL A   1      43.539  25.250  29.349  1.00  0.00     0.074 A 
ATOM     57  C   UNL A   1      44.584  29.219  34.184  1.00  0.00     0.029 A 
ATOM     58  N   UNL A   1      43.749  28.178  32.407  1.00  0.00    -0.354 N 
ATOM     59  N   UNL A   1      43.658  26.096  30.344  1.00  0.00    -0.248 NA
ATOM     60  C   UNL A   1      44.632  24.273  29.258  1.00  0.00     0.031 C 
ATOM     61  C   UNL A   1      45.423  28.145  33.864  1.00  0.00     0.029 A 
ATOM     62  C   UNL A   1      44.891  27.483  32.769  1.00  0.00     0.049 A 
ATOM     63  H   UNL A   1      43.161  27.942  31.652  1.00  0.00     0.167 HD
ATOM     64  C   UNL A   1      44.818  25.732  31.017  1.00  0.00     0.074 A 
ATOM     65  C   UNL A   1      45.354  24.576  30.327  1.00  0.00     0.031 C 
ATOM     66  C   UNL A   1      45.393  26.309  32.102  1.00  0.00     0.034 A 
BRANCH  53  67
ATOM     67  C   UNL A   1      42.449  31.362  34.118  1.00  0.00     0.023 A 
ATOM     68  C   UNL A   1      43.290  32.474  33.899  1.00  0.00     0.012 A 
ATOM     69  C   UNL A   1      41.561  31.375  35.212  1.00  0.00     0.148 A 
ATOM     70  C   UNL A   1      43.281  33.557  34.778  1.00  0.00     0.002 A 
ATOM     71  C   UNL A   1      41.522  32.481  36.053  1.00  0.00     0.091 A 
ATOM     72  F   UNL A   1      40.783  30.303  35.416  1.00  0.00    -0.205 F 
ATOM     73  C   UNL A   1      42.390  33.565  35.847  1.00  0.00     0.022 A 
BRANCH  71  74
ATOM     74  S   UNL A   1      40.354  32.623  37.410  1.00  0.00     0.127 S 
ATOM     75  O   UNL A   1      39.352  31.623  37.042  1.00  0.00    -0.237 OA
ATOM     76  O   UNL A   1      41.179  32.262  38.564  1.00  0.00    -0.237 OA
ATOM     77  O   UNL A   1      39.892  34.003  37.401  1.00  0.00    -0.744 OA
ENDBRANCH  71  74
ENDBRANCH  53  67
BRANCH  54  78
ATOM     78  C   UNL A   1      42.472  24.086  27.275  1.00  0.00     0.023 A 
ATOM     79  C   UNL A   1      43.359  24.218  26.189  1.00  0.00     0.012 A 
ATOM     80  C   UNL A   1      41.659  22.939  27.363  1.00  0.00     0.148 A 
ATOM     81  C   UNL A   1      43.413  23.243  25.193  1.00  0.00     0.002 A 
ATOM     82  C   UNL A   1      41.759  21.944  26.398  1.00  0.00     0.091 A 
ATOM     83  F   UNL A   1      40.818  22.837  28.402  1.00  0.00    -0.205 F 
ATOM     84  C   UNL A   1      42.622  22.102  25.303  1.00  0.00     0.022 A 
BRANCH  82  85
ATOM     85  S   UNL A   1      40.881  20.383  26.530  1.00  0.00     0.127 S 
ATOM     86  O   UNL A   1      40.911  20.144  27.972  1.00  0.00    -0.237 OA
ATOM     87  O   UNL A   1      39.567  20.732  25.990  1.00  0.00    -0.237 OA
ATOM     88  O   UNL A   1      41.632  19.436  25.720  1.00  0.00    -0.744 OA
ENDBRANCH  82  85
ENDBRANCH  54  78
BRANCH  66  89
ATOM     89  C   UNL A   1      46.650  25.680  32.645  1.00  0.00     0.023 A 
ATOM     90  C   UNL A   1      47.912  26.131  32.209  1.00  0.00     0.012 A 
ATOM     91  C   UNL A   1      46.577  24.688  33.643  1.00  0.00     0.148 A 
ATOM     92  C   UNL A   1      49.080  25.579  32.733  1.00  0.00     0.002 A 
ATOM     93  C   UNL A   1      47.746  24.182  34.200  1.00  0.00     0.091 A 
ATOM     94  F   UNL A   1      45.367  24.261  34.033  1.00  0.00    -0.205 F 
ATOM     95  C   UNL A   1      48.998  24.616  33.735  1.00  0.00     0.022 A 
BRANCH  93  96
ATOM     96  S   UNL A   1      47.738  23.013  35.563  1.00  0.00     0.127 S 
ATOM     97  O   UNL A   1      49.104  23.135  36.067  1.00  0.00    -0.237 OA
ATOM     98  O   UNL A   1      46.710  23.571  36.442  1.00  0.00    -0.237 OA
ATOM     99  O   UNL A   1      47.401  21.720  34.982  1.00  0.00    -0.744 OA
ENDBRANCH  93  96
ENDBRANCH  66  89
ENDBRANCH  40  41
ENDBRANCH  32  35
ENDBRANCH  30  31
ENDBRANCH  29  30
ENDBRANCH   1  29
TORSDOF 19
ENDMDL
MODEL 2
REMARK VINA RESULT:     -11.6      2.089      2.459
REMARK SMILES CS(=O)(=O)c1ccc(N2N=C(C(=O)NCCCCCCNC(=O)c3ccc(-c4c5nc(c(-c6cccc(S(=O)(=O)[O-])c6F)c6ccc([nH]6)c(-c6cccc(S(=O)(=O)[O-])c6F)c6nc(c(-c7cccc(S(=O)(=O)[O-])c7F)c7ccc4[nH]7)C=C6)C=C5)cc3)C[C@H]2c2cccs2)cc1
REMARK SMILES IDX 18 1 17 2 16 3 15 4 14 5 12 6 13 7 11 9 9 10 10 11 88 12
REMARK SMILES IDX 87 13 8 14 5 15 6 16 95 17 7 18 94 19 2 20 1 21 3 22 4 23
REMARK SMILES IDX 89 24 90 25 93 26 91 27 92 28 19 29 20 30 21 31 22 32 23 34
REMARK SMILES IDX 24 35 25 36 86 37 26 38 85 39 27 40 28 41 29 42 79 43 30 44
REMARK SMILES IDX 84 45 78 46 80 47 31 48 83 49 77 50 76 51 32 53 64 54 44 55
REMARK SMILES IDX 63 56 45 57 48 58 62 59 81 60 46 61 47 62 61 64 82 65 49 66
REMARK SMILES IDX 33 67 34 68 42 69 35 70 37 71 43 72 36 73 38 74 39 75 40 76
REMARK SMILES IDX 41 77 65 78 66 79 74 80 67 81 69 82 75 83 68 84 70 85 71 86
REMARK SMILES IDX 72 87 73 88 50 89 51 90 59 91 52 92 54 93 60 94 53 95 55 96
REMARK SMILES IDX 56 97 57 98 58 99
REMARK H PARENT 14 8 21 33 80 52 48 63
REMARK Flexibility Score: inf
ROOT
ATOM      1  C   UNL A   1      33.885  27.964  25.945  1.00  0.00     0.002 C 
ENDROOT
BRANCH   1   2
ATOM      2  C   UNL A   1      33.171  26.644  26.250  1.00  0.00     0.002 C 
BRANCH   2   3
ATOM      3  C   UNL A   1      31.683  26.772  26.576  1.00  0.00     0.021 C 
BRANCH   3   4
ATOM      4  C   UNL A   1      30.818  25.636  26.040  1.00  0.00     0.116 C 
BRANCH   4   5
ATOM      5  N   UNL A   1      30.572  25.786  24.621  1.00  0.00    -0.351 N 
ATOM      6  C   UNL A   1      31.170  25.287  23.492  1.00  0.00     0.267 C 
ATOM      7  O   UNL A   1      30.768  25.701  22.405  1.00  0.00    -0.268 OA
ATOM      8  H   UNL A   1      29.809  26.376  24.422  1.00  0.00     0.163 HD
BRANCH   6   9
ATOM      9  C   UNL A   1      32.259  24.224  23.505  1.00  0.00     0.128 C 
ATOM     10  N   UNL A   1      33.212  22.379  23.997  1.00  0.00    -0.256 N 
ATOM     11  N   UNL A   1      32.016  23.026  23.951  1.00  0.00    -0.171 NA
ATOM     12  C   UNL A   1      34.333  23.161  23.465  1.00  0.00     0.154 C 
ATOM     13  C   UNL A   1      33.646  24.444  22.998  1.00  0.00     0.097 C 
BRANCH  10  14
ATOM     14  C   UNL A   1      33.275  20.993  24.081  1.00  0.00     0.060 A 
ATOM     15  C   UNL A   1      33.512  18.191  24.135  1.00  0.00     0.067 A 
ATOM     16  C   UNL A   1      32.384  18.779  23.558  1.00  0.00     0.022 A 
ATOM     17  C   UNL A   1      34.499  18.985  24.717  1.00  0.00     0.022 A 
ATOM     18  C   UNL A   1      32.268  20.175  23.546  1.00  0.00     0.029 A 
ATOM     19  C   UNL A   1      34.372  20.372  24.690  1.00  0.00     0.029 A 
BRANCH  15  20
ATOM     20  S   UNL A   1      33.773  16.438  24.174  1.00  0.00     0.175 S 
ATOM     21  C   UNL A   1      35.107  16.120  25.286  1.00  0.00     0.163 C 
ATOM     22  O   UNL A   1      34.223  16.056  22.846  1.00  0.00    -0.224 OA
ATOM     23  O   UNL A   1      32.578  15.855  24.752  1.00  0.00    -0.224 OA
ENDBRANCH  15  20
ENDBRANCH  10  14
BRANCH  12  24
ATOM     24  C   UNL A   1      35.513  23.396  24.390  1.00  0.00     0.030 A 
ATOM     25  C   UNL A   1      35.510  24.130  25.564  1.00  0.00     0.017 A 
ATOM     26  S   UNL A   1      37.086  22.782  24.066  1.00  0.00    -0.147 S 
ATOM     27  C   UNL A   1      36.777  24.144  26.212  1.00  0.00     0.012 A 
ATOM     28  C   UNL A   1      37.707  23.394  25.533  1.00  0.00     0.065 A 
ENDBRANCH  12  24
ENDBRANCH   6   9
ENDBRANCH   4   5
ENDBRANCH   3   4
ENDBRANCH   2   3
ENDBRANCH   1   2
BRANCH   1  29
ATOM     29  C   UNL A   1      33.628  29.096  26.944  1.00  0.00     0.021 C 
BRANCH  29  30
ATOM     30  C   UNL A   1      34.512  30.325  26.757  1.00  0.00     0.116 C 
BRANCH  30  31
ATOM     31  N   UNL A   1      34.225  31.356  27.740  1.00  0.00    -0.352 N 
ATOM     32  C   UNL A   1      34.847  31.609  28.937  1.00  0.00     0.251 C 
ATOM     33  H   UNL A   1      33.481  31.959  27.516  1.00  0.00     0.163 HD
ATOM     34  O   UNL A   1      34.343  32.393  29.736  1.00  0.00    -0.269 OA
BRANCH  32  35
ATOM     35  C   UNL A   1      36.114  30.923  29.266  1.00  0.00     0.039 A 
ATOM     36  C   UNL A   1      37.315  31.468  28.808  1.00  0.00     0.014 A 
ATOM     37  C   UNL A   1      36.117  29.745  30.020  1.00  0.00     0.014 A 
ATOM     38  C   UNL A   1      38.524  30.859  29.151  1.00  0.00     0.010 A 
ATOM     39  C   UNL A   1      37.325  29.187  30.426  1.00  0.00     0.010 A 
ATOM     40  C   UNL A   1      38.541  29.731  29.987  1.00  0.00    -0.014 A 
BRANCH  40  41
ATOM     41  C   UNL A   1      39.822  29.114  30.418  1.00  0.00     0.031 A 
ATOM     42  C   UNL A   1      40.548  29.635  31.629  1.00  0.00     0.074 A 
ATOM     43  C   UNL A   1      40.372  28.136  29.673  1.00  0.00     0.049 A 
ATOM     44  N   UNL A   1      41.696  29.256  32.127  1.00  0.00    -0.248 NA
ATOM     45  C   UNL A   1      39.915  30.745  32.360  1.00  0.00     0.031 C 
ATOM     46  C   UNL A   1      39.806  27.598  28.433  1.00  0.00     0.029 A 
ATOM     47  N   UNL A   1      41.543  27.438  29.833  1.00  0.00    -0.354 N 
ATOM     48  C   UNL A   1      41.939  30.097  33.206  1.00  0.00     0.074 A 
ATOM     49  C   UNL A   1      40.838  31.034  33.265  1.00  0.00     0.031 C 
ATOM     50  C   UNL A   1      40.626  26.653  27.949  1.00  0.00     0.029 A 
ATOM     51  C   UNL A   1      41.791  26.541  28.820  1.00  0.00     0.049 A 
ATOM     52  H   UNL A   1      42.147  27.566  30.599  1.00  0.00     0.167 HD
ATOM     53  C   UNL A   1      42.968  30.077  34.086  1.00  0.00     0.034 A 
ATOM     54  C   UNL A   1      42.846  25.729  28.607  1.00  0.00     0.034 A 
ATOM     55  C   UNL A   1      44.048  29.126  34.039  1.00  0.00     0.049 A 
ATOM     56  C   UNL A   1      43.965  25.706  29.611  1.00  0.00     0.074 A 
ATOM     57  C   UNL A   1      45.094  28.969  34.930  1.00  0.00     0.029 A 
ATOM     58  N   UNL A   1      44.227  28.182  33.041  1.00  0.00    -0.354 N 
ATOM     59  N   UNL A   1      44.102  26.406  30.711  1.00  0.00    -0.248 NA
ATOM     60  C   UNL A   1      45.058  24.755  29.365  1.00  0.00     0.031 C 
ATOM     61  C   UNL A   1      45.928  27.953  34.449  1.00  0.00     0.029 A 
ATOM     62  C   UNL A   1      45.377  27.448  33.283  1.00  0.00     0.049 A 
ATOM     63  H   UNL A   1      43.626  28.051  32.271  1.00  0.00     0.167 HD
ATOM     64  C   UNL A   1      45.274  25.957  31.306  1.00  0.00     0.074 A 
ATOM     65  C   UNL A   1      45.800  24.910  30.453  1.00  0.00     0.031 C 
ATOM     66  C   UNL A   1      45.868  26.379  32.450  1.00  0.00     0.034 A 
BRANCH  53  67
ATOM     67  C   UNL A   1      42.955  31.093  35.200  1.00  0.00     0.023 A 
ATOM     68  C   UNL A   1      42.391  30.756  36.448  1.00  0.00     0.012 A 
ATOM     69  C   UNL A   1      43.537  32.364  35.028  1.00  0.00     0.148 A 
ATOM     70  C   UNL A   1      42.365  31.682  37.491  1.00  0.00     0.002 A 
ATOM     71  C   UNL A   1      43.553  33.263  36.088  1.00  0.00     0.091 A 
ATOM     72  F   UNL A   1      44.051  32.675  33.830  1.00  0.00    -0.205 F 
ATOM     73  C   UNL A   1      42.955  32.930  37.314  1.00  0.00     0.022 A 
BRANCH  71  74
ATOM     74  S   UNL A   1      44.359  34.865  35.987  1.00  0.00     0.127 S 
ATOM     75  O   UNL A   1      44.026  35.444  37.289  1.00  0.00    -0.237 OA
ATOM     76  O   UNL A   1      45.765  34.492  35.829  1.00  0.00    -0.237 OA
ATOM     77  O   UNL A   1      43.775  35.538  34.837  1.00  0.00    -0.744 OA
ENDBRANCH  71  74
ENDBRANCH  53  67
BRANCH  54  78
ATOM     78  C   UNL A   1      42.863  24.836  27.415  1.00  0.00     0.023 A 
ATOM     79  C   UNL A   1      43.482  25.270  26.227  1.00  0.00     0.012 A 
ATOM     80  C   UNL A   1      42.302  23.545  27.466  1.00  0.00     0.148 A 
ATOM     81  C   UNL A   1      43.516  24.447  25.102  1.00  0.00     0.002 A 
ATOM     82  C   UNL A   1      42.390  22.708  26.360  1.00  0.00     0.091 A 
ATOM     83  F   UNL A   1      41.712  23.155  28.604  1.00  0.00    -0.205 F 
ATOM     84  C   UNL A   1      42.980  23.163  25.171  1.00  0.00     0.022 A 
BRANCH  82  85
ATOM     85  S   UNL A   1      41.850  20.996  26.403  1.00  0.00     0.127 S 
ATOM     86  O   UNL A   1      40.422  21.126  26.121  1.00  0.00    -0.237 OA
ATOM     87  O   UNL A   1      42.641  20.405  25.323  1.00  0.00    -0.237 OA
ATOM     88  O   UNL A   1      42.188  20.506  27.731  1.00  0.00    -0.744 OA
ENDBRANCH  82  85
ENDBRANCH  54  78
BRANCH  66  89
ATOM     89  C   UNL A   1      47.136  25.687  32.878  1.00  0.00     0.023 A 
ATOM     90  C   UNL A   1      47.092  24.666  33.848  1.00  0.00     0.012 A 
ATOM     91  C   UNL A   1      48.364  26.003  32.261  1.00  0.00     0.148 A 
ATOM     92  C   UNL A   1      48.256  23.996  34.223  1.00  0.00     0.002 A 
ATOM     93  C   UNL A   1      49.510  25.294  32.601  1.00  0.00     0.091 A 
ATOM     94  F   UNL A   1      48.388  26.988  31.352  1.00  0.00    -0.205 F 
ATOM     95  C   UNL A   1      49.460  24.300  33.593  1.00  0.00     0.022 A 
BRANCH  93  96
ATOM     96  S   UNL A   1      51.082  25.546  31.772  1.00  0.00     0.127 S 
ATOM     97  O   UNL A   1      50.734  25.265  30.381  1.00  0.00    -0.237 OA
ATOM     98  O   UNL A   1      51.360  26.954  32.060  1.00  0.00    -0.237 OA
ATOM     99  O   UNL A   1      52.015  24.608  32.383  1.00  0.00    -0.744 OA
ENDBRANCH  93  96
ENDBRANCH  66  89
ENDBRANCH  40  41
ENDBRANCH  32  35
ENDBRANCH  30  31
ENDBRANCH  29  30
ENDBRANCH   1  29
TORSDOF 19
ENDMDL
MODEL 3
REMARK VINA RESULT:     -11.3      2.874      3.843
REMARK SMILES CS(=O)(=O)c1ccc(N2N=C(C(=O)NCCCCCCNC(=O)c3ccc(-c4c5nc(c(-c6cccc(S(=O)(=O)[O-])c6F)c6ccc([nH]6)c(-c6cccc(S(=O)(=O)[O-])c6F)c6nc(c(-c7cccc(S(=O)(=O)[O-])c7F)c7ccc4[nH]7)C=C6)C=C5)cc3)C[C@H]2c2cccs2)cc1
REMARK SMILES IDX 18 1 17 2 16 3 15 4 14 5 12 6 13 7 11 9 9 10 10 11 88 12
REMARK SMILES IDX 87 13 8 14 5 15 6 16 95 17 7 18 94 19 2 20 1 21 3 22 4 23
REMARK SMILES IDX 89 24 90 25 93 26 91 27 92 28 19 29 20 30 21 31 22 32 23 34
REMARK SMILES IDX 24 35 25 36 86 37 26 38 85 39 27 40 28 41 29 42 79 43 30 44
REMARK SMILES IDX 84 45 78 46 80 47 31 48 83 49 77 50 76 51 32 53 64 54 44 55
REMARK SMILES IDX 63 56 45 57 48 58 62 59 81 60 46 61 47 62 61 64 82 65 49 66
REMARK SMILES IDX 33 67 34 68 42 69 35 70 37 71 43 72 36 73 38 74 39 75 40 76
REMARK SMILES IDX 41 77 65 78 66 79 74 80 67 81 69 82 75 83 68 84 70 85 71 86
REMARK SMILES IDX 72 87 73 88 50 89 51 90 59 91 52 92 54 93 60 94 53 95 55 96
REMARK SMILES IDX 56 97 57 98 58 99
REMARK H PARENT 14 8 21 33 80 52 48 63
REMARK Flexibility Score: inf
ROOT
ATOM      1  C   UNL A   1      32.275  30.632  26.843  1.00  0.00     0.002 C 
ENDROOT
BRANCH   1   2
ATOM      2  C   UNL A   1      32.806  29.196  26.864  1.00  0.00     0.002 C 
BRANCH   2   3
ATOM      3  C   UNL A   1      31.741  28.114  27.043  1.00  0.00     0.021 C 
BRANCH   3   4
ATOM      4  C   UNL A   1      32.102  26.765  26.430  1.00  0.00     0.116 C 
BRANCH   4   5
ATOM      5  N   UNL A   1      31.063  26.299  25.535  1.00  0.00    -0.351 N 
ATOM      6  C   UNL A   1      31.001  25.323  24.573  1.00  0.00     0.267 C 
ATOM      7  O   UNL A   1      29.971  25.249  23.905  1.00  0.00    -0.268 OA
ATOM      8  H   UNL A   1      30.216  26.790  25.640  1.00  0.00     0.163 HD
BRANCH   6   9
ATOM      9  C   UNL A   1      32.106  24.307  24.320  1.00  0.00     0.128 C 
ATOM     10  N   UNL A   1      33.176  22.468  24.494  1.00  0.00    -0.256 N 
ATOM     11  N   UNL A   1      31.972  23.069  24.699  1.00  0.00    -0.171 NA
ATOM     12  C   UNL A   1      34.171  23.333  23.852  1.00  0.00     0.154 C 
ATOM     13  C   UNL A   1      33.382  24.621  23.613  1.00  0.00     0.097 C 
BRANCH  10  14
ATOM     14  C   UNL A   1      33.289  21.084  24.452  1.00  0.00     0.060 A 
ATOM     15  C   UNL A   1      33.636  18.299  24.262  1.00  0.00     0.067 A 
ATOM     16  C   UNL A   1      32.539  18.904  23.645  1.00  0.00     0.022 A 
ATOM     17  C   UNL A   1      34.536  19.065  25.002  1.00  0.00     0.022 A 
ATOM     18  C   UNL A   1      32.366  20.290  23.755  1.00  0.00     0.029 A 
ATOM     19  C   UNL A   1      34.354  20.443  25.095  1.00  0.00     0.029 A 
BRANCH  15  20
ATOM     20  S   UNL A   1      33.965  16.561  24.158  1.00  0.00     0.175 S 
ATOM     21  C   UNL A   1      32.628  15.715  24.942  1.00  0.00     0.163 C 
ATOM     22  O   UNL A   1      35.154  16.315  24.957  1.00  0.00    -0.224 OA
ATOM     23  O   UNL A   1      33.930  16.217  22.750  1.00  0.00    -0.224 OA
ENDBRANCH  15  20
ENDBRANCH  10  14
BRANCH  12  24
ATOM     24  C   UNL A   1      35.482  23.544  24.588  1.00  0.00     0.030 A 
ATOM     25  C   UNL A   1      35.667  24.253  25.763  1.00  0.00     0.017 A 
ATOM     26  S   UNL A   1      36.981  22.929  24.011  1.00  0.00    -0.147 S 
ATOM     27  C   UNL A   1      37.019  24.248  26.206  1.00  0.00     0.012 A 
ATOM     28  C   UNL A   1      37.827  23.507  25.376  1.00  0.00     0.065 A 
ENDBRANCH  12  24
ENDBRANCH   6   9
ENDBRANCH   4   5
ENDBRANCH   3   4
ENDBRANCH   2   3
ENDBRANCH   1   2
BRANCH   1  29
ATOM     29  C   UNL A   1      32.990  31.611  27.779  1.00  0.00     0.021 C 
BRANCH  29  30
ATOM     30  C   UNL A   1      33.382  32.938  27.137  1.00  0.00     0.116 C 
BRANCH  30  31
ATOM     31  N   UNL A   1      32.901  34.076  27.902  1.00  0.00    -0.352 N 
ATOM     32  C   UNL A   1      33.278  34.504  29.150  1.00  0.00     0.251 C 
ATOM     33  H   UNL A   1      32.206  34.617  27.462  1.00  0.00     0.163 HD
ATOM     34  O   UNL A   1      32.621  35.365  29.727  1.00  0.00    -0.269 OA
BRANCH  32  35
ATOM     35  C   UNL A   1      34.467  33.913  29.801  1.00  0.00     0.039 A 
ATOM     36  C   UNL A   1      34.286  33.059  30.889  1.00  0.00     0.014 A 
ATOM     37  C   UNL A   1      35.754  34.205  29.340  1.00  0.00     0.014 A 
ATOM     38  C   UNL A   1      35.396  32.455  31.485  1.00  0.00     0.010 A 
ATOM     39  C   UNL A   1      36.850  33.541  29.883  1.00  0.00     0.010 A 
ATOM     40  C   UNL A   1      36.684  32.667  30.968  1.00  0.00    -0.014 A 
BRANCH  40  41
ATOM     41  C   UNL A   1      37.866  31.977  31.544  1.00  0.00     0.031 A 
ATOM     42  C   UNL A   1      38.496  32.480  32.815  1.00  0.00     0.074 A 
ATOM     43  C   UNL A   1      38.421  30.945  30.880  1.00  0.00     0.049 A 
ATOM     44  N   UNL A   1      39.557  32.038  33.439  1.00  0.00    -0.248 NA
ATOM     45  C   UNL A   1      37.870  33.649  33.454  1.00  0.00     0.031 C 
ATOM     46  C   UNL A   1      37.951  30.414  29.598  1.00  0.00     0.029 A 
ATOM     47  N   UNL A   1      39.517  30.173  31.177  1.00  0.00    -0.354 N 
ATOM     48  C   UNL A   1      39.744  32.888  34.521  1.00  0.00     0.074 A 
ATOM     49  C   UNL A   1      38.711  33.899  34.446  1.00  0.00     0.031 C 
ATOM     50  C   UNL A   1      38.749  29.403  29.222  1.00  0.00     0.029 A 
ATOM     51  C   UNL A   1      39.807  29.235  30.214  1.00  0.00     0.049 A 
ATOM     52  H   UNL A   1      40.045  30.281  32.000  1.00  0.00     0.167 HD
ATOM     53  C   UNL A   1      40.672  32.822  35.506  1.00  0.00     0.034 A 
ATOM     54  C   UNL A   1      40.819  28.349  30.129  1.00  0.00     0.034 A 
ATOM     55  C   UNL A   1      41.681  31.800  35.592  1.00  0.00     0.049 A 
ATOM     56  C   UNL A   1      41.823  28.277  31.246  1.00  0.00     0.074 A 
ATOM     57  C   UNL A   1      42.615  31.596  36.591  1.00  0.00     0.029 A 
ATOM     58  N   UNL A   1      41.898  30.819  34.636  1.00  0.00    -0.354 N 
ATOM     59  N   UNL A   1      41.892  28.994  32.340  1.00  0.00    -0.248 NA
ATOM     60  C   UNL A   1      42.866  27.248  31.135  1.00  0.00     0.031 C 
ATOM     61  C   UNL A   1      43.422  30.514  36.221  1.00  0.00     0.029 A 
ATOM     62  C   UNL A   1      42.962  30.016  35.012  1.00  0.00     0.049 A 
ATOM     63  H   UNL A   1      41.373  30.709  33.810  1.00  0.00     0.167 HD
ATOM     64  C   UNL A   1      42.962  28.483  33.065  1.00  0.00     0.074 A 
ATOM     65  C   UNL A   1      43.499  27.381  32.293  1.00  0.00     0.031 C 
ATOM     66  C   UNL A   1      43.461  28.895  34.257  1.00  0.00     0.034 A 
BRANCH  53  67
ATOM     67  C   UNL A   1      40.614  33.866  36.592  1.00  0.00     0.023 A 
ATOM     68  C   UNL A   1      41.212  35.126  36.384  1.00  0.00     0.012 A 
ATOM     69  C   UNL A   1      39.932  33.617  37.800  1.00  0.00     0.148 A 
ATOM     70  C   UNL A   1      41.172  36.105  37.377  1.00  0.00     0.002 A 
ATOM     71  C   UNL A   1      39.853  34.616  38.764  1.00  0.00     0.091 A 
ATOM     72  F   UNL A   1      39.386  32.408  37.989  1.00  0.00    -0.205 F 
ATOM     73  C   UNL A   1      40.484  35.854  38.560  1.00  0.00     0.022 A 
BRANCH  71  74
ATOM     74  S   UNL A   1      38.922  34.420  40.287  1.00  0.00     0.127 S 
ATOM     75  O   UNL A   1      37.678  33.826  39.797  1.00  0.00    -0.237 OA
ATOM     76  O   UNL A   1      39.773  33.507  41.051  1.00  0.00    -0.237 OA
ATOM     77  O   UNL A   1      38.794  35.754  40.856  1.00  0.00    -0.744 OA
ENDBRANCH  71  74
ENDBRANCH  53  67
BRANCH  54  78
ATOM     78  C   UNL A   1      40.897  27.426  28.962  1.00  0.00     0.023 A 
ATOM     79  C   UNL A   1      40.011  26.335  28.875  1.00  0.00     0.012 A 
ATOM     80  C   UNL A   1      41.820  27.647  27.921  1.00  0.00     0.148 A 
ATOM     81  C   UNL A   1      40.063  25.463  27.788  1.00  0.00     0.002 A 
ATOM     82  C   UNL A   1      41.827  26.808  26.813  1.00  0.00     0.091 A 
ATOM     83  F   UNL A   1      42.658  28.687  28.027  1.00  0.00    -0.205 F 
ATOM     84  C   UNL A   1      40.962  25.705  26.753  1.00  0.00     0.022 A 
BRANCH  82  85
ATOM     85  S   UNL A   1      42.855  27.122  25.374  1.00  0.00     0.127 S 
ATOM     86  O   UNL A   1      44.167  27.330  25.984  1.00  0.00    -0.237 OA
ATOM     87  O   UNL A   1      42.713  25.873  24.626  1.00  0.00    -0.237 OA
ATOM     88  O   UNL A   1      42.274  28.285  24.718  1.00  0.00    -0.744 OA
ENDBRANCH  82  85
ENDBRANCH  54  78
BRANCH  66  89
ATOM     89  C   UNL A   1      44.626  28.130  34.830  1.00  0.00     0.023 A 
ATOM     90  C   UNL A   1      45.942  28.595  34.637  1.00  0.00     0.012 A 
ATOM     91  C   UNL A   1      44.406  26.985  35.622  1.00  0.00     0.148 A 
ATOM     92  C   UNL A   1      47.023  27.912  35.194  1.00  0.00     0.002 A 
ATOM     93  C   UNL A   1      45.484  26.342  36.219  1.00  0.00     0.091 A 
ATOM     94  F   UNL A   1      43.148  26.549  35.780  1.00  0.00    -0.205 F 
ATOM     95  C   UNL A   1      46.794  26.795  35.993  1.00  0.00     0.022 A 
BRANCH  93  96
ATOM     96  S   UNL A   1      45.279  24.957  37.344  1.00  0.00     0.127 S 
ATOM     97  O   UNL A   1      46.647  24.753  37.817  1.00  0.00    -0.237 OA
ATOM     98  O   UNL A   1      44.362  25.505  38.344  1.00  0.00    -0.237 OA
ATOM     99  O   UNL A   1      44.726  23.869  36.547  1.00  0.00    -0.744 OA
ENDBRANCH  93  96
ENDBRANCH  66  89
ENDBRANCH  40  41
ENDBRANCH  32  35
ENDBRANCH  30  31
ENDBRANCH  29  30
ENDBRANCH   1  29
TORSDOF 19
ENDMDL
