MODEL 1
REMARK VINA RESULT:      -8.5      0.000      0.000
REMARK SMILES O=C(COc1ccccc1/C=C1/SC(=S)N(c2ccc(F)c(Cl)c2)C1=O)NCCCCCCNC(=O)c1ccc(-c2c3nc(c(-c4cccc(S(=O)(=O)[O-])c4F)c4ccc([nH]4)c(-c4cccc(S(=O)(=O)[O-])c4F)c4nc(c(-c5cccc(S(=O)(=O)[O-])c5F)c5ccc2[nH]5)C=C4)C=C3)cc1
REMARK SMILES IDX 30 1 29 2 28 3 27 4 1 5 2 6 3 8 4 9 5 10 6 11 10 12 7 13
REMARK SMILES IDX 9 14 8 15 11 16 12 17 13 18 25 19 14 20 16 21 26 22 15 23
REMARK SMILES IDX 17 24 18 25 24 26 19 27 22 28 20 29 23 30 21 31 31 32 32 33
REMARK SMILES IDX 33 34 34 35 35 36 36 38 37 39 38 40 99 41 39 42 98 43 40 44
REMARK SMILES IDX 41 45 42 46 92 47 43 48 97 49 91 50 93 51 44 52 96 53 90 54
REMARK SMILES IDX 89 55 45 57 77 58 57 59 76 60 58 61 61 62 75 63 94 64 59 65
REMARK SMILES IDX 60 66 74 68 95 69 62 70 46 71 47 72 55 73 48 74 50 75 56 76
REMARK SMILES IDX 49 77 51 78 52 79 53 80 54 81 78 82 79 83 87 84 80 85 82 86
REMARK SMILES IDX 88 87 81 88 83 89 84 90 85 91 86 92 63 93 64 94 72 95 65 96
REMARK SMILES IDX 67 97 73 98 66 99 68 100 69 101 70 102 71 103
REMARK H PARENT 27 7 34 37 93 56 61 67
REMARK Flexibility Score: inf
ROOT
ATOM      1  C   UNL A   1      35.187  32.157  31.759  1.00  0.00     0.002 C 
ENDROOT
BRANCH   1   2
ATOM      2  C   UNL A   1      36.016  32.627  32.965  1.00  0.00     0.021 C 
BRANCH   2   3
ATOM      3  C   UNL A   1      37.641  32.179  32.974  1.00  0.00     0.116 C 
BRANCH   3   4
ATOM      4  N   UNL A   1      38.903  31.514  34.521  1.00  0.00    -0.353 N 
ATOM      5  O   UNL A   1      38.403  30.333  36.619  1.00  0.00    -0.271 OA
ATOM      6  C   UNL A   1      39.161  30.686  35.722  1.00  0.00     0.257 C 
ATOM      7  H   UNL A   1      39.747  31.997  34.371  1.00  0.00     0.163 HD
BRANCH   6   8
ATOM      8  C   UNL A   1      40.620  30.217  35.772  1.00  0.00     0.329 C 
BRANCH   8   9
ATOM      9  O   UNL A   1      40.777  28.811  35.803  1.00  0.00    -0.483 OA
BRANCH   9  10
ATOM     10  C   UNL A   1      41.766  28.270  35.010  1.00  0.00     0.127 A 
ATOM     11  C   UNL A   1      41.464  28.367  33.648  1.00  0.00     0.047 A 
ATOM     12  C   UNL A   1      42.857  27.472  35.441  1.00  0.00     0.018 A 
ATOM     13  C   UNL A   1      42.222  27.683  32.702  1.00  0.00     0.004 A 
ATOM     14  C   UNL A   1      43.606  26.789  34.471  1.00  0.00     0.012 A 
ATOM     15  C   UNL A   1      43.284  26.885  33.115  1.00  0.00     0.001 A 
BRANCH  12  16
ATOM     16  C   UNL A   1      43.239  27.218  36.841  1.00  0.00     0.033 C 
ATOM     17  C   UNL A   1      44.220  27.943  37.407  1.00  0.00     0.081 C 
ATOM     18  S   UNL A   1      45.556  26.851  38.912  1.00  0.00    -0.054 SA
ATOM     19  C   UNL A   1      45.271  29.225  36.337  1.00  0.00     0.270 C 
ATOM     20  C   UNL A   1      47.496  27.808  38.016  1.00  0.00     0.152 C 
ATOM     21  N   UNL A   1      47.033  29.068  36.784  1.00  0.00    -0.261 N 
ATOM     22  O   UNL A   1      44.788  30.025  35.547  1.00  0.00    -0.268 OA
ATOM     23  S   UNL A   1      48.979  27.118  38.437  1.00  0.00    -0.051 S 
BRANCH  21  24
ATOM     24  C   UNL A   1      47.977  29.905  36.074  1.00  0.00     0.052 A 
ATOM     25  C   UNL A   1      48.272  31.193  36.560  1.00  0.00     0.030 A 
ATOM     26  C   UNL A   1      48.683  29.473  34.948  1.00  0.00     0.050 A 
ATOM     27  C   UNL A   1      49.252  32.001  35.975  1.00  0.00     0.043 A 
ATOM     28  C   UNL A   1      49.665  30.282  34.355  1.00  0.00     0.078 A 
ATOM     29  C   UNL A   1      49.950  31.538  34.874  1.00  0.00     0.141 A 
ATOM     30  Cl  UNL A   1      50.523  29.696  32.980  1.00  0.00    -0.081 Cl
ATOM     31  F   UNL A   1      50.894  32.318  34.329  1.00  0.00    -0.205 F 
ENDBRANCH  21  24
ENDBRANCH  12  16
ENDBRANCH   9  10
ENDBRANCH   8   9
ENDBRANCH   6   8
ENDBRANCH   3   4
ENDBRANCH   2   3
ENDBRANCH   1   2
BRANCH   1  32
ATOM     32  C   UNL A   1      35.599  32.781  30.417  1.00  0.00     0.002 C 
BRANCH  32  33
ATOM     33  C   UNL A   1      34.437  32.999  29.453  1.00  0.00     0.021 C 
BRANCH  33  34
ATOM     34  C   UNL A   1      34.726  32.494  28.050  1.00  0.00     0.116 C 
BRANCH  34  35
ATOM     35  N   UNL A   1      34.020  31.248  27.759  1.00  0.00    -0.352 N 
ATOM     36  C   UNL A   1      34.545  29.983  27.731  1.00  0.00     0.251 C 
ATOM     37  H   UNL A   1      33.059  31.326  27.560  1.00  0.00     0.163 HD
ATOM     38  O   UNL A   1      33.901  29.024  27.329  1.00  0.00    -0.269 OA
BRANCH  36  39
ATOM     39  C   UNL A   1      35.926  29.844  28.202  1.00  0.00     0.039 A 
ATOM     40  C   UNL A   1      36.164  29.323  29.471  1.00  0.00     0.014 A 
ATOM     41  C   UNL A   1      36.960  30.077  27.291  1.00  0.00     0.014 A 
ATOM     42  C   UNL A   1      37.469  28.999  29.823  1.00  0.00     0.010 A 
ATOM     43  C   UNL A   1      38.242  29.667  27.613  1.00  0.00     0.010 A 
ATOM     44  C   UNL A   1      38.509  29.148  28.888  1.00  0.00    -0.014 A 
BRANCH  44  45
ATOM     45  C   UNL A   1      39.903  28.809  29.239  1.00  0.00     0.031 A 
ATOM     46  C   UNL A   1      40.754  29.843  29.921  1.00  0.00     0.074 A 
ATOM     47  C   UNL A   1      40.412  27.614  28.883  1.00  0.00     0.049 A 
ATOM     48  N   UNL A   1      42.011  29.775  30.266  1.00  0.00    -0.248 NA
ATOM     49  C   UNL A   1      40.118  31.140  30.222  1.00  0.00     0.031 C 
ATOM     50  C   UNL A   1      39.696  26.573  28.139  1.00  0.00     0.029 A 
ATOM     51  N   UNL A   1      41.659  27.082  29.079  1.00  0.00    -0.354 N 
ATOM     52  C   UNL A   1      42.322  31.023  30.793  1.00  0.00     0.074 A 
ATOM     53  C   UNL A   1      41.144  31.848  30.674  1.00  0.00     0.031 C 
ATOM     54  C   UNL A   1      40.515  25.526  27.949  1.00  0.00     0.029 A 
ATOM     55  C   UNL A   1      41.818  25.830  28.532  1.00  0.00     0.049 A 
ATOM     56  H   UNL A   1      42.375  27.553  29.564  1.00  0.00     0.167 HD
ATOM     57  C   UNL A   1      43.476  31.431  31.369  1.00  0.00     0.034 A 
ATOM     58  C   UNL A   1      42.898  25.026  28.508  1.00  0.00     0.034 A 
ATOM     59  C   UNL A   1      44.623  30.583  31.529  1.00  0.00     0.049 A 
ATOM     60  C   UNL A   1      44.153  25.488  29.200  1.00  0.00     0.074 A 
ATOM     61  C   UNL A   1      45.819  30.866  32.163  1.00  0.00     0.029 A 
ATOM     62  N   UNL A   1      44.714  29.284  31.055  1.00  0.00    -0.354 N 
ATOM     63  N   UNL A   1      44.381  26.615  29.830  1.00  0.00    -0.248 NA
ATOM     64  C   UNL A   1      45.286  24.552  29.216  1.00  0.00     0.031 C 
ATOM     65  C   UNL A   1      46.641  29.741  32.056  1.00  0.00     0.029 A 
ATOM     66  C   UNL A   1      45.946  28.750  31.381  1.00  0.00     0.049 A 
ATOM     67  H   UNL A   1      44.007  28.813  30.558  1.00  0.00     0.167 HD
ATOM     68  C   UNL A   1      45.665  26.508  30.351  1.00  0.00     0.074 A 
ATOM     69  C   UNL A   1      46.155  25.196  29.982  1.00  0.00     0.031 C 
ATOM     70  C   UNL A   1      46.383  27.417  31.056  1.00  0.00     0.034 A 
BRANCH  57  71
ATOM     71  C   UNL A   1      43.526  32.828  31.924  1.00  0.00     0.023 A 
ATOM     72  C   UNL A   1      43.945  33.890  31.094  1.00  0.00     0.012 A 
ATOM     73  C   UNL A   1      43.107  33.102  33.240  1.00  0.00     0.148 A 
ATOM     74  C   UNL A   1      43.974  35.197  31.574  1.00  0.00     0.002 A 
ATOM     75  C   UNL A   1      43.093  34.415  33.695  1.00  0.00     0.091 A 
ATOM     76  F   UNL A   1      42.736  32.076  34.019  1.00  0.00    -0.205 F 
ATOM     77  C   UNL A   1      43.537  35.460  32.869  1.00  0.00     0.022 A 
BRANCH  75  78
ATOM     78  S   UNL A   1      42.474  34.873  35.317  1.00  0.00     0.127 S 
ATOM     79  O   UNL A   1      41.034  34.678  35.148  1.00  0.00    -0.237 OA
ATOM     80  O   UNL A   1      43.125  33.888  36.181  1.00  0.00    -0.237 OA
ATOM     81  O   UNL A   1      42.893  36.250  35.536  1.00  0.00    -0.744 OA
ENDBRANCH  75  78
ENDBRANCH  57  71
BRANCH  58  82
ATOM     82  C   UNL A   1      42.825  23.683  27.863  1.00  0.00     0.023 A 
ATOM     83  C   UNL A   1      41.924  22.721  28.360  1.00  0.00     0.012 A 
ATOM     84  C   UNL A   1      43.639  23.355  26.762  1.00  0.00     0.148 A 
ATOM     85  C   UNL A   1      41.870  21.443  27.804  1.00  0.00     0.002 A 
ATOM     86  C   UNL A   1      43.539  22.097  26.176  1.00  0.00     0.091 A 
ATOM     87  F   UNL A   1      44.498  24.278  26.307  1.00  0.00    -0.205 F 
ATOM     88  C   UNL A   1      42.670  21.133  26.709  1.00  0.00     0.022 A 
BRANCH  86  89
ATOM     89  S   UNL A   1      44.435  21.665  24.682  1.00  0.00     0.127 S 
ATOM     90  O   UNL A   1      45.822  21.852  25.100  1.00  0.00    -0.237 OA
ATOM     91  O   UNL A   1      44.035  20.272  24.478  1.00  0.00    -0.237 OA
ATOM     92  O   UNL A   1      43.949  22.579  23.658  1.00  0.00    -0.744 OA
ENDBRANCH  86  89
ENDBRANCH  58  82
BRANCH  70  93
ATOM     93  C   UNL A   1      47.755  27.011  31.519  1.00  0.00     0.023 A 
ATOM     94  C   UNL A   1      47.919  26.398  32.777  1.00  0.00     0.012 A 
ATOM     95  C   UNL A   1      48.868  27.161  30.669  1.00  0.00     0.148 A 
ATOM     96  C   UNL A   1      49.178  25.971  33.195  1.00  0.00     0.002 A 
ATOM     97  C   UNL A   1      50.109  26.686  31.070  1.00  0.00     0.091 A 
ATOM     98  F   UNL A   1      48.690  27.763  29.483  1.00  0.00    -0.205 F 
ATOM     99  C   UNL A   1      50.268  26.103  32.338  1.00  0.00     0.022 A 
BRANCH  97 100
ATOM    100  S   UNL A   1      51.546  26.720  29.994  1.00  0.00     0.127 S 
ATOM    101  O   UNL A   1      51.076  25.944  28.847  1.00  0.00    -0.237 OA
ATOM    102  O   UNL A   1      51.706  28.152  29.737  1.00  0.00    -0.237 OA
ATOM    103  O   UNL A   1      52.632  26.116  30.754  1.00  0.00    -0.744 OA
ENDBRANCH  97 100
ENDBRANCH  70  93
ENDBRANCH  44  45
ENDBRANCH  36  39
ENDBRANCH  34  35
ENDBRANCH  33  34
ENDBRANCH  32  33
ENDBRANCH   1  32
TORSDOF 20
ENDMDL
MODEL 2
REMARK VINA RESULT:      -8.2      5.228     12.934
REMARK SMILES O=C(COc1ccccc1/C=C1/SC(=S)N(c2ccc(F)c(Cl)c2)C1=O)NCCCCCCNC(=O)c1ccc(-c2c3nc(c(-c4cccc(S(=O)(=O)[O-])c4F)c4ccc([nH]4)c(-c4cccc(S(=O)(=O)[O-])c4F)c4nc(c(-c5cccc(S(=O)(=O)[O-])c5F)c5ccc2[nH]5)C=C4)C=C3)cc1
REMARK SMILES IDX 30 1 29 2 28 3 27 4 1 5 2 6 3 8 4 9 5 10 6 11 10 12 7 13
REMARK SMILES IDX 9 14 8 15 11 16 12 17 13 18 25 19 14 20 16 21 26 22 15 23
REMARK SMILES IDX 17 24 18 25 24 26 19 27 22 28 20 29 23 30 21 31 31 32 32 33
REMARK SMILES IDX 33 34 34 35 35 36 36 38 37 39 38 40 99 41 39 42 98 43 40 44
REMARK SMILES IDX 41 45 42 46 92 47 43 48 97 49 91 50 93 51 44 52 96 53 90 54
REMARK SMILES IDX 89 55 45 57 77 58 57 59 76 60 58 61 61 62 75 63 94 64 59 65
REMARK SMILES IDX 60 66 74 68 95 69 62 70 46 71 47 72 55 73 48 74 50 75 56 76
REMARK SMILES IDX 49 77 51 78 52 79 53 80 54 81 78 82 79 83 87 84 80 85 82 86
REMARK SMILES IDX 88 87 81 88 83 89 84 90 85 91 86 92 63 93 64 94 72 95 65 96
REMARK SMILES IDX 67 97 73 98 66 99 68 100 69 101 70 102 71 103
REMARK H PARENT 27 7 34 37 93 56 61 67
REMARK Flexibility Score: inf
ROOT
ATOM      1  C   UNL A   1      42.149  23.020  28.037  1.00  0.00     0.002 C 
ENDROOT
BRANCH   1   2
ATOM      2  C   UNL A   1      40.789  22.306  27.991  1.00  0.00     0.021 C 
BRANCH   2   3
ATOM      3  C   UNL A   1      39.690  22.867  26.843  1.00  0.00     0.116 C 
BRANCH   3   4
ATOM      4  N   UNL A   1      38.206  21.881  25.724  1.00  0.00    -0.353 N 
ATOM      5  O   UNL A   1      38.150  19.624  24.749  1.00  0.00    -0.271 OA
ATOM      6  C   UNL A   1      37.612  20.649  25.154  1.00  0.00     0.257 C 
ATOM      7  H   UNL A   1      37.601  22.600  25.433  1.00  0.00     0.163 HD
BRANCH   6   8
ATOM      8  C   UNL A   1      36.082  20.735  25.114  1.00  0.00     0.329 C 
BRANCH   8   9
ATOM      9  O   UNL A   1      35.579  22.030  24.844  1.00  0.00    -0.483 OA
BRANCH   9  10
ATOM     10  C   UNL A   1      34.483  22.444  25.570  1.00  0.00     0.127 A 
ATOM     11  C   UNL A   1      34.537  22.015  26.900  1.00  0.00     0.047 A 
ATOM     12  C   UNL A   1      33.290  23.014  25.055  1.00  0.00     0.018 A 
ATOM     13  C   UNL A   1      33.427  22.136  27.731  1.00  0.00     0.004 A 
ATOM     14  C   UNL A   1      32.182  23.124  25.909  1.00  0.00     0.012 A 
ATOM     15  C   UNL A   1      32.248  22.679  27.232  1.00  0.00     0.001 A 
BRANCH  12  16
ATOM     16  C   UNL A   1      33.068  23.433  23.660  1.00  0.00     0.033 C 
ATOM     17  C   UNL A   1      33.289  24.712  23.305  1.00  0.00     0.081 C 
ATOM     18  S   UNL A   1      31.892  25.584  21.714  1.00  0.00    -0.054 SA
ATOM     19  C   UNL A   1      33.742  26.071  24.663  1.00  0.00     0.270 C 
ATOM     20  C   UNL A   1      31.653  27.589  22.899  1.00  0.00     0.152 C 
ATOM     21  N   UNL A   1      32.805  27.596  24.311  1.00  0.00    -0.261 N 
ATOM     22  O   UNL A   1      34.564  25.910  25.554  1.00  0.00    -0.268 OA
ATOM     23  S   UNL A   1      30.388  28.618  22.455  1.00  0.00    -0.051 S 
BRANCH  21  24
ATOM     24  C   UNL A   1      32.973  28.706  25.226  1.00  0.00     0.052 A 
ATOM     25  C   UNL A   1      31.907  29.599  25.443  1.00  0.00     0.030 A 
ATOM     26  C   UNL A   1      34.135  28.906  25.976  1.00  0.00     0.050 A 
ATOM     27  C   UNL A   1      31.979  30.624  26.393  1.00  0.00     0.043 A 
ATOM     28  C   UNL A   1      34.213  29.935  26.928  1.00  0.00     0.078 A 
ATOM     29  C   UNL A   1      33.133  30.785  27.137  1.00  0.00     0.141 A 
ATOM     30  Cl  UNL A   1      35.659  30.130  27.844  1.00  0.00    -0.081 Cl
ATOM     31  F   UNL A   1      33.186  31.764  28.051  1.00  0.00    -0.205 F 
ENDBRANCH  21  24
ENDBRANCH  12  16
ENDBRANCH   9  10
ENDBRANCH   8   9
ENDBRANCH   6   8
ENDBRANCH   3   4
ENDBRANCH   2   3
ENDBRANCH   1   2
BRANCH   1  32
ATOM     32  C   UNL A   1      42.280  24.211  27.076  1.00  0.00     0.002 C 
BRANCH  32  33
ATOM     33  C   UNL A   1      43.622  24.931  27.162  1.00  0.00     0.021 C 
BRANCH  33  34
ATOM     34  C   UNL A   1      43.481  26.436  27.311  1.00  0.00     0.116 C 
BRANCH  34  35
ATOM     35  N   UNL A   1      43.189  27.089  26.036  1.00  0.00    -0.352 N 
ATOM     36  C   UNL A   1      42.363  28.160  25.822  1.00  0.00     0.251 C 
ATOM     37  H   UNL A   1      43.637  26.717  25.242  1.00  0.00     0.163 HD
ATOM     38  O   UNL A   1      42.070  28.535  24.695  1.00  0.00    -0.269 OA
BRANCH  36  39
ATOM     39  C   UNL A   1      41.841  28.825  27.019  1.00  0.00     0.039 A 
ATOM     40  C   UNL A   1      40.786  28.239  27.717  1.00  0.00     0.014 A 
ATOM     41  C   UNL A   1      42.534  29.931  27.517  1.00  0.00     0.014 A 
ATOM     42  C   UNL A   1      40.441  28.760  28.959  1.00  0.00     0.010 A 
ATOM     43  C   UNL A   1      42.247  30.385  28.791  1.00  0.00     0.010 A 
ATOM     44  C   UNL A   1      41.184  29.819  29.510  1.00  0.00    -0.014 A 
BRANCH  44  45
ATOM     45  C   UNL A   1      40.836  30.387  30.829  1.00  0.00     0.031 A 
ATOM     46  C   UNL A   1      39.577  31.198  30.962  1.00  0.00     0.074 A 
ATOM     47  C   UNL A   1      41.679  30.235  31.867  1.00  0.00     0.049 A 
ATOM     48  N   UNL A   1      39.114  31.829  32.007  1.00  0.00    -0.248 NA
ATOM     49  C   UNL A   1      38.747  31.350  29.752  1.00  0.00     0.031 C 
ATOM     50  C   UNL A   1      42.969  29.542  31.820  1.00  0.00     0.029 A 
ATOM     51  N   UNL A   1      41.587  30.674  33.162  1.00  0.00    -0.354 N 
ATOM     52  C   UNL A   1      37.962  32.475  31.573  1.00  0.00     0.074 A 
ATOM     53  C   UNL A   1      37.824  32.208  30.161  1.00  0.00     0.031 C 
ATOM     54  C   UNL A   1      43.544  29.596  33.033  1.00  0.00     0.029 A 
ATOM     55  C   UNL A   1      42.678  30.349  33.935  1.00  0.00     0.049 A 
ATOM     56  H   UNL A   1      40.813  31.176  33.506  1.00  0.00     0.167 HD
ATOM     57  C   UNL A   1      37.072  33.190  32.299  1.00  0.00     0.034 A 
ATOM     58  C   UNL A   1      42.941  30.632  35.224  1.00  0.00     0.034 A 
ATOM     59  C   UNL A   1      37.194  33.403  33.712  1.00  0.00     0.049 A 
ATOM     60  C   UNL A   1      41.909  31.388  36.019  1.00  0.00     0.074 A 
ATOM     61  C   UNL A   1      36.315  34.047  34.563  1.00  0.00     0.029 A 
ATOM     62  N   UNL A   1      38.261  32.972  34.484  1.00  0.00    -0.354 N 
ATOM     63  N   UNL A   1      40.749  31.860  35.628  1.00  0.00    -0.248 NA
ATOM     64  C   UNL A   1      42.199  31.613  37.442  1.00  0.00     0.031 C 
ATOM     65  C   UNL A   1      36.861  34.020  35.850  1.00  0.00     0.029 A 
ATOM     66  C   UNL A   1      38.065  33.334  35.803  1.00  0.00     0.049 A 
ATOM     67  H   UNL A   1      39.043  32.480  34.144  1.00  0.00     0.167 HD
ATOM     68  C   UNL A   1      40.156  32.401  36.762  1.00  0.00     0.074 A 
ATOM     69  C   UNL A   1      41.075  32.176  37.859  1.00  0.00     0.031 C 
ATOM     70  C   UNL A   1      38.967  33.041  36.886  1.00  0.00     0.034 A 
BRANCH  57  71
ATOM     71  C   UNL A   1      35.862  33.731  31.588  1.00  0.00     0.023 A 
ATOM     72  C   UNL A   1      35.268  32.973  30.556  1.00  0.00     0.012 A 
ATOM     73  C   UNL A   1      35.278  34.952  31.973  1.00  0.00     0.148 A 
ATOM     74  C   UNL A   1      34.130  33.436  29.900  1.00  0.00     0.002 A 
ATOM     75  C   UNL A   1      34.115  35.383  31.347  1.00  0.00     0.091 A 
ATOM     76  F   UNL A   1      35.872  35.667  32.939  1.00  0.00    -0.205 F 
ATOM     77  C   UNL A   1      33.547  34.633  30.303  1.00  0.00     0.022 A 
BRANCH  75  78
ATOM     78  S   UNL A   1      33.239  36.870  31.843  1.00  0.00     0.127 S 
ATOM     79  O   UNL A   1      33.154  37.598  30.578  1.00  0.00    -0.237 OA
ATOM     80  O   UNL A   1      31.967  36.328  32.322  1.00  0.00    -0.237 OA
ATOM     81  O   UNL A   1      34.060  37.500  32.868  1.00  0.00    -0.744 OA
ENDBRANCH  75  78
ENDBRANCH  57  71
BRANCH  58  82
ATOM     82  C   UNL A   1      44.201  30.151  35.861  1.00  0.00     0.023 A 
ATOM     83  C   UNL A   1      45.387  30.894  35.704  1.00  0.00     0.012 A 
ATOM     84  C   UNL A   1      44.230  28.966  36.621  1.00  0.00     0.148 A 
ATOM     85  C   UNL A   1      46.588  30.441  36.251  1.00  0.00     0.002 A 
ATOM     86  C   UNL A   1      45.419  28.550  37.212  1.00  0.00     0.091 A 
ATOM     87  F   UNL A   1      43.095  28.266  36.754  1.00  0.00    -0.205 F 
ATOM     88  C   UNL A   1      46.603  29.275  37.010  1.00  0.00     0.022 A 
BRANCH  86  89
ATOM     89  S   UNL A   1      45.494  27.135  38.314  1.00  0.00     0.127 S 
ATOM     90  O   UNL A   1      46.170  26.143  37.483  1.00  0.00    -0.237 OA
ATOM     91  O   UNL A   1      46.293  27.657  39.425  1.00  0.00    -0.237 OA
ATOM     92  O   UNL A   1      44.112  26.840  38.664  1.00  0.00    -0.744 OA
ENDBRANCH  86  89
ENDBRANCH  58  82
BRANCH  70  93
ATOM     93  C   UNL A   1      38.565  33.502  38.260  1.00  0.00     0.023 A 
ATOM     94  C   UNL A   1      37.840  32.640  39.107  1.00  0.00     0.012 A 
ATOM     95  C   UNL A   1      38.981  34.759  38.740  1.00  0.00     0.148 A 
ATOM     96  C   UNL A   1      37.507  33.037  40.400  1.00  0.00     0.002 A 
ATOM     97  C   UNL A   1      38.691  35.126  40.048  1.00  0.00     0.091 A 
ATOM     98  F   UNL A   1      39.656  35.570  37.911  1.00  0.00    -0.205 F 
ATOM     99  C   UNL A   1      37.943  34.272  40.873  1.00  0.00     0.022 A 
BRANCH  97 100
ATOM    100  S   UNL A   1      39.298  36.651  40.775  1.00  0.00     0.127 S 
ATOM    101  O   UNL A   1      39.077  36.410  42.200  1.00  0.00    -0.237 OA
ATOM    102  O   UNL A   1      40.703  36.651  40.367  1.00  0.00    -0.237 OA
ATOM    103  O   UNL A   1      38.499  37.721  40.192  1.00  0.00    -0.744 OA
ENDBRANCH  97 100
ENDBRANCH  70  93
ENDBRANCH  44  45
ENDBRANCH  36  39
ENDBRANCH  34  35
ENDBRANCH  33  34
ENDBRANCH  32  33
ENDBRANCH   1  32
TORSDOF 20
ENDMDL
MODEL 3
REMARK VINA RESULT:      -8.2      3.559      8.667
REMARK SMILES O=C(COc1ccccc1/C=C1/SC(=S)N(c2ccc(F)c(Cl)c2)C1=O)NCCCCCCNC(=O)c1ccc(-c2c3nc(c(-c4cccc(S(=O)(=O)[O-])c4F)c4ccc([nH]4)c(-c4cccc(S(=O)(=O)[O-])c4F)c4nc(c(-c5cccc(S(=O)(=O)[O-])c5F)c5ccc2[nH]5)C=C4)C=C3)cc1
REMARK SMILES IDX 30 1 29 2 28 3 27 4 1 5 2 6 3 8 4 9 5 10 6 11 10 12 7 13
REMARK SMILES IDX 9 14 8 15 11 16 12 17 13 18 25 19 14 20 16 21 26 22 15 23
REMARK SMILES IDX 17 24 18 25 24 26 19 27 22 28 20 29 23 30 21 31 31 32 32 33
REMARK SMILES IDX 33 34 34 35 35 36 36 38 37 39 38 40 99 41 39 42 98 43 40 44
REMARK SMILES IDX 41 45 42 46 92 47 43 48 97 49 91 50 93 51 44 52 96 53 90 54
REMARK SMILES IDX 89 55 45 57 77 58 57 59 76 60 58 61 61 62 75 63 94 64 59 65
REMARK SMILES IDX 60 66 74 68 95 69 62 70 46 71 47 72 55 73 48 74 50 75 56 76
REMARK SMILES IDX 49 77 51 78 52 79 53 80 54 81 78 82 79 83 87 84 80 85 82 86
REMARK SMILES IDX 88 87 81 88 83 89 84 90 85 91 86 92 63 93 64 94 72 95 65 96
REMARK SMILES IDX 67 97 73 98 66 99 68 100 69 101 70 102 71 103
REMARK H PARENT 27 7 34 37 93 56 61 67
REMARK Flexibility Score: inf
ROOT
ATOM      1  C   UNL A   1      37.822  34.337  31.512  1.00  0.00     0.002 C 
ENDROOT
BRANCH   1   2
ATOM      2  C   UNL A   1      38.924  34.107  32.557  1.00  0.00     0.021 C 
BRANCH   2   3
ATOM      3  C   UNL A   1      40.507  34.376  32.045  1.00  0.00     0.116 C 
BRANCH   3   4
ATOM      4  N   UNL A   1      41.648  33.510  30.503  1.00  0.00    -0.353 N 
ATOM      5  O   UNL A   1      43.964  33.915  29.784  1.00  0.00    -0.271 OA
ATOM      6  C   UNL A   1      42.945  33.234  29.845  1.00  0.00     0.257 C 
ATOM      7  H   UNL A   1      40.984  33.063  29.930  1.00  0.00     0.163 HD
BRANCH   6   8
ATOM      8  C   UNL A   1      42.949  31.856  29.174  1.00  0.00     0.329 C 
BRANCH   8   9
ATOM      9  O   UNL A   1      43.802  30.911  29.792  1.00  0.00    -0.483 OA
BRANCH   9  10
ATOM     10  C   UNL A   1      44.752  30.305  28.998  1.00  0.00     0.127 A 
ATOM     11  C   UNL A   1      44.188  29.691  27.874  1.00  0.00     0.047 A 
ATOM     12  C   UNL A   1      46.110  30.065  29.331  1.00  0.00     0.018 A 
ATOM     13  C   UNL A   1      44.945  28.840  27.075  1.00  0.00     0.004 A 
ATOM     14  C   UNL A   1      46.854  29.202  28.514  1.00  0.00     0.012 A 
ATOM     15  C   UNL A   1      46.273  28.586  27.402  1.00  0.00     0.001 A 
BRANCH  12  16
ATOM     16  C   UNL A   1      46.807  30.579  30.523  1.00  0.00     0.033 C 
ATOM     17  C   UNL A   1      47.353  31.809  30.498  1.00  0.00     0.081 C 
ATOM     18  S   UNL A   1      49.302  32.083  31.668  1.00  0.00    -0.054 SA
ATOM     19  C   UNL A   1      47.380  32.866  28.832  1.00  0.00     0.270 C 
ATOM     20  C   UNL A   1      50.272  33.318  29.932  1.00  0.00     0.152 C 
ATOM     21  N   UNL A   1      49.014  33.657  28.658  1.00  0.00    -0.261 N 
ATOM     22  O   UNL A   1      46.422  32.998  28.083  1.00  0.00    -0.268 OA
ATOM     23  S   UNL A   1      51.945  33.547  29.971  1.00  0.00    -0.051 S 
BRANCH  21  24
ATOM     24  C   UNL A   1      49.246  34.451  27.469  1.00  0.00     0.052 A 
ATOM     25  C   UNL A   1      49.929  33.887  26.375  1.00  0.00     0.030 A 
ATOM     26  C   UNL A   1      48.756  35.751  27.313  1.00  0.00     0.050 A 
ATOM     27  C   UNL A   1      50.087  34.572  25.166  1.00  0.00     0.043 A 
ATOM     28  C   UNL A   1      48.915  36.443  26.102  1.00  0.00     0.078 A 
ATOM     29  C   UNL A   1      49.574  35.849  25.032  1.00  0.00     0.141 A 
ATOM     30  Cl  UNL A   1      48.277  38.036  25.951  1.00  0.00    -0.081 Cl
ATOM     31  F   UNL A   1      49.722  36.491  23.865  1.00  0.00    -0.205 F 
ENDBRANCH  21  24
ENDBRANCH  12  16
ENDBRANCH   9  10
ENDBRANCH   8   9
ENDBRANCH   6   8
ENDBRANCH   3   4
ENDBRANCH   2   3
ENDBRANCH   1   2
BRANCH   1  32
ATOM     32  C   UNL A   1      36.394  34.084  32.020  1.00  0.00     0.002 C 
BRANCH  32  33
ATOM     33  C   UNL A   1      35.376  33.841  30.910  1.00  0.00     0.021 C 
BRANCH  33  34
ATOM     34  C   UNL A   1      34.781  32.443  30.944  1.00  0.00     0.116 C 
BRANCH  34  35
ATOM     35  N   UNL A   1      34.500  31.934  29.603  1.00  0.00    -0.352 N 
ATOM     36  C   UNL A   1      35.348  31.240  28.783  1.00  0.00     0.251 C 
ATOM     37  H   UNL A   1      33.598  32.111  29.249  1.00  0.00     0.163 HD
ATOM     38  O   UNL A   1      35.065  30.990  27.620  1.00  0.00    -0.269 OA
BRANCH  36  39
ATOM     39  C   UNL A   1      36.622  30.821  29.375  1.00  0.00     0.039 A 
ATOM     40  C   UNL A   1      36.699  29.593  30.027  1.00  0.00     0.014 A 
ATOM     41  C   UNL A   1      37.758  31.591  29.110  1.00  0.00     0.014 A 
ATOM     42  C   UNL A   1      37.951  29.112  30.395  1.00  0.00     0.010 A 
ATOM     43  C   UNL A   1      39.006  31.066  29.395  1.00  0.00     0.010 A 
ATOM     44  C   UNL A   1      39.109  29.836  30.061  1.00  0.00    -0.014 A 
BRANCH  44  45
ATOM     45  C   UNL A   1      40.450  29.343  30.441  1.00  0.00     0.031 A 
ATOM     46  C   UNL A   1      41.088  28.262  29.615  1.00  0.00     0.074 A 
ATOM     47  C   UNL A   1      41.046  29.814  31.552  1.00  0.00     0.049 A 
ATOM     48  N   UNL A   1      42.226  27.650  29.801  1.00  0.00    -0.248 NA
ATOM     49  C   UNL A   1      40.330  27.776  28.446  1.00  0.00     0.031 C 
ATOM     50  C   UNL A   1      40.472  30.800  32.472  1.00  0.00     0.029 A 
ATOM     51  N   UNL A   1      42.259  29.508  32.111  1.00  0.00    -0.354 N 
ATOM     52  C   UNL A   1      42.305  26.693  28.797  1.00  0.00     0.074 A 
ATOM     53  C   UNL A   1      41.080  26.763  28.037  1.00  0.00     0.031 C 
ATOM     54  C   UNL A   1      41.337  31.022  33.476  1.00  0.00     0.029 A 
ATOM     55  C   UNL A   1      42.511  30.178  33.286  1.00  0.00     0.049 A 
ATOM     56  H   UNL A   1      42.890  28.868  31.709  1.00  0.00     0.167 HD
ATOM     57  C   UNL A   1      43.329  25.859  28.505  1.00  0.00     0.034 A 
ATOM     58  C   UNL A   1      43.574  30.110  34.110  1.00  0.00     0.034 A 
ATOM     59  C   UNL A   1      44.564  25.837  29.236  1.00  0.00     0.049 A 
ATOM     60  C   UNL A   1      44.720  29.209  33.733  1.00  0.00     0.074 A 
ATOM     61  C   UNL A   1      45.698  25.088  28.985  1.00  0.00     0.029 A 
ATOM     62  N   UNL A   1      44.827  26.604  30.361  1.00  0.00    -0.354 N 
ATOM     63  N   UNL A   1      44.842  28.422  32.691  1.00  0.00    -0.248 NA
ATOM     64  C   UNL A   1      45.892  29.219  34.618  1.00  0.00     0.031 C 
ATOM     65  C   UNL A   1      46.643  25.390  29.970  1.00  0.00     0.029 A 
ATOM     66  C   UNL A   1      46.106  26.347  30.817  1.00  0.00     0.049 A 
ATOM     67  H   UNL A   1      44.196  27.236  30.774  1.00  0.00     0.167 HD
ATOM     68  C   UNL A   1      46.117  27.874  32.775  1.00  0.00     0.074 A 
ATOM     69  C   UNL A   1      46.735  28.439  33.956  1.00  0.00     0.031 C 
ATOM     70  C   UNL A   1      46.718  26.973  31.960  1.00  0.00     0.034 A 
BRANCH  57  71
ATOM     71  C   UNL A   1      43.181  24.959  27.310  1.00  0.00     0.023 A 
ATOM     72  C   UNL A   1      43.696  25.372  26.062  1.00  0.00     0.012 A 
ATOM     73  C   UNL A   1      42.590  23.687  27.427  1.00  0.00     0.148 A 
ATOM     74  C   UNL A   1      43.597  24.546  24.945  1.00  0.00     0.002 A 
ATOM     75  C   UNL A   1      42.540  22.850  26.319  1.00  0.00     0.091 A 
ATOM     76  F   UNL A   1      42.087  23.323  28.615  1.00  0.00    -0.205 F 
ATOM     77  C   UNL A   1      43.031  23.282  25.076  1.00  0.00     0.022 A 
BRANCH  75  78
ATOM     78  S   UNL A   1      41.904  21.172  26.398  1.00  0.00     0.127 S 
ATOM     79  O   UNL A   1      42.657  20.521  25.326  1.00  0.00    -0.237 OA
ATOM     80  O   UNL A   1      42.291  20.764  27.749  1.00  0.00    -0.237 OA
ATOM     81  O   UNL A   1      40.469  21.272  26.177  1.00  0.00    -0.744 OA
ENDBRANCH  75  78
ENDBRANCH  57  71
BRANCH  58  82
ATOM     82  C   UNL A   1      43.634  30.958  35.335  1.00  0.00     0.023 A 
ATOM     83  C   UNL A   1      43.166  30.445  36.561  1.00  0.00     0.012 A 
ATOM     84  C   UNL A   1      44.152  32.267  35.294  1.00  0.00     0.148 A 
ATOM     85  C   UNL A   1      43.168  31.233  37.711  1.00  0.00     0.002 A 
ATOM     86  C   UNL A   1      44.205  33.028  36.458  1.00  0.00     0.091 A 
ATOM     87  F   UNL A   1      44.584  32.745  34.119  1.00  0.00    -0.205 F 
ATOM     88  C   UNL A   1      43.694  32.521  37.662  1.00  0.00     0.022 A 
BRANCH  86  89
ATOM     89  S   UNL A   1      44.988  34.643  36.508  1.00  0.00     0.127 S 
ATOM     90  O   UNL A   1      44.767  35.040  37.896  1.00  0.00    -0.237 OA
ATOM     91  O   UNL A   1      46.375  34.319  36.173  1.00  0.00    -0.237 OA
ATOM     92  O   UNL A   1      44.303  35.440  35.500  1.00  0.00    -0.744 OA
ENDBRANCH  86  89
ENDBRANCH  58  82
BRANCH  70  93
ATOM     93  C   UNL A   1      48.132  26.576  32.285  1.00  0.00     0.023 A 
ATOM     94  C   UNL A   1      48.378  25.475  33.129  1.00  0.00     0.012 A 
ATOM     95  C   UNL A   1      49.216  27.245  31.683  1.00  0.00     0.148 A 
ATOM     96  C   UNL A   1      49.683  25.067  33.395  1.00  0.00     0.002 A 
ATOM     97  C   UNL A   1      50.511  26.800  31.911  1.00  0.00     0.091 A 
ATOM     98  F   UNL A   1      48.959  28.301  30.896  1.00  0.00    -0.205 F 
ATOM     99  C   UNL A   1      50.747  25.721  32.778  1.00  0.00     0.022 A 
BRANCH  97 100
ATOM    100  S   UNL A   1      51.933  27.514  31.079  1.00  0.00     0.127 S 
ATOM    101  O   UNL A   1      53.013  26.638  31.531  1.00  0.00    -0.237 OA
ATOM    102  O   UNL A   1      51.575  27.362  29.669  1.00  0.00    -0.237 OA
ATOM    103  O   UNL A   1      52.016  28.894  31.537  1.00  0.00    -0.744 OA
ENDBRANCH  97 100
ENDBRANCH  70  93
ENDBRANCH  44  45
ENDBRANCH  36  39
ENDBRANCH  34  35
ENDBRANCH  33  34
ENDBRANCH  32  33
ENDBRANCH   1  32
TORSDOF 20
ENDMDL
