MODEL 1
REMARK VINA RESULT:     -10.8      0.000      0.000
REMARK SMILES CC1(C(=O)N[C@H](C(=O)NCCCCCCNC(=O)c2ccc(-c3c4nc(c(-c5cccc(S(=O)(=O)[O-])c5F)c5ccc([nH]5)c(-c5cccc(S(=O)(=O)[O-])c5F)c5nc(c(-c6cccc(S(=O)(=O)[O-])c6F)c6ccc3[nH]6)C=C5)C=C4)cc2)C2CC2)CCCC1
REMARK SMILES IDX 13 1 12 2 11 3 10 4 9 5 7 6 8 7 6 9 5 10 3 11 4 12 2 14 1 15
REMARK SMILES IDX 85 16 88 17 86 18 87 19 82 20 83 21 84 22 14 23 15 24 16 25
REMARK SMILES IDX 17 26 18 28 19 29 20 30 81 31 21 32 80 33 22 34 23 35 24 36
REMARK SMILES IDX 74 37 25 38 79 39 73 40 75 41 26 42 78 43 72 44 71 45 27 47
REMARK SMILES IDX 59 48 39 49 58 50 40 51 43 52 57 53 76 54 41 55 42 56 56 58
REMARK SMILES IDX 77 59 44 60 28 61 29 62 37 63 30 64 32 65 38 66 31 67 33 68
REMARK SMILES IDX 34 69 35 70 36 71 60 72 61 73 69 74 62 75 64 76 70 77 63 78
REMARK SMILES IDX 65 79 66 80 67 81 68 82 45 83 46 84 54 85 47 86 49 87 55 88
REMARK SMILES IDX 48 89 50 90 51 91 52 92 53 93
REMARK H PARENT 9 8 5 13 16 27 75 46 43 57
REMARK Flexibility Score: inf
ROOT
ATOM      1  C   UNL A   1      36.311  20.812  25.033  1.00  0.00     0.002 C 
ENDROOT
BRANCH   1   2
ATOM      2  C   UNL A   1      34.953  20.104  24.973  1.00  0.00     0.002 C 
BRANCH   2   3
ATOM      3  C   UNL A   1      33.843  20.899  24.273  1.00  0.00     0.021 C 
BRANCH   3   4
ATOM      4  C   UNL A   1      32.510  20.866  25.016  1.00  0.00     0.116 C 
BRANCH   4   5
ATOM      5  N   UNL A   1      32.687  21.231  26.406  1.00  0.00    -0.354 N 
ATOM      6  C   UNL A   1      32.671  22.453  27.004  1.00  0.00     0.242 C 
ATOM      7  O   UNL A   1      32.720  22.477  28.239  1.00  0.00    -0.273 OA
ATOM      8  H   UNL A   1      32.844  20.474  27.016  1.00  0.00     0.163 HD
BRANCH   6   9
ATOM      9  C   UNL A   1      32.392  23.750  26.195  1.00  0.00     0.174 C 
BRANCH   9  10
ATOM     10  N   UNL A   1      31.243  24.516  26.671  1.00  0.00    -0.344 N 
ATOM     11  C   UNL A   1      30.346  25.315  26.042  1.00  0.00     0.226 C 
ATOM     12  O   UNL A   1      29.438  25.769  26.746  1.00  0.00    -0.274 OA
ATOM     13  H   UNL A   1      31.090  24.437  27.642  1.00  0.00     0.164 HD
BRANCH  11  14
ATOM     14  C   UNL A   1      30.467  25.696  24.561  1.00  0.00     0.046 C 
ATOM     15  C   UNL A   1      29.102  26.161  24.028  1.00  0.00     0.022 C 
ATOM     16  C   UNL A   1      30.952  24.478  23.739  1.00  0.00     0.016 C 
ATOM     17  C   UNL A   1      31.594  26.694  24.274  1.00  0.00     0.016 C 
ATOM     18  C   UNL A   1      31.508  25.066  22.450  1.00  0.00     0.001 C 
ATOM     19  C   UNL A   1      32.051  26.435  22.837  1.00  0.00     0.001 C 
ENDBRANCH  11  14
ENDBRANCH   9  10
BRANCH   9  20
ATOM     20  C   UNL A   1      33.653  24.601  26.169  1.00  0.00     0.021 C 
ATOM     21  C   UNL A   1      35.004  23.925  26.114  1.00  0.00     0.006 C 
ATOM     22  C   UNL A   1      34.559  24.781  24.966  1.00  0.00     0.006 C 
ENDBRANCH   9  20
ENDBRANCH   6   9
ENDBRANCH   4   5
ENDBRANCH   3   4
ENDBRANCH   2   3
ENDBRANCH   1   2
BRANCH   1  23
ATOM     23  C   UNL A   1      37.522  19.881  24.951  1.00  0.00     0.021 C 
BRANCH  23  24
ATOM     24  C   UNL A   1      38.764  20.411  25.658  1.00  0.00     0.116 C 
BRANCH  24  25
ATOM     25  N   UNL A   1      39.758  19.367  25.855  1.00  0.00    -0.352 N 
ATOM     26  C   UNL A   1      41.105  19.491  26.075  1.00  0.00     0.251 C 
ATOM     27  H   UNL A   1      39.415  18.445  25.828  1.00  0.00     0.163 HD
ATOM     28  O   UNL A   1      41.835  18.504  25.999  1.00  0.00    -0.269 OA
BRANCH  26  29
ATOM     29  C   UNL A   1      41.676  20.817  26.386  1.00  0.00     0.039 A 
ATOM     30  C   UNL A   1      42.162  21.607  25.343  1.00  0.00     0.014 A 
ATOM     31  C   UNL A   1      41.723  21.278  27.705  1.00  0.00     0.014 A 
ATOM     32  C   UNL A   1      42.651  22.885  25.620  1.00  0.00     0.010 A 
ATOM     33  C   UNL A   1      42.132  22.582  27.966  1.00  0.00     0.010 A 
ATOM     34  C   UNL A   1      42.612  23.395  26.928  1.00  0.00    -0.014 A 
BRANCH  34  35
ATOM     35  C   UNL A   1      43.057  24.779  27.227  1.00  0.00     0.031 A 
ATOM     36  C   UNL A   1      42.114  25.764  27.861  1.00  0.00     0.074 A 
ATOM     37  C   UNL A   1      44.286  25.176  26.843  1.00  0.00     0.049 A 
ATOM     38  N   UNL A   1      42.315  27.021  28.158  1.00  0.00    -0.248 NA
ATOM     39  C   UNL A   1      40.759  25.282  28.175  1.00  0.00     0.031 C 
ATOM     40  C   UNL A   1      45.262  24.340  26.138  1.00  0.00     0.029 A 
ATOM     41  N   UNL A   1      44.915  26.390  26.965  1.00  0.00    -0.354 N 
ATOM     42  C   UNL A   1      41.103  27.492  28.652  1.00  0.00     0.074 A 
ATOM     43  C   UNL A   1      40.166  26.393  28.585  1.00  0.00     0.031 C 
ATOM     44  C   UNL A   1      46.363  25.065  25.891  1.00  0.00     0.029 A 
ATOM     45  C   UNL A   1      46.163  26.423  26.388  1.00  0.00     0.049 A 
ATOM     46  H   UNL A   1      44.511  27.163  27.421  1.00  0.00     0.167 HD
ATOM     47  C   UNL A   1      40.805  28.720  29.140  1.00  0.00     0.034 A 
ATOM     48  C   UNL A   1      47.042  27.435  26.258  1.00  0.00     0.034 A 
ATOM     49  C   UNL A   1      41.752  29.799  29.234  1.00  0.00     0.049 A 
ATOM     50  C   UNL A   1      46.708  28.777  26.848  1.00  0.00     0.074 A 
ATOM     51  C   UNL A   1      41.581  31.045  29.811  1.00  0.00     0.029 A 
ATOM     52  N   UNL A   1      43.038  29.771  28.716  1.00  0.00    -0.354 N 
ATOM     53  N   UNL A   1      45.619  29.153  27.473  1.00  0.00    -0.248 NA
ATOM     54  C   UNL A   1      47.737  29.822  26.750  1.00  0.00     0.031 C 
ATOM     55  C   UNL A   1      42.749  31.786  29.603  1.00  0.00     0.029 A 
ATOM     56  C   UNL A   1      43.666  30.986  28.938  1.00  0.00     0.049 A 
ATOM     57  H   UNL A   1      43.446  29.001  28.257  1.00  0.00     0.167 HD
ATOM     58  C   UNL A   1      45.840  30.467  27.869  1.00  0.00     0.074 A 
ATOM     59  C   UNL A   1      47.177  30.813  27.430  1.00  0.00     0.031 C 
ATOM     60  C   UNL A   1      45.009  31.311  28.529  1.00  0.00     0.034 A 
BRANCH  47  61
ATOM     61  C   UNL A   1      39.400  28.952  29.634  1.00  0.00     0.023 A 
ATOM     62  C   UNL A   1      39.037  28.556  30.939  1.00  0.00     0.012 A 
ATOM     63  C   UNL A   1      38.447  29.595  28.820  1.00  0.00     0.148 A 
ATOM     64  C   UNL A   1      37.738  28.751  31.406  1.00  0.00     0.002 A 
ATOM     65  C   UNL A   1      37.169  29.833  29.311  1.00  0.00     0.091 A 
ATOM     66  F   UNL A   1      38.800  29.946  27.575  1.00  0.00    -0.205 F 
ATOM     67  C   UNL A   1      36.808  29.397  30.597  1.00  0.00     0.022 A 
BRANCH  65  68
ATOM     68  S   UNL A   1      35.927  30.735  28.378  1.00  0.00     0.127 S 
ATOM     69  O   UNL A   1      34.932  31.018  29.411  1.00  0.00    -0.237 OA
ATOM     70  O   UNL A   1      36.677  31.904  27.918  1.00  0.00    -0.237 OA
ATOM     71  O   UNL A   1      35.492  29.837  27.319  1.00  0.00    -0.744 OA
ENDBRANCH  65  68
ENDBRANCH  47  61
BRANCH  48  72
ATOM     72  C   UNL A   1      48.345  27.191  25.580  1.00  0.00     0.023 A 
ATOM     73  C   UNL A   1      48.469  27.433  24.198  1.00  0.00     0.012 A 
ATOM     74  C   UNL A   1      49.476  26.777  26.311  1.00  0.00     0.148 A 
ATOM     75  C   UNL A   1      49.692  27.247  23.552  1.00  0.00     0.002 A 
ATOM     76  C   UNL A   1      50.704  26.649  25.672  1.00  0.00     0.091 A 
ATOM     77  F   UNL A   1      49.333  26.547  27.624  1.00  0.00    -0.205 F 
ATOM     78  C   UNL A   1      50.811  26.866  24.290  1.00  0.00     0.022 A 
BRANCH  76  79
ATOM     79  S   UNL A   1      52.224  26.301  26.563  1.00  0.00     0.127 S 
ATOM     80  O   UNL A   1      51.957  26.916  27.861  1.00  0.00    -0.237 OA
ATOM     81  O   UNL A   1      52.240  24.837  26.564  1.00  0.00    -0.237 OA
ATOM     82  O   UNL A   1      53.291  26.914  25.785  1.00  0.00    -0.744 OA
ENDBRANCH  76  79
ENDBRANCH  48  72
BRANCH  60  83
ATOM     83  C   UNL A   1      45.523  32.690  28.854  1.00  0.00     0.023 A 
ATOM     84  C   UNL A   1      46.218  32.919  30.058  1.00  0.00     0.012 A 
ATOM     85  C   UNL A   1      45.381  33.741  27.927  1.00  0.00     0.148 A 
ATOM     86  C   UNL A   1      46.733  34.183  30.350  1.00  0.00     0.002 A 
ATOM     87  C   UNL A   1      45.943  34.982  28.200  1.00  0.00     0.091 A 
ATOM     88  F   UNL A   1      44.702  33.508  26.794  1.00  0.00    -0.205 F 
ATOM     89  C   UNL A   1      46.606  35.209  29.416  1.00  0.00     0.022 A 
BRANCH  87  90
ATOM     90  S   UNL A   1      45.918  36.334  27.016  1.00  0.00     0.127 S 
ATOM     91  O   UNL A   1      44.490  36.636  26.938  1.00  0.00    -0.237 OA
ATOM     92  O   UNL A   1      46.721  37.352  27.692  1.00  0.00    -0.237 OA
ATOM     93  O   UNL A   1      46.511  35.808  25.794  1.00  0.00    -0.744 OA
ENDBRANCH  87  90
ENDBRANCH  60  83
ENDBRANCH  34  35
ENDBRANCH  26  29
ENDBRANCH  24  25
ENDBRANCH  23  24
ENDBRANCH   1  23
TORSDOF 19
ENDMDL
MODEL 2
REMARK VINA RESULT:     -10.7      2.103      2.645
REMARK SMILES CC1(C(=O)N[C@H](C(=O)NCCCCCCNC(=O)c2ccc(-c3c4nc(c(-c5cccc(S(=O)(=O)[O-])c5F)c5ccc([nH]5)c(-c5cccc(S(=O)(=O)[O-])c5F)c5nc(c(-c6cccc(S(=O)(=O)[O-])c6F)c6ccc3[nH]6)C=C5)C=C4)cc2)C2CC2)CCCC1
REMARK SMILES IDX 13 1 12 2 11 3 10 4 9 5 7 6 8 7 6 9 5 10 3 11 4 12 2 14 1 15
REMARK SMILES IDX 85 16 88 17 86 18 87 19 82 20 83 21 84 22 14 23 15 24 16 25
REMARK SMILES IDX 17 26 18 28 19 29 20 30 81 31 21 32 80 33 22 34 23 35 24 36
REMARK SMILES IDX 74 37 25 38 79 39 73 40 75 41 26 42 78 43 72 44 71 45 27 47
REMARK SMILES IDX 59 48 39 49 58 50 40 51 43 52 57 53 76 54 41 55 42 56 56 58
REMARK SMILES IDX 77 59 44 60 28 61 29 62 37 63 30 64 32 65 38 66 31 67 33 68
REMARK SMILES IDX 34 69 35 70 36 71 60 72 61 73 69 74 62 75 64 76 70 77 63 78
REMARK SMILES IDX 65 79 66 80 67 81 68 82 45 83 46 84 54 85 47 86 49 87 55 88
REMARK SMILES IDX 48 89 50 90 51 91 52 92 53 93
REMARK H PARENT 9 8 5 13 16 27 75 46 43 57
REMARK Flexibility Score: inf
ROOT
ATOM      1  C   UNL A   1      36.702  20.129  25.003  1.00  0.00     0.002 C 
ENDROOT
BRANCH   1   2
ATOM      2  C   UNL A   1      35.698  21.252  24.720  1.00  0.00     0.002 C 
BRANCH   2   3
ATOM      3  C   UNL A   1      36.159  22.652  25.150  1.00  0.00     0.021 C 
BRANCH   3   4
ATOM      4  C   UNL A   1      35.278  23.774  24.610  1.00  0.00     0.116 C 
BRANCH   4   5
ATOM      5  N   UNL A   1      34.827  23.474  23.267  1.00  0.00    -0.354 N 
ATOM      6  C   UNL A   1      33.624  23.695  22.672  1.00  0.00     0.242 C 
ATOM      7  O   UNL A   1      33.540  23.457  21.462  1.00  0.00    -0.273 OA
ATOM      8  H   UNL A   1      35.500  23.042  22.692  1.00  0.00     0.163 HD
BRANCH   6   9
ATOM      9  C   UNL A   1      32.465  24.408  23.423  1.00  0.00     0.174 C 
BRANCH   9  10
ATOM     10  N   UNL A   1      31.737  25.380  22.612  1.00  0.00    -0.344 N 
ATOM     11  C   UNL A   1      31.362  26.665  22.833  1.00  0.00     0.226 C 
ATOM     12  O   UNL A   1      30.802  27.235  21.891  1.00  0.00    -0.274 OA
ATOM     13  H   UNL A   1      31.463  25.035  21.731  1.00  0.00     0.164 HD
BRANCH  11  14
ATOM     14  C   UNL A   1      31.556  27.368  24.182  1.00  0.00     0.046 C 
ATOM     15  C   UNL A   1      31.254  28.868  24.039  1.00  0.00     0.022 C 
ATOM     16  C   UNL A   1      33.012  27.181  24.672  1.00  0.00     0.016 C 
ATOM     17  C   UNL A   1      30.787  26.709  25.333  1.00  0.00     0.016 C 
ATOM     18  C   UNL A   1      32.963  27.450  26.169  1.00  0.00     0.001 C 
ATOM     19  C   UNL A   1      31.575  27.005  26.610  1.00  0.00     0.001 C 
ENDBRANCH  11  14
ENDBRANCH   9  10
BRANCH   9  20
ATOM     20  C   UNL A   1      31.528  23.360  24.005  1.00  0.00     0.021 C 
ATOM     21  C   UNL A   1      32.044  21.961  24.256  1.00  0.00     0.006 C 
ATOM     22  C   UNL A   1      31.606  22.807  25.415  1.00  0.00     0.006 C 
ENDBRANCH   9  20
ENDBRANCH   6   9
ENDBRANCH   4   5
ENDBRANCH   3   4
ENDBRANCH   2   3
ENDBRANCH   1   2
BRANCH   1  23
ATOM     23  C   UNL A   1      38.167  20.507  24.775  1.00  0.00     0.021 C 
BRANCH  23  24
ATOM     24  C   UNL A   1      39.005  20.548  26.047  1.00  0.00     0.116 C 
BRANCH  24  25
ATOM     25  N   UNL A   1      40.018  19.504  26.057  1.00  0.00    -0.352 N 
ATOM     26  C   UNL A   1      41.383  19.627  26.095  1.00  0.00     0.251 C 
ATOM     27  H   UNL A   1      39.676  18.580  26.035  1.00  0.00     0.163 HD
ATOM     28  O   UNL A   1      42.096  18.650  25.875  1.00  0.00    -0.269 OA
BRANCH  26  29
ATOM     29  C   UNL A   1      41.988  20.942  26.386  1.00  0.00     0.039 A 
ATOM     30  C   UNL A   1      42.260  21.812  25.329  1.00  0.00     0.014 A 
ATOM     31  C   UNL A   1      42.280  21.315  27.702  1.00  0.00     0.014 A 
ATOM     32  C   UNL A   1      42.780  23.080  25.598  1.00  0.00     0.010 A 
ATOM     33  C   UNL A   1      42.719  22.607  27.972  1.00  0.00     0.010 A 
ATOM     34  C   UNL A   1      42.984  23.499  26.923  1.00  0.00    -0.014 A 
BRANCH  34  35
ATOM     35  C   UNL A   1      43.465  24.869  27.229  1.00  0.00     0.031 A 
ATOM     36  C   UNL A   1      42.520  25.905  27.774  1.00  0.00     0.074 A 
ATOM     37  C   UNL A   1      44.735  25.208  26.930  1.00  0.00     0.049 A 
ATOM     38  N   UNL A   1      42.751  27.159  28.063  1.00  0.00    -0.248 NA
ATOM     39  C   UNL A   1      41.126  25.486  27.996  1.00  0.00     0.031 C 
ATOM     40  C   UNL A   1      45.723  24.319  26.315  1.00  0.00     0.029 A 
ATOM     41  N   UNL A   1      45.403  26.398  27.077  1.00  0.00    -0.354 N 
ATOM     42  C   UNL A   1      41.528  27.689  28.458  1.00  0.00     0.074 A 
ATOM     43  C   UNL A   1      40.552  26.628  28.340  1.00  0.00     0.031 C 
ATOM     44  C   UNL A   1      46.869  24.993  26.137  1.00  0.00     0.029 A 
ATOM     45  C   UNL A   1      46.690  26.369  26.593  1.00  0.00     0.049 A 
ATOM     46  H   UNL A   1      44.999  27.196  27.488  1.00  0.00     0.167 HD
ATOM     47  C   UNL A   1      41.246  28.938  28.900  1.00  0.00     0.034 A 
ATOM     48  C   UNL A   1      47.618  27.341  26.511  1.00  0.00     0.034 A 
ATOM     49  C   UNL A   1      42.228  29.979  29.045  1.00  0.00     0.049 A 
ATOM     50  C   UNL A   1      47.298  28.707  27.051  1.00  0.00     0.074 A 
ATOM     51  C   UNL A   1      42.068  31.242  29.586  1.00  0.00     0.029 A 
ATOM     52  N   UNL A   1      43.546  29.889  28.624  1.00  0.00    -0.354 N 
ATOM     53  N   UNL A   1      46.184  29.140  27.586  1.00  0.00    -0.248 NA
ATOM     54  C   UNL A   1      48.375  29.707  27.010  1.00  0.00     0.031 C 
ATOM     55  C   UNL A   1      43.278  31.931  29.452  1.00  0.00     0.029 A 
ATOM     56  C   UNL A   1      44.207  31.081  28.870  1.00  0.00     0.049 A 
ATOM     57  H   UNL A   1      43.954  29.093  28.211  1.00  0.00     0.167 HD
ATOM     58  C   UNL A   1      46.430  30.452  27.975  1.00  0.00     0.074 A 
ATOM     59  C   UNL A   1      47.809  30.735  27.630  1.00  0.00     0.031 C 
ATOM     60  C   UNL A   1      45.589  31.342  28.556  1.00  0.00     0.034 A 
BRANCH  47  61
ATOM     61  C   UNL A   1      39.820  29.237  29.285  1.00  0.00     0.023 A 
ATOM     62  C   UNL A   1      38.839  29.402  28.285  1.00  0.00     0.012 A 
ATOM     63  C   UNL A   1      39.442  29.318  30.640  1.00  0.00     0.148 A 
ATOM     64  C   UNL A   1      37.518  29.692  28.624  1.00  0.00     0.002 A 
ATOM     65  C   UNL A   1      38.114  29.556  30.971  1.00  0.00     0.091 A 
ATOM     66  F   UNL A   1      40.389  29.180  31.579  1.00  0.00    -0.205 F 
ATOM     67  C   UNL A   1      37.154  29.759  29.966  1.00  0.00     0.022 A 
BRANCH  65  68
ATOM     68  S   UNL A   1      37.529  29.573  32.670  1.00  0.00     0.127 S 
ATOM     69  O   UNL A   1      37.503  28.147  32.987  1.00  0.00    -0.237 OA
ATOM     70  O   UNL A   1      38.581  30.330  33.350  1.00  0.00    -0.237 OA
ATOM     71  O   UNL A   1      36.231  30.232  32.639  1.00  0.00    -0.744 OA
ENDBRANCH  65  68
ENDBRANCH  47  61
BRANCH  48  72
ATOM     72  C   UNL A   1      48.956  27.030  25.936  1.00  0.00     0.023 A 
ATOM     73  C   UNL A   1      49.898  26.318  26.704  1.00  0.00     0.012 A 
ATOM     74  C   UNL A   1      49.275  27.383  24.610  1.00  0.00     0.148 A 
ATOM     75  C   UNL A   1      51.142  25.983  26.169  1.00  0.00     0.002 A 
ATOM     76  C   UNL A   1      50.493  26.996  24.065  1.00  0.00     0.091 A 
ATOM     77  F   UNL A   1      48.364  28.065  23.899  1.00  0.00    -0.205 F 
ATOM     78  C   UNL A   1      51.435  26.312  24.847  1.00  0.00     0.022 A 
BRANCH  76  79
ATOM     79  S   UNL A   1      50.900  27.251  22.333  1.00  0.00     0.127 S 
ATOM     80  O   UNL A   1      50.875  28.709  22.232  1.00  0.00    -0.237 OA
ATOM     81  O   UNL A   1      52.231  26.649  22.248  1.00  0.00    -0.237 OA
ATOM     82  O   UNL A   1      49.872  26.551  21.576  1.00  0.00    -0.744 OA
ENDBRANCH  76  79
ENDBRANCH  48  72
BRANCH  60  83
ATOM     83  C   UNL A   1      46.136  32.706  28.894  1.00  0.00     0.023 A 
ATOM     84  C   UNL A   1      46.856  32.902  30.089  1.00  0.00     0.012 A 
ATOM     85  C   UNL A   1      45.997  33.775  27.987  1.00  0.00     0.148 A 
ATOM     86  C   UNL A   1      47.400  34.151  30.391  1.00  0.00     0.002 A 
ATOM     87  C   UNL A   1      46.588  35.001  28.269  1.00  0.00     0.091 A 
ATOM     88  F   UNL A   1      45.294  33.573  26.863  1.00  0.00    -0.205 F 
ATOM     89  C   UNL A   1      47.277  35.194  29.477  1.00  0.00     0.022 A 
BRANCH  87  90
ATOM     90  S   UNL A   1      46.568  36.371  27.108  1.00  0.00     0.127 S 
ATOM     91  O   UNL A   1      45.133  36.585  26.924  1.00  0.00    -0.237 OA
ATOM     92  O   UNL A   1      47.250  37.424  27.861  1.00  0.00    -0.237 OA
ATOM     93  O   UNL A   1      47.286  35.909  25.928  1.00  0.00    -0.744 OA
ENDBRANCH  87  90
ENDBRANCH  60  83
ENDBRANCH  34  35
ENDBRANCH  26  29
ENDBRANCH  24  25
ENDBRANCH  23  24
ENDBRANCH   1  23
TORSDOF 19
ENDMDL
MODEL 3
REMARK VINA RESULT:     -10.4      2.832      8.592
REMARK SMILES CC1(C(=O)N[C@H](C(=O)NCCCCCCNC(=O)c2ccc(-c3c4nc(c(-c5cccc(S(=O)(=O)[O-])c5F)c5ccc([nH]5)c(-c5cccc(S(=O)(=O)[O-])c5F)c5nc(c(-c6cccc(S(=O)(=O)[O-])c6F)c6ccc3[nH]6)C=C5)C=C4)cc2)C2CC2)CCCC1
REMARK SMILES IDX 13 1 12 2 11 3 10 4 9 5 7 6 8 7 6 9 5 10 3 11 4 12 2 14 1 15
REMARK SMILES IDX 85 16 88 17 86 18 87 19 82 20 83 21 84 22 14 23 15 24 16 25
REMARK SMILES IDX 17 26 18 28 19 29 20 30 81 31 21 32 80 33 22 34 23 35 24 36
REMARK SMILES IDX 74 37 25 38 79 39 73 40 75 41 26 42 78 43 72 44 71 45 27 47
REMARK SMILES IDX 59 48 39 49 58 50 40 51 43 52 57 53 76 54 41 55 42 56 56 58
REMARK SMILES IDX 77 59 44 60 28 61 29 62 37 63 30 64 32 65 38 66 31 67 33 68
REMARK SMILES IDX 34 69 35 70 36 71 60 72 61 73 69 74 62 75 64 76 70 77 63 78
REMARK SMILES IDX 65 79 66 80 67 81 68 82 45 83 46 84 54 85 47 86 49 87 55 88
REMARK SMILES IDX 48 89 50 90 51 91 52 92 53 93
REMARK H PARENT 9 8 5 13 16 27 75 46 43 57
REMARK Flexibility Score: inf
ROOT
ATOM      1  C   UNL A   1      35.025  21.675  26.167  1.00  0.00     0.002 C 
ENDROOT
BRANCH   1   2
ATOM      2  C   UNL A   1      33.496  21.651  26.266  1.00  0.00     0.002 C 
BRANCH   2   3
ATOM      3  C   UNL A   1      32.912  22.478  27.419  1.00  0.00     0.021 C 
BRANCH   3   4
ATOM      4  C   UNL A   1      32.114  23.692  26.953  1.00  0.00     0.116 C 
BRANCH   4   5
ATOM      5  N   UNL A   1      31.295  23.360  25.805  1.00  0.00    -0.354 N 
ATOM      6  C   UNL A   1      31.205  23.955  24.586  1.00  0.00     0.242 C 
ATOM      7  O   UNL A   1      30.514  23.390  23.731  1.00  0.00    -0.273 OA
ATOM      8  H   UNL A   1      30.709  22.578  25.928  1.00  0.00     0.163 HD
BRANCH   6   9
ATOM      9  C   UNL A   1      32.092  25.175  24.209  1.00  0.00     0.174 C 
BRANCH   9  10
ATOM     10  N   UNL A   1      31.980  26.302  25.131  1.00  0.00    -0.344 N 
ATOM     11  C   UNL A   1      31.329  27.490  25.056  1.00  0.00     0.226 C 
ATOM     12  O   UNL A   1      31.389  28.205  26.062  1.00  0.00    -0.274 OA
ATOM     13  H   UNL A   1      32.476  26.176  25.973  1.00  0.00     0.164 HD
BRANCH  11  14
ATOM     14  C   UNL A   1      30.606  27.965  23.788  1.00  0.00     0.046 C 
ATOM     15  C   UNL A   1      31.466  27.659  22.552  1.00  0.00     0.022 C 
ATOM     16  C   UNL A   1      30.343  29.487  23.869  1.00  0.00     0.016 C 
ATOM     17  C   UNL A   1      29.171  27.439  23.667  1.00  0.00     0.016 C 
ATOM     18  C   UNL A   1      29.229  29.750  22.866  1.00  0.00     0.001 C 
ATOM     19  C   UNL A   1      28.395  28.476  22.853  1.00  0.00     0.001 C 
ENDBRANCH  11  14
ENDBRANCH   9  10
BRANCH   9  20
ATOM     20  C   UNL A   1      33.536  24.717  24.067  1.00  0.00     0.021 C 
ATOM     21  C   UNL A   1      33.860  23.561  23.148  1.00  0.00     0.006 C 
ATOM     22  C   UNL A   1      34.400  24.925  22.839  1.00  0.00     0.006 C 
ENDBRANCH   9  20
ENDBRANCH   6   9
ENDBRANCH   4   5
ENDBRANCH   3   4
ENDBRANCH   2   3
ENDBRANCH   1   2
BRANCH   1  23
ATOM     23  C   UNL A   1      35.657  23.056  26.350  1.00  0.00     0.021 C 
BRANCH  23  24
ATOM     24  C   UNL A   1      36.900  23.289  25.500  1.00  0.00     0.116 C 
BRANCH  24  25
ATOM     25  N   UNL A   1      37.971  22.367  25.848  1.00  0.00    -0.352 N 
ATOM     26  C   UNL A   1      39.216  22.643  26.350  1.00  0.00     0.251 C 
ATOM     27  H   UNL A   1      37.772  21.413  25.704  1.00  0.00     0.163 HD
ATOM     28  O   UNL A   1      40.077  21.765  26.379  1.00  0.00    -0.269 OA
BRANCH  26  29
ATOM     29  C   UNL A   1      39.522  24.003  26.837  1.00  0.00     0.039 A 
ATOM     30  C   UNL A   1      39.288  24.310  28.179  1.00  0.00     0.014 A 
ATOM     31  C   UNL A   1      40.044  24.968  25.971  1.00  0.00     0.014 A 
ATOM     32  C   UNL A   1      39.626  25.575  28.663  1.00  0.00     0.010 A 
ATOM     33  C   UNL A   1      40.457  26.197  26.475  1.00  0.00     0.010 A 
ATOM     34  C   UNL A   1      40.242  26.518  27.823  1.00  0.00    -0.014 A 
BRANCH  34  35
ATOM     35  C   UNL A   1      40.676  27.839  28.341  1.00  0.00     0.031 A 
ATOM     36  C   UNL A   1      42.138  28.152  28.502  1.00  0.00     0.074 A 
ATOM     37  C   UNL A   1      39.749  28.726  28.753  1.00  0.00     0.049 A 
ATOM     38  N   UNL A   1      42.702  29.234  28.973  1.00  0.00    -0.248 NA
ATOM     39  C   UNL A   1      43.093  27.102  28.111  1.00  0.00     0.031 C 
ATOM     40  C   UNL A   1      38.301  28.505  28.733  1.00  0.00     0.029 A 
ATOM     41  N   UNL A   1      39.886  29.980  29.296  1.00  0.00    -0.354 N 
ATOM     42  C   UNL A   1      44.069  28.980  28.976  1.00  0.00     0.074 A 
ATOM     43  C   UNL A   1      44.246  27.630  28.489  1.00  0.00     0.031 C 
ATOM     44  C   UNL A   1      37.685  29.584  29.239  1.00  0.00     0.029 A 
ATOM     45  C   UNL A   1      38.691  30.560  29.650  1.00  0.00     0.049 A 
ATOM     46  H   UNL A   1      40.758  30.421  29.420  1.00  0.00     0.167 HD
ATOM     47  C   UNL A   1      45.085  29.804  29.328  1.00  0.00     0.034 A 
ATOM     48  C   UNL A   1      38.431  31.736  30.251  1.00  0.00     0.034 A 
ATOM     49  C   UNL A   1      44.902  31.156  29.781  1.00  0.00     0.049 A 
ATOM     50  C   UNL A   1      39.572  32.654  30.591  1.00  0.00     0.074 A 
ATOM     51  C   UNL A   1      45.868  32.108  30.058  1.00  0.00     0.029 A 
ATOM     52  N   UNL A   1      43.674  31.743  30.048  1.00  0.00    -0.354 N 
ATOM     53  N   UNL A   1      40.858  32.466  30.420  1.00  0.00    -0.248 NA
ATOM     54  C   UNL A   1      39.227  33.959  31.171  1.00  0.00     0.031 C 
ATOM     55  C   UNL A   1      45.225  33.255  30.535  1.00  0.00     0.029 A 
ATOM     56  C   UNL A   1      43.856  33.036  30.510  1.00  0.00     0.049 A 
ATOM     57  H   UNL A   1      42.801  31.306  29.927  1.00  0.00     0.167 HD
ATOM     58  C   UNL A   1      41.475  33.638  30.842  1.00  0.00     0.074 A 
ATOM     59  C   UNL A   1      40.418  34.537  31.258  1.00  0.00     0.031 C 
ATOM     60  C   UNL A   1      42.797  33.938  30.888  1.00  0.00     0.034 A 
BRANCH  47  61
ATOM     61  C   UNL A   1      46.489  29.268  29.212  1.00  0.00     0.023 A 
ATOM     62  C   UNL A   1      47.094  28.628  30.313  1.00  0.00     0.012 A 
ATOM     63  C   UNL A   1      47.198  29.367  27.998  1.00  0.00     0.148 A 
ATOM     64  C   UNL A   1      48.396  28.139  30.226  1.00  0.00     0.002 A 
ATOM     65  C   UNL A   1      48.477  28.831  27.903  1.00  0.00     0.091 A 
ATOM     66  F   UNL A   1      46.619  29.996  26.966  1.00  0.00    -0.205 F 
ATOM     67  C   UNL A   1      49.084  28.232  29.019  1.00  0.00     0.022 A 
BRANCH  65  68
ATOM     68  S   UNL A   1      49.409  28.822  26.367  1.00  0.00     0.127 S 
ATOM     69  O   UNL A   1      49.831  30.219  26.271  1.00  0.00    -0.237 OA
ATOM     70  O   UNL A   1      50.488  27.880  26.667  1.00  0.00    -0.237 OA
ATOM     71  O   UNL A   1      48.482  28.375  25.339  1.00  0.00    -0.744 OA
ENDBRANCH  65  68
ENDBRANCH  47  61
BRANCH  48  72
ATOM     72  C   UNL A   1      37.019  32.126  30.519  1.00  0.00     0.023 A 
ATOM     73  C   UNL A   1      36.478  31.948  31.807  1.00  0.00     0.012 A 
ATOM     74  C   UNL A   1      36.230  32.726  29.518  1.00  0.00     0.148 A 
ATOM     75  C   UNL A   1      35.170  32.342  32.088  1.00  0.00     0.002 A 
ATOM     76  C   UNL A   1      34.948  33.168  29.821  1.00  0.00     0.091 A 
ATOM     77  F   UNL A   1      36.764  32.880  28.298  1.00  0.00    -0.205 F 
ATOM     78  C   UNL A   1      34.409  32.962  31.099  1.00  0.00     0.022 A 
BRANCH  76  79
ATOM     79  S   UNL A   1      33.949  34.101  28.655  1.00  0.00     0.127 S 
ATOM     80  O   UNL A   1      32.953  34.709  29.534  1.00  0.00    -0.237 OA
ATOM     81  O   UNL A   1      34.931  35.031  28.098  1.00  0.00    -0.237 OA
ATOM     82  O   UNL A   1      33.435  33.127  27.702  1.00  0.00    -0.744 OA
ENDBRANCH  76  79
ENDBRANCH  48  72
BRANCH  60  83
ATOM     83  C   UNL A   1      43.188  35.310  31.375  1.00  0.00     0.023 A 
ATOM     84  C   UNL A   1      43.396  35.539  32.749  1.00  0.00     0.012 A 
ATOM     85  C   UNL A   1      43.421  36.353  30.457  1.00  0.00     0.148 A 
ATOM     86  C   UNL A   1      43.796  36.795  33.205  1.00  0.00     0.002 A 
ATOM     87  C   UNL A   1      43.872  37.585  30.912  1.00  0.00     0.091 A 
ATOM     88  F   UNL A   1      43.201  36.120  29.154  1.00  0.00    -0.205 F 
ATOM     89  C   UNL A   1      44.046  37.813  32.287  1.00  0.00     0.022 A 
BRANCH  87  90
ATOM     90  S   UNL A   1      44.315  38.923  29.798  1.00  0.00     0.127 S 
ATOM     91  O   UNL A   1      45.328  38.286  28.957  1.00  0.00    -0.237 OA
ATOM     92  O   UNL A   1      43.047  39.197  29.124  1.00  0.00    -0.237 OA
ATOM     93  O   UNL A   1      44.799  40.006  30.643  1.00  0.00    -0.744 OA
ENDBRANCH  87  90
ENDBRANCH  60  83
ENDBRANCH  34  35
ENDBRANCH  26  29
ENDBRANCH  24  25
ENDBRANCH  23  24
ENDBRANCH   1  23
TORSDOF 19
ENDMDL
