MODEL 1
REMARK VINA RESULT:     -12.2      0.000      0.000
REMARK SMILES O=C(COc1ccc(Br)cc1/C=C1\C(=O)Nc2ccc(Br)cc21)NCCCCCCNC(=O)c1ccc(-c2c3nc(c(-c4cccc(S(=O)(=O)[O-])c4F)c4ccc([nH]4)c(-c4cccc(S(=O)(=O)[O-])c4F)c4nc(c(-c5cccc(S(=O)(=O)[O-])c5F)c5ccc2[nH]5)C=C4)C=C3)cc1
REMARK SMILES IDX 27 1 26 2 25 3 24 4 1 5 2 6 3 8 4 9 5 10 6 11 11 12 7 13
REMARK SMILES IDX 10 14 8 15 9 16 12 17 13 18 14 19 23 20 15 21 16 22 17 23
REMARK SMILES IDX 22 24 18 26 20 27 19 28 21 29 28 30 29 31 30 32 31 33 32 34
REMARK SMILES IDX 33 36 34 37 35 38 96 39 36 40 95 41 37 42 38 43 39 44 89 45
REMARK SMILES IDX 40 46 94 47 88 48 90 49 41 50 93 51 87 52 86 53 42 55 74 56
REMARK SMILES IDX 54 57 73 58 55 59 58 60 72 61 91 62 56 63 57 64 71 66 92 67
REMARK SMILES IDX 59 68 43 69 44 70 52 71 45 72 47 73 53 74 46 75 48 76 49 77
REMARK SMILES IDX 50 78 51 79 75 80 76 81 84 82 77 83 79 84 85 85 78 86 80 87
REMARK SMILES IDX 81 88 82 89 83 90 60 91 61 92 69 93 62 94 64 95 70 96 63 97
REMARK SMILES IDX 65 98 66 99 67 100 68 101
REMARK H PARENT 24 7 16 25 31 35 90 54 58 65
REMARK Flexibility Score: inf
ROOT
ATOM      1  C   UNL A   1      35.163  24.386  25.275  1.00  0.00     0.002 C 
ENDROOT
BRANCH   1   2
ATOM      2  C   UNL A   1      34.079  25.404  25.640  1.00  0.00     0.021 C 
BRANCH   2   3
ATOM      3  C   UNL A   1      34.433  26.858  25.341  1.00  0.00     0.116 C 
BRANCH   3   4
ATOM      4  N   UNL A   1      33.284  27.753  25.309  1.00  0.00    -0.353 N 
ATOM      5  O   UNL A   1      34.259  29.452  26.505  1.00  0.00    -0.271 OA
ATOM      6  C   UNL A   1      33.342  29.044  25.795  1.00  0.00     0.257 C 
ATOM      7  H   UNL A   1      32.437  27.426  24.928  1.00  0.00     0.163 HD
BRANCH   6   8
ATOM      8  C   UNL A   1      32.187  29.975  25.349  1.00  0.00     0.329 C 
BRANCH   8   9
ATOM      9  O   UNL A   1      30.851  29.494  25.164  1.00  0.00    -0.483 OA
BRANCH   9  10
ATOM     10  C   UNL A   1      30.158  30.019  24.091  1.00  0.00     0.127 A 
ATOM     11  C   UNL A   1      29.653  31.336  24.167  1.00  0.00     0.048 A 
ATOM     12  C   UNL A   1      30.042  29.287  22.877  1.00  0.00     0.018 A 
ATOM     13  C   UNL A   1      28.988  31.940  23.109  1.00  0.00     0.019 A 
ATOM     14  C   UNL A   1      29.410  29.966  21.817  1.00  0.00     0.027 A 
ATOM     15  C   UNL A   1      28.863  31.245  21.932  1.00  0.00     0.018 A 
ATOM     16  Br  UNL A   1      27.953  32.018  20.468  1.00  0.00    -0.051 Br
BRANCH  12  17
ATOM     17  C   UNL A   1      30.486  27.849  22.718  1.00  0.00     0.026 C 
ATOM     18  C   UNL A   1      29.928  26.711  23.211  1.00  0.00     0.050 C 
ATOM     19  C   UNL A   1      28.700  26.601  24.081  1.00  0.00     0.256 C 
ATOM     20  C   UNL A   1      30.671  25.468  23.522  1.00  0.00     0.012 A 
ATOM     21  O   UNL A   1      27.547  26.882  23.825  1.00  0.00    -0.269 OA
ATOM     22  N   UNL A   1      29.116  25.857  25.168  1.00  0.00    -0.321 N 
ATOM     23  C   UNL A   1      30.250  25.130  24.823  1.00  0.00     0.049 A 
ATOM     24  C   UNL A   1      31.446  24.567  22.818  1.00  0.00     0.026 A 
ATOM     25  H   UNL A   1      28.679  25.844  26.049  1.00  0.00     0.170 HD
ATOM     26  C   UNL A   1      30.729  24.055  25.537  1.00  0.00     0.028 A 
ATOM     27  C   UNL A   1      31.854  23.399  23.491  1.00  0.00     0.018 A 
ATOM     28  C   UNL A   1      31.555  23.174  24.850  1.00  0.00     0.018 A 
ATOM     29  Br  UNL A   1      32.727  22.015  22.532  1.00  0.00    -0.051 Br
ENDBRANCH  12  17
ENDBRANCH   9  10
ENDBRANCH   8   9
ENDBRANCH   6   8
ENDBRANCH   3   4
ENDBRANCH   2   3
ENDBRANCH   1   2
BRANCH   1  30
ATOM     30  C   UNL A   1      35.155  23.083  26.080  1.00  0.00     0.002 C 
BRANCH  30  31
ATOM     31  C   UNL A   1      35.621  21.835  25.328  1.00  0.00     0.021 C 
BRANCH  31  32
ATOM     32  C   UNL A   1      37.018  21.920  24.720  1.00  0.00     0.116 C 
BRANCH  32  33
ATOM     33  N   UNL A   1      37.886  20.817  25.109  1.00  0.00    -0.352 N 
ATOM     34  C   UNL A   1      39.036  20.836  25.867  1.00  0.00     0.251 C 
ATOM     35  H   UNL A   1      37.610  19.929  24.784  1.00  0.00     0.163 HD
ATOM     36  O   UNL A   1      39.705  19.815  25.994  1.00  0.00    -0.269 OA
BRANCH  34  37
ATOM     37  C   UNL A   1      39.479  22.106  26.487  1.00  0.00     0.039 A 
ATOM     38  C   UNL A   1      38.921  23.321  26.090  1.00  0.00     0.014 A 
ATOM     39  C   UNL A   1      40.505  22.084  27.438  1.00  0.00     0.014 A 
ATOM     40  C   UNL A   1      39.514  24.513  26.488  1.00  0.00     0.010 A 
ATOM     41  C   UNL A   1      41.040  23.287  27.908  1.00  0.00     0.010 A 
ATOM     42  C   UNL A   1      40.592  24.512  27.390  1.00  0.00    -0.014 A 
BRANCH  42  43
ATOM     43  C   UNL A   1      41.238  25.801  27.757  1.00  0.00     0.031 A 
ATOM     44  C   UNL A   1      42.644  26.117  27.314  1.00  0.00     0.074 A 
ATOM     45  C   UNL A   1      40.535  26.716  28.454  1.00  0.00     0.049 A 
ATOM     46  N   UNL A   1      43.348  27.200  27.532  1.00  0.00    -0.248 NA
ATOM     47  C   UNL A   1      43.355  25.095  26.528  1.00  0.00     0.031 C 
ATOM     48  C   UNL A   1      39.172  26.528  28.953  1.00  0.00     0.029 A 
ATOM     49  N   UNL A   1      40.861  27.988  28.851  1.00  0.00    -0.354 N 
ATOM     50  C   UNL A   1      44.589  26.976  26.945  1.00  0.00     0.074 A 
ATOM     51  C   UNL A   1      44.549  25.651  26.368  1.00  0.00     0.031 C 
ATOM     52  C   UNL A   1      38.766  27.652  29.560  1.00  0.00     0.029 A 
ATOM     53  C   UNL A   1      39.856  28.622  29.543  1.00  0.00     0.049 A 
ATOM     54  H   UNL A   1      41.732  28.406  28.660  1.00  0.00     0.167 HD
ATOM     55  C   UNL A   1      45.654  27.807  26.871  1.00  0.00     0.034 A 
ATOM     56  C   UNL A   1      39.815  29.840  30.114  1.00  0.00     0.034 A 
ATOM     57  C   UNL A   1      45.680  29.143  27.400  1.00  0.00     0.049 A 
ATOM     58  C   UNL A   1      41.009  30.742  30.019  1.00  0.00     0.074 A 
ATOM     59  C   UNL A   1      46.708  30.070  27.336  1.00  0.00     0.029 A 
ATOM     60  N   UNL A   1      44.637  29.748  28.082  1.00  0.00    -0.354 N 
ATOM     61  N   UNL A   1      42.146  30.533  29.401  1.00  0.00    -0.248 NA
ATOM     62  C   UNL A   1      40.914  32.051  30.682  1.00  0.00     0.031 C 
ATOM     63  C   UNL A   1      46.287  31.233  27.986  1.00  0.00     0.029 A 
ATOM     64  C   UNL A   1      44.994  31.035  28.443  1.00  0.00     0.049 A 
ATOM     65  H   UNL A   1      43.770  29.325  28.279  1.00  0.00     0.167 HD
ATOM     66  C   UNL A   1      42.897  31.686  29.590  1.00  0.00     0.074 A 
ATOM     67  C   UNL A   1      42.080  32.599  30.362  1.00  0.00     0.031 C 
ATOM     68  C   UNL A   1      44.158  31.951  29.173  1.00  0.00     0.034 A 
BRANCH  55  69
ATOM     69  C   UNL A   1      46.879  27.328  26.140  1.00  0.00     0.023 A 
ATOM     70  C   UNL A   1      47.034  27.650  24.778  1.00  0.00     0.012 A 
ATOM     71  C   UNL A   1      47.919  26.664  26.819  1.00  0.00     0.148 A 
ATOM     72  C   UNL A   1      48.203  27.310  24.097  1.00  0.00     0.002 A 
ATOM     73  C   UNL A   1      49.093  26.354  26.143  1.00  0.00     0.091 A 
ATOM     74  F   UNL A   1      47.744  26.362  28.114  1.00  0.00    -0.205 F 
ATOM     75  C   UNL A   1      49.235  26.673  24.782  1.00  0.00     0.022 A 
BRANCH  73  76
ATOM     76  S   UNL A   1      50.506  25.584  26.941  1.00  0.00     0.127 S 
ATOM     77  O   UNL A   1      51.395  25.350  25.804  1.00  0.00    -0.237 OA
ATOM     78  O   UNL A   1      50.951  26.634  27.857  1.00  0.00    -0.237 OA
ATOM     79  O   UNL A   1      49.999  24.381  27.587  1.00  0.00    -0.744 OA
ENDBRANCH  73  76
ENDBRANCH  55  69
BRANCH  56  80
ATOM     80  C   UNL A   1      38.568  30.272  30.802  1.00  0.00     0.023 A 
ATOM     81  C   UNL A   1      38.403  29.994  32.172  1.00  0.00     0.012 A 
ATOM     82  C   UNL A   1      37.595  31.032  30.126  1.00  0.00     0.148 A 
ATOM     83  C   UNL A   1      37.283  30.465  32.858  1.00  0.00     0.002 A 
ATOM     84  C   UNL A   1      36.506  31.536  30.825  1.00  0.00     0.091 A 
ATOM     85  F   UNL A   1      37.779  31.277  28.822  1.00  0.00    -0.205 F 
ATOM     86  C   UNL A   1      36.342  31.246  32.189  1.00  0.00     0.022 A 
BRANCH  84  87
ATOM     87  S   UNL A   1      35.305  32.643  30.079  1.00  0.00     0.127 S 
ATOM     88  O   UNL A   1      34.828  31.848  28.950  1.00  0.00    -0.237 OA
ATOM     89  O   UNL A   1      34.340  32.812  31.166  1.00  0.00    -0.237 OA
ATOM     90  O   UNL A   1      36.041  33.850  29.729  1.00  0.00    -0.744 OA
ENDBRANCH  84  87
ENDBRANCH  56  80
BRANCH  68  91
ATOM     91  C   UNL A   1      44.753  33.286  29.525  1.00  0.00     0.023 A 
ATOM     92  C   UNL A   1      45.541  33.405  30.684  1.00  0.00     0.012 A 
ATOM     93  C   UNL A   1      44.638  34.378  28.643  1.00  0.00     0.148 A 
ATOM     94  C   UNL A   1      46.206  34.597  30.966  1.00  0.00     0.002 A 
ATOM     95  C   UNL A   1      45.330  35.552  28.912  1.00  0.00     0.091 A 
ATOM     96  F   UNL A   1      43.875  34.238  27.549  1.00  0.00    -0.205 F 
ATOM     97  C   UNL A   1      46.111  35.665  30.075  1.00  0.00     0.022 A 
BRANCH  95  98
ATOM     98  S   UNL A   1      45.332  36.957  27.792  1.00  0.00     0.127 S 
ATOM     99  O   UNL A   1      46.181  36.469  26.706  1.00  0.00    -0.237 OA
ATOM    100  O   UNL A   1      43.916  37.081  27.452  1.00  0.00    -0.237 OA
ATOM    101  O   UNL A   1      45.880  38.076  28.548  1.00  0.00    -0.744 OA
ENDBRANCH  95  98
ENDBRANCH  68  91
ENDBRANCH  42  43
ENDBRANCH  34  37
ENDBRANCH  32  33
ENDBRANCH  31  32
ENDBRANCH  30  31
ENDBRANCH   1  30
TORSDOF 19
ENDMDL
MODEL 2
REMARK VINA RESULT:     -12.0      0.443      7.467
REMARK SMILES O=C(COc1ccc(Br)cc1/C=C1\C(=O)Nc2ccc(Br)cc21)NCCCCCCNC(=O)c1ccc(-c2c3nc(c(-c4cccc(S(=O)(=O)[O-])c4F)c4ccc([nH]4)c(-c4cccc(S(=O)(=O)[O-])c4F)c4nc(c(-c5cccc(S(=O)(=O)[O-])c5F)c5ccc2[nH]5)C=C4)C=C3)cc1
REMARK SMILES IDX 27 1 26 2 25 3 24 4 1 5 2 6 3 8 4 9 5 10 6 11 11 12 7 13
REMARK SMILES IDX 10 14 8 15 9 16 12 17 13 18 14 19 23 20 15 21 16 22 17 23
REMARK SMILES IDX 22 24 18 26 20 27 19 28 21 29 28 30 29 31 30 32 31 33 32 34
REMARK SMILES IDX 33 36 34 37 35 38 96 39 36 40 95 41 37 42 38 43 39 44 89 45
REMARK SMILES IDX 40 46 94 47 88 48 90 49 41 50 93 51 87 52 86 53 42 55 74 56
REMARK SMILES IDX 54 57 73 58 55 59 58 60 72 61 91 62 56 63 57 64 71 66 92 67
REMARK SMILES IDX 59 68 43 69 44 70 52 71 45 72 47 73 53 74 46 75 48 76 49 77
REMARK SMILES IDX 50 78 51 79 75 80 76 81 84 82 77 83 79 84 85 85 78 86 80 87
REMARK SMILES IDX 81 88 82 89 83 90 60 91 61 92 69 93 62 94 64 95 70 96 63 97
REMARK SMILES IDX 65 98 66 99 67 100 68 101
REMARK H PARENT 24 7 16 25 31 35 90 54 58 65
REMARK Flexibility Score: inf
ROOT
ATOM      1  C   UNL A   1      35.122  24.039  25.448  1.00  0.00     0.002 C 
ENDROOT
BRANCH   1   2
ATOM      2  C   UNL A   1      34.044  25.089  25.736  1.00  0.00     0.021 C 
BRANCH   2   3
ATOM      3  C   UNL A   1      34.294  26.458  25.110  1.00  0.00     0.116 C 
BRANCH   3   4
ATOM      4  N   UNL A   1      33.252  27.437  25.391  1.00  0.00    -0.353 N 
ATOM      5  O   UNL A   1      34.667  29.207  25.754  1.00  0.00    -0.271 OA
ATOM      6  C   UNL A   1      33.531  28.777  25.569  1.00  0.00     0.257 C 
ATOM      7  H   UNL A   1      32.319  27.132  25.456  1.00  0.00     0.163 HD
BRANCH   6   8
ATOM      8  C   UNL A   1      32.311  29.728  25.475  1.00  0.00     0.329 C 
BRANCH   8   9
ATOM      9  O   UNL A   1      30.977  29.236  25.299  1.00  0.00    -0.483 OA
BRANCH   9  10
ATOM     10  C   UNL A   1      30.273  29.755  24.229  1.00  0.00     0.127 A 
ATOM     11  C   UNL A   1      29.794  31.082  24.290  1.00  0.00     0.048 A 
ATOM     12  C   UNL A   1      30.121  29.002  23.032  1.00  0.00     0.018 A 
ATOM     13  C   UNL A   1      29.120  31.678  23.233  1.00  0.00     0.019 A 
ATOM     14  C   UNL A   1      29.482  29.673  21.971  1.00  0.00     0.027 A 
ATOM     15  C   UNL A   1      28.961  30.964  22.071  1.00  0.00     0.018 A 
ATOM     16  Br  UNL A   1      28.038  31.726  20.610  1.00  0.00    -0.051 Br
BRANCH  12  17
ATOM     17  C   UNL A   1      30.535  27.553  22.892  1.00  0.00     0.026 C 
ATOM     18  C   UNL A   1      29.950  26.433  23.393  1.00  0.00     0.050 C 
ATOM     19  C   UNL A   1      28.714  26.359  24.256  1.00  0.00     0.256 C 
ATOM     20  C   UNL A   1      30.665  25.178  23.724  1.00  0.00     0.012 A 
ATOM     21  O   UNL A   1      27.569  26.661  23.989  1.00  0.00    -0.269 OA
ATOM     22  N   UNL A   1      29.106  25.619  25.354  1.00  0.00    -0.321 N 
ATOM     23  C   UNL A   1      30.227  24.864  25.026  1.00  0.00     0.049 A 
ATOM     24  C   UNL A   1      31.425  24.253  23.036  1.00  0.00     0.026 A 
ATOM     25  H   UNL A   1      28.662  25.625  26.232  1.00  0.00     0.170 HD
ATOM     26  C   UNL A   1      30.678  23.787  25.755  1.00  0.00     0.028 A 
ATOM     27  C   UNL A   1      31.803  23.084  23.725  1.00  0.00     0.018 A 
ATOM     28  C   UNL A   1      31.489  22.881  25.084  1.00  0.00     0.018 A 
ATOM     29  Br  UNL A   1      32.653  21.672  22.788  1.00  0.00    -0.051 Br
ENDBRANCH  12  17
ENDBRANCH   9  10
ENDBRANCH   8   9
ENDBRANCH   6   8
ENDBRANCH   3   4
ENDBRANCH   2   3
ENDBRANCH   1   2
BRANCH   1  30
ATOM     30  C   UNL A   1      35.050  22.760  26.288  1.00  0.00     0.002 C 
BRANCH  30  31
ATOM     31  C   UNL A   1      35.465  21.473  25.573  1.00  0.00     0.021 C 
BRANCH  31  32
ATOM     32  C   UNL A   1      36.769  21.552  24.786  1.00  0.00     0.116 C 
BRANCH  32  33
ATOM     33  N   UNL A   1      37.704  20.481  25.108  1.00  0.00    -0.352 N 
ATOM     34  C   UNL A   1      38.919  20.549  25.753  1.00  0.00     0.251 C 
ATOM     35  H   UNL A   1      37.426  19.580  24.825  1.00  0.00     0.163 HD
ATOM     36  O   UNL A   1      39.628  19.550  25.832  1.00  0.00    -0.269 OA
BRANCH  34  37
ATOM     37  C   UNL A   1      39.380  21.841  26.308  1.00  0.00     0.039 A 
ATOM     38  C   UNL A   1      38.794  23.038  25.895  1.00  0.00     0.014 A 
ATOM     39  C   UNL A   1      40.447  21.859  27.212  1.00  0.00     0.014 A 
ATOM     40  C   UNL A   1      39.395  24.248  26.224  1.00  0.00     0.010 A 
ATOM     41  C   UNL A   1      40.993  23.082  27.615  1.00  0.00     0.010 A 
ATOM     42  C   UNL A   1      40.512  24.285  27.076  1.00  0.00    -0.014 A 
BRANCH  42  43
ATOM     43  C   UNL A   1      41.164  25.590  27.369  1.00  0.00     0.031 A 
ATOM     44  C   UNL A   1      40.441  26.660  28.147  1.00  0.00     0.074 A 
ATOM     45  C   UNL A   1      42.436  25.796  26.975  1.00  0.00     0.049 A 
ATOM     46  N   UNL A   1      40.869  27.846  28.505  1.00  0.00    -0.248 NA
ATOM     47  C   UNL A   1      39.064  26.371  28.582  1.00  0.00     0.031 C 
ATOM     48  C   UNL A   1      43.241  24.846  26.203  1.00  0.00     0.029 A 
ATOM     49  N   UNL A   1      43.279  26.859  27.176  1.00  0.00    -0.354 N 
ATOM     50  C   UNL A   1      39.810  28.452  29.170  1.00  0.00     0.074 A 
ATOM     51  C   UNL A   1      38.712  27.512  29.162  1.00  0.00     0.031 C 
ATOM     52  C   UNL A   1      44.469  25.354  26.025  1.00  0.00     0.029 A 
ATOM     53  C   UNL A   1      44.525  26.685  26.620  1.00  0.00     0.049 A 
ATOM     54  H   UNL A   1      43.017  27.669  27.670  1.00  0.00     0.167 HD
ATOM     55  C   UNL A   1      39.765  29.672  29.757  1.00  0.00     0.034 A 
ATOM     56  C   UNL A   1      45.591  27.506  26.577  1.00  0.00     0.034 A 
ATOM     57  C   UNL A   1      40.870  30.589  29.811  1.00  0.00     0.049 A 
ATOM     58  C   UNL A   1      45.515  28.851  27.234  1.00  0.00     0.074 A 
ATOM     59  C   UNL A   1      40.922  31.832  30.419  1.00  0.00     0.029 A 
ATOM     60  N   UNL A   1      42.114  30.367  29.245  1.00  0.00    -0.354 N 
ATOM     61  N   UNL A   1      44.525  29.375  27.914  1.00  0.00    -0.248 NA
ATOM     62  C   UNL A   1      46.702  29.713  27.134  1.00  0.00     0.031 C 
ATOM     63  C   UNL A   1      42.197  32.365  30.215  1.00  0.00     0.029 A 
ATOM     64  C   UNL A   1      42.942  31.448  29.490  1.00  0.00     0.049 A 
ATOM     65  H   UNL A   1      42.372  29.560  28.744  1.00  0.00     0.167 HD
ATOM     66  C   UNL A   1      44.971  30.622  28.334  1.00  0.00     0.074 A 
ATOM     67  C   UNL A   1      46.328  30.768  27.849  1.00  0.00     0.031 C 
ATOM     68  C   UNL A   1      44.305  31.564  29.042  1.00  0.00     0.034 A 
BRANCH  55  69
ATOM     69  C   UNL A   1      38.492  30.079  30.449  1.00  0.00     0.023 A 
ATOM     70  C   UNL A   1      38.311  29.742  31.805  1.00  0.00     0.012 A 
ATOM     71  C   UNL A   1      37.536  30.884  29.800  1.00  0.00     0.148 A 
ATOM     72  C   UNL A   1      37.190  30.191  32.504  1.00  0.00     0.002 A 
ATOM     73  C   UNL A   1      36.437  31.352  30.510  1.00  0.00     0.091 A 
ATOM     74  F   UNL A   1      37.728  31.184  28.507  1.00  0.00    -0.205 F 
ATOM     75  C   UNL A   1      36.261  31.005  31.860  1.00  0.00     0.022 A 
BRANCH  73  76
ATOM     76  S   UNL A   1      35.208  32.451  29.795  1.00  0.00     0.127 S 
ATOM     77  O   UNL A   1      36.033  33.585  29.380  1.00  0.00    -0.237 OA
ATOM     78  O   UNL A   1      34.680  31.646  28.694  1.00  0.00    -0.237 OA
ATOM     79  O   UNL A   1      34.254  32.736  30.858  1.00  0.00    -0.744 OA
ENDBRANCH  73  76
ENDBRANCH  55  69
BRANCH  56  80
ATOM     80  C   UNL A   1      46.832  27.041  25.901  1.00  0.00     0.023 A 
ATOM     81  C   UNL A   1      46.986  27.249  24.517  1.00  0.00     0.012 A 
ATOM     82  C   UNL A   1      47.891  26.479  26.639  1.00  0.00     0.148 A 
ATOM     83  C   UNL A   1      48.176  26.901  23.878  1.00  0.00     0.002 A 
ATOM     84  C   UNL A   1      49.089  26.176  26.006  1.00  0.00     0.091 A 
ATOM     85  F   UNL A   1      47.714  26.290  27.954  1.00  0.00    -0.205 F 
ATOM     86  C   UNL A   1      49.231  26.377  24.624  1.00  0.00     0.022 A 
BRANCH  84  87
ATOM     87  S   UNL A   1      50.540  25.606  26.899  1.00  0.00     0.127 S 
ATOM     88  O   UNL A   1      50.012  24.448  27.616  1.00  0.00    -0.237 OA
ATOM     89  O   UNL A   1      51.457  25.289  25.803  1.00  0.00    -0.237 OA
ATOM     90  O   UNL A   1      50.956  26.724  27.733  1.00  0.00    -0.744 OA
ENDBRANCH  84  87
ENDBRANCH  56  80
BRANCH  68  91
ATOM     91  C   UNL A   1      45.020  32.848  29.358  1.00  0.00     0.023 A 
ATOM     92  C   UNL A   1      45.823  32.924  30.511  1.00  0.00     0.012 A 
ATOM     93  C   UNL A   1      44.999  33.924  28.450  1.00  0.00     0.148 A 
ATOM     94  C   UNL A   1      46.594  34.058  30.760  1.00  0.00     0.002 A 
ATOM     95  C   UNL A   1      45.795  35.037  28.687  1.00  0.00     0.091 A 
ATOM     96  F   UNL A   1      44.219  33.826  27.362  1.00  0.00    -0.205 F 
ATOM     97  C   UNL A   1      46.591  35.108  29.843  1.00  0.00     0.022 A 
BRANCH  95  98
ATOM     98  S   UNL A   1      45.916  36.408  27.532  1.00  0.00     0.127 S 
ATOM     99  O   UNL A   1      46.333  35.728  26.306  1.00  0.00    -0.237 OA
ATOM    100  O   UNL A   1      44.546  36.917  27.512  1.00  0.00    -0.237 OA
ATOM    101  O   UNL A   1      46.900  37.325  28.093  1.00  0.00    -0.744 OA
ENDBRANCH  95  98
ENDBRANCH  68  91
ENDBRANCH  42  43
ENDBRANCH  34  37
ENDBRANCH  32  33
ENDBRANCH  31  32
ENDBRANCH  30  31
ENDBRANCH   1  30
TORSDOF 19
ENDMDL
MODEL 3
REMARK VINA RESULT:     -11.3      6.087      9.374
REMARK SMILES O=C(COc1ccc(Br)cc1/C=C1\C(=O)Nc2ccc(Br)cc21)NCCCCCCNC(=O)c1ccc(-c2c3nc(c(-c4cccc(S(=O)(=O)[O-])c4F)c4ccc([nH]4)c(-c4cccc(S(=O)(=O)[O-])c4F)c4nc(c(-c5cccc(S(=O)(=O)[O-])c5F)c5ccc2[nH]5)C=C4)C=C3)cc1
REMARK SMILES IDX 27 1 26 2 25 3 24 4 1 5 2 6 3 8 4 9 5 10 6 11 11 12 7 13
REMARK SMILES IDX 10 14 8 15 9 16 12 17 13 18 14 19 23 20 15 21 16 22 17 23
REMARK SMILES IDX 22 24 18 26 20 27 19 28 21 29 28 30 29 31 30 32 31 33 32 34
REMARK SMILES IDX 33 36 34 37 35 38 96 39 36 40 95 41 37 42 38 43 39 44 89 45
REMARK SMILES IDX 40 46 94 47 88 48 90 49 41 50 93 51 87 52 86 53 42 55 74 56
REMARK SMILES IDX 54 57 73 58 55 59 58 60 72 61 91 62 56 63 57 64 71 66 92 67
REMARK SMILES IDX 59 68 43 69 44 70 52 71 45 72 47 73 53 74 46 75 48 76 49 77
REMARK SMILES IDX 50 78 51 79 75 80 76 81 84 82 77 83 79 84 85 85 78 86 80 87
REMARK SMILES IDX 81 88 82 89 83 90 60 91 61 92 69 93 62 94 64 95 70 96 63 97
REMARK SMILES IDX 65 98 66 99 67 100 68 101
REMARK H PARENT 24 7 16 25 31 35 90 54 58 65
REMARK Flexibility Score: inf
ROOT
ATOM      1  C   UNL A   1      35.405  32.085  28.579  1.00  0.00     0.002 C 
ENDROOT
BRANCH   1   2
ATOM      2  C   UNL A   1      36.305  31.012  27.958  1.00  0.00     0.021 C 
BRANCH   2   3
ATOM      3  C   UNL A   1      35.578  29.758  27.481  1.00  0.00     0.116 C 
BRANCH   3   4
ATOM      4  N   UNL A   1      34.521  30.018  26.513  1.00  0.00    -0.353 N 
ATOM      5  O   UNL A   1      33.155  28.294  27.167  1.00  0.00    -0.271 OA
ATOM      6  C   UNL A   1      33.326  29.327  26.524  1.00  0.00     0.257 C 
ATOM      7  H   UNL A   1      34.665  30.710  25.827  1.00  0.00     0.163 HD
BRANCH   6   8
ATOM      8  C   UNL A   1      32.180  29.968  25.700  1.00  0.00     0.329 C 
BRANCH   8   9
ATOM      9  O   UNL A   1      31.064  29.203  25.229  1.00  0.00    -0.483 OA
BRANCH   9  10
ATOM     10  C   UNL A   1      30.347  29.754  24.185  1.00  0.00     0.127 A 
ATOM     11  C   UNL A   1      29.900  31.091  24.277  1.00  0.00     0.048 A 
ATOM     12  C   UNL A   1      30.147  29.023  22.981  1.00  0.00     0.018 A 
ATOM     13  C   UNL A   1      29.215  31.718  23.246  1.00  0.00     0.019 A 
ATOM     14  C   UNL A   1      29.498  29.725  21.947  1.00  0.00     0.027 A 
ATOM     15  C   UNL A   1      29.010  31.026  22.079  1.00  0.00     0.018 A 
ATOM     16  Br  UNL A   1      28.069  31.831  20.652  1.00  0.00    -0.051 Br
BRANCH  12  17
ATOM     17  C   UNL A   1      30.524  27.568  22.809  1.00  0.00     0.026 C 
ATOM     18  C   UNL A   1      29.956  26.457  23.350  1.00  0.00     0.050 C 
ATOM     19  C   UNL A   1      28.784  26.402  24.299  1.00  0.00     0.256 C 
ATOM     20  C   UNL A   1      30.669  25.188  23.627  1.00  0.00     0.012 A 
ATOM     21  O   UNL A   1      27.629  26.727  24.116  1.00  0.00    -0.269 OA
ATOM     22  N   UNL A   1      29.241  25.653  25.366  1.00  0.00    -0.321 N 
ATOM     23  C   UNL A   1      30.321  24.878  24.956  1.00  0.00     0.049 A 
ATOM     24  C   UNL A   1      31.361  24.251  22.884  1.00  0.00     0.026 A 
ATOM     25  H   UNL A   1      28.861  25.664  26.273  1.00  0.00     0.170 HD
ATOM     26  C   UNL A   1      30.803  23.791  25.649  1.00  0.00     0.028 A 
ATOM     27  C   UNL A   1      31.766  23.074  23.542  1.00  0.00     0.018 A 
ATOM     28  C   UNL A   1      31.548  22.873  24.920  1.00  0.00     0.018 A 
ATOM     29  Br  UNL A   1      32.521  21.649  22.545  1.00  0.00    -0.051 Br
ENDBRANCH  12  17
ENDBRANCH   9  10
ENDBRANCH   8   9
ENDBRANCH   6   8
ENDBRANCH   3   4
ENDBRANCH   2   3
ENDBRANCH   1   2
BRANCH   1  30
ATOM     30  C   UNL A   1      35.910  33.527  28.470  1.00  0.00     0.002 C 
BRANCH  30  31
ATOM     31  C   UNL A   1      34.866  34.617  28.715  1.00  0.00     0.021 C 
BRANCH  31  32
ATOM     32  C   UNL A   1      33.527  34.131  29.261  1.00  0.00     0.116 C 
BRANCH  32  33
ATOM     33  N   UNL A   1      32.825  35.137  30.048  1.00  0.00    -0.352 N 
ATOM     34  C   UNL A   1      33.016  35.507  31.361  1.00  0.00     0.251 C 
ATOM     35  H   UNL A   1      32.113  35.622  29.572  1.00  0.00     0.163 HD
ATOM     36  O   UNL A   1      32.244  36.299  31.893  1.00  0.00    -0.269 OA
BRANCH  34  37
ATOM     37  C   UNL A   1      34.129  34.909  32.133  1.00  0.00     0.039 A 
ATOM     38  C   UNL A   1      35.392  35.503  32.129  1.00  0.00     0.014 A 
ATOM     39  C   UNL A   1      33.920  33.712  32.825  1.00  0.00     0.014 A 
ATOM     40  C   UNL A   1      36.480  34.807  32.642  1.00  0.00     0.010 A 
ATOM     41  C   UNL A   1      35.003  33.058  33.420  1.00  0.00     0.010 A 
ATOM     42  C   UNL A   1      36.303  33.567  33.281  1.00  0.00    -0.014 A 
BRANCH  42  43
ATOM     43  C   UNL A   1      37.493  32.823  33.775  1.00  0.00     0.031 A 
ATOM     44  C   UNL A   1      38.072  31.676  32.985  1.00  0.00     0.074 A 
ATOM     45  C   UNL A   1      38.088  33.215  34.918  1.00  0.00     0.049 A 
ATOM     46  N   UNL A   1      39.115  30.934  33.263  1.00  0.00    -0.248 NA
ATOM     47  C   UNL A   1      37.402  31.311  31.727  1.00  0.00     0.031 C 
ATOM     48  C   UNL A   1      37.619  34.301  35.781  1.00  0.00     0.029 A 
ATOM     49  N   UNL A   1      39.219  32.758  35.546  1.00  0.00    -0.354 N 
ATOM     50  C   UNL A   1      39.204  29.998  32.239  1.00  0.00     0.074 A 
ATOM     51  C   UNL A   1      38.105  30.256  31.336  1.00  0.00     0.031 C 
ATOM     52  C   UNL A   1      38.470  34.447  36.806  1.00  0.00     0.029 A 
ATOM     53  C   UNL A   1      39.516  33.434  36.705  1.00  0.00     0.049 A 
ATOM     54  H   UNL A   1      39.765  32.015  35.199  1.00  0.00     0.167 HD
ATOM     55  C   UNL A   1      40.131  29.029  32.054  1.00  0.00     0.034 A 
ATOM     56  C   UNL A   1      40.506  33.255  37.599  1.00  0.00     0.034 A 
ATOM     57  C   UNL A   1      41.253  28.802  32.923  1.00  0.00     0.049 A 
ATOM     58  C   UNL A   1      41.520  32.174  37.372  1.00  0.00     0.074 A 
ATOM     59  C   UNL A   1      42.263  27.864  32.790  1.00  0.00     0.029 A 
ATOM     60  N   UNL A   1      41.520  29.517  34.078  1.00  0.00    -0.354 N 
ATOM     61  N   UNL A   1      41.621  31.345  36.362  1.00  0.00    -0.248 NA
ATOM     62  C   UNL A   1      42.564  32.010  38.394  1.00  0.00     0.031 C 
ATOM     63  C   UNL A   1      43.138  28.008  33.869  1.00  0.00     0.029 A 
ATOM     64  C   UNL A   1      42.679  29.044  34.668  1.00  0.00     0.049 A 
ATOM     65  H   UNL A   1      40.968  30.254  34.428  1.00  0.00     0.167 HD
ATOM     66  C   UNL A   1      42.744  30.570  36.619  1.00  0.00     0.074 A 
ATOM     67  C   UNL A   1      43.302  31.039  37.870  1.00  0.00     0.031 C 
ATOM     68  C   UNL A   1      43.252  29.548  35.888  1.00  0.00     0.034 A 
BRANCH  55  69
ATOM     69  C   UNL A   1      40.017  28.161  30.829  1.00  0.00     0.023 A 
ATOM     70  C   UNL A   1      39.018  27.170  30.782  1.00  0.00     0.012 A 
ATOM     71  C   UNL A   1      40.814  28.399  29.693  1.00  0.00     0.148 A 
ATOM     72  C   UNL A   1      38.818  26.419  29.624  1.00  0.00     0.002 A 
ATOM     73  C   UNL A   1      40.591  27.667  28.533  1.00  0.00     0.091 A 
ATOM     74  F   UNL A   1      41.763  29.343  29.766  1.00  0.00    -0.205 F 
ATOM     75  C   UNL A   1      39.596  26.675  28.498  1.00  0.00     0.022 A 
BRANCH  73  76
ATOM     76  S   UNL A   1      41.498  27.952  27.008  1.00  0.00     0.127 S 
ATOM     77  O   UNL A   1      42.881  27.789  27.454  1.00  0.00    -0.237 OA
ATOM     78  O   UNL A   1      41.003  26.876  26.151  1.00  0.00    -0.237 OA
ATOM     79  O   UNL A   1      41.143  29.296  26.573  1.00  0.00    -0.744 OA
ENDBRANCH  73  76
ENDBRANCH  55  69
BRANCH  56  80
ATOM     80  C   UNL A   1      40.585  34.158  38.779  1.00  0.00     0.023 A 
ATOM     81  C   UNL A   1      41.446  35.270  38.743  1.00  0.00     0.012 A 
ATOM     82  C   UNL A   1      39.743  33.969  39.892  1.00  0.00     0.148 A 
ATOM     83  C   UNL A   1      41.471  36.180  39.800  1.00  0.00     0.002 A 
ATOM     84  C   UNL A   1      39.740  34.901  40.921  1.00  0.00     0.091 A 
ATOM     85  F   UNL A   1      38.936  32.900  39.899  1.00  0.00    -0.205 F 
ATOM     86  C   UNL A   1      40.610  36.003  40.882  1.00  0.00     0.022 A 
BRANCH  84  87
ATOM     87  S   UNL A   1      38.589  34.822  42.297  1.00  0.00     0.127 S 
ATOM     88  O   UNL A   1      38.983  35.989  43.082  1.00  0.00    -0.237 OA
ATOM     89  O   UNL A   1      37.301  34.942  41.614  1.00  0.00    -0.237 OA
ATOM     90  O   UNL A   1      38.820  33.532  42.933  1.00  0.00    -0.744 OA
ENDBRANCH  84  87
ENDBRANCH  56  80
BRANCH  68  91
ATOM     91  C   UNL A   1      44.484  28.857  36.400  1.00  0.00     0.023 A 
ATOM     92  C   UNL A   1      45.750  29.398  36.106  1.00  0.00     0.012 A 
ATOM     93  C   UNL A   1      44.380  27.757  37.273  1.00  0.00     0.148 A 
ATOM     94  C   UNL A   1      46.899  28.850  36.672  1.00  0.00     0.002 A 
ATOM     95  C   UNL A   1      45.527  27.237  37.860  1.00  0.00     0.091 A 
ATOM     96  F   UNL A   1      43.162  27.259  37.530  1.00  0.00    -0.205 F 
ATOM     97  C   UNL A   1      46.788  27.779  37.557  1.00  0.00     0.022 A 
BRANCH  95  98
ATOM     98  S   UNL A   1      45.483  25.907  39.067  1.00  0.00     0.127 S 
ATOM     99  O   UNL A   1      46.808  26.013  39.675  1.00  0.00    -0.237 OA
ATOM    100  O   UNL A   1      44.378  26.315  39.934  1.00  0.00    -0.237 OA
ATOM    101  O   UNL A   1      45.247  24.683  38.313  1.00  0.00    -0.744 OA
ENDBRANCH  95  98
ENDBRANCH  68  91
ENDBRANCH  42  43
ENDBRANCH  34  37
ENDBRANCH  32  33
ENDBRANCH  31  32
ENDBRANCH  30  31
ENDBRANCH   1  30
TORSDOF 19
ENDMDL
