MODEL 1
REMARK VINA RESULT:     -11.6      0.000      0.000
REMARK SMILES C[C@@H]1CN(S(=O)(=O)N2CCC(C(=O)NCCCCCCNC(=O)c3ccc(-c4c5nc(c(-c6cccc(S(=O)(=O)[O-])c6F)c6ccc([nH]6)c(-c6cccc(S(=O)(=O)[O-])c6F)c6nc(c(-c7cccc(S(=O)(=O)[O-])c7F)c7ccc4[nH]7)C=C6)C=C5)cc3)CC2)C[C@@H](C)O1
REMARK SMILES IDX 18 1 17 2 16 3 15 4 14 5 12 6 13 7 11 9 8 10 9 11 88 12
REMARK SMILES IDX 10 13 87 14 5 15 6 16 7 17 4 18 1 19 2 20 3 21 92 22 90 23
REMARK SMILES IDX 89 24 91 25 19 26 20 27 21 28 22 29 23 31 24 32 25 33 86 34
REMARK SMILES IDX 26 35 85 36 27 37 28 38 29 39 79 40 30 41 84 42 78 43 80 44
REMARK SMILES IDX 31 45 83 46 77 47 76 48 32 50 64 51 44 52 63 53 45 54 48 55
REMARK SMILES IDX 62 56 81 57 46 58 47 59 61 61 82 62 49 63 33 64 34 65 42 66
REMARK SMILES IDX 35 67 37 68 43 69 36 70 38 71 39 72 40 73 41 74 65 75 66 76
REMARK SMILES IDX 74 77 67 78 69 79 75 80 68 81 70 82 71 83 72 84 73 85 50 86
REMARK SMILES IDX 51 87 59 88 52 89 54 90 60 91 53 92 55 93 56 94 57 95 58 96
REMARK H PARENT 14 8 21 30 80 49 48 60
REMARK Flexibility Score: inf
ROOT
ATOM      1  C   UNL A   1      31.670  30.487  25.872  1.00  0.00     0.002 C 
ENDROOT
BRANCH   1   2
ATOM      2  C   UNL A   1      31.683  29.276  26.808  1.00  0.00     0.002 C 
BRANCH   2   3
ATOM      3  C   UNL A   1      33.049  28.636  27.038  1.00  0.00     0.021 C 
BRANCH   3   4
ATOM      4  C   UNL A   1      33.557  27.673  25.970  1.00  0.00     0.116 C 
BRANCH   4   5
ATOM      5  N   UNL A   1      34.099  28.374  24.818  1.00  0.00    -0.356 N 
ATOM      6  C   UNL A   1      33.823  28.273  23.491  1.00  0.00     0.223 C 
ATOM      7  O   UNL A   1      34.477  28.986  22.722  1.00  0.00    -0.275 OA
ATOM      8  H   UNL A   1      34.789  29.041  25.039  1.00  0.00     0.163 HD
BRANCH   6   9
ATOM      9  C   UNL A   1      32.811  27.282  22.916  1.00  0.00     0.081 C 
ATOM     10  N   UNL A   1      31.794  24.678  23.192  1.00  0.00    -0.189 NA
ATOM     11  C   UNL A   1      30.815  25.728  23.513  1.00  0.00     0.104 C 
ATOM     12  C   UNL A   1      32.521  24.986  21.967  1.00  0.00     0.104 C 
ATOM     13  C   UNL A   1      31.579  27.024  23.817  1.00  0.00     0.030 C 
ATOM     14  C   UNL A   1      33.539  26.029  22.397  1.00  0.00     0.030 C 
BRANCH  10  15
ATOM     15  S   UNL A   1      31.658  23.129  23.795  1.00  0.00     0.282 S 
ATOM     16  O   UNL A   1      31.690  22.198  22.688  1.00  0.00    -0.195 OA
ATOM     17  O   UNL A   1      30.585  23.132  24.758  1.00  0.00    -0.195 OA
BRANCH  15  18
ATOM     18  N   UNL A   1      33.121  22.977  24.661  1.00  0.00    -0.184 NA
ATOM     19  C   UNL A   1      34.409  22.642  27.406  1.00  0.00     0.040 C 
ATOM     20  C   UNL A   1      34.704  23.762  26.421  1.00  0.00     0.130 C 
ATOM     21  C   UNL A   1      33.477  24.118  25.566  1.00  0.00     0.135 C 
ATOM     22  O   UNL A   1      35.828  23.442  25.598  1.00  0.00    -0.373 OA
ATOM     23  C   UNL A   1      35.556  22.395  24.647  1.00  0.00     0.130 C 
ATOM     24  C   UNL A   1      34.317  22.705  23.776  1.00  0.00     0.135 C 
ATOM     25  C   UNL A   1      36.819  22.260  23.807  1.00  0.00     0.040 C 
ENDBRANCH  15  18
ENDBRANCH  10  15
ENDBRANCH   6   9
ENDBRANCH   4   5
ENDBRANCH   3   4
ENDBRANCH   2   3
ENDBRANCH   1   2
BRANCH   1  26
ATOM     26  C   UNL A   1      31.479  31.858  26.531  1.00  0.00     0.021 C 
BRANCH  26  27
ATOM     27  C   UNL A   1      32.702  32.438  27.240  1.00  0.00     0.116 C 
BRANCH  27  28
ATOM     28  N   UNL A   1      32.545  33.847  27.557  1.00  0.00    -0.352 N 
ATOM     29  C   UNL A   1      33.161  34.612  28.514  1.00  0.00     0.251 C 
ATOM     30  H   UNL A   1      31.893  34.328  26.998  1.00  0.00     0.163 HD
ATOM     31  O   UNL A   1      32.730  35.736  28.761  1.00  0.00    -0.269 OA
BRANCH  29  32
ATOM     32  C   UNL A   1      34.328  34.093  29.259  1.00  0.00     0.039 A 
ATOM     33  C   UNL A   1      34.108  33.273  30.370  1.00  0.00     0.014 A 
ATOM     34  C   UNL A   1      35.633  34.435  28.895  1.00  0.00     0.014 A 
ATOM     35  C   UNL A   1      35.193  32.754  31.080  1.00  0.00     0.010 A 
ATOM     36  C   UNL A   1      36.715  33.857  29.557  1.00  0.00     0.010 A 
ATOM     37  C   UNL A   1      36.508  33.015  30.660  1.00  0.00    -0.014 A 
BRANCH  37  38
ATOM     38  C   UNL A   1      37.671  32.398  31.354  1.00  0.00     0.031 A 
ATOM     39  C   UNL A   1      38.420  31.253  30.726  1.00  0.00     0.074 A 
ATOM     40  C   UNL A   1      38.008  32.821  32.589  1.00  0.00     0.049 A 
ATOM     41  N   UNL A   1      39.429  30.569  31.203  1.00  0.00    -0.248 NA
ATOM     42  C   UNL A   1      37.963  30.801  29.403  1.00  0.00     0.031 C 
ATOM     43  C   UNL A   1      37.318  33.875  33.337  1.00  0.00     0.029 A 
ATOM     44  N   UNL A   1      38.998  32.403  33.443  1.00  0.00    -0.354 N 
ATOM     45  C   UNL A   1      39.703  29.586  30.260  1.00  0.00     0.074 A 
ATOM     46  C   UNL A   1      38.734  29.743  29.197  1.00  0.00     0.031 C 
ATOM     47  C   UNL A   1      37.906  34.023  34.533  1.00  0.00     0.029 A 
ATOM     48  C   UNL A   1      38.989  33.052  34.656  1.00  0.00     0.049 A 
ATOM     49  H   UNL A   1      39.651  31.705  33.211  1.00  0.00     0.167 HD
ATOM     50  C   UNL A   1      40.685  28.651  30.265  1.00  0.00     0.034 A 
ATOM     51  C   UNL A   1      39.755  32.878  35.752  1.00  0.00     0.034 A 
ATOM     52  C   UNL A   1      41.661  28.513  31.313  1.00  0.00     0.049 A 
ATOM     53  C   UNL A   1      40.850  31.847  35.725  1.00  0.00     0.074 A 
ATOM     54  C   UNL A   1      42.747  27.657  31.368  1.00  0.00     0.029 A 
ATOM     55  N   UNL A   1      41.662  29.234  32.497  1.00  0.00    -0.354 N 
ATOM     56  N   UNL A   1      41.190  31.030  34.758  1.00  0.00    -0.248 NA
ATOM     57  C   UNL A   1      41.689  31.739  36.927  1.00  0.00     0.031 C 
ATOM     58  C   UNL A   1      43.376  27.827  32.606  1.00  0.00     0.029 A 
ATOM     59  C   UNL A   1      42.715  28.828  33.299  1.00  0.00     0.049 A 
ATOM     60  H   UNL A   1      41.009  29.933  32.733  1.00  0.00     0.167 HD
ATOM     61  C   UNL A   1      42.305  30.338  35.218  1.00  0.00     0.074 A 
ATOM     62  C   UNL A   1      42.592  30.845  36.545  1.00  0.00     0.031 C 
ATOM     63  C   UNL A   1      43.020  29.366  34.601  1.00  0.00     0.034 A 
BRANCH  50  64
ATOM     64  C   UNL A   1      40.768  27.716  29.085  1.00  0.00     0.023 A 
ATOM     65  C   UNL A   1      39.929  26.583  29.025  1.00  0.00     0.012 A 
ATOM     66  C   UNL A   1      41.638  27.985  28.010  1.00  0.00     0.148 A 
ATOM     67  C   UNL A   1      39.987  25.711  27.938  1.00  0.00     0.002 A 
ATOM     68  C   UNL A   1      41.653  27.140  26.907  1.00  0.00     0.091 A 
ATOM     69  F   UNL A   1      42.441  29.057  28.090  1.00  0.00    -0.205 F 
ATOM     70  C   UNL A   1      40.841  25.995  26.876  1.00  0.00     0.022 A 
BRANCH  68  71
ATOM     71  S   UNL A   1      42.654  27.464  25.451  1.00  0.00     0.127 S 
ATOM     72  O   UNL A   1      42.420  26.258  24.658  1.00  0.00    -0.237 OA
ATOM     73  O   UNL A   1      42.033  28.675  24.916  1.00  0.00    -0.237 OA
ATOM     74  O   UNL A   1      44.018  27.640  25.930  1.00  0.00    -0.744 OA
ENDBRANCH  68  71
ENDBRANCH  50  64
BRANCH  51  75
ATOM     75  C   UNL A   1      39.537  33.734  36.952  1.00  0.00     0.023 A 
ATOM     76  C   UNL A   1      39.953  35.080  36.931  1.00  0.00     0.012 A 
ATOM     77  C   UNL A   1      38.892  33.232  38.097  1.00  0.00     0.148 A 
ATOM     78  C   UNL A   1      39.759  35.901  38.043  1.00  0.00     0.002 A 
ATOM     79  C   UNL A   1      38.649  34.069  39.179  1.00  0.00     0.091 A 
ATOM     80  F   UNL A   1      38.510  31.947  38.097  1.00  0.00    -0.205 F 
ATOM     81  C   UNL A   1      39.099  35.399  39.162  1.00  0.00     0.022 A 
BRANCH  79  82
ATOM     82  S   UNL A   1      37.689  33.550  40.605  1.00  0.00     0.127 S 
ATOM     83  O   UNL A   1      38.547  32.518  41.183  1.00  0.00    -0.237 OA
ATOM     84  O   UNL A   1      37.609  34.790  41.377  1.00  0.00    -0.237 OA
ATOM     85  O   UNL A   1      36.414  33.086  40.076  1.00  0.00    -0.744 OA
ENDBRANCH  79  82
ENDBRANCH  51  75
BRANCH  63  86
ATOM     86  C   UNL A   1      44.220  28.810  35.325  1.00  0.00     0.023 A 
ATOM     87  C   UNL A   1      45.496  29.369  35.119  1.00  0.00     0.012 A 
ATOM     88  C   UNL A   1      44.064  27.773  36.266  1.00  0.00     0.148 A 
ATOM     89  C   UNL A   1      46.604  28.882  35.811  1.00  0.00     0.002 A 
ATOM     90  C   UNL A   1      45.162  27.329  36.993  1.00  0.00     0.091 A 
ATOM     91  F   UNL A   1      42.845  27.240  36.436  1.00  0.00    -0.205 F 
ATOM     92  C   UNL A   1      46.435  27.872  36.756  1.00  0.00     0.022 A 
BRANCH  90  93
ATOM     93  S   UNL A   1      45.023  26.105  38.300  1.00  0.00     0.127 S 
ATOM     94  O   UNL A   1      44.371  24.998  37.602  1.00  0.00    -0.237 OA
ATOM     95  O   UNL A   1      46.424  25.866  38.649  1.00  0.00    -0.237 OA
ATOM     96  O   UNL A   1      44.234  26.727  39.354  1.00  0.00    -0.744 OA
ENDBRANCH  90  93
ENDBRANCH  63  86
ENDBRANCH  37  38
ENDBRANCH  29  32
ENDBRANCH  27  28
ENDBRANCH  26  27
ENDBRANCH   1  26
TORSDOF 18
ENDMDL
MODEL 2
REMARK VINA RESULT:     -11.5      2.741      8.067
REMARK SMILES C[C@@H]1CN(S(=O)(=O)N2CCC(C(=O)NCCCCCCNC(=O)c3ccc(-c4c5nc(c(-c6cccc(S(=O)(=O)[O-])c6F)c6ccc([nH]6)c(-c6cccc(S(=O)(=O)[O-])c6F)c6nc(c(-c7cccc(S(=O)(=O)[O-])c7F)c7ccc4[nH]7)C=C6)C=C5)cc3)CC2)C[C@@H](C)O1
REMARK SMILES IDX 18 1 17 2 16 3 15 4 14 5 12 6 13 7 11 9 8 10 9 11 88 12
REMARK SMILES IDX 10 13 87 14 5 15 6 16 7 17 4 18 1 19 2 20 3 21 92 22 90 23
REMARK SMILES IDX 89 24 91 25 19 26 20 27 21 28 22 29 23 31 24 32 25 33 86 34
REMARK SMILES IDX 26 35 85 36 27 37 28 38 29 39 79 40 30 41 84 42 78 43 80 44
REMARK SMILES IDX 31 45 83 46 77 47 76 48 32 50 64 51 44 52 63 53 45 54 48 55
REMARK SMILES IDX 62 56 81 57 46 58 47 59 61 61 82 62 49 63 33 64 34 65 42 66
REMARK SMILES IDX 35 67 37 68 43 69 36 70 38 71 39 72 40 73 41 74 65 75 66 76
REMARK SMILES IDX 74 77 67 78 69 79 75 80 68 81 70 82 71 83 72 84 73 85 50 86
REMARK SMILES IDX 51 87 59 88 52 89 54 90 60 91 53 92 55 93 56 94 57 95 58 96
REMARK H PARENT 14 8 21 30 80 49 48 60
REMARK Flexibility Score: inf
ROOT
ATOM      1  C   UNL A   1      30.975  28.288  25.026  1.00  0.00     0.002 C 
ENDROOT
BRANCH   1   2
ATOM      2  C   UNL A   1      30.824  29.248  23.844  1.00  0.00     0.002 C 
BRANCH   2   3
ATOM      3  C   UNL A   1      30.251  28.638  22.568  1.00  0.00     0.021 C 
BRANCH   3   4
ATOM      4  C   UNL A   1      30.580  27.175  22.287  1.00  0.00     0.116 C 
BRANCH   4   5
ATOM      5  N   UNL A   1      31.974  26.992  21.919  1.00  0.00    -0.356 N 
ATOM      6  C   UNL A   1      32.809  25.928  22.060  1.00  0.00     0.223 C 
ATOM      7  O   UNL A   1      33.976  26.071  21.679  1.00  0.00    -0.275 OA
ATOM      8  H   UNL A   1      32.387  27.777  21.492  1.00  0.00     0.163 HD
BRANCH   6   9
ATOM      9  C   UNL A   1      32.394  24.616  22.725  1.00  0.00     0.081 C 
ATOM     10  N   UNL A   1      33.360  22.423  24.191  1.00  0.00    -0.189 NA
ATOM     11  C   UNL A   1      32.439  23.279  24.953  1.00  0.00     0.104 C 
ATOM     12  C   UNL A   1      32.854  22.160  22.850  1.00  0.00     0.104 C 
ATOM     13  C   UNL A   1      32.382  24.653  24.272  1.00  0.00     0.030 C 
ATOM     14  C   UNL A   1      33.154  23.439  22.086  1.00  0.00     0.030 C 
BRANCH  10  15
ATOM     15  S   UNL A   1      34.479  21.438  24.941  1.00  0.00     0.282 S 
ATOM     16  O   UNL A   1      34.264  21.501  26.370  1.00  0.00    -0.195 OA
ATOM     17  O   UNL A   1      35.764  21.714  24.350  1.00  0.00    -0.195 OA
BRANCH  15  18
ATOM     18  N   UNL A   1      33.987  19.897  24.396  1.00  0.00    -0.184 NA
ATOM     19  C   UNL A   1      32.278  18.350  22.397  1.00  0.00     0.040 C 
ATOM     20  C   UNL A   1      32.204  18.223  23.911  1.00  0.00     0.130 C 
ATOM     21  C   UNL A   1      32.547  19.542  24.620  1.00  0.00     0.135 C 
ATOM     22  O   UNL A   1      33.033  17.156  24.379  1.00  0.00    -0.373 OA
ATOM     23  C   UNL A   1      34.440  17.438  24.264  1.00  0.00     0.130 C 
ATOM     24  C   UNL A   1      34.828  18.768  24.950  1.00  0.00     0.135 C 
ATOM     25  C   UNL A   1      35.154  16.248  24.892  1.00  0.00     0.040 C 
ENDBRANCH  15  18
ENDBRANCH  10  15
ENDBRANCH   6   9
ENDBRANCH   4   5
ENDBRANCH   3   4
ENDBRANCH   2   3
ENDBRANCH   1   2
BRANCH   1  26
ATOM     26  C   UNL A   1      31.973  28.697  26.117  1.00  0.00     0.021 C 
BRANCH  26  27
ATOM     27  C   UNL A   1      33.053  29.692  25.697  1.00  0.00     0.116 C 
BRANCH  27  28
ATOM     28  N   UNL A   1      32.787  31.037  26.180  1.00  0.00    -0.352 N 
ATOM     29  C   UNL A   1      33.369  31.739  27.205  1.00  0.00     0.251 C 
ATOM     30  H   UNL A   1      32.079  31.518  25.697  1.00  0.00     0.163 HD
ATOM     31  O   UNL A   1      32.853  32.785  27.591  1.00  0.00    -0.269 OA
BRANCH  29  32
ATOM     32  C   UNL A   1      34.601  31.243  27.856  1.00  0.00     0.039 A 
ATOM     33  C   UNL A   1      35.690  32.110  27.985  1.00  0.00     0.014 A 
ATOM     34  C   UNL A   1      34.703  29.924  28.307  1.00  0.00     0.014 A 
ATOM     35  C   UNL A   1      36.859  31.671  28.613  1.00  0.00     0.010 A 
ATOM     36  C   UNL A   1      35.841  29.512  28.999  1.00  0.00     0.010 A 
ATOM     37  C   UNL A   1      36.934  30.378  29.155  1.00  0.00    -0.014 A 
BRANCH  37  38
ATOM     38  C   UNL A   1      38.139  29.929  29.903  1.00  0.00     0.031 A 
ATOM     39  C   UNL A   1      38.424  30.451  31.286  1.00  0.00     0.074 A 
ATOM     40  C   UNL A   1      39.021  29.104  29.305  1.00  0.00     0.049 A 
ATOM     41  N   UNL A   1      39.443  30.201  32.067  1.00  0.00    -0.248 NA
ATOM     42  C   UNL A   1      37.450  31.395  31.857  1.00  0.00     0.031 C 
ATOM     43  C   UNL A   1      38.898  28.582  27.941  1.00  0.00     0.029 A 
ATOM     44  N   UNL A   1      40.207  28.578  29.754  1.00  0.00    -0.354 N 
ATOM     45  C   UNL A   1      39.255  30.981  33.201  1.00  0.00     0.074 A 
ATOM     46  C   UNL A   1      38.039  31.736  32.994  1.00  0.00     0.031 C 
ATOM     47  C   UNL A   1      39.960  27.810  27.667  1.00  0.00     0.029 A 
ATOM     48  C   UNL A   1      40.860  27.810  28.817  1.00  0.00     0.049 A 
ATOM     49  H   UNL A   1      40.558  28.735  30.660  1.00  0.00     0.167 HD
ATOM     50  C   UNL A   1      40.012  31.047  34.324  1.00  0.00     0.034 A 
ATOM     51  C   UNL A   1      42.055  27.188  28.868  1.00  0.00     0.034 A 
ATOM     52  C   UNL A   1      41.208  30.277  34.537  1.00  0.00     0.049 A 
ATOM     53  C   UNL A   1      42.866  27.261  30.133  1.00  0.00     0.074 A 
ATOM     54  C   UNL A   1      41.995  30.208  35.673  1.00  0.00     0.029 A 
ATOM     55  N   UNL A   1      41.804  29.458  33.589  1.00  0.00    -0.354 N 
ATOM     56  N   UNL A   1      42.593  27.883  31.253  1.00  0.00    -0.248 NA
ATOM     57  C   UNL A   1      44.135  26.518  30.151  1.00  0.00     0.031 C 
ATOM     58  C   UNL A   1      43.091  29.384  35.396  1.00  0.00     0.029 A 
ATOM     59  C   UNL A   1      42.958  28.896  34.107  1.00  0.00     0.049 A 
ATOM     60  H   UNL A   1      41.456  29.299  32.682  1.00  0.00     0.167 HD
ATOM     61  C   UNL A   1      43.633  27.577  32.123  1.00  0.00     0.074 A 
ATOM     62  C   UNL A   1      44.533  26.699  31.403  1.00  0.00     0.031 C 
ATOM     63  C   UNL A   1      43.828  27.990  33.399  1.00  0.00     0.034 A 
BRANCH  50  64
ATOM     64  C   UNL A   1      39.553  31.971  35.424  1.00  0.00     0.023 A 
ATOM     65  C   UNL A   1      38.682  31.493  36.426  1.00  0.00     0.012 A 
ATOM     66  C   UNL A   1      40.027  33.296  35.499  1.00  0.00     0.148 A 
ATOM     67  C   UNL A   1      38.254  32.331  37.455  1.00  0.00     0.002 A 
ATOM     68  C   UNL A   1      39.636  34.109  36.556  1.00  0.00     0.091 A 
ATOM     69  F   UNL A   1      40.841  33.740  34.530  1.00  0.00    -0.205 F 
ATOM     70  C   UNL A   1      38.738  33.635  37.526  1.00  0.00     0.022 A 
BRANCH  68  71
ATOM     71  S   UNL A   1      40.271  35.774  36.783  1.00  0.00     0.127 S 
ATOM     72  O   UNL A   1      39.748  36.111  38.107  1.00  0.00    -0.237 OA
ATOM     73  O   UNL A   1      41.716  35.560  36.736  1.00  0.00    -0.237 OA
ATOM     74  O   UNL A   1      39.736  36.564  35.684  1.00  0.00    -0.744 OA
ENDBRANCH  68  71
ENDBRANCH  50  64
BRANCH  51  75
ATOM     75  C   UNL A   1      42.532  26.403  27.695  1.00  0.00     0.023 A 
ATOM     76  C   UNL A   1      43.416  26.996  26.773  1.00  0.00     0.012 A 
ATOM     77  C   UNL A   1      42.142  25.063  27.508  1.00  0.00     0.148 A 
ATOM     78  C   UNL A   1      43.876  26.279  25.667  1.00  0.00     0.002 A 
ATOM     79  C   UNL A   1      42.649  24.336  26.440  1.00  0.00     0.091 A 
ATOM     80  F   UNL A   1      41.296  24.520  28.396  1.00  0.00    -0.205 F 
ATOM     81  C   UNL A   1      43.501  24.948  25.506  1.00  0.00     0.022 A 
BRANCH  79  82
ATOM     82  S   UNL A   1      42.331  22.582  26.227  1.00  0.00     0.127 S 
ATOM     83  O   UNL A   1      40.871  22.547  26.179  1.00  0.00    -0.237 OA
ATOM     84  O   UNL A   1      42.996  22.311  24.952  1.00  0.00    -0.237 OA
ATOM     85  O   UNL A   1      42.939  21.927  27.376  1.00  0.00    -0.744 OA
ENDBRANCH  79  82
ENDBRANCH  51  75
BRANCH  63  86
ATOM     86  C   UNL A   1      45.037  27.465  34.131  1.00  0.00     0.023 A 
ATOM     87  C   UNL A   1      46.251  28.179  34.102  1.00  0.00     0.012 A 
ATOM     88  C   UNL A   1      44.943  26.293  34.908  1.00  0.00     0.148 A 
ATOM     89  C   UNL A   1      47.362  27.716  34.805  1.00  0.00     0.002 A 
ATOM     90  C   UNL A   1      46.038  25.867  35.650  1.00  0.00     0.091 A 
ATOM     91  F   UNL A   1      43.785  25.616  34.909  1.00  0.00    -0.205 F 
ATOM     92  C   UNL A   1      47.253  26.569  35.589  1.00  0.00     0.022 A 
BRANCH  90  93
ATOM     93  S   UNL A   1      45.960  24.461  36.764  1.00  0.00     0.127 S 
ATOM     94  O   UNL A   1      47.229  24.578  37.481  1.00  0.00    -0.237 OA
ATOM     95  O   UNL A   1      44.776  24.769  37.567  1.00  0.00    -0.237 OA
ATOM     96  O   UNL A   1      45.830  23.282  35.920  1.00  0.00    -0.744 OA
ENDBRANCH  90  93
ENDBRANCH  63  86
ENDBRANCH  37  38
ENDBRANCH  29  32
ENDBRANCH  27  28
ENDBRANCH  26  27
ENDBRANCH   1  26
TORSDOF 18
ENDMDL
MODEL 3
REMARK VINA RESULT:     -11.4      3.344      8.521
REMARK SMILES C[C@@H]1CN(S(=O)(=O)N2CCC(C(=O)NCCCCCCNC(=O)c3ccc(-c4c5nc(c(-c6cccc(S(=O)(=O)[O-])c6F)c6ccc([nH]6)c(-c6cccc(S(=O)(=O)[O-])c6F)c6nc(c(-c7cccc(S(=O)(=O)[O-])c7F)c7ccc4[nH]7)C=C6)C=C5)cc3)CC2)C[C@@H](C)O1
REMARK SMILES IDX 18 1 17 2 16 3 15 4 14 5 12 6 13 7 11 9 8 10 9 11 88 12
REMARK SMILES IDX 10 13 87 14 5 15 6 16 7 17 4 18 1 19 2 20 3 21 92 22 90 23
REMARK SMILES IDX 89 24 91 25 19 26 20 27 21 28 22 29 23 31 24 32 25 33 86 34
REMARK SMILES IDX 26 35 85 36 27 37 28 38 29 39 79 40 30 41 84 42 78 43 80 44
REMARK SMILES IDX 31 45 83 46 77 47 76 48 32 50 64 51 44 52 63 53 45 54 48 55
REMARK SMILES IDX 62 56 81 57 46 58 47 59 61 61 82 62 49 63 33 64 34 65 42 66
REMARK SMILES IDX 35 67 37 68 43 69 36 70 38 71 39 72 40 73 41 74 65 75 66 76
REMARK SMILES IDX 74 77 67 78 69 79 75 80 68 81 70 82 71 83 72 84 73 85 50 86
REMARK SMILES IDX 51 87 59 88 52 89 54 90 60 91 53 92 55 93 56 94 57 95 58 96
REMARK H PARENT 14 8 21 30 80 49 48 60
REMARK Flexibility Score: inf
ROOT
ATOM      1  C   UNL A   1      31.800  27.936  25.558  1.00  0.00     0.002 C 
ENDROOT
BRANCH   1   2
ATOM      2  C   UNL A   1      31.459  29.154  24.696  1.00  0.00     0.002 C 
BRANCH   2   3
ATOM      3  C   UNL A   1      30.653  28.863  23.433  1.00  0.00     0.021 C 
BRANCH   3   4
ATOM      4  C   UNL A   1      30.728  27.448  22.870  1.00  0.00     0.116 C 
BRANCH   4   5
ATOM      5  N   UNL A   1      31.990  27.197  22.193  1.00  0.00    -0.356 N 
ATOM      6  C   UNL A   1      32.735  26.067  22.068  1.00  0.00     0.223 C 
ATOM      7  O   UNL A   1      33.803  26.160  21.452  1.00  0.00    -0.275 OA
ATOM      8  H   UNL A   1      32.372  27.987  21.744  1.00  0.00     0.163 HD
BRANCH   6   9
ATOM      9  C   UNL A   1      32.353  24.733  22.709  1.00  0.00     0.081 C 
ATOM     10  N   UNL A   1      33.379  22.530  24.118  1.00  0.00    -0.189 NA
ATOM     11  C   UNL A   1      32.448  23.351  24.908  1.00  0.00     0.104 C 
ATOM     12  C   UNL A   1      32.864  22.286  22.777  1.00  0.00     0.104 C 
ATOM     13  C   UNL A   1      32.356  24.738  24.256  1.00  0.00     0.030 C 
ATOM     14  C   UNL A   1      33.131  23.586  22.038  1.00  0.00     0.030 C 
BRANCH  10  15
ATOM     15  S   UNL A   1      34.524  21.553  24.837  1.00  0.00     0.282 S 
ATOM     16  O   UNL A   1      34.369  21.639  26.272  1.00  0.00    -0.195 OA
ATOM     17  O   UNL A   1      35.784  21.815  24.189  1.00  0.00    -0.195 OA
BRANCH  15  18
ATOM     18  N   UNL A   1      34.005  20.005  24.337  1.00  0.00    -0.184 NA
ATOM     19  C   UNL A   1      32.227  18.434  22.420  1.00  0.00     0.040 C 
ATOM     20  C   UNL A   1      32.195  18.337  23.937  1.00  0.00     0.130 C 
ATOM     21  C   UNL A   1      32.569  19.667  24.609  1.00  0.00     0.135 C 
ATOM     22  O   UNL A   1      33.029  17.273  24.403  1.00  0.00    -0.373 OA
ATOM     23  C   UNL A   1      34.434  17.541  24.242  1.00  0.00     0.130 C 
ATOM     24  C   UNL A   1      34.852  18.881  24.890  1.00  0.00     0.135 C 
ATOM     25  C   UNL A   1      35.157  16.358  24.873  1.00  0.00     0.040 C 
ENDBRANCH  15  18
ENDBRANCH  10  15
ENDBRANCH   6   9
ENDBRANCH   4   5
ENDBRANCH   3   4
ENDBRANCH   2   3
ENDBRANCH   1   2
BRANCH   1  26
ATOM     26  C   UNL A   1      32.473  28.220  26.907  1.00  0.00     0.021 C 
BRANCH  26  27
ATOM     27  C   UNL A   1      33.816  28.945  26.846  1.00  0.00     0.116 C 
BRANCH  27  28
ATOM     28  N   UNL A   1      33.692  30.367  27.122  1.00  0.00    -0.352 N 
ATOM     29  C   UNL A   1      34.458  31.183  27.916  1.00  0.00     0.251 C 
ATOM     30  H   UNL A   1      32.941  30.813  26.670  1.00  0.00     0.163 HD
ATOM     31  O   UNL A   1      34.059  32.314  28.185  1.00  0.00    -0.269 OA
BRANCH  29  32
ATOM     32  C   UNL A   1      35.751  30.712  28.458  1.00  0.00     0.039 A 
ATOM     33  C   UNL A   1      35.746  29.718  29.442  1.00  0.00     0.014 A 
ATOM     34  C   UNL A   1      36.962  31.265  28.033  1.00  0.00     0.014 A 
ATOM     35  C   UNL A   1      36.954  29.243  29.957  1.00  0.00     0.010 A 
ATOM     36  C   UNL A   1      38.167  30.737  28.493  1.00  0.00     0.010 A 
ATOM     37  C   UNL A   1      38.178  29.725  29.464  1.00  0.00    -0.014 A 
BRANCH  37  38
ATOM     38  C   UNL A   1      39.470  29.164  29.942  1.00  0.00     0.031 A 
ATOM     39  C   UNL A   1      40.215  29.812  31.078  1.00  0.00     0.074 A 
ATOM     40  C   UNL A   1      40.014  28.110  29.301  1.00  0.00     0.049 A 
ATOM     41  N   UNL A   1      41.371  29.486  31.598  1.00  0.00    -0.248 NA
ATOM     42  C   UNL A   1      39.595  30.995  31.696  1.00  0.00     0.031 C 
ATOM     43  C   UNL A   1      39.427  27.435  28.140  1.00  0.00     0.029 A 
ATOM     44  N   UNL A   1      41.191  27.437  29.515  1.00  0.00    -0.354 N 
ATOM     45  C   UNL A   1      41.633  30.439  32.574  1.00  0.00     0.074 A 
ATOM     46  C   UNL A   1      40.530  31.375  32.553  1.00  0.00     0.031 C 
ATOM     47  C   UNL A   1      40.243  26.444  27.749  1.00  0.00     0.029 A 
ATOM     48  C   UNL A   1      41.427  26.435  28.602  1.00  0.00     0.049 A 
ATOM     49  H   UNL A   1      41.808  27.651  30.251  1.00  0.00     0.167 HD
ATOM     50  C   UNL A   1      42.684  30.518  33.427  1.00  0.00     0.034 A 
ATOM     51  C   UNL A   1      42.483  25.611  28.456  1.00  0.00     0.034 A 
ATOM     52  C   UNL A   1      43.768  29.572  33.460  1.00  0.00     0.049 A 
ATOM     53  C   UNL A   1      43.628  25.706  29.427  1.00  0.00     0.074 A 
ATOM     54  C   UNL A   1      44.832  29.515  34.343  1.00  0.00     0.029 A 
ATOM     55  N   UNL A   1      43.940  28.529  32.563  1.00  0.00    -0.354 N 
ATOM     56  N   UNL A   1      43.783  26.520  30.441  1.00  0.00    -0.248 NA
ATOM     57  C   UNL A   1      44.728  24.745  29.252  1.00  0.00     0.031 C 
ATOM     58  C   UNL A   1      45.671  28.467  33.951  1.00  0.00     0.029 A 
ATOM     59  C   UNL A   1      45.102  27.837  32.857  1.00  0.00     0.049 A 
ATOM     60  H   UNL A   1      43.324  28.313  31.825  1.00  0.00     0.167 HD
ATOM     61  C   UNL A   1      44.976  26.147  31.051  1.00  0.00     0.074 A 
ATOM     62  C   UNL A   1      45.494  25.022  30.300  1.00  0.00     0.031 C 
ATOM     63  C   UNL A   1      45.589  26.692  32.130  1.00  0.00     0.034 A 
BRANCH  50  64
ATOM     64  C   UNL A   1      42.702  31.658  34.414  1.00  0.00     0.023 A 
ATOM     65  C   UNL A   1      43.361  32.861  34.087  1.00  0.00     0.012 A 
ATOM     66  C   UNL A   1      42.021  31.558  35.644  1.00  0.00     0.148 A 
ATOM     67  C   UNL A   1      43.381  33.928  34.986  1.00  0.00     0.002 A 
ATOM     68  C   UNL A   1      42.002  32.643  36.512  1.00  0.00     0.091 A 
ATOM     69  F   UNL A   1      41.414  30.401  35.947  1.00  0.00    -0.205 F 
ATOM     70  C   UNL A   1      42.694  33.823  36.192  1.00  0.00     0.022 A 
BRANCH  68  71
ATOM     71  S   UNL A   1      41.075  32.637  38.050  1.00  0.00     0.127 S 
ATOM     72  O   UNL A   1      41.922  31.802  38.901  1.00  0.00    -0.237 OA
ATOM     73  O   UNL A   1      41.065  34.056  38.407  1.00  0.00    -0.237 OA
ATOM     74  O   UNL A   1      39.769  32.081  37.732  1.00  0.00    -0.744 OA
ENDBRANCH  68  71
ENDBRANCH  50  64
BRANCH  51  75
ATOM     75  C   UNL A   1      42.483  24.592  27.368  1.00  0.00     0.023 A 
ATOM     76  C   UNL A   1      43.066  24.900  26.124  1.00  0.00     0.012 A 
ATOM     77  C   UNL A   1      41.938  23.310  27.573  1.00  0.00     0.148 A 
ATOM     78  C   UNL A   1      43.076  23.961  25.092  1.00  0.00     0.002 A 
ATOM     79  C   UNL A   1      42.005  22.359  26.562  1.00  0.00     0.091 A 
ATOM     80  F   UNL A   1      41.384  23.039  28.763  1.00  0.00    -0.205 F 
ATOM     81  C   UNL A   1      42.556  22.689  25.313  1.00  0.00     0.022 A 
BRANCH  79  82
ATOM     82  S   UNL A   1      41.484  20.658  26.801  1.00  0.00     0.127 S 
ATOM     83  O   UNL A   1      40.043  20.810  26.989  1.00  0.00    -0.237 OA
ATOM     84  O   UNL A   1      41.879  20.045  25.533  1.00  0.00    -0.237 OA
ATOM     85  O   UNL A   1      42.223  20.176  27.959  1.00  0.00    -0.744 OA
ENDBRANCH  79  82
ENDBRANCH  51  75
BRANCH  63  86
ATOM     86  C   UNL A   1      46.871  26.055  32.606  1.00  0.00     0.023 A 
ATOM     87  C   UNL A   1      48.115  26.546  32.165  1.00  0.00     0.012 A 
ATOM     88  C   UNL A   1      46.836  25.009  33.550  1.00  0.00     0.148 A 
ATOM     89  C   UNL A   1      49.304  25.983  32.628  1.00  0.00     0.002 A 
ATOM     90  C   UNL A   1      48.024  24.490  34.050  1.00  0.00     0.091 A 
ATOM     91  F   UNL A   1      45.642  24.543  33.945  1.00  0.00    -0.205 F 
ATOM     92  C   UNL A   1      49.259  24.965  33.579  1.00  0.00     0.022 A 
BRANCH  90  93
ATOM     93  S   UNL A   1      48.064  23.250  35.348  1.00  0.00     0.127 S 
ATOM     94  O   UNL A   1      49.503  23.065  35.538  1.00  0.00    -0.237 OA
ATOM     95  O   UNL A   1      47.387  23.935  36.450  1.00  0.00    -0.237 OA
ATOM     96  O   UNL A   1      47.353  22.093  34.825  1.00  0.00    -0.744 OA
ENDBRANCH  90  93
ENDBRANCH  63  86
ENDBRANCH  37  38
ENDBRANCH  29  32
ENDBRANCH  27  28
ENDBRANCH  26  27
ENDBRANCH   1  26
TORSDOF 18
ENDMDL
