MODEL 1
REMARK VINA RESULT:     -10.8      0.000      0.000
REMARK SMILES C[C@H]1C[N@H+]2CCCC[C@@H]2CN1C(=O)[C@H]([NH3+])CC(=O)NCCCCCCNC(=O)c1ccc(-c2c3nc(c(-c4cccc(S(=O)(=O)[O-])c4F)c4ccc([nH]4)c(-c4cccc(S(=O)(=O)[O-])c4F)c4nc(c(-c5cccc(S(=O)(=O)[O-])c5F)c5ccc2[nH]5)C=C4)C=C3)cc1
REMARK SMILES IDX 22 1 21 2 20 3 19 4 17 5 18 6 16 8 14 9 12 10 13 11 11 12
REMARK SMILES IDX 1 13 2 14 3 15 4 16 10 17 5 18 9 19 6 21 8 22 7 23 15 24
REMARK SMILES IDX 23 28 24 29 25 30 26 31 27 32 28 34 29 35 30 36 91 37 31 38
REMARK SMILES IDX 90 39 32 40 33 41 34 42 84 43 35 44 89 45 83 46 85 47 36 48
REMARK SMILES IDX 88 49 82 50 81 51 37 53 69 54 49 55 68 56 50 57 53 58 67 59
REMARK SMILES IDX 86 60 51 61 52 62 66 64 87 65 54 66 38 67 39 68 47 69 40 70
REMARK SMILES IDX 42 71 48 72 41 73 43 74 44 75 45 76 46 77 70 78 71 79 79 80
REMARK SMILES IDX 72 81 74 82 80 83 73 84 75 85 76 86 77 87 78 88 55 89 56 90
REMARK SMILES IDX 64 91 57 92 59 93 65 94 58 95 60 96 61 97 62 98 63 99
REMARK H PARENT 19 7 4 20 15 25 15 26 15 27 26 33 85 52 53 63
REMARK Flexibility Score: inf
ROOT
ATOM      1  C   UNL A   1      31.385  28.117  25.212  1.00  0.00     0.002 C 
ENDROOT
BRANCH   1   2
ATOM      2  C   UNL A   1      30.583  27.216  24.271  1.00  0.00     0.021 C 
BRANCH   2   3
ATOM      3  C   UNL A   1      31.160  25.808  24.122  1.00  0.00     0.116 C 
BRANCH   3   4
ATOM      4  N   UNL A   1      32.048  25.734  22.974  1.00  0.00    -0.356 N 
ATOM      5  C   UNL A   1      33.356  25.347  22.926  1.00  0.00     0.226 C 
ATOM      6  O   UNL A   1      33.975  25.484  21.870  1.00  0.00    -0.275 OA
ATOM      7  H   UNL A   1      31.653  26.001  22.114  1.00  0.00     0.163 HD
BRANCH   5   8
ATOM      8  C   UNL A   1      34.007  24.747  24.148  1.00  0.00     0.175 C 
BRANCH   8   9
ATOM      9  C   UNL A   1      34.751  23.442  23.857  1.00  0.00     0.280 C 
BRANCH   9  10
ATOM     10  C   UNL A   1      34.898  22.601  25.155  1.00  0.00     0.281 C 
ATOM     11  O   UNL A   1      35.531  23.089  26.097  1.00  0.00    -0.268 OA
BRANCH  10  12
ATOM     12  N   UNL A   1      34.303  21.338  25.237  1.00  0.00    -0.323 N 
ATOM     13  C   UNL A   1      31.993  22.137  25.790  1.00  0.00     0.037 C 
ATOM     14  C   UNL A   1      33.129  21.148  26.119  1.00  0.00     0.137 C 
ATOM     15  C   UNL A   1      32.476  19.720  26.068  1.00  0.00     0.287 C 
ATOM     16  N   UNL A   1      33.302  18.567  25.667  1.00  0.00    -0.329 N 
ATOM     17  C   UNL A   1      35.061  20.123  24.929  1.00  0.00     0.185 C 
ATOM     18  C   UNL A   1      32.427  17.440  25.279  1.00  0.00     0.262 C 
ATOM     19  C   UNL A   1      34.182  18.930  24.544  1.00  0.00     0.203 C 
ATOM     20  H   UNL A   1      33.884  18.288  26.458  1.00  0.00     0.348 HD
ATOM     21  C   UNL A   1      33.225  16.204  24.865  1.00  0.00     0.062 C 
ATOM     22  C   UNL A   1      35.078  17.738  24.170  1.00  0.00     0.067 C 
ATOM     23  C   UNL A   1      34.243  16.526  23.778  1.00  0.00     0.012 C 
ENDBRANCH  10  12
ENDBRANCH   9  10
BRANCH   9  24
ATOM     24  N   UNL A   1      36.060  23.576  23.174  1.00  0.00    -0.347 N 
ATOM     25  H   UNL A   1      36.596  24.327  23.608  1.00  0.00     0.345 HD
ATOM     26  H   UNL A   1      35.909  23.790  22.188  1.00  0.00     0.345 HD
ATOM     27  H   UNL A   1      36.576  22.699  23.255  1.00  0.00     0.345 HD
ENDBRANCH   9  24
ENDBRANCH   8   9
ENDBRANCH   5   8
ENDBRANCH   3   4
ENDBRANCH   2   3
ENDBRANCH   1   2
BRANCH   1  28
ATOM     28  C   UNL A   1      31.889  27.433  26.488  1.00  0.00     0.002 C 
BRANCH  28  29
ATOM     29  C   UNL A   1      33.020  28.161  27.222  1.00  0.00     0.021 C 
BRANCH  29  30
ATOM     30  C   UNL A   1      33.834  29.124  26.360  1.00  0.00     0.116 C 
BRANCH  30  31
ATOM     31  N   UNL A   1      33.728  30.496  26.830  1.00  0.00    -0.352 N 
ATOM     32  C   UNL A   1      34.490  31.158  27.757  1.00  0.00     0.251 C 
ATOM     33  H   UNL A   1      33.005  31.026  26.423  1.00  0.00     0.163 HD
ATOM     34  O   UNL A   1      34.120  32.253  28.182  1.00  0.00    -0.269 OA
BRANCH  32  35
ATOM     35  C   UNL A   1      35.746  30.559  28.253  1.00  0.00     0.039 A 
ATOM     36  C   UNL A   1      36.945  30.862  27.601  1.00  0.00     0.014 A 
ATOM     37  C   UNL A   1      35.740  29.678  29.338  1.00  0.00     0.014 A 
ATOM     38  C   UNL A   1      38.143  30.314  28.063  1.00  0.00     0.010 A 
ATOM     39  C   UNL A   1      36.944  29.183  29.836  1.00  0.00     0.010 A 
ATOM     40  C   UNL A   1      38.156  29.485  29.197  1.00  0.00    -0.014 A 
BRANCH  40  41
ATOM     41  C   UNL A   1      39.425  28.921  29.722  1.00  0.00     0.031 A 
ATOM     42  C   UNL A   1      40.135  29.590  30.869  1.00  0.00     0.074 A 
ATOM     43  C   UNL A   1      39.984  27.857  29.111  1.00  0.00     0.049 A 
ATOM     44  N   UNL A   1      41.275  29.275  31.427  1.00  0.00    -0.248 NA
ATOM     45  C   UNL A   1      39.497  30.785  31.446  1.00  0.00     0.031 C 
ATOM     46  C   UNL A   1      39.441  27.176  27.934  1.00  0.00     0.029 A 
ATOM     47  N   UNL A   1      41.151  27.183  29.375  1.00  0.00    -0.354 N 
ATOM     48  C   UNL A   1      41.513  30.253  32.387  1.00  0.00     0.074 A 
ATOM     49  C   UNL A   1      40.410  31.186  32.321  1.00  0.00     0.031 C 
ATOM     50  C   UNL A   1      40.275  26.187  27.573  1.00  0.00     0.029 A 
ATOM     51  C   UNL A   1      41.421  26.174  28.478  1.00  0.00     0.049 A 
ATOM     52  H   UNL A   1      41.739  27.400  30.133  1.00  0.00     0.167 HD
ATOM     53  C   UNL A   1      42.541  30.350  33.262  1.00  0.00     0.034 A 
ATOM     54  C   UNL A   1      42.474  25.338  28.392  1.00  0.00     0.034 A 
ATOM     55  C   UNL A   1      43.601  29.385  33.370  1.00  0.00     0.049 A 
ATOM     56  C   UNL A   1      43.559  25.419  29.433  1.00  0.00     0.074 A 
ATOM     57  C   UNL A   1      44.627  29.335  34.298  1.00  0.00     0.029 A 
ATOM     58  N   UNL A   1      43.774  28.301  32.524  1.00  0.00    -0.354 N 
ATOM     59  N   UNL A   1      43.668  26.242  30.447  1.00  0.00    -0.248 NA
ATOM     60  C   UNL A   1      44.641  24.428  29.346  1.00  0.00     0.031 C 
ATOM     61  C   UNL A   1      45.429  28.228  34.003  1.00  0.00     0.029 A 
ATOM     62  C   UNL A   1      44.891  27.579  32.904  1.00  0.00     0.049 A 
ATOM     63  H   UNL A   1      43.188  28.078  31.765  1.00  0.00     0.167 HD
ATOM     64  C   UNL A   1      44.807  25.845  31.139  1.00  0.00     0.074 A 
ATOM     65  C   UNL A   1      45.339  24.693  30.442  1.00  0.00     0.031 C 
ATOM     66  C   UNL A   1      45.372  26.395  32.242  1.00  0.00     0.034 A 
BRANCH  53  67
ATOM     67  C   UNL A   1      42.546  31.508  34.225  1.00  0.00     0.023 A 
ATOM     68  C   UNL A   1      43.224  32.694  33.881  1.00  0.00     0.012 A 
ATOM     69  C   UNL A   1      41.805  31.456  35.422  1.00  0.00     0.148 A 
ATOM     70  C   UNL A   1      43.185  33.804  34.723  1.00  0.00     0.002 A 
ATOM     71  C   UNL A   1      41.735  32.581  36.236  1.00  0.00     0.091 A 
ATOM     72  F   UNL A   1      41.184  30.311  35.740  1.00  0.00    -0.205 F 
ATOM     73  C   UNL A   1      42.431  33.751  35.893  1.00  0.00     0.022 A 
BRANCH  71  74
ATOM     74  S   UNL A   1      40.730  32.640  37.724  1.00  0.00     0.127 S 
ATOM     75  O   UNL A   1      41.545  31.867  38.662  1.00  0.00    -0.237 OA
ATOM     76  O   UNL A   1      40.683  34.078  38.003  1.00  0.00    -0.237 OA
ATOM     77  O   UNL A   1      39.453  32.046  37.373  1.00  0.00    -0.744 OA
ENDBRANCH  71  74
ENDBRANCH  53  67
BRANCH  54  78
ATOM     78  C   UNL A   1      42.522  24.305  27.320  1.00  0.00     0.023 A 
ATOM     79  C   UNL A   1      43.201  24.583  26.118  1.00  0.00     0.012 A 
ATOM     80  C   UNL A   1      41.912  23.047  27.487  1.00  0.00     0.148 A 
ATOM     81  C   UNL A   1      43.240  23.643  25.087  1.00  0.00     0.002 A 
ATOM     82  C   UNL A   1      42.003  22.093  26.479  1.00  0.00     0.091 A 
ATOM     83  F   UNL A   1      41.255  22.803  28.630  1.00  0.00    -0.205 F 
ATOM     84  C   UNL A   1      42.649  22.396  25.270  1.00  0.00     0.022 A 
BRANCH  82  85
ATOM     85  S   UNL A   1      41.387  20.420  26.696  1.00  0.00     0.127 S 
ATOM     86  O   UNL A   1      39.962  20.650  26.914  1.00  0.00    -0.237 OA
ATOM     87  O   UNL A   1      41.723  19.799  25.413  1.00  0.00    -0.237 OA
ATOM     88  O   UNL A   1      42.131  19.881  27.828  1.00  0.00    -0.744 OA
ENDBRANCH  82  85
ENDBRANCH  54  78
BRANCH  66  89
ATOM     89  C   UNL A   1      46.607  25.739  32.797  1.00  0.00     0.023 A 
ATOM     90  C   UNL A   1      47.873  26.301  32.540  1.00  0.00     0.012 A 
ATOM     91  C   UNL A   1      46.507  24.614  33.638  1.00  0.00     0.148 A 
ATOM     92  C   UNL A   1      49.024  25.732  33.084  1.00  0.00     0.002 A 
ATOM     93  C   UNL A   1      47.654  24.081  34.216  1.00  0.00     0.091 A 
ATOM     94  F   UNL A   1      45.296  24.081  33.855  1.00  0.00    -0.205 F 
ATOM     95  C   UNL A   1      48.914  24.632  33.931  1.00  0.00     0.022 A 
BRANCH  93  96
ATOM     96  S   UNL A   1      47.589  22.726  35.394  1.00  0.00     0.127 S 
ATOM     97  O   UNL A   1      48.981  22.644  35.831  1.00  0.00    -0.237 OA
ATOM     98  O   UNL A   1      46.661  23.234  36.406  1.00  0.00    -0.237 OA
ATOM     99  O   UNL A   1      47.094  21.576  34.649  1.00  0.00    -0.744 OA
ENDBRANCH  93  96
ENDBRANCH  66  89
ENDBRANCH  40  41
ENDBRANCH  32  35
ENDBRANCH  30  31
ENDBRANCH  29  30
ENDBRANCH  28  29
ENDBRANCH   1  28
TORSDOF 20
ENDMDL
MODEL 2
REMARK VINA RESULT:     -10.8      2.207      8.287
REMARK SMILES C[C@H]1C[N@H+]2CCCC[C@@H]2CN1C(=O)[C@H]([NH3+])CC(=O)NCCCCCCNC(=O)c1ccc(-c2c3nc(c(-c4cccc(S(=O)(=O)[O-])c4F)c4ccc([nH]4)c(-c4cccc(S(=O)(=O)[O-])c4F)c4nc(c(-c5cccc(S(=O)(=O)[O-])c5F)c5ccc2[nH]5)C=C4)C=C3)cc1
REMARK SMILES IDX 22 1 21 2 20 3 19 4 17 5 18 6 16 8 14 9 12 10 13 11 11 12
REMARK SMILES IDX 1 13 2 14 3 15 4 16 10 17 5 18 9 19 6 21 8 22 7 23 15 24
REMARK SMILES IDX 23 28 24 29 25 30 26 31 27 32 28 34 29 35 30 36 91 37 31 38
REMARK SMILES IDX 90 39 32 40 33 41 34 42 84 43 35 44 89 45 83 46 85 47 36 48
REMARK SMILES IDX 88 49 82 50 81 51 37 53 69 54 49 55 68 56 50 57 53 58 67 59
REMARK SMILES IDX 86 60 51 61 52 62 66 64 87 65 54 66 38 67 39 68 47 69 40 70
REMARK SMILES IDX 42 71 48 72 41 73 43 74 44 75 45 76 46 77 70 78 71 79 79 80
REMARK SMILES IDX 72 81 74 82 80 83 73 84 75 85 76 86 77 87 78 88 55 89 56 90
REMARK SMILES IDX 64 91 57 92 59 93 65 94 58 95 60 96 61 97 62 98 63 99
REMARK H PARENT 19 7 4 20 15 25 15 26 15 27 26 33 85 52 53 63
REMARK Flexibility Score: inf
ROOT
ATOM      1  C   UNL A   1      33.883  26.840  26.066  1.00  0.00     0.002 C 
ENDROOT
BRANCH   1   2
ATOM      2  C   UNL A   1      34.171  25.680  25.110  1.00  0.00     0.021 C 
BRANCH   2   3
ATOM      3  C   UNL A   1      34.729  24.435  25.799  1.00  0.00     0.116 C 
BRANCH   3   4
ATOM      4  N   UNL A   1      35.683  23.754  24.941  1.00  0.00    -0.356 N 
ATOM      5  C   UNL A   1      35.960  22.420  24.855  1.00  0.00     0.226 C 
ATOM      6  O   UNL A   1      36.905  22.056  24.156  1.00  0.00    -0.275 OA
ATOM      7  H   UNL A   1      36.201  24.333  24.338  1.00  0.00     0.163 HD
BRANCH   5   8
ATOM      8  C   UNL A   1      35.101  21.425  25.598  1.00  0.00     0.175 C 
BRANCH   8   9
ATOM      9  C   UNL A   1      34.441  20.394  24.681  1.00  0.00     0.280 C 
BRANCH   9  10
ATOM     10  C   UNL A   1      32.911  20.645  24.593  1.00  0.00     0.281 C 
ATOM     11  O   UNL A   1      32.150  19.713  24.875  1.00  0.00    -0.268 OA
BRANCH  10  12
ATOM     12  N   UNL A   1      32.432  21.907  24.225  1.00  0.00    -0.323 N 
ATOM     13  C   UNL A   1      31.616  22.586  26.496  1.00  0.00     0.037 C 
ATOM     14  C   UNL A   1      31.312  22.506  24.986  1.00  0.00     0.137 C 
ATOM     15  C   UNL A   1      30.913  23.963  24.556  1.00  0.00     0.287 C 
ATOM     16  N   UNL A   1      31.206  24.412  23.184  1.00  0.00    -0.329 N 
ATOM     17  C   UNL A   1      32.610  22.415  22.864  1.00  0.00     0.185 C 
ATOM     18  C   UNL A   1      31.151  25.888  23.122  1.00  0.00     0.262 C 
ATOM     19  C   UNL A   1      32.535  23.941  22.762  1.00  0.00     0.203 C 
ATOM     20  H   UNL A   1      30.508  24.019  22.552  1.00  0.00     0.348 HD
ATOM     21  C   UNL A   1      31.432  26.419  21.717  1.00  0.00     0.062 C 
ATOM     22  C   UNL A   1      32.809  24.368  21.310  1.00  0.00     0.067 C 
ATOM     23  C   UNL A   1      32.746  25.882  21.162  1.00  0.00     0.012 C 
ENDBRANCH  10  12
ENDBRANCH   9  10
BRANCH   9  24
ATOM     24  N   UNL A   1      34.717  18.971  24.995  1.00  0.00    -0.347 N 
ATOM     25  H   UNL A   1      35.529  18.909  25.609  1.00  0.00     0.345 HD
ATOM     26  H   UNL A   1      34.902  18.462  24.131  1.00  0.00     0.345 HD
ATOM     27  H   UNL A   1      33.906  18.564  25.461  1.00  0.00     0.345 HD
ENDBRANCH   9  24
ENDBRANCH   8   9
ENDBRANCH   5   8
ENDBRANCH   3   4
ENDBRANCH   2   3
ENDBRANCH   1   2
BRANCH   1  28
ATOM     28  C   UNL A   1      32.401  27.052  26.396  1.00  0.00     0.002 C 
BRANCH  28  29
ATOM     29  C   UNL A   1      31.794  28.361  25.881  1.00  0.00     0.021 C 
BRANCH  29  30
ATOM     30  C   UNL A   1      32.808  29.433  25.489  1.00  0.00     0.116 C 
BRANCH  30  31
ATOM     31  N   UNL A   1      32.381  30.763  25.897  1.00  0.00    -0.352 N 
ATOM     32  C   UNL A   1      32.862  31.558  26.904  1.00  0.00     0.251 C 
ATOM     33  H   UNL A   1      31.639  31.145  25.375  1.00  0.00     0.163 HD
ATOM     34  O   UNL A   1      32.236  32.564  27.239  1.00  0.00    -0.269 OA
BRANCH  32  35
ATOM     35  C   UNL A   1      34.122  31.208  27.591  1.00  0.00     0.039 A 
ATOM     36  C   UNL A   1      35.080  32.204  27.798  1.00  0.00     0.014 A 
ATOM     37  C   UNL A   1      34.371  29.896  28.005  1.00  0.00     0.014 A 
ATOM     38  C   UNL A   1      36.272  31.894  28.457  1.00  0.00     0.010 A 
ATOM     39  C   UNL A   1      35.532  29.602  28.717  1.00  0.00     0.010 A 
ATOM     40  C   UNL A   1      36.500  30.594  28.940  1.00  0.00    -0.014 A 
BRANCH  40  41
ATOM     41  C   UNL A   1      37.747  30.254  29.671  1.00  0.00     0.031 A 
ATOM     42  C   UNL A   1      38.737  29.288  29.075  1.00  0.00     0.074 A 
ATOM     43  C   UNL A   1      37.947  30.746  30.911  1.00  0.00     0.049 A 
ATOM     44  N   UNL A   1      39.850  28.832  29.586  1.00  0.00    -0.248 NA
ATOM     45  C   UNL A   1      38.421  28.742  27.744  1.00  0.00     0.031 C 
ATOM     46  C   UNL A   1      37.019  31.618  31.635  1.00  0.00     0.029 A 
ATOM     47  N   UNL A   1      38.981  30.555  31.794  1.00  0.00    -0.354 N 
ATOM     48  C   UNL A   1      40.345  27.915  28.664  1.00  0.00     0.074 A 
ATOM     49  C   UNL A   1      39.399  27.863  27.572  1.00  0.00     0.031 C 
ATOM     50  C   UNL A   1      37.522  31.880  32.852  1.00  0.00     0.029 A 
ATOM     51  C   UNL A   1      38.795  31.183  33.004  1.00  0.00     0.049 A 
ATOM     52  H   UNL A   1      39.779  30.021  31.582  1.00  0.00     0.167 HD
ATOM     53  C   UNL A   1      41.496  27.204  28.710  1.00  0.00     0.034 A 
ATOM     54  C   UNL A   1      39.560  31.190  34.114  1.00  0.00     0.034 A 
ATOM     55  C   UNL A   1      42.467  27.308  29.765  1.00  0.00     0.049 A 
ATOM     56  C   UNL A   1      40.875  30.457  34.099  1.00  0.00     0.074 A 
ATOM     57  C   UNL A   1      43.714  26.714  29.847  1.00  0.00     0.029 A 
ATOM     58  N   UNL A   1      42.302  28.055  30.921  1.00  0.00    -0.354 N 
ATOM     59  N   UNL A   1      41.409  29.741  33.139  1.00  0.00    -0.248 NA
ATOM     60  C   UNL A   1      41.714  30.568  35.301  1.00  0.00     0.031 C 
ATOM     61  C   UNL A   1      44.297  27.089  31.061  1.00  0.00     0.029 A 
ATOM     62  C   UNL A   1      43.421  27.933  31.724  1.00  0.00     0.049 A 
ATOM     63  H   UNL A   1      41.506  28.592  31.138  1.00  0.00     0.167 HD
ATOM     64  C   UNL A   1      42.659  29.350  33.607  1.00  0.00     0.074 A 
ATOM     65  C   UNL A   1      42.813  29.928  34.925  1.00  0.00     0.031 C 
ATOM     66  C   UNL A   1      43.589  28.568  33.005  1.00  0.00     0.034 A 
BRANCH  53  67
ATOM     67  C   UNL A   1      41.811  26.290  27.555  1.00  0.00     0.023 A 
ATOM     68  C   UNL A   1      42.514  26.794  26.443  1.00  0.00     0.012 A 
ATOM     69  C   UNL A   1      41.493  24.919  27.611  1.00  0.00     0.148 A 
ATOM     70  C   UNL A   1      42.879  25.952  25.393  1.00  0.00     0.002 A 
ATOM     71  C   UNL A   1      41.896  24.078  26.579  1.00  0.00     0.091 A 
ATOM     72  F   UNL A   1      40.805  24.464  28.667  1.00  0.00    -0.205 F 
ATOM     73  C   UNL A   1      42.581  24.594  25.467  1.00  0.00     0.022 A 
BRANCH  71  74
ATOM     74  S   UNL A   1      41.629  22.302  26.616  1.00  0.00     0.127 S 
ATOM     75  O   UNL A   1      42.291  21.879  25.381  1.00  0.00    -0.237 OA
ATOM     76  O   UNL A   1      42.328  21.913  27.843  1.00  0.00    -0.237 OA
ATOM     77  O   UNL A   1      40.190  22.110  26.648  1.00  0.00    -0.744 OA
ENDBRANCH  71  74
ENDBRANCH  53  67
BRANCH  54  78
ATOM     78  C   UNL A   1      39.138  31.974  35.308  1.00  0.00     0.023 A 
ATOM     79  C   UNL A   1      38.244  31.401  36.234  1.00  0.00     0.012 A 
ATOM     80  C   UNL A   1      39.624  33.274  35.541  1.00  0.00     0.148 A 
ATOM     81  C   UNL A   1      37.813  32.122  37.348  1.00  0.00     0.002 A 
ATOM     82  C   UNL A   1      39.234  33.967  36.682  1.00  0.00     0.091 A 
ATOM     83  F   UNL A   1      40.461  33.813  34.641  1.00  0.00    -0.205 F 
ATOM     84  C   UNL A   1      38.314  33.400  37.577  1.00  0.00     0.022 A 
BRANCH  82  85
ATOM     85  S   UNL A   1      39.942  35.559  37.115  1.00  0.00     0.127 S 
ATOM     86  O   UNL A   1      39.241  35.873  38.356  1.00  0.00    -0.237 OA
ATOM     87  O   UNL A   1      41.361  35.234  37.273  1.00  0.00    -0.237 OA
ATOM     88  O   UNL A   1      39.656  36.429  35.981  1.00  0.00    -0.744 OA
ENDBRANCH  82  85
ENDBRANCH  54  78
BRANCH  66  89
ATOM     89  C   UNL A   1      44.878  28.320  33.741  1.00  0.00     0.023 A 
ATOM     90  C   UNL A   1      45.948  29.226  33.603  1.00  0.00     0.012 A 
ATOM     91  C   UNL A   1      45.001  27.234  34.629  1.00  0.00     0.148 A 
ATOM     92  C   UNL A   1      47.133  29.036  34.313  1.00  0.00     0.002 A 
ATOM     93  C   UNL A   1      46.167  27.077  35.370  1.00  0.00     0.091 A 
ATOM     94  F   UNL A   1      43.980  26.370  34.732  1.00  0.00    -0.205 F 
ATOM     95  C   UNL A   1      47.238  27.970  35.205  1.00  0.00     0.022 A 
BRANCH  93  96
ATOM     96  S   UNL A   1      46.347  25.789  36.609  1.00  0.00     0.127 S 
ATOM     97  O   UNL A   1      47.681  26.067  37.136  1.00  0.00    -0.237 OA
ATOM     98  O   UNL A   1      45.252  26.089  37.533  1.00  0.00    -0.237 OA
ATOM     99  O   UNL A   1      46.201  24.528  35.895  1.00  0.00    -0.744 OA
ENDBRANCH  93  96
ENDBRANCH  66  89
ENDBRANCH  40  41
ENDBRANCH  32  35
ENDBRANCH  30  31
ENDBRANCH  29  30
ENDBRANCH  28  29
ENDBRANCH   1  28
TORSDOF 20
ENDMDL
MODEL 3
REMARK VINA RESULT:     -10.8      2.186      3.028
REMARK SMILES C[C@H]1C[N@H+]2CCCC[C@@H]2CN1C(=O)[C@H]([NH3+])CC(=O)NCCCCCCNC(=O)c1ccc(-c2c3nc(c(-c4cccc(S(=O)(=O)[O-])c4F)c4ccc([nH]4)c(-c4cccc(S(=O)(=O)[O-])c4F)c4nc(c(-c5cccc(S(=O)(=O)[O-])c5F)c5ccc2[nH]5)C=C4)C=C3)cc1
REMARK SMILES IDX 22 1 21 2 20 3 19 4 17 5 18 6 16 8 14 9 12 10 13 11 11 12
REMARK SMILES IDX 1 13 2 14 3 15 4 16 10 17 5 18 9 19 6 21 8 22 7 23 15 24
REMARK SMILES IDX 23 28 24 29 25 30 26 31 27 32 28 34 29 35 30 36 91 37 31 38
REMARK SMILES IDX 90 39 32 40 33 41 34 42 84 43 35 44 89 45 83 46 85 47 36 48
REMARK SMILES IDX 88 49 82 50 81 51 37 53 69 54 49 55 68 56 50 57 53 58 67 59
REMARK SMILES IDX 86 60 51 61 52 62 66 64 87 65 54 66 38 67 39 68 47 69 40 70
REMARK SMILES IDX 42 71 48 72 41 73 43 74 44 75 45 76 46 77 70 78 71 79 79 80
REMARK SMILES IDX 72 81 74 82 80 83 73 84 75 85 76 86 77 87 78 88 55 89 56 90
REMARK SMILES IDX 64 91 57 92 59 93 65 94 58 95 60 96 61 97 62 98 63 99
REMARK H PARENT 19 7 4 20 15 25 15 26 15 27 26 33 85 52 53 63
REMARK Flexibility Score: inf
ROOT
ATOM      1  C   UNL A   1      30.551  27.482  23.469  1.00  0.00     0.002 C 
ENDROOT
BRANCH   1   2
ATOM      2  C   UNL A   1      29.747  26.666  24.484  1.00  0.00     0.021 C 
BRANCH   2   3
ATOM      3  C   UNL A   1      30.367  25.309  24.816  1.00  0.00     0.116 C 
BRANCH   3   4
ATOM      4  N   UNL A   1      29.872  24.812  26.088  1.00  0.00    -0.356 N 
ATOM      5  C   UNL A   1      29.987  23.563  26.625  1.00  0.00     0.226 C 
ATOM      6  O   UNL A   1      29.376  23.306  27.663  1.00  0.00    -0.275 OA
ATOM      7  H   UNL A   1      29.385  25.466  26.639  1.00  0.00     0.163 HD
BRANCH   5   8
ATOM      8  C   UNL A   1      30.866  22.535  25.953  1.00  0.00     0.175 C 
BRANCH   8   9
ATOM      9  C   UNL A   1      32.354  22.729  26.247  1.00  0.00     0.280 C 
BRANCH   9  10
ATOM     10  C   UNL A   1      33.211  22.265  25.038  1.00  0.00     0.281 C 
ATOM     11  O   UNL A   1      33.456  23.087  24.148  1.00  0.00    -0.268 OA
BRANCH  10  12
ATOM     12  N   UNL A   1      33.698  20.955  24.990  1.00  0.00    -0.323 N 
ATOM     13  C   UNL A   1      36.046  21.489  25.688  1.00  0.00     0.037 C 
ATOM     14  C   UNL A   1      35.134  20.726  24.705  1.00  0.00     0.137 C 
ATOM     15  C   UNL A   1      35.599  19.228  24.769  1.00  0.00     0.287 C 
ATOM     16  N   UNL A   1      34.613  18.159  24.532  1.00  0.00    -0.329 N 
ATOM     17  C   UNL A   1      32.812  19.829  24.691  1.00  0.00     0.185 C 
ATOM     18  C   UNL A   1      35.138  16.876  25.048  1.00  0.00     0.262 C 
ATOM     19  C   UNL A   1      33.337  18.481  25.192  1.00  0.00     0.203 C 
ATOM     20  H   UNL A   1      34.448  18.080  23.529  1.00  0.00     0.348 HD
ATOM     21  C   UNL A   1      34.166  15.719  24.819  1.00  0.00     0.062 C 
ATOM     22  C   UNL A   1      32.298  17.387  24.893  1.00  0.00     0.067 C 
ATOM     23  C   UNL A   1      32.781  16.026  25.378  1.00  0.00     0.012 C 
ENDBRANCH  10  12
ENDBRANCH   9  10
BRANCH   9  24
ATOM     24  N   UNL A   1      32.856  22.120  27.503  1.00  0.00    -0.347 N 
ATOM     25  H   UNL A   1      32.379  22.541  28.300  1.00  0.00     0.345 HD
ATOM     26  H   UNL A   1      33.860  22.282  27.582  1.00  0.00     0.345 HD
ATOM     27  H   UNL A   1      32.675  21.116  27.489  1.00  0.00     0.345 HD
ENDBRANCH   9  24
ENDBRANCH   8   9
ENDBRANCH   5   8
ENDBRANCH   3   4
ENDBRANCH   2   3
ENDBRANCH   1   2
BRANCH   1  28
ATOM     28  C   UNL A   1      31.118  28.801  24.005  1.00  0.00     0.002 C 
BRANCH  28  29
ATOM     29  C   UNL A   1      31.827  28.708  25.360  1.00  0.00     0.021 C 
BRANCH  29  30
ATOM     30  C   UNL A   1      33.056  29.603  25.510  1.00  0.00     0.116 C 
BRANCH  30  31
ATOM     31  N   UNL A   1      32.703  30.942  25.957  1.00  0.00    -0.352 N 
ATOM     32  C   UNL A   1      33.193  31.661  27.015  1.00  0.00     0.251 C 
ATOM     33  H   UNL A   1      32.012  31.395  25.422  1.00  0.00     0.163 HD
ATOM     34  O   UNL A   1      32.624  32.694  27.367  1.00  0.00    -0.269 OA
BRANCH  32  35
ATOM     35  C   UNL A   1      34.396  31.197  27.737  1.00  0.00     0.039 A 
ATOM     36  C   UNL A   1      35.426  32.106  27.992  1.00  0.00     0.014 A 
ATOM     37  C   UNL A   1      34.521  29.862  28.135  1.00  0.00     0.014 A 
ATOM     38  C   UNL A   1      36.565  31.687  28.684  1.00  0.00     0.010 A 
ATOM     39  C   UNL A   1      35.629  29.462  28.880  1.00  0.00     0.010 A 
ATOM     40  C   UNL A   1      36.668  30.366  29.151  1.00  0.00    -0.014 A 
BRANCH  40  41
ATOM     41  C   UNL A   1      37.856  29.912  29.917  1.00  0.00     0.031 A 
ATOM     42  C   UNL A   1      38.111  30.440  31.304  1.00  0.00     0.074 A 
ATOM     43  C   UNL A   1      38.753  29.093  29.332  1.00  0.00     0.049 A 
ATOM     44  N   UNL A   1      39.118  30.201  32.103  1.00  0.00    -0.248 NA
ATOM     45  C   UNL A   1      37.121  31.381  31.855  1.00  0.00     0.031 C 
ATOM     46  C   UNL A   1      38.666  28.585  27.961  1.00  0.00     0.029 A 
ATOM     47  N   UNL A   1      39.930  28.569  29.805  1.00  0.00    -0.354 N 
ATOM     48  C   UNL A   1      38.908  30.991  33.228  1.00  0.00     0.074 A 
ATOM     49  C   UNL A   1      37.689  31.735  33.000  1.00  0.00     0.031 C 
ATOM     50  C   UNL A   1      39.746  27.831  27.701  1.00  0.00     0.029 A 
ATOM     51  C   UNL A   1      40.612  27.816  28.877  1.00  0.00     0.049 A 
ATOM     52  H   UNL A   1      40.257  28.719  30.721  1.00  0.00     0.167 HD
ATOM     53  C   UNL A   1      39.648  31.070  34.360  1.00  0.00     0.034 A 
ATOM     54  C   UNL A   1      41.801  27.188  28.962  1.00  0.00     0.034 A 
ATOM     55  C   UNL A   1      40.822  30.279  34.611  1.00  0.00     0.049 A 
ATOM     56  C   UNL A   1      42.557  27.226  30.263  1.00  0.00     0.074 A 
ATOM     57  C   UNL A   1      41.576  30.204  35.769  1.00  0.00     0.029 A 
ATOM     58  N   UNL A   1      41.414  29.427  33.692  1.00  0.00    -0.354 N 
ATOM     59  N   UNL A   1      42.243  27.836  31.381  1.00  0.00    -0.248 NA
ATOM     60  C   UNL A   1      43.805  26.453  30.332  1.00  0.00     0.031 C 
ATOM     61  C   UNL A   1      42.634  29.318  35.545  1.00  0.00     0.029 A 
ATOM     62  C   UNL A   1      42.526  28.827  34.255  1.00  0.00     0.049 A 
ATOM     63  H   UNL A   1      41.091  29.273  32.775  1.00  0.00     0.167 HD
ATOM     64  C   UNL A   1      43.234  27.490  32.294  1.00  0.00     0.074 A 
ATOM     65  C   UNL A   1      44.144  26.598  31.607  1.00  0.00     0.031 C 
ATOM     66  C   UNL A   1      43.386  27.889  33.580  1.00  0.00     0.034 A 
BRANCH  53  67
ATOM     67  C   UNL A   1      39.179  31.997  35.450  1.00  0.00     0.023 A 
ATOM     68  C   UNL A   1      38.283  31.522  36.428  1.00  0.00     0.012 A 
ATOM     69  C   UNL A   1      39.695  33.303  35.559  1.00  0.00     0.148 A 
ATOM     70  C   UNL A   1      37.889  32.339  37.486  1.00  0.00     0.002 A 
ATOM     71  C   UNL A   1      39.331  34.098  36.640  1.00  0.00     0.091 A 
ATOM     72  F   UNL A   1      40.530  33.743  34.607  1.00  0.00    -0.205 F 
ATOM     73  C   UNL A   1      38.422  33.620  37.599  1.00  0.00     0.022 A 
BRANCH  71  74
ATOM     74  S   UNL A   1      40.020  35.733  36.918  1.00  0.00     0.127 S 
ATOM     75  O   UNL A   1      41.446  35.434  37.049  1.00  0.00    -0.237 OA
ATOM     76  O   UNL A   1      39.657  36.431  35.682  1.00  0.00    -0.237 OA
ATOM     77  O   UNL A   1      39.378  36.244  38.116  1.00  0.00    -0.744 OA
ENDBRANCH  71  74
ENDBRANCH  53  67
BRANCH  54  78
ATOM     78  C   UNL A   1      42.321  26.411  27.801  1.00  0.00     0.023 A 
ATOM     79  C   UNL A   1      43.208  27.025  26.896  1.00  0.00     0.012 A 
ATOM     80  C   UNL A   1      41.954  25.068  27.596  1.00  0.00     0.148 A 
ATOM     81  C   UNL A   1      43.689  26.329  25.787  1.00  0.00     0.002 A 
ATOM     82  C   UNL A   1      42.481  24.361  26.521  1.00  0.00     0.091 A 
ATOM     83  F   UNL A   1      41.095  24.501  28.458  1.00  0.00    -0.205 F 
ATOM     84  C   UNL A   1      43.334  24.995  25.604  1.00  0.00     0.022 A 
BRANCH  82  85
ATOM     85  S   UNL A   1      42.180  22.605  26.298  1.00  0.00     0.127 S 
ATOM     86  O   UNL A   1      42.801  22.355  25.001  1.00  0.00    -0.237 OA
ATOM     87  O   UNL A   1      42.883  22.023  27.442  1.00  0.00    -0.237 OA
ATOM     88  O   UNL A   1      40.731  22.454  26.353  1.00  0.00    -0.744 OA
ENDBRANCH  82  85
ENDBRANCH  54  78
BRANCH  66  89
ATOM     89  C   UNL A   1      44.553  27.336  34.352  1.00  0.00     0.023 A 
ATOM     90  C   UNL A   1      45.810  27.967  34.267  1.00  0.00     0.012 A 
ATOM     91  C   UNL A   1      44.386  26.240  35.221  1.00  0.00     0.148 A 
ATOM     92  C   UNL A   1      46.891  27.494  35.011  1.00  0.00     0.002 A 
ATOM     93  C   UNL A   1      45.455  25.804  35.995  1.00  0.00     0.091 A 
ATOM     94  F   UNL A   1      43.188  25.639  35.272  1.00  0.00    -0.205 F 
ATOM     95  C   UNL A   1      46.711  26.422  35.883  1.00  0.00     0.022 A 
BRANCH  93  96
ATOM     96  S   UNL A   1      45.283  24.494  37.212  1.00  0.00     0.127 S 
ATOM     97  O   UNL A   1      46.585  24.529  37.874  1.00  0.00    -0.237 OA
ATOM     98  O   UNL A   1      44.169  24.973  38.032  1.00  0.00    -0.237 OA
ATOM     99  O   UNL A   1      44.994  23.284  36.455  1.00  0.00    -0.744 OA
ENDBRANCH  93  96
ENDBRANCH  66  89
ENDBRANCH  40  41
ENDBRANCH  32  35
ENDBRANCH  30  31
ENDBRANCH  29  30
ENDBRANCH  28  29
ENDBRANCH   1  28
TORSDOF 20
ENDMDL
