MODEL 1
REMARK VINA RESULT:     -10.2      0.000      0.000
REMARK SMILES O=C(Cc1ccc(CBr)cc1)NCCCCCCNC(=O)c1ccc(-c2c3nc(c(-c4cccc(S(=O)(=O)[O-])c4F)c4ccc([nH]4)c(-c4cccc(S(=O)(=O)[O-])c4F)c4nc(c(-c5cccc(S(=O)(=O)[O-])c5F)c5ccc2[nH]5)C=C4)C=C3)cc1
REMARK SMILES IDX 16 1 15 2 14 3 13 4 12 5 1 6 2 7 3 9 4 10 5 11 11 12 6 13
REMARK SMILES IDX 10 14 7 15 8 16 9 17 17 18 18 19 19 20 20 21 21 23 22 24
REMARK SMILES IDX 23 25 84 26 24 27 83 28 25 29 26 30 27 31 77 32 28 33 82 34
REMARK SMILES IDX 76 35 78 36 29 37 81 38 75 39 74 40 30 42 62 43 42 44 61 45
REMARK SMILES IDX 43 46 46 47 60 48 79 49 44 50 45 51 59 53 80 54 47 55 31 56
REMARK SMILES IDX 32 57 40 58 33 59 35 60 41 61 34 62 36 63 37 64 38 65 39 66
REMARK SMILES IDX 63 67 64 68 72 69 65 70 67 71 73 72 66 73 68 74 69 75 70 76
REMARK SMILES IDX 71 77 48 78 49 79 57 80 50 81 52 82 58 83 51 84 53 85 54 86
REMARK SMILES IDX 55 87 56 88
REMARK H PARENT 12 8 19 22 78 41 46 52
REMARK Flexibility Score: inf
ROOT
ATOM      1  C   UNL A   1      34.608  23.596  24.439  1.00  0.00     0.002 C 
ENDROOT
BRANCH   1   2
ATOM      2  C   UNL A   1      34.092  22.167  24.238  1.00  0.00     0.002 C 
BRANCH   2   3
ATOM      3  C   UNL A   1      32.566  21.997  24.313  1.00  0.00     0.021 C 
BRANCH   3   4
ATOM      4  C   UNL A   1      31.793  22.584  23.130  1.00  0.00     0.116 C 
BRANCH   4   5
ATOM      5  N   UNL A   1      30.874  23.610  23.574  1.00  0.00    -0.356 N 
ATOM      6  O   UNL A   1      31.691  25.351  22.315  1.00  0.00    -0.275 OA
ATOM      7  C   UNL A   1      30.901  24.918  23.148  1.00  0.00     0.224 C 
ATOM      8  H   UNL A   1      30.181  23.354  24.224  1.00  0.00     0.163 HD
BRANCH   7   9
ATOM      9  C   UNL A   1      29.914  25.822  23.874  1.00  0.00     0.135 C 
BRANCH   9  10
ATOM     10  C   UNL A   1      30.566  26.876  24.739  1.00  0.00    -0.039 A 
ATOM     11  C   UNL A   1      30.782  28.173  24.255  1.00  0.00     0.004 A 
ATOM     12  C   UNL A   1      30.997  26.559  26.032  1.00  0.00     0.004 A 
ATOM     13  C   UNL A   1      31.450  29.120  25.032  1.00  0.00     0.005 A 
ATOM     14  C   UNL A   1      31.646  27.514  26.819  1.00  0.00     0.005 A 
ATOM     15  C   UNL A   1      31.891  28.801  26.323  1.00  0.00    -0.037 A 
BRANCH  15  16
ATOM     16  C   UNL A   1      32.618  29.815  27.153  1.00  0.00     0.116 C 
ATOM     17  Br  UNL A   1      34.519  29.413  27.176  1.00  0.00    -0.088 Br
ENDBRANCH  15  16
ENDBRANCH   9  10
ENDBRANCH   7   9
ENDBRANCH   4   5
ENDBRANCH   3   4
ENDBRANCH   2   3
ENDBRANCH   1   2
BRANCH   1  18
ATOM     18  C   UNL A   1      36.121  23.721  24.618  1.00  0.00     0.021 C 
BRANCH  18  19
ATOM     19  C   UNL A   1      36.622  23.516  26.044  1.00  0.00     0.116 C 
BRANCH  19  20
ATOM     20  N   UNL A   1      37.681  22.522  26.126  1.00  0.00    -0.352 N 
ATOM     21  C   UNL A   1      39.009  22.697  26.429  1.00  0.00     0.251 C 
ATOM     22  H   UNL A   1      37.407  21.595  25.939  1.00  0.00     0.163 HD
ATOM     23  O   UNL A   1      39.795  21.759  26.291  1.00  0.00    -0.269 OA
BRANCH  21  24
ATOM     24  C   UNL A   1      39.498  24.010  26.903  1.00  0.00     0.039 A 
ATOM     25  C   UNL A   1      39.992  24.925  25.970  1.00  0.00     0.014 A 
ATOM     26  C   UNL A   1      39.481  24.339  28.262  1.00  0.00     0.014 A 
ATOM     27  C   UNL A   1      40.425  26.184  26.394  1.00  0.00     0.010 A 
ATOM     28  C   UNL A   1      39.837  25.622  28.671  1.00  0.00     0.010 A 
ATOM     29  C   UNL A   1      40.329  26.554  27.746  1.00  0.00    -0.014 A 
BRANCH  29  30
ATOM     30  C   UNL A   1      40.759  27.902  28.208  1.00  0.00     0.031 A 
ATOM     31  C   UNL A   1      42.224  28.254  28.254  1.00  0.00     0.074 A 
ATOM     32  C   UNL A   1      39.840  28.788  28.641  1.00  0.00     0.049 A 
ATOM     33  N   UNL A   1      42.795  29.354  28.673  1.00  0.00    -0.248 NA
ATOM     34  C   UNL A   1      43.174  27.226  27.796  1.00  0.00     0.031 C 
ATOM     35  C   UNL A   1      38.397  28.544  28.720  1.00  0.00     0.029 A 
ATOM     36  N   UNL A   1      39.985  30.066  29.123  1.00  0.00    -0.354 N 
ATOM     37  C   UNL A   1      44.164  29.145  28.546  1.00  0.00     0.074 A 
ATOM     38  C   UNL A   1      44.341  27.793  28.062  1.00  0.00     0.031 C 
ATOM     39  C   UNL A   1      37.792  29.635  29.217  1.00  0.00     0.029 A 
ATOM     40  C   UNL A   1      38.802  30.643  29.522  1.00  0.00     0.049 A 
ATOM     41  H   UNL A   1      40.853  30.525  29.176  1.00  0.00     0.167 HD
ATOM     42  C   UNL A   1      45.183  30.008  28.772  1.00  0.00     0.034 A 
ATOM     43  C   UNL A   1      38.559  31.846  30.081  1.00  0.00     0.034 A 
ATOM     44  C   UNL A   1      45.006  31.362  29.225  1.00  0.00     0.049 A 
ATOM     45  C   UNL A   1      39.707  32.796  30.297  1.00  0.00     0.074 A 
ATOM     46  C   UNL A   1      45.971  32.330  29.443  1.00  0.00     0.029 A 
ATOM     47  N   UNL A   1      43.783  31.941  29.529  1.00  0.00    -0.354 N 
ATOM     48  N   UNL A   1      40.982  32.622  30.048  1.00  0.00    -0.248 NA
ATOM     49  C   UNL A   1      39.377  34.126  30.829  1.00  0.00     0.031 C 
ATOM     50  C   UNL A   1      45.332  33.490  29.894  1.00  0.00     0.029 A 
ATOM     51  C   UNL A   1      43.968  33.255  29.921  1.00  0.00     0.049 A 
ATOM     52  H   UNL A   1      42.913  31.484  29.472  1.00  0.00     0.167 HD
ATOM     53  C   UNL A   1      41.597  33.833  30.344  1.00  0.00     0.074 A 
ATOM     54  C   UNL A   1      40.552  34.738  30.772  1.00  0.00     0.031 C 
ATOM     55  C   UNL A   1      42.910  34.164  30.280  1.00  0.00     0.034 A 
BRANCH  42  56
ATOM     56  C   UNL A   1      46.582  29.535  28.469  1.00  0.00     0.023 A 
ATOM     57  C   UNL A   1      47.139  29.799  27.200  1.00  0.00     0.012 A 
ATOM     58  C   UNL A   1      47.367  28.895  29.447  1.00  0.00     0.148 A 
ATOM     59  C   UNL A   1      48.440  29.402  26.896  1.00  0.00     0.002 A 
ATOM     60  C   UNL A   1      48.680  28.544  29.153  1.00  0.00     0.091 A 
ATOM     61  F   UNL A   1      46.818  28.638  30.641  1.00  0.00    -0.205 F 
ATOM     62  C   UNL A   1      49.213  28.785  27.874  1.00  0.00     0.022 A 
BRANCH  60  63
ATOM     63  S   UNL A   1      49.790  27.819  30.364  1.00  0.00     0.127 S 
ATOM     64  O   UNL A   1      49.787  28.838  31.414  1.00  0.00    -0.237 OA
ATOM     65  O   UNL A   1      49.093  26.581  30.716  1.00  0.00    -0.237 OA
ATOM     66  O   UNL A   1      51.063  27.631  29.685  1.00  0.00    -0.744 OA
ENDBRANCH  60  63
ENDBRANCH  42  56
BRANCH  43  67
ATOM     67  C   UNL A   1      37.166  32.246  30.433  1.00  0.00     0.023 A 
ATOM     68  C   UNL A   1      36.668  31.984  31.724  1.00  0.00     0.012 A 
ATOM     69  C   UNL A   1      36.328  32.872  29.490  1.00  0.00     0.148 A 
ATOM     70  C   UNL A   1      35.346  32.288  32.055  1.00  0.00     0.002 A 
ATOM     71  C   UNL A   1      35.032  33.228  29.844  1.00  0.00     0.091 A 
ATOM     72  F   UNL A   1      36.814  33.106  28.264  1.00  0.00    -0.205 F 
ATOM     73  C   UNL A   1      34.531  32.917  31.117  1.00  0.00     0.022 A 
BRANCH  71  74
ATOM     74  S   UNL A   1      33.959  34.157  28.743  1.00  0.00     0.127 S 
ATOM     75  O   UNL A   1      33.625  33.155  27.735  1.00  0.00    -0.237 OA
ATOM     76  O   UNL A   1      32.858  34.527  29.634  1.00  0.00    -0.237 OA
ATOM     77  O   UNL A   1      34.758  35.285  28.280  1.00  0.00    -0.744 OA
ENDBRANCH  71  74
ENDBRANCH  43  67
BRANCH  55  78
ATOM     78  C   UNL A   1      43.290  35.585  30.610  1.00  0.00     0.023 A 
ATOM     79  C   UNL A   1      43.686  35.930  31.916  1.00  0.00     0.012 A 
ATOM     80  C   UNL A   1      43.302  36.568  29.601  1.00  0.00     0.148 A 
ATOM     81  C   UNL A   1      44.046  37.243  32.224  1.00  0.00     0.002 A 
ATOM     82  C   UNL A   1      43.715  37.860  29.901  1.00  0.00     0.091 A 
ATOM     83  F   UNL A   1      42.904  36.225  28.366  1.00  0.00    -0.205 F 
ATOM     84  C   UNL A   1      44.071  38.203  31.215  1.00  0.00     0.022 A 
BRANCH  82  85
ATOM     85  S   UNL A   1      43.874  39.135  28.646  1.00  0.00     0.127 S 
ATOM     86  O   UNL A   1      42.482  39.336  28.249  1.00  0.00    -0.237 OA
ATOM     87  O   UNL A   1      44.460  40.243  29.402  1.00  0.00    -0.237 OA
ATOM     88  O   UNL A   1      44.746  38.579  27.618  1.00  0.00    -0.744 OA
ENDBRANCH  82  85
ENDBRANCH  55  78
ENDBRANCH  29  30
ENDBRANCH  21  24
ENDBRANCH  19  20
ENDBRANCH  18  19
ENDBRANCH   1  18
TORSDOF 18
ENDMDL
MODEL 2
REMARK VINA RESULT:     -10.0      5.471     11.278
REMARK SMILES O=C(Cc1ccc(CBr)cc1)NCCCCCCNC(=O)c1ccc(-c2c3nc(c(-c4cccc(S(=O)(=O)[O-])c4F)c4ccc([nH]4)c(-c4cccc(S(=O)(=O)[O-])c4F)c4nc(c(-c5cccc(S(=O)(=O)[O-])c5F)c5ccc2[nH]5)C=C4)C=C3)cc1
REMARK SMILES IDX 16 1 15 2 14 3 13 4 12 5 1 6 2 7 3 9 4 10 5 11 11 12 6 13
REMARK SMILES IDX 10 14 7 15 8 16 9 17 17 18 18 19 19 20 20 21 21 23 22 24
REMARK SMILES IDX 23 25 84 26 24 27 83 28 25 29 26 30 27 31 77 32 28 33 82 34
REMARK SMILES IDX 76 35 78 36 29 37 81 38 75 39 74 40 30 42 62 43 42 44 61 45
REMARK SMILES IDX 43 46 46 47 60 48 79 49 44 50 45 51 59 53 80 54 47 55 31 56
REMARK SMILES IDX 32 57 40 58 33 59 35 60 41 61 34 62 36 63 37 64 38 65 39 66
REMARK SMILES IDX 63 67 64 68 72 69 65 70 67 71 73 72 66 73 68 74 69 75 70 76
REMARK SMILES IDX 71 77 48 78 49 79 57 80 50 81 52 82 58 83 51 84 53 85 54 86
REMARK SMILES IDX 55 87 56 88
REMARK H PARENT 12 8 19 22 78 41 46 52
REMARK Flexibility Score: inf
ROOT
ATOM      1  C   UNL A   1      34.137  34.788  30.222  1.00  0.00     0.002 C 
ENDROOT
BRANCH   1   2
ATOM      2  C   UNL A   1      34.192  35.205  31.695  1.00  0.00     0.002 C 
BRANCH   2   3
ATOM      3  C   UNL A   1      33.497  34.253  32.680  1.00  0.00     0.021 C 
BRANCH   3   4
ATOM      4  C   UNL A   1      34.439  33.494  33.617  1.00  0.00     0.116 C 
BRANCH   4   5
ATOM      5  N   UNL A   1      35.735  34.135  33.675  1.00  0.00    -0.356 N 
ATOM      6  O   UNL A   1      37.033  32.244  33.823  1.00  0.00    -0.275 OA
ATOM      7  C   UNL A   1      36.932  33.466  33.790  1.00  0.00     0.224 C 
ATOM      8  H   UNL A   1      35.762  35.118  33.627  1.00  0.00     0.163 HD
BRANCH   7   9
ATOM      9  C   UNL A   1      38.134  34.383  33.969  1.00  0.00     0.135 C 
BRANCH   9  10
ATOM     10  C   UNL A   1      39.066  34.415  32.779  1.00  0.00    -0.039 A 
ATOM     11  C   UNL A   1      38.575  34.277  31.475  1.00  0.00     0.004 A 
ATOM     12  C   UNL A   1      40.446  34.553  32.969  1.00  0.00     0.004 A 
ATOM     13  C   UNL A   1      39.447  34.234  30.387  1.00  0.00     0.005 A 
ATOM     14  C   UNL A   1      41.318  34.533  31.877  1.00  0.00     0.005 A 
ATOM     15  C   UNL A   1      40.829  34.361  30.575  1.00  0.00    -0.037 A 
BRANCH  15  16
ATOM     16  C   UNL A   1      41.766  34.305  29.407  1.00  0.00     0.116 C 
ATOM     17  Br  UNL A   1      42.560  36.054  29.110  1.00  0.00    -0.088 Br
ENDBRANCH  15  16
ENDBRANCH   9  10
ENDBRANCH   7   9
ENDBRANCH   4   5
ENDBRANCH   3   4
ENDBRANCH   2   3
ENDBRANCH   1   2
BRANCH   1  18
ATOM     18  C   UNL A   1      34.849  33.475  29.892  1.00  0.00     0.021 C 
BRANCH  18  19
ATOM     19  C   UNL A   1      35.098  33.232  28.407  1.00  0.00     0.116 C 
BRANCH  19  20
ATOM     20  N   UNL A   1      34.234  32.197  27.859  1.00  0.00    -0.352 N 
ATOM     21  C   UNL A   1      34.510  30.871  27.634  1.00  0.00     0.251 C 
ATOM     22  H   UNL A   1      33.327  32.489  27.614  1.00  0.00     0.163 HD
ATOM     23  O   UNL A   1      33.706  30.178  27.008  1.00  0.00    -0.269 OA
BRANCH  21  24
ATOM     24  C   UNL A   1      35.773  30.279  28.126  1.00  0.00     0.039 A 
ATOM     25  C   UNL A   1      36.895  30.289  27.293  1.00  0.00     0.014 A 
ATOM     26  C   UNL A   1      35.854  29.705  29.398  1.00  0.00     0.014 A 
ATOM     27  C   UNL A   1      38.106  29.767  27.753  1.00  0.00     0.010 A 
ATOM     28  C   UNL A   1      37.081  29.260  29.884  1.00  0.00     0.010 A 
ATOM     29  C   UNL A   1      38.218  29.270  29.062  1.00  0.00    -0.014 A 
BRANCH  29  30
ATOM     30  C   UNL A   1      39.509  28.737  29.577  1.00  0.00     0.031 A 
ATOM     31  C   UNL A   1      40.205  29.421  30.726  1.00  0.00     0.074 A 
ATOM     32  C   UNL A   1      40.085  27.676  28.977  1.00  0.00     0.049 A 
ATOM     33  N   UNL A   1      41.356  29.137  31.280  1.00  0.00    -0.248 NA
ATOM     34  C   UNL A   1      39.533  30.593  31.313  1.00  0.00     0.031 C 
ATOM     35  C   UNL A   1      39.553  26.971  27.808  1.00  0.00     0.029 A 
ATOM     36  N   UNL A   1      41.260  27.021  29.251  1.00  0.00    -0.354 N 
ATOM     37  C   UNL A   1      41.554  30.101  32.262  1.00  0.00     0.074 A 
ATOM     38  C   UNL A   1      40.431  31.010  32.194  1.00  0.00     0.031 C 
ATOM     39  C   UNL A   1      40.396  25.983  27.467  1.00  0.00     0.029 A 
ATOM     40  C   UNL A   1      41.543  26.002  28.371  1.00  0.00     0.049 A 
ATOM     41  H   UNL A   1      41.844  27.257  30.007  1.00  0.00     0.167 HD
ATOM     42  C   UNL A   1      42.557  30.203  33.167  1.00  0.00     0.034 A 
ATOM     43  C   UNL A   1      42.610  25.182  28.294  1.00  0.00     0.034 A 
ATOM     44  C   UNL A   1      43.659  29.283  33.255  1.00  0.00     0.049 A 
ATOM     45  C   UNL A   1      43.698  25.299  29.328  1.00  0.00     0.074 A 
ATOM     46  C   UNL A   1      44.703  29.274  34.163  1.00  0.00     0.029 A 
ATOM     47  N   UNL A   1      43.860  28.207  32.404  1.00  0.00    -0.354 N 
ATOM     48  N   UNL A   1      43.799  26.140  30.329  1.00  0.00    -0.248 NA
ATOM     49  C   UNL A   1      44.796  24.326  29.251  1.00  0.00     0.031 C 
ATOM     50  C   UNL A   1      45.544  28.201  33.851  1.00  0.00     0.029 A 
ATOM     51  C   UNL A   1      45.004  27.521  32.773  1.00  0.00     0.049 A 
ATOM     52  H   UNL A   1      43.275  27.966  31.650  1.00  0.00     0.167 HD
ATOM     53  C   UNL A   1      44.941  25.766  31.027  1.00  0.00     0.074 A 
ATOM     54  C   UNL A   1      45.486  24.611  30.346  1.00  0.00     0.031 C 
ATOM     55  C   UNL A   1      45.497  26.333  32.125  1.00  0.00     0.034 A 
BRANCH  42  56
ATOM     56  C   UNL A   1      42.474  31.314  34.182  1.00  0.00     0.023 A 
ATOM     57  C   UNL A   1      43.347  32.416  34.072  1.00  0.00     0.012 A 
ATOM     58  C   UNL A   1      41.499  31.307  35.199  1.00  0.00     0.148 A 
ATOM     59  C   UNL A   1      43.278  33.475  34.976  1.00  0.00     0.002 A 
ATOM     60  C   UNL A   1      41.404  32.388  36.068  1.00  0.00     0.091 A 
ATOM     61  F   UNL A   1      40.687  30.246  35.299  1.00  0.00    -0.205 F 
ATOM     62  C   UNL A   1      42.300  33.466  35.966  1.00  0.00     0.022 A 
BRANCH  60  63
ATOM     63  S   UNL A   1      40.130  32.516  37.327  1.00  0.00     0.127 S 
ATOM     64  O   UNL A   1      39.630  33.873  37.104  1.00  0.00    -0.237 OA
ATOM     65  O   UNL A   1      39.203  31.454  36.936  1.00  0.00    -0.237 OA
ATOM     66  O   UNL A   1      40.799  32.304  38.603  1.00  0.00    -0.744 OA
ENDBRANCH  60  63
ENDBRANCH  42  56
BRANCH  43  67
ATOM     67  C   UNL A   1      42.686  24.141  27.228  1.00  0.00     0.023 A 
ATOM     68  C   UNL A   1      43.394  24.407  26.039  1.00  0.00     0.012 A 
ATOM     69  C   UNL A   1      42.048  22.895  27.380  1.00  0.00     0.148 A 
ATOM     70  C   UNL A   1      43.421  23.475  25.001  1.00  0.00     0.002 A 
ATOM     71  C   UNL A   1      42.130  21.947  26.368  1.00  0.00     0.091 A 
ATOM     72  F   UNL A   1      41.370  22.662  28.512  1.00  0.00    -0.205 F 
ATOM     73  C   UNL A   1      42.795  22.243  25.168  1.00  0.00     0.022 A 
BRANCH  71  74
ATOM     74  S   UNL A   1      41.466  20.289  26.552  1.00  0.00     0.127 S 
ATOM     75  O   UNL A   1      40.027  20.540  26.549  1.00  0.00    -0.237 OA
ATOM     76  O   UNL A   1      41.978  19.622  25.353  1.00  0.00    -0.237 OA
ATOM     77  O   UNL A   1      42.021  19.783  27.801  1.00  0.00    -0.744 OA
ENDBRANCH  71  74
ENDBRANCH  43  67
BRANCH  55  78
ATOM     78  C   UNL A   1      46.721  25.673  32.710  1.00  0.00     0.023 A 
ATOM     79  C   UNL A   1      48.007  26.053  32.281  1.00  0.00     0.012 A 
ATOM     80  C   UNL A   1      46.588  24.710  33.729  1.00  0.00     0.148 A 
ATOM     81  C   UNL A   1      49.142  25.451  32.825  1.00  0.00     0.002 A 
ATOM     82  C   UNL A   1      47.723  24.154  34.306  1.00  0.00     0.091 A 
ATOM     83  F   UNL A   1      45.354  24.347  34.112  1.00  0.00    -0.205 F 
ATOM     84  C   UNL A   1      49.000  24.511  33.844  1.00  0.00     0.022 A 
BRANCH  82  85
ATOM     85  S   UNL A   1      47.638  23.013  35.690  1.00  0.00     0.127 S 
ATOM     86  O   UNL A   1      49.051  22.832  36.014  1.00  0.00    -0.237 OA
ATOM     87  O   UNL A   1      46.878  23.780  36.678  1.00  0.00    -0.237 OA
ATOM     88  O   UNL A   1      46.952  21.828  35.191  1.00  0.00    -0.744 OA
ENDBRANCH  82  85
ENDBRANCH  55  78
ENDBRANCH  29  30
ENDBRANCH  21  24
ENDBRANCH  19  20
ENDBRANCH  18  19
ENDBRANCH   1  18
TORSDOF 18
ENDMDL
MODEL 3
REMARK VINA RESULT:     -10.0      2.305      2.768
REMARK SMILES O=C(Cc1ccc(CBr)cc1)NCCCCCCNC(=O)c1ccc(-c2c3nc(c(-c4cccc(S(=O)(=O)[O-])c4F)c4ccc([nH]4)c(-c4cccc(S(=O)(=O)[O-])c4F)c4nc(c(-c5cccc(S(=O)(=O)[O-])c5F)c5ccc2[nH]5)C=C4)C=C3)cc1
REMARK SMILES IDX 16 1 15 2 14 3 13 4 12 5 1 6 2 7 3 9 4 10 5 11 11 12 6 13
REMARK SMILES IDX 10 14 7 15 8 16 9 17 17 18 18 19 19 20 20 21 21 23 22 24
REMARK SMILES IDX 23 25 84 26 24 27 83 28 25 29 26 30 27 31 77 32 28 33 82 34
REMARK SMILES IDX 76 35 78 36 29 37 81 38 75 39 74 40 30 42 62 43 42 44 61 45
REMARK SMILES IDX 43 46 46 47 60 48 79 49 44 50 45 51 59 53 80 54 47 55 31 56
REMARK SMILES IDX 32 57 40 58 33 59 35 60 41 61 34 62 36 63 37 64 38 65 39 66
REMARK SMILES IDX 63 67 64 68 72 69 65 70 67 71 73 72 66 73 68 74 69 75 70 76
REMARK SMILES IDX 71 77 48 78 49 79 57 80 50 81 52 82 58 83 51 84 53 85 54 86
REMARK SMILES IDX 55 87 56 88
REMARK H PARENT 12 8 19 22 78 41 46 52
REMARK Flexibility Score: inf
ROOT
ATOM      1  C   UNL A   1      35.530  22.747  23.814  1.00  0.00     0.002 C 
ENDROOT
BRANCH   1   2
ATOM      2  C   UNL A   1      34.466  21.741  24.264  1.00  0.00     0.002 C 
BRANCH   2   3
ATOM      3  C   UNL A   1      33.019  22.256  24.251  1.00  0.00     0.021 C 
BRANCH   3   4
ATOM      4  C   UNL A   1      32.378  22.345  22.863  1.00  0.00     0.116 C 
BRANCH   4   5
ATOM      5  N   UNL A   1      31.816  23.660  22.639  1.00  0.00    -0.356 N 
ATOM      6  O   UNL A   1      33.629  24.621  21.603  1.00  0.00    -0.275 OA
ATOM      7  C   UNL A   1      32.487  24.703  22.042  1.00  0.00     0.224 C 
ATOM      8  H   UNL A   1      30.890  23.819  22.933  1.00  0.00     0.163 HD
BRANCH   7   9
ATOM      9  C   UNL A   1      31.717  26.017  22.054  1.00  0.00     0.135 C 
BRANCH   9  10
ATOM     10  C   UNL A   1      32.143  26.969  23.148  1.00  0.00    -0.039 A 
ATOM     11  C   UNL A   1      31.358  27.148  24.295  1.00  0.00     0.004 A 
ATOM     12  C   UNL A   1      33.319  27.714  23.015  1.00  0.00     0.004 A 
ATOM     13  C   UNL A   1      31.719  28.082  25.266  1.00  0.00     0.005 A 
ATOM     14  C   UNL A   1      33.693  28.634  23.999  1.00  0.00     0.005 A 
ATOM     15  C   UNL A   1      32.891  28.837  25.129  1.00  0.00    -0.037 A 
BRANCH  15  16
ATOM     16  C   UNL A   1      33.273  29.847  26.168  1.00  0.00     0.116 C 
ATOM     17  Br  UNL A   1      31.783  31.050  26.502  1.00  0.00    -0.088 Br
ENDBRANCH  15  16
ENDBRANCH   9  10
ENDBRANCH   7   9
ENDBRANCH   4   5
ENDBRANCH   3   4
ENDBRANCH   2   3
ENDBRANCH   1   2
BRANCH   1  18
ATOM     18  C   UNL A   1      36.961  22.411  24.235  1.00  0.00     0.021 C 
BRANCH  18  19
ATOM     19  C   UNL A   1      37.173  22.260  25.737  1.00  0.00     0.116 C 
BRANCH  19  20
ATOM     20  N   UNL A   1      38.186  21.267  26.061  1.00  0.00    -0.352 N 
ATOM     21  C   UNL A   1      39.471  21.455  26.506  1.00  0.00     0.251 C 
ATOM     22  H   UNL A   1      37.911  20.329  25.945  1.00  0.00     0.163 HD
ATOM     23  O   UNL A   1      40.241  20.497  26.572  1.00  0.00    -0.269 OA
BRANCH  21  24
ATOM     24  C   UNL A   1      39.935  22.807  26.889  1.00  0.00     0.039 A 
ATOM     25  C   UNL A   1      40.804  22.942  27.975  1.00  0.00     0.014 A 
ATOM     26  C   UNL A   1      39.511  23.941  26.190  1.00  0.00     0.014 A 
ATOM     27  C   UNL A   1      41.281  24.206  28.330  1.00  0.00     0.010 A 
ATOM     28  C   UNL A   1      40.051  25.188  26.494  1.00  0.00     0.010 A 
ATOM     29  C   UNL A   1      40.929  25.339  27.577  1.00  0.00    -0.014 A 
BRANCH  29  30
ATOM     30  C   UNL A   1      41.453  26.688  27.924  1.00  0.00     0.031 A 
ATOM     31  C   UNL A   1      42.892  27.037  27.640  1.00  0.00     0.074 A 
ATOM     32  C   UNL A   1      40.655  27.579  28.547  1.00  0.00     0.049 A 
ATOM     33  N   UNL A   1      43.543  28.139  27.914  1.00  0.00    -0.248 NA
ATOM     34  C   UNL A   1      43.714  26.005  26.987  1.00  0.00     0.031 C 
ATOM     35  C   UNL A   1      39.266  27.338  28.947  1.00  0.00     0.029 A 
ATOM     36  N   UNL A   1      40.904  28.859  28.976  1.00  0.00    -0.354 N 
ATOM     37  C   UNL A   1      44.848  27.926  27.486  1.00  0.00     0.074 A 
ATOM     38  C   UNL A   1      44.912  26.571  26.983  1.00  0.00     0.031 C 
ATOM     39  C   UNL A   1      38.788  28.433  29.561  1.00  0.00     0.029 A 
ATOM     40  C   UNL A   1      39.841  29.441  29.627  1.00  0.00     0.049 A 
ATOM     41  H   UNL A   1      41.764  29.317  28.831  1.00  0.00     0.167 HD
ATOM     42  C   UNL A   1      45.893  28.788  27.474  1.00  0.00     0.034 A 
ATOM     43  C   UNL A   1      39.730  30.647  30.218  1.00  0.00     0.034 A 
ATOM     44  C   UNL A   1      45.823  30.144  27.947  1.00  0.00     0.049 A 
ATOM     45  C   UNL A   1      40.898  31.596  30.167  1.00  0.00     0.074 A 
ATOM     46  C   UNL A   1      46.813  31.112  27.939  1.00  0.00     0.029 A 
ATOM     47  N   UNL A   1      44.700  30.728  28.513  1.00  0.00    -0.354 N 
ATOM     48  N   UNL A   1      42.086  31.418  29.641  1.00  0.00    -0.248 NA
ATOM     49  C   UNL A   1      40.697  32.930  30.752  1.00  0.00     0.031 C 
ATOM     50  C   UNL A   1      46.292  32.275  28.514  1.00  0.00     0.029 A 
ATOM     51  C   UNL A   1      44.968  32.044  28.847  1.00  0.00     0.049 A 
ATOM     52  H   UNL A   1      43.839  30.273  28.655  1.00  0.00     0.167 HD
ATOM     53  C   UNL A   1      42.752  32.629  29.785  1.00  0.00     0.074 A 
ATOM     54  C   UNL A   1      41.830  33.539  30.430  1.00  0.00     0.031 C 
ATOM     55  C   UNL A   1      44.018  32.957  29.428  1.00  0.00     0.034 A 
BRANCH  42  56
ATOM     56  C   UNL A   1      47.188  28.310  26.868  1.00  0.00     0.023 A 
ATOM     57  C   UNL A   1      48.281  28.025  27.713  1.00  0.00     0.012 A 
ATOM     58  C   UNL A   1      47.309  28.080  25.484  1.00  0.00     0.148 A 
ATOM     59  C   UNL A   1      49.484  27.554  27.189  1.00  0.00     0.002 A 
ATOM     60  C   UNL A   1      48.495  27.565  24.973  1.00  0.00     0.091 A 
ATOM     61  F   UNL A   1      46.266  28.371  24.694  1.00  0.00    -0.205 F 
ATOM     62  C   UNL A   1      49.587  27.314  25.822  1.00  0.00     0.022 A 
BRANCH  60  63
ATOM     63  S   UNL A   1      48.707  27.142  23.241  1.00  0.00     0.127 S 
ATOM     64  O   UNL A   1      48.078  25.823  23.179  1.00  0.00    -0.237 OA
ATOM     65  O   UNL A   1      47.958  28.205  22.571  1.00  0.00    -0.237 OA
ATOM     66  O   UNL A   1      50.142  27.157  22.994  1.00  0.00    -0.744 OA
ENDBRANCH  60  63
ENDBRANCH  42  56
BRANCH  43  67
ATOM     67  C   UNL A   1      38.451  31.052  30.871  1.00  0.00     0.023 A 
ATOM     68  C   UNL A   1      38.258  30.806  32.244  1.00  0.00     0.012 A 
ATOM     69  C   UNL A   1      37.422  31.667  30.133  1.00  0.00     0.148 A 
ATOM     70  C   UNL A   1      37.044  31.115  32.860  1.00  0.00     0.002 A 
ATOM     71  C   UNL A   1      36.238  32.028  30.766  1.00  0.00     0.091 A 
ATOM     72  F   UNL A   1      37.618  31.885  28.826  1.00  0.00    -0.205 F 
ATOM     73  C   UNL A   1      36.037  31.732  32.122  1.00  0.00     0.022 A 
BRANCH  71  74
ATOM     74  S   UNL A   1      34.942  32.944  29.924  1.00  0.00     0.127 S 
ATOM     75  O   UNL A   1      34.029  33.249  31.022  1.00  0.00    -0.237 OA
ATOM     76  O   UNL A   1      35.678  34.094  29.396  1.00  0.00    -0.237 OA
ATOM     77  O   UNL A   1      34.429  32.042  28.901  1.00  0.00    -0.744 OA
ENDBRANCH  71  74
ENDBRANCH  43  67
BRANCH  55  78
ATOM     78  C   UNL A   1      44.463  34.379  29.656  1.00  0.00     0.023 A 
ATOM     79  C   UNL A   1      45.042  34.754  30.883  1.00  0.00     0.012 A 
ATOM     80  C   UNL A   1      44.353  35.331  28.623  1.00  0.00     0.148 A 
ATOM     81  C   UNL A   1      45.463  36.068  31.096  1.00  0.00     0.002 A 
ATOM     82  C   UNL A   1      44.824  36.623  28.822  1.00  0.00     0.091 A 
ATOM     83  F   UNL A   1      43.782  34.960  27.467  1.00  0.00    -0.205 F 
ATOM     84  C   UNL A   1      45.364  36.997  30.062  1.00  0.00     0.022 A 
BRANCH  82  85
ATOM     85  S   UNL A   1      44.830  37.856  27.516  1.00  0.00     0.127 S 
ATOM     86  O   UNL A   1      45.356  39.026  28.215  1.00  0.00    -0.237 OA
ATOM     87  O   UNL A   1      45.744  37.266  26.537  1.00  0.00    -0.237 OA
ATOM     88  O   UNL A   1      43.449  37.964  27.062  1.00  0.00    -0.744 OA
ENDBRANCH  82  85
ENDBRANCH  55  78
ENDBRANCH  29  30
ENDBRANCH  21  24
ENDBRANCH  19  20
ENDBRANCH  18  19
ENDBRANCH   1  18
TORSDOF 18
ENDMDL
