MODEL 1
REMARK VINA RESULT:     -12.0      0.000      0.000
REMARK SMILES O=C(Cc1ccc(F)c(F)c1)NC1(C(=O)NCCCCCCNC(=O)c2ccc(-c3c4nc(c(-c5cccc(S(=O)(=O)[O-])c5F)c5ccc([nH]5)c(-c5cccc(S(=O)(=O)[O-])c5F)c5nc(c(-c6cccc(S(=O)(=O)[O-])c6F)c6ccc3[nH]6)C=C5)C=C4)cc2)CCCC1
REMARK SMILES IDX 19 1 18 2 17 3 16 4 14 5 15 6 13 8 89 9 92 10 90 11 91 12
REMARK SMILES IDX 12 13 1 14 2 15 3 17 4 18 5 19 11 20 6 21 9 22 7 23 10 24
REMARK SMILES IDX 8 25 20 26 21 27 22 28 23 29 24 30 25 32 26 33 27 34 88 35
REMARK SMILES IDX 28 36 87 37 29 38 30 39 31 40 81 41 32 42 86 43 80 44 82 45
REMARK SMILES IDX 33 46 85 47 79 48 78 49 34 51 66 52 46 53 65 54 47 55 50 56
REMARK SMILES IDX 64 57 83 58 48 59 49 60 63 62 84 63 51 64 35 65 36 66 44 67
REMARK SMILES IDX 37 68 39 69 45 70 38 71 40 72 41 73 42 74 43 75 67 76 68 77
REMARK SMILES IDX 76 78 69 79 71 80 77 81 70 82 72 83 73 84 74 85 75 86 52 87
REMARK SMILES IDX 53 88 61 89 54 90 56 91 62 92 55 93 57 94 58 95 59 96 60 97
REMARK H PARENT 16 7 12 16 23 31 82 50 50 61
REMARK Flexibility Score: inf
ROOT
ATOM      1  C   UNL A   1      32.956  29.625  27.002  1.00  0.00     0.002 C 
ENDROOT
BRANCH   1   2
ATOM      2  C   UNL A   1      32.577  28.192  27.376  1.00  0.00     0.021 C 
BRANCH   2   3
ATOM      3  C   UNL A   1      33.106  27.117  26.436  1.00  0.00     0.116 C 
BRANCH   3   4
ATOM      4  N   UNL A   1      33.778  27.632  25.269  1.00  0.00    -0.354 N 
ATOM      5  C   UNL A   1      33.453  27.545  23.950  1.00  0.00     0.245 C 
ATOM      6  O   UNL A   1      33.941  28.428  23.227  1.00  0.00    -0.272 OA
ATOM      7  H   UNL A   1      34.608  28.128  25.457  1.00  0.00     0.163 HD
BRANCH   5   8
ATOM      8  C   UNL A   1      32.449  26.483  23.361  1.00  0.00     0.119 C 
ATOM      9  C   UNL A   1      32.603  25.132  24.087  1.00  0.00     0.038 C 
ATOM     10  C   UNL A   1      32.564  26.156  21.861  1.00  0.00     0.038 C 
ATOM     11  C   UNL A   1      33.320  24.191  23.136  1.00  0.00     0.003 C 
ATOM     12  C   UNL A   1      32.992  24.689  21.738  1.00  0.00     0.003 C 
BRANCH   8  13
ATOM     13  N   UNL A   1      31.092  27.003  23.648  1.00  0.00    -0.341 N 
ATOM     14  O   UNL A   1      30.928  28.314  21.764  1.00  0.00    -0.275 OA
ATOM     15  C   UNL A   1      30.442  27.880  22.805  1.00  0.00     0.225 C 
ATOM     16  H   UNL A   1      30.637  26.711  24.470  1.00  0.00     0.164 HD
BRANCH  15  17
ATOM     17  C   UNL A   1      29.018  28.198  23.233  1.00  0.00     0.135 C 
BRANCH  17  18
ATOM     18  C   UNL A   1      28.681  29.625  22.874  1.00  0.00    -0.036 A 
ATOM     19  C   UNL A   1      29.003  30.674  23.747  1.00  0.00     0.007 A 
ATOM     20  C   UNL A   1      28.144  29.921  21.609  1.00  0.00     0.046 A 
ATOM     21  C   UNL A   1      28.814  32.000  23.353  1.00  0.00     0.043 A 
ATOM     22  C   UNL A   1      27.969  31.244  21.224  1.00  0.00     0.159 A 
ATOM     23  C   UNL A   1      28.307  32.278  22.088  1.00  0.00     0.158 A 
ATOM     24  F   UNL A   1      27.489  31.513  20.002  1.00  0.00    -0.204 F 
ATOM     25  F   UNL A   1      28.156  33.553  21.707  1.00  0.00    -0.204 F 
ENDBRANCH  17  18
ENDBRANCH  15  17
ENDBRANCH   8  13
ENDBRANCH   5   8
ENDBRANCH   3   4
ENDBRANCH   2   3
ENDBRANCH   1   2
BRANCH   1  26
ATOM     26  C   UNL A   1      31.907  30.395  26.194  1.00  0.00     0.002 C 
BRANCH  26  27
ATOM     27  C   UNL A   1      31.607  31.815  26.679  1.00  0.00     0.021 C 
BRANCH  27  28
ATOM     28  C   UNL A   1      32.766  32.514  27.376  1.00  0.00     0.116 C 
BRANCH  28  29
ATOM     29  N   UNL A   1      32.510  33.932  27.576  1.00  0.00    -0.352 N 
ATOM     30  C   UNL A   1      33.082  34.787  28.489  1.00  0.00     0.251 C 
ATOM     31  H   UNL A   1      31.838  34.332  26.979  1.00  0.00     0.163 HD
ATOM     32  O   UNL A   1      32.627  35.907  28.664  1.00  0.00    -0.269 OA
BRANCH  30  33
ATOM     33  C   UNL A   1      34.248  34.319  29.269  1.00  0.00     0.039 A 
ATOM     34  C   UNL A   1      34.040  33.533  30.404  1.00  0.00     0.014 A 
ATOM     35  C   UNL A   1      35.543  34.638  28.852  1.00  0.00     0.014 A 
ATOM     36  C   UNL A   1      35.140  33.016  31.094  1.00  0.00     0.010 A 
ATOM     37  C   UNL A   1      36.631  34.062  29.496  1.00  0.00     0.010 A 
ATOM     38  C   UNL A   1      36.443  33.253  30.627  1.00  0.00    -0.014 A 
BRANCH  38  39
ATOM     39  C   UNL A   1      37.637  32.685  31.304  1.00  0.00     0.031 A 
ATOM     40  C   UNL A   1      38.372  31.538  30.664  1.00  0.00     0.074 A 
ATOM     41  C   UNL A   1      37.980  33.110  32.537  1.00  0.00     0.049 A 
ATOM     42  N   UNL A   1      39.333  30.798  31.153  1.00  0.00    -0.248 NA
ATOM     43  C   UNL A   1      37.950  31.147  29.306  1.00  0.00     0.031 C 
ATOM     44  C   UNL A   1      37.302  34.170  33.289  1.00  0.00     0.029 A 
ATOM     45  N   UNL A   1      38.958  32.670  33.395  1.00  0.00    -0.354 N 
ATOM     46  C   UNL A   1      39.587  29.824  30.195  1.00  0.00     0.074 A 
ATOM     47  C   UNL A   1      38.674  30.056  29.099  1.00  0.00     0.031 C 
ATOM     48  C   UNL A   1      37.873  34.285  34.500  1.00  0.00     0.029 A 
ATOM     49  C   UNL A   1      38.928  33.284  34.628  1.00  0.00     0.049 A 
ATOM     50  H   UNL A   1      39.617  31.981  33.153  1.00  0.00     0.167 HD
ATOM     51  C   UNL A   1      40.511  28.838  30.219  1.00  0.00     0.034 A 
ATOM     52  C   UNL A   1      39.649  33.048  35.742  1.00  0.00     0.034 A 
ATOM     53  C   UNL A   1      41.461  28.653  31.281  1.00  0.00     0.049 A 
ATOM     54  C   UNL A   1      40.704  31.972  35.716  1.00  0.00     0.074 A 
ATOM     55  C   UNL A   1      42.508  27.752  31.345  1.00  0.00     0.029 A 
ATOM     56  N   UNL A   1      41.473  29.372  32.464  1.00  0.00    -0.354 N 
ATOM     57  N   UNL A   1      41.038  31.168  34.736  1.00  0.00    -0.248 NA
ATOM     58  C   UNL A   1      41.507  31.792  36.935  1.00  0.00     0.031 C 
ATOM     59  C   UNL A   1      43.136  27.904  32.583  1.00  0.00     0.029 A 
ATOM     60  C   UNL A   1      42.504  28.927  33.272  1.00  0.00     0.049 A 
ATOM     61  H   UNL A   1      40.843  30.093  32.695  1.00  0.00     0.167 HD
ATOM     62  C   UNL A   1      42.117  30.426  35.202  1.00  0.00     0.074 A 
ATOM     63  C   UNL A   1      42.390  30.882  36.548  1.00  0.00     0.031 C 
ATOM     64  C   UNL A   1      42.812  29.447  34.577  1.00  0.00     0.034 A 
BRANCH  51  65
ATOM     65  C   UNL A   1      40.583  27.896  29.048  1.00  0.00     0.023 A 
ATOM     66  C   UNL A   1      39.626  26.872  28.912  1.00  0.00     0.012 A 
ATOM     67  C   UNL A   1      41.532  28.099  28.026  1.00  0.00     0.148 A 
ATOM     68  C   UNL A   1      39.622  26.051  27.786  1.00  0.00     0.002 A 
ATOM     69  C   UNL A   1      41.492  27.308  26.885  1.00  0.00     0.091 A 
ATOM     70  F   UNL A   1      42.444  29.068  28.185  1.00  0.00    -0.205 F 
ATOM     71  C   UNL A   1      40.545  26.278  26.768  1.00  0.00     0.022 A 
BRANCH  69  72
ATOM     72  S   UNL A   1      42.577  27.576  25.479  1.00  0.00     0.127 S 
ATOM     73  O   UNL A   1      42.079  28.849  24.960  1.00  0.00    -0.237 OA
ATOM     74  O   UNL A   1      43.891  27.651  26.119  1.00  0.00    -0.237 OA
ATOM     75  O   UNL A   1      42.390  26.432  24.598  1.00  0.00    -0.744 OA
ENDBRANCH  69  72
ENDBRANCH  51  65
BRANCH  52  76
ATOM     76  C   UNL A   1      39.428  33.859  36.975  1.00  0.00     0.023 A 
ATOM     77  C   UNL A   1      39.871  35.196  37.015  1.00  0.00     0.012 A 
ATOM     78  C   UNL A   1      38.803  33.312  38.111  1.00  0.00     0.148 A 
ATOM     79  C   UNL A   1      39.743  35.955  38.180  1.00  0.00     0.002 A 
ATOM     80  C   UNL A   1      38.625  34.092  39.249  1.00  0.00     0.091 A 
ATOM     81  F   UNL A   1      38.397  32.034  38.062  1.00  0.00    -0.205 F 
ATOM     82  C   UNL A   1      39.114  35.405  39.293  1.00  0.00     0.022 A 
BRANCH  80  83
ATOM     83  S   UNL A   1      37.709  33.503  40.677  1.00  0.00     0.127 S 
ATOM     84  O   UNL A   1      38.498  32.343  41.083  1.00  0.00    -0.237 OA
ATOM     85  O   UNL A   1      37.788  34.649  41.584  1.00  0.00    -0.237 OA
ATOM     86  O   UNL A   1      36.366  33.222  40.190  1.00  0.00    -0.744 OA
ENDBRANCH  80  83
ENDBRANCH  52  76
BRANCH  64  87
ATOM     87  C   UNL A   1      43.989  28.841  35.293  1.00  0.00     0.023 A 
ATOM     88  C   UNL A   1      45.259  29.442  35.201  1.00  0.00     0.012 A 
ATOM     89  C   UNL A   1      43.802  27.739  36.151  1.00  0.00     0.148 A 
ATOM     90  C   UNL A   1      46.332  28.939  35.936  1.00  0.00     0.002 A 
ATOM     91  C   UNL A   1      44.861  27.278  36.920  1.00  0.00     0.091 A 
ATOM     92  F   UNL A   1      42.587  27.175  36.210  1.00  0.00    -0.205 F 
ATOM     93  C   UNL A   1      46.130  27.869  36.806  1.00  0.00     0.022 A 
BRANCH  91  94
ATOM     94  S   UNL A   1      44.671  25.977  38.143  1.00  0.00     0.127 S 
ATOM     95  O   UNL A   1      43.556  26.480  38.944  1.00  0.00    -0.237 OA
ATOM     96  O   UNL A   1      44.350  24.816  37.311  1.00  0.00    -0.237 OA
ATOM     97  O   UNL A   1      45.947  25.888  38.841  1.00  0.00    -0.744 OA
ENDBRANCH  91  94
ENDBRANCH  64  87
ENDBRANCH  38  39
ENDBRANCH  30  33
ENDBRANCH  28  29
ENDBRANCH  27  28
ENDBRANCH  26  27
ENDBRANCH   1  26
TORSDOF 19
ENDMDL
MODEL 2
REMARK VINA RESULT:     -11.9      2.999      4.502
REMARK SMILES O=C(Cc1ccc(F)c(F)c1)NC1(C(=O)NCCCCCCNC(=O)c2ccc(-c3c4nc(c(-c5cccc(S(=O)(=O)[O-])c5F)c5ccc([nH]5)c(-c5cccc(S(=O)(=O)[O-])c5F)c5nc(c(-c6cccc(S(=O)(=O)[O-])c6F)c6ccc3[nH]6)C=C5)C=C4)cc2)CCCC1
REMARK SMILES IDX 19 1 18 2 17 3 16 4 14 5 15 6 13 8 89 9 92 10 90 11 91 12
REMARK SMILES IDX 12 13 1 14 2 15 3 17 4 18 5 19 11 20 6 21 9 22 7 23 10 24
REMARK SMILES IDX 8 25 20 26 21 27 22 28 23 29 24 30 25 32 26 33 27 34 88 35
REMARK SMILES IDX 28 36 87 37 29 38 30 39 31 40 81 41 32 42 86 43 80 44 82 45
REMARK SMILES IDX 33 46 85 47 79 48 78 49 34 51 66 52 46 53 65 54 47 55 50 56
REMARK SMILES IDX 64 57 83 58 48 59 49 60 63 62 84 63 51 64 35 65 36 66 44 67
REMARK SMILES IDX 37 68 39 69 45 70 38 71 40 72 41 73 42 74 43 75 67 76 68 77
REMARK SMILES IDX 76 78 69 79 71 80 77 81 70 82 72 83 73 84 74 85 75 86 52 87
REMARK SMILES IDX 53 88 61 89 54 90 56 91 62 92 55 93 57 94 58 95 59 96 60 97
REMARK H PARENT 16 7 12 16 23 31 82 50 50 61
REMARK Flexibility Score: inf
ROOT
ATOM      1  C   UNL A   1      32.383  29.364  26.029  1.00  0.00     0.002 C 
ENDROOT
BRANCH   1   2
ATOM      2  C   UNL A   1      31.865  28.422  27.116  1.00  0.00     0.021 C 
BRANCH   2   3
ATOM      3  C   UNL A   1      32.012  26.937  26.810  1.00  0.00     0.116 C 
BRANCH   3   4
ATOM      4  N   UNL A   1      33.026  26.635  25.831  1.00  0.00    -0.354 N 
ATOM      5  C   UNL A   1      32.922  26.396  24.495  1.00  0.00     0.245 C 
ATOM      6  O   UNL A   1      33.956  26.603  23.839  1.00  0.00    -0.272 OA
ATOM      7  H   UNL A   1      33.943  26.595  26.186  1.00  0.00     0.163 HD
BRANCH   5   8
ATOM      8  C   UNL A   1      31.579  25.990  23.776  1.00  0.00     0.119 C 
ATOM      9  C   UNL A   1      31.443  26.725  22.428  1.00  0.00     0.038 C 
ATOM     10  C   UNL A   1      30.263  26.266  24.525  1.00  0.00     0.038 C 
ATOM     11  C   UNL A   1      30.394  27.805  22.610  1.00  0.00     0.003 C 
ATOM     12  C   UNL A   1      29.482  27.312  23.722  1.00  0.00     0.003 C 
BRANCH   8  13
ATOM     13  N   UNL A   1      31.690  24.540  23.495  1.00  0.00    -0.341 N 
ATOM     14  O   UNL A   1      31.548  23.854  25.687  1.00  0.00    -0.275 OA
ATOM     15  C   UNL A   1      31.657  23.588  24.493  1.00  0.00     0.225 C 
ATOM     16  H   UNL A   1      31.792  24.245  22.562  1.00  0.00     0.164 HD
BRANCH  15  17
ATOM     17  C   UNL A   1      31.675  22.159  23.976  1.00  0.00     0.135 C 
BRANCH  17  18
ATOM     18  C   UNL A   1      33.042  21.553  24.188  1.00  0.00    -0.036 A 
ATOM     19  C   UNL A   1      34.164  22.375  24.370  1.00  0.00     0.007 A 
ATOM     20  C   UNL A   1      33.178  20.161  24.319  1.00  0.00     0.046 A 
ATOM     21  C   UNL A   1      35.399  21.815  24.701  1.00  0.00     0.043 A 
ATOM     22  C   UNL A   1      34.410  19.615  24.658  1.00  0.00     0.159 A 
ATOM     23  C   UNL A   1      35.512  20.437  24.854  1.00  0.00     0.158 A 
ATOM     24  F   UNL A   1      34.517  18.288  24.814  1.00  0.00    -0.204 F 
ATOM     25  F   UNL A   1      36.694  19.909  25.200  1.00  0.00    -0.204 F 
ENDBRANCH  17  18
ENDBRANCH  15  17
ENDBRANCH   8  13
ENDBRANCH   5   8
ENDBRANCH   3   4
ENDBRANCH   2   3
ENDBRANCH   1   2
BRANCH   1  26
ATOM     26  C   UNL A   1      31.325  30.258  25.373  1.00  0.00     0.002 C 
BRANCH  26  27
ATOM     27  C   UNL A   1      31.153  31.646  25.995  1.00  0.00     0.021 C 
BRANCH  27  28
ATOM     28  C   UNL A   1      32.297  32.094  26.894  1.00  0.00     0.116 C 
BRANCH  28  29
ATOM     29  N   UNL A   1      32.185  33.496  27.265  1.00  0.00    -0.352 N 
ATOM     30  C   UNL A   1      32.958  34.215  28.147  1.00  0.00     0.251 C 
ATOM     31  H   UNL A   1      31.460  33.996  26.826  1.00  0.00     0.163 HD
ATOM     32  O   UNL A   1      32.624  35.336  28.497  1.00  0.00    -0.269 OA
BRANCH  30  33
ATOM     33  C   UNL A   1      34.193  33.598  28.676  1.00  0.00     0.039 A 
ATOM     34  C   UNL A   1      35.417  34.240  28.479  1.00  0.00     0.014 A 
ATOM     35  C   UNL A   1      34.126  32.399  29.391  1.00  0.00     0.014 A 
ATOM     36  C   UNL A   1      36.575  33.706  29.051  1.00  0.00     0.010 A 
ATOM     37  C   UNL A   1      35.265  31.911  30.020  1.00  0.00     0.010 A 
ATOM     38  C   UNL A   1      36.502  32.554  29.851  1.00  0.00    -0.014 A 
BRANCH  38  39
ATOM     39  C   UNL A   1      37.700  31.980  30.514  1.00  0.00     0.031 A 
ATOM     40  C   UNL A   1      38.491  30.909  29.812  1.00  0.00     0.074 A 
ATOM     41  C   UNL A   1      38.002  32.328  31.782  1.00  0.00     0.049 A 
ATOM     42  N   UNL A   1      39.467  30.170  30.271  1.00  0.00    -0.248 NA
ATOM     43  C   UNL A   1      38.113  30.602  28.420  1.00  0.00     0.031 C 
ATOM     44  C   UNL A   1      37.269  33.306  32.590  1.00  0.00     0.029 A 
ATOM     45  N   UNL A   1      38.976  31.862  32.630  1.00  0.00    -0.354 N 
ATOM     46  C   UNL A   1      39.778  29.277  29.252  1.00  0.00     0.074 A 
ATOM     47  C   UNL A   1      38.880  29.555  28.153  1.00  0.00     0.031 C 
ATOM     48  C   UNL A   1      37.809  33.354  33.820  1.00  0.00     0.029 A 
ATOM     49  C   UNL A   1      38.897  32.385  33.902  1.00  0.00     0.049 A 
ATOM     50  H   UNL A   1      39.665  31.215  32.356  1.00  0.00     0.167 HD
ATOM     51  C   UNL A   1      40.737  28.325  29.228  1.00  0.00     0.034 A 
ATOM     52  C   UNL A   1      39.602  32.095  35.014  1.00  0.00     0.034 A 
ATOM     53  C   UNL A   1      41.670  28.097  30.297  1.00  0.00     0.049 A 
ATOM     54  C   UNL A   1      40.696  31.061  34.936  1.00  0.00     0.074 A 
ATOM     55  C   UNL A   1      42.748  27.231  30.323  1.00  0.00     0.029 A 
ATOM     56  N   UNL A   1      41.630  28.729  31.528  1.00  0.00    -0.354 N 
ATOM     57  N   UNL A   1      41.080  30.341  33.910  1.00  0.00    -0.248 NA
ATOM     58  C   UNL A   1      41.478  30.822  36.159  1.00  0.00     0.031 C 
ATOM     59  C   UNL A   1      43.343  27.316  31.583  1.00  0.00     0.029 A 
ATOM     60  C   UNL A   1      42.659  28.264  32.327  1.00  0.00     0.049 A 
ATOM     61  H   UNL A   1      40.969  29.409  31.794  1.00  0.00     0.167 HD
ATOM     62  C   UNL A   1      42.175  29.606  34.349  1.00  0.00     0.074 A 
ATOM     63  C   UNL A   1      42.403  29.974  35.730  1.00  0.00     0.031 C 
ATOM     64  C   UNL A   1      42.920  28.699  33.672  1.00  0.00     0.034 A 
BRANCH  51  65
ATOM     65  C   UNL A   1      40.869  27.472  27.995  1.00  0.00     0.023 A 
ATOM     66  C   UNL A   1      41.539  27.975  26.863  1.00  0.00     0.012 A 
ATOM     67  C   UNL A   1      40.427  26.134  28.003  1.00  0.00     0.148 A 
ATOM     68  C   UNL A   1      41.751  27.165  25.749  1.00  0.00     0.002 A 
ATOM     69  C   UNL A   1      40.684  25.319  26.908  1.00  0.00     0.091 A 
ATOM     70  F   UNL A   1      39.776  25.683  29.085  1.00  0.00    -0.205 F 
ATOM     71  C   UNL A   1      41.337  25.836  25.776  1.00  0.00     0.022 A 
BRANCH  69  72
ATOM     72  S   UNL A   1      40.272  23.572  26.879  1.00  0.00     0.127 S 
ATOM     73  O   UNL A   1      41.146  23.080  25.815  1.00  0.00    -0.237 OA
ATOM     74  O   UNL A   1      40.653  23.147  28.226  1.00  0.00    -0.237 OA
ATOM     75  O   UNL A   1      38.846  23.496  26.594  1.00  0.00    -0.744 OA
ENDBRANCH  69  72
ENDBRANCH  51  65
BRANCH  52  76
ATOM     76  C   UNL A   1      39.325  32.807  36.295  1.00  0.00     0.023 A 
ATOM     77  C   UNL A   1      39.975  34.027  36.566  1.00  0.00     0.012 A 
ATOM     78  C   UNL A   1      38.441  32.275  37.254  1.00  0.00     0.148 A 
ATOM     79  C   UNL A   1      39.790  34.678  37.787  1.00  0.00     0.002 A 
ATOM     80  C   UNL A   1      38.216  32.959  38.444  1.00  0.00     0.091 A 
ATOM     81  F   UNL A   1      37.839  31.107  36.987  1.00  0.00    -0.205 F 
ATOM     82  C   UNL A   1      38.907  34.147  38.722  1.00  0.00     0.022 A 
BRANCH  80  83
ATOM     83  S   UNL A   1      36.996  32.413  39.643  1.00  0.00     0.127 S 
ATOM     84  O   UNL A   1      37.136  33.418  40.694  1.00  0.00    -0.237 OA
ATOM     85  O   UNL A   1      35.754  32.494  38.874  1.00  0.00    -0.237 OA
ATOM     86  O   UNL A   1      37.385  31.055  40.004  1.00  0.00    -0.744 OA
ENDBRANCH  80  83
ENDBRANCH  52  76
BRANCH  64  87
ATOM     87  C   UNL A   1      44.103  28.086  34.372  1.00  0.00     0.023 A 
ATOM     88  C   UNL A   1      45.344  28.749  34.378  1.00  0.00     0.012 A 
ATOM     89  C   UNL A   1      43.943  26.903  35.122  1.00  0.00     0.148 A 
ATOM     90  C   UNL A   1      46.417  28.231  35.102  1.00  0.00     0.002 A 
ATOM     91  C   UNL A   1      45.000  26.423  35.883  1.00  0.00     0.091 A 
ATOM     92  F   UNL A   1      42.756  26.281  35.088  1.00  0.00    -0.205 F 
ATOM     93  C   UNL A   1      46.241  27.079  35.865  1.00  0.00     0.022 A 
BRANCH  91  94
ATOM     94  S   UNL A   1      44.835  25.009  36.978  1.00  0.00     0.127 S 
ATOM     95  O   UNL A   1      44.594  23.923  36.030  1.00  0.00    -0.237 OA
ATOM     96  O   UNL A   1      46.145  24.970  37.631  1.00  0.00    -0.237 OA
ATOM     97  O   UNL A   1      43.723  25.315  37.869  1.00  0.00    -0.744 OA
ENDBRANCH  91  94
ENDBRANCH  64  87
ENDBRANCH  38  39
ENDBRANCH  30  33
ENDBRANCH  28  29
ENDBRANCH  27  28
ENDBRANCH  26  27
ENDBRANCH   1  26
TORSDOF 19
ENDMDL
MODEL 3
REMARK VINA RESULT:     -11.9      6.272     11.047
REMARK SMILES O=C(Cc1ccc(F)c(F)c1)NC1(C(=O)NCCCCCCNC(=O)c2ccc(-c3c4nc(c(-c5cccc(S(=O)(=O)[O-])c5F)c5ccc([nH]5)c(-c5cccc(S(=O)(=O)[O-])c5F)c5nc(c(-c6cccc(S(=O)(=O)[O-])c6F)c6ccc3[nH]6)C=C5)C=C4)cc2)CCCC1
REMARK SMILES IDX 19 1 18 2 17 3 16 4 14 5 15 6 13 8 89 9 92 10 90 11 91 12
REMARK SMILES IDX 12 13 1 14 2 15 3 17 4 18 5 19 11 20 6 21 9 22 7 23 10 24
REMARK SMILES IDX 8 25 20 26 21 27 22 28 23 29 24 30 25 32 26 33 27 34 88 35
REMARK SMILES IDX 28 36 87 37 29 38 30 39 31 40 81 41 32 42 86 43 80 44 82 45
REMARK SMILES IDX 33 46 85 47 79 48 78 49 34 51 66 52 46 53 65 54 47 55 50 56
REMARK SMILES IDX 64 57 83 58 48 59 49 60 63 62 84 63 51 64 35 65 36 66 44 67
REMARK SMILES IDX 37 68 39 69 45 70 38 71 40 72 41 73 42 74 43 75 67 76 68 77
REMARK SMILES IDX 76 78 69 79 71 80 77 81 70 82 72 83 73 84 74 85 75 86 52 87
REMARK SMILES IDX 53 88 61 89 54 90 56 91 62 92 55 93 57 94 58 95 59 96 60 97
REMARK H PARENT 16 7 12 16 23 31 82 50 50 61
REMARK Flexibility Score: inf
ROOT
ATOM      1  C   UNL A   1      35.814  21.634  25.853  1.00  0.00     0.002 C 
ENDROOT
BRANCH   1   2
ATOM      2  C   UNL A   1      34.619  21.735  26.800  1.00  0.00     0.021 C 
BRANCH   2   3
ATOM      3  C   UNL A   1      33.886  23.069  26.778  1.00  0.00     0.116 C 
BRANCH   3   4
ATOM      4  N   UNL A   1      32.450  22.953  26.853  1.00  0.00    -0.354 N 
ATOM      5  C   UNL A   1      31.504  23.030  25.878  1.00  0.00     0.245 C 
ATOM      6  O   UNL A   1      30.429  22.467  26.140  1.00  0.00    -0.272 OA
ATOM      7  H   UNL A   1      32.097  22.792  27.758  1.00  0.00     0.163 HD
BRANCH   5   8
ATOM      8  C   UNL A   1      31.749  23.683  24.465  1.00  0.00     0.119 C 
ATOM      9  C   UNL A   1      32.029  22.596  23.408  1.00  0.00     0.038 C 
ATOM     10  C   UNL A   1      32.912  24.683  24.339  1.00  0.00     0.038 C 
ATOM     11  C   UNL A   1      33.513  22.647  23.095  1.00  0.00     0.003 C 
ATOM     12  C   UNL A   1      33.948  24.074  23.387  1.00  0.00     0.003 C 
BRANCH   8  13
ATOM     13  N   UNL A   1      30.481  24.356  24.102  1.00  0.00    -0.341 N 
ATOM     14  O   UNL A   1      30.700  26.106  25.578  1.00  0.00    -0.275 OA
ATOM     15  C   UNL A   1      30.069  25.530  24.697  1.00  0.00     0.225 C 
ATOM     16  H   UNL A   1      29.911  23.951  23.409  1.00  0.00     0.164 HD
BRANCH  15  17
ATOM     17  C   UNL A   1      28.796  26.106  24.098  1.00  0.00     0.135 C 
BRANCH  17  18
ATOM     18  C   UNL A   1      29.084  27.451  23.474  1.00  0.00    -0.036 A 
ATOM     19  C   UNL A   1      30.370  27.757  23.005  1.00  0.00     0.007 A 
ATOM     20  C   UNL A   1      28.036  28.362  23.259  1.00  0.00     0.046 A 
ATOM     21  C   UNL A   1      30.600  28.944  22.308  1.00  0.00     0.043 A 
ATOM     22  C   UNL A   1      28.275  29.536  22.556  1.00  0.00     0.159 A 
ATOM     23  C   UNL A   1      29.547  29.823  22.078  1.00  0.00     0.158 A 
ATOM     24  F   UNL A   1      27.258  30.379  22.326  1.00  0.00    -0.204 F 
ATOM     25  F   UNL A   1      29.769  30.947  21.384  1.00  0.00    -0.204 F 
ENDBRANCH  17  18
ENDBRANCH  15  17
ENDBRANCH   8  13
ENDBRANCH   5   8
ENDBRANCH   3   4
ENDBRANCH   2   3
ENDBRANCH   1   2
BRANCH   1  26
ATOM     26  C   UNL A   1      35.915  20.329  25.056  1.00  0.00     0.002 C 
BRANCH  26  27
ATOM     27  C   UNL A   1      37.335  19.871  24.711  1.00  0.00     0.021 C 
BRANCH  27  28
ATOM     28  C   UNL A   1      38.427  20.429  25.612  1.00  0.00     0.116 C 
BRANCH  28  29
ATOM     29  N   UNL A   1      39.511  19.479  25.811  1.00  0.00    -0.352 N 
ATOM     30  C   UNL A   1      40.823  19.731  26.137  1.00  0.00     0.251 C 
ATOM     31  H   UNL A   1      39.273  18.531  25.696  1.00  0.00     0.163 HD
ATOM     32  O   UNL A   1      41.660  18.842  26.083  1.00  0.00    -0.269 OA
BRANCH  30  33
ATOM     33  C   UNL A   1      41.206  21.101  26.538  1.00  0.00     0.039 A 
ATOM     34  C   UNL A   1      41.420  21.384  27.889  1.00  0.00     0.014 A 
ATOM     35  C   UNL A   1      41.379  22.093  25.568  1.00  0.00     0.014 A 
ATOM     36  C   UNL A   1      41.866  22.654  28.264  1.00  0.00     0.010 A 
ATOM     37  C   UNL A   1      41.893  23.330  25.936  1.00  0.00     0.010 A 
ATOM     38  C   UNL A   1      42.133  23.628  27.287  1.00  0.00    -0.014 A 
BRANCH  38  39
ATOM     39  C   UNL A   1      42.651  24.974  27.640  1.00  0.00     0.031 A 
ATOM     40  C   UNL A   1      41.721  25.985  28.256  1.00  0.00     0.074 A 
ATOM     41  C   UNL A   1      43.907  25.325  27.296  1.00  0.00     0.049 A 
ATOM     42  N   UNL A   1      41.924  27.254  28.494  1.00  0.00    -0.248 NA
ATOM     43  C   UNL A   1      40.373  25.515  28.623  1.00  0.00     0.031 C 
ATOM     44  C   UNL A   1      44.881  24.454  26.634  1.00  0.00     0.029 A 
ATOM     45  N   UNL A   1      44.564  26.526  27.414  1.00  0.00    -0.354 N 
ATOM     46  C   UNL A   1      40.718  27.745  28.980  1.00  0.00     0.074 A 
ATOM     47  C   UNL A   1      39.782  26.643  28.992  1.00  0.00     0.031 C 
ATOM     48  C   UNL A   1      46.003  25.152  26.390  1.00  0.00     0.029 A 
ATOM     49  C   UNL A   1      45.816  26.528  26.839  1.00  0.00     0.049 A 
ATOM     50  H   UNL A   1      44.178  27.310  27.866  1.00  0.00     0.167 HD
ATOM     51  C   UNL A   1      40.423  28.998  29.395  1.00  0.00     0.034 A 
ATOM     52  C   UNL A   1      46.699  27.533  26.668  1.00  0.00     0.034 A 
ATOM     53  C   UNL A   1      41.375  30.073  29.443  1.00  0.00     0.049 A 
ATOM     54  C   UNL A   1      46.355  28.905  27.187  1.00  0.00     0.074 A 
ATOM     55  C   UNL A   1      41.202  31.347  29.951  1.00  0.00     0.029 A 
ATOM     56  N   UNL A   1      42.669  30.004  28.958  1.00  0.00    -0.354 N 
ATOM     57  N   UNL A   1      45.265  29.309  27.792  1.00  0.00    -0.248 NA
ATOM     58  C   UNL A   1      47.375  29.954  27.032  1.00  0.00     0.031 C 
ATOM     59  C   UNL A   1      42.384  32.061  29.745  1.00  0.00     0.029 A 
ATOM     60  C   UNL A   1      43.305  31.218  29.145  1.00  0.00     0.049 A 
ATOM     61  H   UNL A   1      43.077  29.209  28.543  1.00  0.00     0.167 HD
ATOM     62  C   UNL A   1      45.488  30.637  28.134  1.00  0.00     0.074 A 
ATOM     63  C   UNL A   1      46.821  30.970  27.679  1.00  0.00     0.031 C 
ATOM     64  C   UNL A   1      44.659  31.508  28.758  1.00  0.00     0.034 A 
BRANCH  51  65
ATOM     65  C   UNL A   1      39.025  29.282  29.875  1.00  0.00     0.023 A 
ATOM     66  C   UNL A   1      38.663  28.977  31.201  1.00  0.00     0.012 A 
ATOM     67  C   UNL A   1      38.109  29.956  29.043  1.00  0.00     0.148 A 
ATOM     68  C   UNL A   1      37.404  29.320  31.688  1.00  0.00     0.002 A 
ATOM     69  C   UNL A   1      36.873  30.337  29.550  1.00  0.00     0.091 A 
ATOM     70  F   UNL A   1      38.469  30.220  27.779  1.00  0.00    -0.205 F 
ATOM     71  C   UNL A   1      36.515  30.012  30.868  1.00  0.00     0.022 A 
BRANCH  69  72
ATOM     72  S   UNL A   1      35.694  31.307  28.604  1.00  0.00     0.127 S 
ATOM     73  O   UNL A   1      36.527  32.419  28.146  1.00  0.00    -0.237 OA
ATOM     74  O   UNL A   1      35.299  30.369  27.554  1.00  0.00    -0.237 OA
ATOM     75  O   UNL A   1      34.632  31.670  29.531  1.00  0.00    -0.744 OA
ENDBRANCH  69  72
ENDBRANCH  51  65
BRANCH  52  76
ATOM     76  C   UNL A   1      48.011  27.284  26.002  1.00  0.00     0.023 A 
ATOM     77  C   UNL A   1      49.121  26.895  26.778  1.00  0.00     0.012 A 
ATOM     78  C   UNL A   1      48.172  27.449  24.613  1.00  0.00     0.148 A 
ATOM     79  C   UNL A   1      50.377  26.727  26.192  1.00  0.00     0.002 A 
ATOM     80  C   UNL A   1      49.412  27.222  24.027  1.00  0.00     0.091 A 
ATOM     81  F   UNL A   1      47.109  27.830  23.889  1.00  0.00    -0.205 F 
ATOM     82  C   UNL A   1      50.520  26.883  24.817  1.00  0.00     0.022 A 
BRANCH  80  83
ATOM     83  S   UNL A   1      49.652  27.273  22.247  1.00  0.00     0.127 S 
ATOM     84  O   UNL A   1      51.073  26.961  22.126  1.00  0.00    -0.237 OA
ATOM     85  O   UNL A   1      48.747  26.219  21.787  1.00  0.00    -0.237 OA
ATOM     86  O   UNL A   1      49.257  28.615  21.840  1.00  0.00    -0.744 OA
ENDBRANCH  80  83
ENDBRANCH  52  76
BRANCH  64  87
ATOM     87  C   UNL A   1      45.178  32.887  29.065  1.00  0.00     0.023 A 
ATOM     88  C   UNL A   1      45.847  33.139  30.278  1.00  0.00     0.012 A 
ATOM     89  C   UNL A   1      45.098  33.904  28.092  1.00  0.00     0.148 A 
ATOM     90  C   UNL A   1      46.409  34.390  30.527  1.00  0.00     0.002 A 
ATOM     91  C   UNL A   1      45.707  35.129  28.324  1.00  0.00     0.091 A 
ATOM     92  F   UNL A   1      44.443  33.646  26.951  1.00  0.00    -0.205 F 
ATOM     93  C   UNL A   1      46.353  35.378  29.546  1.00  0.00     0.022 A 
BRANCH  91  94
ATOM     94  S   UNL A   1      45.778  36.423  27.081  1.00  0.00     0.127 S 
ATOM     95  O   UNL A   1      46.741  37.351  27.670  1.00  0.00    -0.237 OA
ATOM     96  O   UNL A   1      46.268  35.697  25.908  1.00  0.00    -0.237 OA
ATOM     97  O   UNL A   1      44.419  36.935  26.952  1.00  0.00    -0.744 OA
ENDBRANCH  91  94
ENDBRANCH  64  87
ENDBRANCH  38  39
ENDBRANCH  30  33
ENDBRANCH  28  29
ENDBRANCH  27  28
ENDBRANCH  26  27
ENDBRANCH   1  26
TORSDOF 19
ENDMDL
