MODEL 1
REMARK VINA RESULT:     -11.4      0.000      0.000
REMARK SMILES O=C(C[C@@H]([NH2+]C[C@H]1CCCO1)C(=O)NCCCCCCNC(=O)c1ccc(-c2c3nc(c(-c4cccc(S(=O)(=O)[O-])c4F)c4ccc([nH]4)c(-c4cccc(S(=O)(=O)[O-])c4F)c4nc(c(-c5cccc(S(=O)(=O)[O-])c5F)c5ccc2[nH]5)C=C4)C=C3)cc1)Nc1cccc(Cl)c1
REMARK SMILES IDX 17 1 16 2 15 3 14 4 12 5 13 6 4 8 3 9 2 10 1 11 87 12 88 14
REMARK SMILES IDX 89 15 94 16 90 17 92 18 91 19 93 20 5 21 6 24 7 25 8 26
REMARK SMILES IDX 11 27 9 28 10 29 18 30 19 31 20 32 21 33 22 34 23 36 24 37
REMARK SMILES IDX 25 38 86 39 26 40 85 41 27 42 28 43 29 44 79 45 30 46 84 47
REMARK SMILES IDX 78 48 80 49 31 50 83 51 77 52 76 53 32 55 64 56 44 57 63 58
REMARK SMILES IDX 45 59 48 60 62 61 81 62 46 63 47 64 61 66 82 67 49 68 33 69
REMARK SMILES IDX 34 70 42 71 35 72 37 73 43 74 36 75 38 76 39 77 40 78 41 79
REMARK SMILES IDX 65 80 66 81 74 82 67 83 69 84 75 85 68 86 70 87 71 88 72 89
REMARK SMILES IDX 73 90 50 91 51 92 59 93 52 94 54 95 60 96 53 97 55 98 56 99
REMARK SMILES IDX 57 100 58 101
REMARK H PARENT 14 7 87 13 5 22 5 23 21 35 80 54 48 65
REMARK Flexibility Score: inf
ROOT
ATOM      1  C   UNL A   1      33.107  30.185  26.230  1.00  0.00     0.002 C 
ENDROOT
BRANCH   1   2
ATOM      2  C   UNL A   1      33.252  29.506  24.861  1.00  0.00     0.021 C 
BRANCH   2   3
ATOM      3  C   UNL A   1      33.735  28.055  24.953  1.00  0.00     0.116 C 
BRANCH   3   4
ATOM      4  N   UNL A   1      33.893  27.509  23.620  1.00  0.00    -0.351 N 
ATOM      5  C   UNL A   1      33.510  26.302  23.115  1.00  0.00     0.278 C 
ATOM      6  O   UNL A   1      33.918  25.999  21.989  1.00  0.00    -0.268 OA
ATOM      7  H   UNL A   1      34.347  28.102  22.978  1.00  0.00     0.163 HD
BRANCH   5   8
ATOM      8  C   UNL A   1      32.596  25.348  23.910  1.00  0.00     0.282 C 
BRANCH   8   9
ATOM      9  C   UNL A   1      31.238  25.230  23.198  1.00  0.00     0.175 C 
BRANCH   9  10
ATOM     10  C   UNL A   1      30.210  26.235  23.659  1.00  0.00     0.230 C 
ATOM     11  O   UNL A   1      29.554  26.050  24.681  1.00  0.00    -0.274 OA
ATOM     12  N   UNL A   1      30.093  27.325  22.813  1.00  0.00    -0.326 N 
ATOM     13  H   UNL A   1      30.643  27.331  21.996  1.00  0.00     0.169 HD
BRANCH  12  14
ATOM     14  C   UNL A   1      29.248  28.423  23.037  1.00  0.00     0.042 A 
ATOM     15  C   UNL A   1      27.867  28.231  22.927  1.00  0.00     0.026 A 
ATOM     16  C   UNL A   1      29.753  29.690  23.334  1.00  0.00     0.046 A 
ATOM     17  C   UNL A   1      26.991  29.291  23.177  1.00  0.00     0.004 A 
ATOM     18  C   UNL A   1      28.876  30.756  23.524  1.00  0.00     0.043 A 
ATOM     19  C   UNL A   1      27.497  30.558  23.468  1.00  0.00     0.020 A 
ATOM     20  Cl  UNL A   1      29.498  32.334  23.815  1.00  0.00    -0.084 Cl
ENDBRANCH  12  14
ENDBRANCH   9  10
ENDBRANCH   8   9
BRANCH   8  21
ATOM     21  N   UNL A   1      33.248  24.024  24.174  1.00  0.00    -0.333 N 
ATOM     22  H   UNL A   1      33.689  23.703  23.312  1.00  0.00     0.347 HD
ATOM     23  H   UNL A   1      32.520  23.386  24.493  1.00  0.00     0.347 HD
BRANCH  21  24
ATOM     24  C   UNL A   1      34.279  24.083  25.239  1.00  0.00     0.293 C 
BRANCH  24  25
ATOM     25  C   UNL A   1      34.927  22.709  25.538  1.00  0.00     0.173 C 
ATOM     26  C   UNL A   1      35.187  21.876  24.291  1.00  0.00     0.040 C 
ATOM     27  O   UNL A   1      36.206  22.917  26.165  1.00  0.00    -0.372 OA
ATOM     28  C   UNL A   1      36.606  22.242  23.937  1.00  0.00     0.031 C 
ATOM     29  C   UNL A   1      37.233  22.416  25.302  1.00  0.00     0.161 C 
ENDBRANCH  24  25
ENDBRANCH  21  24
ENDBRANCH   8  21
ENDBRANCH   5   8
ENDBRANCH   3   4
ENDBRANCH   2   3
ENDBRANCH   1   2
BRANCH   1  30
ATOM     30  C   UNL A   1      31.674  30.592  26.588  1.00  0.00     0.002 C 
BRANCH  30  31
ATOM     31  C   UNL A   1      31.498  32.076  26.918  1.00  0.00     0.021 C 
BRANCH  31  32
ATOM     32  C   UNL A   1      32.784  32.777  27.342  1.00  0.00     0.116 C 
BRANCH  32  33
ATOM     33  N   UNL A   1      32.553  34.178  27.659  1.00  0.00    -0.352 N 
ATOM     34  C   UNL A   1      33.108  34.940  28.655  1.00  0.00     0.251 C 
ATOM     35  H   UNL A   1      31.909  34.645  27.078  1.00  0.00     0.163 HD
ATOM     36  O   UNL A   1      32.635  36.043  28.924  1.00  0.00    -0.269 OA
BRANCH  34  37
ATOM     37  C   UNL A   1      34.266  34.422  29.410  1.00  0.00     0.039 A 
ATOM     38  C   UNL A   1      34.058  33.853  30.668  1.00  0.00     0.014 A 
ATOM     39  C   UNL A   1      35.555  34.495  28.873  1.00  0.00     0.014 A 
ATOM     40  C   UNL A   1      35.139  33.309  31.365  1.00  0.00     0.010 A 
ATOM     41  C   UNL A   1      36.615  33.883  29.533  1.00  0.00     0.010 A 
ATOM     42  C   UNL A   1      36.420  33.292  30.790  1.00  0.00    -0.014 A 
BRANCH  42  43
ATOM     43  C   UNL A   1      37.566  32.653  31.485  1.00  0.00     0.031 A 
ATOM     44  C   UNL A   1      38.291  31.496  30.851  1.00  0.00     0.074 A 
ATOM     45  C   UNL A   1      37.904  33.062  32.725  1.00  0.00     0.049 A 
ATOM     46  N   UNL A   1      39.280  30.784  31.326  1.00  0.00    -0.248 NA
ATOM     47  C   UNL A   1      37.828  31.066  29.521  1.00  0.00     0.031 C 
ATOM     48  C   UNL A   1      37.228  34.121  33.478  1.00  0.00     0.029 A 
ATOM     49  N   UNL A   1      38.882  32.620  33.580  1.00  0.00    -0.354 N 
ATOM     50  C   UNL A   1      39.533  29.803  30.373  1.00  0.00     0.074 A 
ATOM     51  C   UNL A   1      38.571  29.990  29.309  1.00  0.00     0.031 C 
ATOM     52  C   UNL A   1      37.815  34.251  34.678  1.00  0.00     0.029 A 
ATOM     53  C   UNL A   1      38.883  33.262  34.796  1.00  0.00     0.049 A 
ATOM     54  H   UNL A   1      39.522  31.909  33.346  1.00  0.00     0.167 HD
ATOM     55  C   UNL A   1      40.497  28.852  30.370  1.00  0.00     0.034 A 
ATOM     56  C   UNL A   1      39.650  33.071  35.888  1.00  0.00     0.034 A 
ATOM     57  C   UNL A   1      41.473  28.692  31.415  1.00  0.00     0.049 A 
ATOM     58  C   UNL A   1      40.730  32.025  35.847  1.00  0.00     0.074 A 
ATOM     59  C   UNL A   1      42.542  27.816  31.464  1.00  0.00     0.029 A 
ATOM     60  N   UNL A   1      41.490  29.412  32.599  1.00  0.00    -0.354 N 
ATOM     61  N   UNL A   1      41.056  31.213  34.871  1.00  0.00    -0.248 NA
ATOM     62  C   UNL A   1      41.571  31.891  37.046  1.00  0.00     0.031 C 
ATOM     63  C   UNL A   1      43.186  27.982  32.695  1.00  0.00     0.029 A 
ATOM     64  C   UNL A   1      42.541  28.990  33.395  1.00  0.00     0.049 A 
ATOM     65  H   UNL A   1      40.849  30.120  32.840  1.00  0.00     0.167 HD
ATOM     66  C   UNL A   1      42.162  30.500  35.322  1.00  0.00     0.074 A 
ATOM     67  C   UNL A   1      42.461  30.992  36.650  1.00  0.00     0.031 C 
ATOM     68  C   UNL A   1      42.858  29.519  34.696  1.00  0.00     0.034 A 
BRANCH  55  69
ATOM     69  C   UNL A   1      40.570  27.931  29.179  1.00  0.00     0.023 A 
ATOM     70  C   UNL A   1      39.686  26.835  29.087  1.00  0.00     0.012 A 
ATOM     71  C   UNL A   1      41.470  28.182  28.125  1.00  0.00     0.148 A 
ATOM     72  C   UNL A   1      39.723  25.983  27.984  1.00  0.00     0.002 A 
ATOM     73  C   UNL A   1      41.466  27.357  27.006  1.00  0.00     0.091 A 
ATOM     74  F   UNL A   1      42.315  29.216  28.239  1.00  0.00    -0.205 F 
ATOM     75  C   UNL A   1      40.604  26.251  26.940  1.00  0.00     0.022 A 
BRANCH  73  76
ATOM     76  S   UNL A   1      42.502  27.664  25.571  1.00  0.00     0.127 S 
ATOM     77  O   UNL A   1      42.222  26.487  24.750  1.00  0.00    -0.237 OA
ATOM     78  O   UNL A   1      41.946  28.915  25.054  1.00  0.00    -0.237 OA
ATOM     79  O   UNL A   1      43.865  27.765  26.073  1.00  0.00    -0.744 OA
ENDBRANCH  73  76
ENDBRANCH  55  69
BRANCH  56  80
ATOM     80  C   UNL A   1      39.456  33.925  37.094  1.00  0.00     0.023 A 
ATOM     81  C   UNL A   1      39.881  35.268  37.069  1.00  0.00     0.012 A 
ATOM     82  C   UNL A   1      38.835  33.422  38.254  1.00  0.00     0.148 A 
ATOM     83  C   UNL A   1      39.725  36.084  38.190  1.00  0.00     0.002 A 
ATOM     84  C   UNL A   1      38.630  34.257  39.347  1.00  0.00     0.091 A 
ATOM     85  F   UNL A   1      38.443  32.141  38.260  1.00  0.00    -0.205 F 
ATOM     86  C   UNL A   1      39.092  35.582  39.324  1.00  0.00     0.022 A 
BRANCH  84  87
ATOM     87  S   UNL A   1      37.706  33.737  40.796  1.00  0.00     0.127 S 
ATOM     88  O   UNL A   1      38.627  32.784  41.411  1.00  0.00    -0.237 OA
ATOM     89  O   UNL A   1      37.548  34.997  41.522  1.00  0.00    -0.237 OA
ATOM     90  O   UNL A   1      36.460  33.175  40.291  1.00  0.00    -0.744 OA
ENDBRANCH  84  87
ENDBRANCH  56  80
BRANCH  68  91
ATOM     91  C   UNL A   1      44.044  28.932  35.418  1.00  0.00     0.023 A 
ATOM     92  C   UNL A   1      45.325  29.491  35.241  1.00  0.00     0.012 A 
ATOM     93  C   UNL A   1      43.873  27.871  36.329  1.00  0.00     0.148 A 
ATOM     94  C   UNL A   1      46.423  28.980  35.932  1.00  0.00     0.002 A 
ATOM     95  C   UNL A   1      44.961  27.402  37.054  1.00  0.00     0.091 A 
ATOM     96  F   UNL A   1      42.649  27.341  36.471  1.00  0.00    -0.205 F 
ATOM     97  C   UNL A   1      46.240  27.946  36.846  1.00  0.00     0.022 A 
BRANCH  95  98
ATOM     98  S   UNL A   1      44.804  26.143  38.324  1.00  0.00     0.127 S 
ATOM     99  O   UNL A   1      44.330  24.997  37.550  1.00  0.00    -0.237 OA
ATOM    100  O   UNL A   1      46.179  26.023  38.812  1.00  0.00    -0.237 OA
ATOM    101  O   UNL A   1      43.859  26.670  39.300  1.00  0.00    -0.744 OA
ENDBRANCH  95  98
ENDBRANCH  68  91
ENDBRANCH  42  43
ENDBRANCH  34  37
ENDBRANCH  32  33
ENDBRANCH  31  32
ENDBRANCH  30  31
ENDBRANCH   1  30
TORSDOF 22
ENDMDL
MODEL 2
REMARK VINA RESULT:     -11.3      1.847      4.189
REMARK SMILES O=C(C[C@@H]([NH2+]C[C@H]1CCCO1)C(=O)NCCCCCCNC(=O)c1ccc(-c2c3nc(c(-c4cccc(S(=O)(=O)[O-])c4F)c4ccc([nH]4)c(-c4cccc(S(=O)(=O)[O-])c4F)c4nc(c(-c5cccc(S(=O)(=O)[O-])c5F)c5ccc2[nH]5)C=C4)C=C3)cc1)Nc1cccc(Cl)c1
REMARK SMILES IDX 17 1 16 2 15 3 14 4 12 5 13 6 4 8 3 9 2 10 1 11 87 12 88 14
REMARK SMILES IDX 89 15 94 16 90 17 92 18 91 19 93 20 5 21 6 24 7 25 8 26
REMARK SMILES IDX 11 27 9 28 10 29 18 30 19 31 20 32 21 33 22 34 23 36 24 37
REMARK SMILES IDX 25 38 86 39 26 40 85 41 27 42 28 43 29 44 79 45 30 46 84 47
REMARK SMILES IDX 78 48 80 49 31 50 83 51 77 52 76 53 32 55 64 56 44 57 63 58
REMARK SMILES IDX 45 59 48 60 62 61 81 62 46 63 47 64 61 66 82 67 49 68 33 69
REMARK SMILES IDX 34 70 42 71 35 72 37 73 43 74 36 75 38 76 39 77 40 78 41 79
REMARK SMILES IDX 65 80 66 81 74 82 67 83 69 84 75 85 68 86 70 87 71 88 72 89
REMARK SMILES IDX 73 90 50 91 51 92 59 93 52 94 54 95 60 96 53 97 55 98 56 99
REMARK SMILES IDX 57 100 58 101
REMARK H PARENT 14 7 87 13 5 22 5 23 21 35 80 54 48 65
REMARK Flexibility Score: inf
ROOT
ATOM      1  C   UNL A   1      32.394  29.523  26.994  1.00  0.00     0.002 C 
ENDROOT
BRANCH   1   2
ATOM      2  C   UNL A   1      31.642  28.186  26.961  1.00  0.00     0.021 C 
BRANCH   2   3
ATOM      3  C   UNL A   1      32.004  27.316  25.754  1.00  0.00     0.116 C 
BRANCH   3   4
ATOM      4  N   UNL A   1      30.794  26.847  25.110  1.00  0.00    -0.351 N 
ATOM      5  C   UNL A   1      30.420  26.899  23.800  1.00  0.00     0.278 C 
ATOM      6  O   UNL A   1      29.256  26.590  23.527  1.00  0.00    -0.268 OA
ATOM      7  H   UNL A   1      30.138  26.425  25.712  1.00  0.00     0.163 HD
BRANCH   5   8
ATOM      8  C   UNL A   1      31.410  27.319  22.695  1.00  0.00     0.282 C 
BRANCH   8   9
ATOM      9  C   UNL A   1      31.580  26.163  21.695  1.00  0.00     0.175 C 
BRANCH   9  10
ATOM     10  C   UNL A   1      32.397  25.008  22.222  1.00  0.00     0.230 C 
ATOM     11  O   UNL A   1      33.620  24.995  22.121  1.00  0.00    -0.274 OA
ATOM     12  N   UNL A   1      31.624  24.005  22.787  1.00  0.00    -0.326 N 
ATOM     13  H   UNL A   1      30.646  24.113  22.762  1.00  0.00     0.169 HD
BRANCH  12  14
ATOM     14  C   UNL A   1      32.138  22.848  23.392  1.00  0.00     0.042 A 
ATOM     15  C   UNL A   1      32.891  22.989  24.562  1.00  0.00     0.026 A 
ATOM     16  C   UNL A   1      31.939  21.581  22.841  1.00  0.00     0.046 A 
ATOM     17  C   UNL A   1      33.390  21.857  25.214  1.00  0.00     0.004 A 
ATOM     18  C   UNL A   1      32.490  20.463  23.464  1.00  0.00     0.043 A 
ATOM     19  C   UNL A   1      33.196  20.593  24.659  1.00  0.00     0.020 A 
ATOM     20  Cl  UNL A   1      32.311  18.909  22.745  1.00  0.00    -0.084 Cl
ENDBRANCH  12  14
ENDBRANCH   9  10
ENDBRANCH   8   9
BRANCH   8  21
ATOM     21  N   UNL A   1      31.022  28.615  22.048  1.00  0.00    -0.333 N 
ATOM     22  H   UNL A   1      30.538  28.408  21.174  1.00  0.00     0.347 HD
ATOM     23  H   UNL A   1      31.879  29.146  21.895  1.00  0.00     0.347 HD
BRANCH  21  24
ATOM     24  C   UNL A   1      30.134  29.448  22.895  1.00  0.00     0.293 C 
BRANCH  24  25
ATOM     25  C   UNL A   1      28.832  29.878  22.174  1.00  0.00     0.173 C 
ATOM     26  C   UNL A   1      27.639  30.016  23.109  1.00  0.00     0.040 C 
ATOM     27  O   UNL A   1      29.032  31.170  21.572  1.00  0.00    -0.372 OA
ATOM     28  C   UNL A   1      27.677  31.476  23.482  1.00  0.00     0.031 C 
ATOM     29  C   UNL A   1      28.156  32.114  22.197  1.00  0.00     0.161 C 
ENDBRANCH  24  25
ENDBRANCH  21  24
ENDBRANCH   8  21
ENDBRANCH   5   8
ENDBRANCH   3   4
ENDBRANCH   2   3
ENDBRANCH   1   2
BRANCH   1  30
ATOM     30  C   UNL A   1      31.798  30.609  26.092  1.00  0.00     0.002 C 
BRANCH  30  31
ATOM     31  C   UNL A   1      31.521  31.939  26.796  1.00  0.00     0.021 C 
BRANCH  31  32
ATOM     32  C   UNL A   1      32.750  32.570  27.442  1.00  0.00     0.116 C 
BRANCH  32  33
ATOM     33  N   UNL A   1      32.564  33.995  27.673  1.00  0.00    -0.352 N 
ATOM     34  C   UNL A   1      33.157  34.800  28.611  1.00  0.00     0.251 C 
ATOM     35  H   UNL A   1      31.925  34.443  27.072  1.00  0.00     0.163 HD
ATOM     36  O   UNL A   1      32.720  35.932  28.816  1.00  0.00    -0.269 OA
BRANCH  34  37
ATOM     37  C   UNL A   1      34.311  34.297  29.381  1.00  0.00     0.039 A 
ATOM     38  C   UNL A   1      34.086  33.640  30.593  1.00  0.00     0.014 A 
ATOM     39  C   UNL A   1      35.614  34.469  28.904  1.00  0.00     0.014 A 
ATOM     40  C   UNL A   1      35.166  33.110  31.300  1.00  0.00     0.010 A 
ATOM     41  C   UNL A   1      36.679  33.872  29.570  1.00  0.00     0.010 A 
ATOM     42  C   UNL A   1      36.468  33.195  30.780  1.00  0.00    -0.014 A 
BRANCH  42  43
ATOM     43  C   UNL A   1      37.619  32.573  31.483  1.00  0.00     0.031 A 
ATOM     44  C   UNL A   1      38.389  31.452  30.837  1.00  0.00     0.074 A 
ATOM     45  C   UNL A   1      37.922  32.964  32.737  1.00  0.00     0.049 A 
ATOM     46  N   UNL A   1      39.389  30.758  31.315  1.00  0.00    -0.248 NA
ATOM     47  C   UNL A   1      37.963  31.039  29.490  1.00  0.00     0.031 C 
ATOM     48  C   UNL A   1      37.201  33.986  33.500  1.00  0.00     0.029 A 
ATOM     49  N   UNL A   1      38.896  32.531  33.601  1.00  0.00    -0.354 N 
ATOM     50  C   UNL A   1      39.688  29.807  30.346  1.00  0.00     0.074 A 
ATOM     51  C   UNL A   1      38.741  29.990  29.268  1.00  0.00     0.031 C 
ATOM     52  C   UNL A   1      37.763  34.106  34.714  1.00  0.00     0.029 A 
ATOM     53  C   UNL A   1      38.857  33.146  34.830  1.00  0.00     0.049 A 
ATOM     54  H   UNL A   1      39.561  31.844  33.363  1.00  0.00     0.167 HD
ATOM     55  C   UNL A   1      40.679  28.883  30.341  1.00  0.00     0.034 A 
ATOM     56  C   UNL A   1      39.608  32.953  35.932  1.00  0.00     0.034 A 
ATOM     57  C   UNL A   1      41.640  28.729  31.400  1.00  0.00     0.049 A 
ATOM     58  C   UNL A   1      40.719  31.939  35.889  1.00  0.00     0.074 A 
ATOM     59  C   UNL A   1      42.733  27.883  31.451  1.00  0.00     0.029 A 
ATOM     60  N   UNL A   1      41.614  29.423  32.600  1.00  0.00    -0.354 N 
ATOM     61  N   UNL A   1      41.087  31.159  34.902  1.00  0.00    -0.248 NA
ATOM     62  C   UNL A   1      41.541  31.803  37.100  1.00  0.00     0.031 C 
ATOM     63  C   UNL A   1      43.349  28.039  32.697  1.00  0.00     0.029 A 
ATOM     64  C   UNL A   1      42.662  29.013  33.406  1.00  0.00     0.049 A 
ATOM     65  H   UNL A   1      40.949  30.106  32.844  1.00  0.00     0.167 HD
ATOM     66  C   UNL A   1      42.204  30.468  35.358  1.00  0.00     0.074 A 
ATOM     67  C   UNL A   1      42.464  30.938  36.702  1.00  0.00     0.031 C 
ATOM     68  C   UNL A   1      42.940  29.521  34.724  1.00  0.00     0.034 A 
BRANCH  55  69
ATOM     69  C   UNL A   1      40.801  27.992  29.132  1.00  0.00     0.023 A 
ATOM     70  C   UNL A   1      39.853  26.968  28.919  1.00  0.00     0.012 A 
ATOM     71  C   UNL A   1      41.814  28.203  28.177  1.00  0.00     0.148 A 
ATOM     72  C   UNL A   1      39.935  26.146  27.796  1.00  0.00     0.002 A 
ATOM     73  C   UNL A   1      41.860  27.411  27.035  1.00  0.00     0.091 A 
ATOM     74  F   UNL A   1      42.718  29.167  28.405  1.00  0.00    -0.205 F 
ATOM     75  C   UNL A   1      40.930  26.375  26.850  1.00  0.00     0.022 A 
BRANCH  73  76
ATOM     76  S   UNL A   1      43.050  27.677  25.716  1.00  0.00     0.127 S 
ATOM     77  O   UNL A   1      43.659  26.353  25.598  1.00  0.00    -0.237 OA
ATOM     78  O   UNL A   1      42.187  28.054  24.597  1.00  0.00    -0.237 OA
ATOM     79  O   UNL A   1      43.938  28.733  26.183  1.00  0.00    -0.744 OA
ENDBRANCH  73  76
ENDBRANCH  55  69
BRANCH  56  80
ATOM     80  C   UNL A   1      39.367  33.773  37.152  1.00  0.00     0.023 A 
ATOM     81  C   UNL A   1      39.802  35.113  37.184  1.00  0.00     0.012 A 
ATOM     82  C   UNL A   1      38.693  33.243  38.269  1.00  0.00     0.148 A 
ATOM     83  C   UNL A   1      39.603  35.898  38.321  1.00  0.00     0.002 A 
ATOM     84  C   UNL A   1      38.446  34.048  39.376  1.00  0.00     0.091 A 
ATOM     85  F   UNL A   1      38.293  31.965  38.222  1.00  0.00    -0.205 F 
ATOM     86  C   UNL A   1      38.917  35.370  39.412  1.00  0.00     0.022 A 
BRANCH  84  87
ATOM     87  S   UNL A   1      37.457  33.494  40.768  1.00  0.00     0.127 S 
ATOM     88  O   UNL A   1      37.307  34.727  41.538  1.00  0.00    -0.237 OA
ATOM     89  O   UNL A   1      36.237  33.031  40.106  1.00  0.00    -0.237 OA
ATOM     90  O   UNL A   1      38.230  32.440  41.409  1.00  0.00    -0.744 OA
ENDBRANCH  84  87
ENDBRANCH  56  80
BRANCH  68  91
ATOM     91  C   UNL A   1      44.129  28.953  35.456  1.00  0.00     0.023 A 
ATOM     92  C   UNL A   1      45.391  29.568  35.336  1.00  0.00     0.012 A 
ATOM     93  C   UNL A   1      43.977  27.850  36.320  1.00  0.00     0.148 A 
ATOM     94  C   UNL A   1      46.490  29.072  36.037  1.00  0.00     0.002 A 
ATOM     95  C   UNL A   1      45.063  27.395  37.056  1.00  0.00     0.091 A 
ATOM     96  F   UNL A   1      42.771  27.268  36.407  1.00  0.00    -0.205 F 
ATOM     97  C   UNL A   1      46.324  27.997  36.905  1.00  0.00     0.022 A 
BRANCH  95  98
ATOM     98  S   UNL A   1      44.922  26.081  38.271  1.00  0.00     0.127 S 
ATOM     99  O   UNL A   1      44.583  24.934  37.431  1.00  0.00    -0.237 OA
ATOM    100  O   UNL A   1      46.270  26.042  38.841  1.00  0.00    -0.237 OA
ATOM    101  O   UNL A   1      43.884  26.502  39.202  1.00  0.00    -0.744 OA
ENDBRANCH  95  98
ENDBRANCH  68  91
ENDBRANCH  42  43
ENDBRANCH  34  37
ENDBRANCH  32  33
ENDBRANCH  31  32
ENDBRANCH  30  31
ENDBRANCH   1  30
TORSDOF 22
ENDMDL
MODEL 3
REMARK VINA RESULT:     -11.2      4.361      9.593
REMARK SMILES O=C(C[C@@H]([NH2+]C[C@H]1CCCO1)C(=O)NCCCCCCNC(=O)c1ccc(-c2c3nc(c(-c4cccc(S(=O)(=O)[O-])c4F)c4ccc([nH]4)c(-c4cccc(S(=O)(=O)[O-])c4F)c4nc(c(-c5cccc(S(=O)(=O)[O-])c5F)c5ccc2[nH]5)C=C4)C=C3)cc1)Nc1cccc(Cl)c1
REMARK SMILES IDX 17 1 16 2 15 3 14 4 12 5 13 6 4 8 3 9 2 10 1 11 87 12 88 14
REMARK SMILES IDX 89 15 94 16 90 17 92 18 91 19 93 20 5 21 6 24 7 25 8 26
REMARK SMILES IDX 11 27 9 28 10 29 18 30 19 31 20 32 21 33 22 34 23 36 24 37
REMARK SMILES IDX 25 38 86 39 26 40 85 41 27 42 28 43 29 44 79 45 30 46 84 47
REMARK SMILES IDX 78 48 80 49 31 50 83 51 77 52 76 53 32 55 64 56 44 57 63 58
REMARK SMILES IDX 45 59 48 60 62 61 81 62 46 63 47 64 61 66 82 67 49 68 33 69
REMARK SMILES IDX 34 70 42 71 35 72 37 73 43 74 36 75 38 76 39 77 40 78 41 79
REMARK SMILES IDX 65 80 66 81 74 82 67 83 69 84 75 85 68 86 70 87 71 88 72 89
REMARK SMILES IDX 73 90 50 91 51 92 59 93 52 94 54 95 60 96 53 97 55 98 56 99
REMARK SMILES IDX 57 100 58 101
REMARK H PARENT 14 7 87 13 5 22 5 23 21 35 80 54 48 65
REMARK Flexibility Score: inf
ROOT
ATOM      1  C   UNL A   1      31.355  28.808  25.014  1.00  0.00     0.002 C 
ENDROOT
BRANCH   1   2
ATOM      2  C   UNL A   1      30.896  27.594  24.196  1.00  0.00     0.021 C 
BRANCH   2   3
ATOM      3  C   UNL A   1      30.509  26.391  25.061  1.00  0.00     0.116 C 
BRANCH   3   4
ATOM      4  N   UNL A   1      30.152  25.273  24.210  1.00  0.00    -0.351 N 
ATOM      5  C   UNL A   1      30.781  24.079  24.019  1.00  0.00     0.278 C 
ATOM      6  O   UNL A   1      30.373  23.359  23.103  1.00  0.00    -0.268 OA
ATOM      7  H   UNL A   1      29.326  25.395  23.687  1.00  0.00     0.163 HD
BRANCH   5   8
ATOM      8  C   UNL A   1      31.954  23.633  24.916  1.00  0.00     0.282 C 
BRANCH   8   9
ATOM      9  C   UNL A   1      31.615  22.280  25.565  1.00  0.00     0.175 C 
BRANCH   9  10
ATOM     10  C   UNL A   1      32.224  21.091  24.862  1.00  0.00     0.230 C 
ATOM     11  O   UNL A   1      32.427  21.102  23.651  1.00  0.00    -0.274 OA
ATOM     12  N   UNL A   1      32.490  20.031  25.714  1.00  0.00    -0.326 N 
ATOM     13  H   UNL A   1      32.233  20.129  26.660  1.00  0.00     0.169 HD
BRANCH  12  14
ATOM     14  C   UNL A   1      33.099  18.827  25.325  1.00  0.00     0.042 A 
ATOM     15  C   UNL A   1      34.308  18.892  24.624  1.00  0.00     0.026 A 
ATOM     16  C   UNL A   1      32.515  17.588  25.594  1.00  0.00     0.046 A 
ATOM     17  C   UNL A   1      34.962  17.715  24.249  1.00  0.00     0.004 A 
ATOM     18  C   UNL A   1      33.145  16.421  25.165  1.00  0.00     0.043 A 
ATOM     19  C   UNL A   1      34.376  16.478  24.513  1.00  0.00     0.020 A 
ATOM     20  Cl  UNL A   1      32.390  14.897  25.429  1.00  0.00    -0.084 Cl
ENDBRANCH  12  14
ENDBRANCH   9  10
ENDBRANCH   8   9
BRANCH   8  21
ATOM     21  N   UNL A   1      33.262  23.632  24.182  1.00  0.00    -0.333 N 
ATOM     22  H   UNL A   1      33.101  23.972  23.234  1.00  0.00     0.347 HD
ATOM     23  H   UNL A   1      33.614  22.675  24.191  1.00  0.00     0.347 HD
BRANCH  21  24
ATOM     24  C   UNL A   1      34.291  24.486  24.823  1.00  0.00     0.293 C 
BRANCH  24  25
ATOM     25  C   UNL A   1      35.740  24.052  24.487  1.00  0.00     0.173 C 
ATOM     26  C   UNL A   1      36.569  23.702  25.714  1.00  0.00     0.040 C 
ATOM     27  O   UNL A   1      35.699  22.868  23.670  1.00  0.00    -0.372 OA
ATOM     28  C   UNL A   1      36.366  22.214  25.839  1.00  0.00     0.031 C 
ATOM     29  C   UNL A   1      36.298  21.785  24.390  1.00  0.00     0.161 C 
ENDBRANCH  24  25
ENDBRANCH  21  24
ENDBRANCH   8  21
ENDBRANCH   5   8
ENDBRANCH   3   4
ENDBRANCH   2   3
ENDBRANCH   1   2
BRANCH   1  30
ATOM     30  C   UNL A   1      32.825  29.189  24.814  1.00  0.00     0.002 C 
BRANCH  30  31
ATOM     31  C   UNL A   1      33.803  28.452  25.732  1.00  0.00     0.021 C 
BRANCH  31  32
ATOM     32  C   UNL A   1      33.610  28.748  27.215  1.00  0.00     0.116 C 
BRANCH  32  33
ATOM     33  N   UNL A   1      33.631  30.177  27.486  1.00  0.00    -0.352 N 
ATOM     34  C   UNL A   1      34.555  30.909  28.187  1.00  0.00     0.251 C 
ATOM     35  H   UNL A   1      32.878  30.692  27.113  1.00  0.00     0.163 HD
ATOM     36  O   UNL A   1      34.305  32.068  28.514  1.00  0.00    -0.269 OA
BRANCH  34  37
ATOM     37  C   UNL A   1      35.843  30.292  28.560  1.00  0.00     0.039 A 
ATOM     38  C   UNL A   1      36.931  30.413  27.693  1.00  0.00     0.014 A 
ATOM     39  C   UNL A   1      35.976  29.598  29.767  1.00  0.00     0.014 A 
ATOM     40  C   UNL A   1      38.169  29.882  28.062  1.00  0.00     0.010 A 
ATOM     41  C   UNL A   1      37.227  29.141  30.166  1.00  0.00     0.010 A 
ATOM     42  C   UNL A   1      38.334  29.269  29.314  1.00  0.00    -0.014 A 
BRANCH  42  43
ATOM     43  C   UNL A   1      39.660  28.764  29.753  1.00  0.00     0.031 A 
ATOM     44  C   UNL A   1      40.423  29.474  30.839  1.00  0.00     0.074 A 
ATOM     45  C   UNL A   1      40.214  27.711  29.118  1.00  0.00     0.049 A 
ATOM     46  N   UNL A   1      41.609  29.210  31.321  1.00  0.00    -0.248 NA
ATOM     47  C   UNL A   1      39.780  30.652  31.446  1.00  0.00     0.031 C 
ATOM     48  C   UNL A   1      39.609  26.986  27.999  1.00  0.00     0.029 A 
ATOM     49  N   UNL A   1      41.421  27.085  29.305  1.00  0.00    -0.354 N 
ATOM     50  C   UNL A   1      41.870  30.203  32.258  1.00  0.00     0.074 A 
ATOM     51  C   UNL A   1      40.732  31.097  32.252  1.00  0.00     0.031 C 
ATOM     52  C   UNL A   1      40.443  26.011  27.604  1.00  0.00     0.029 A 
ATOM     53  C   UNL A   1      41.656  26.064  28.415  1.00  0.00     0.049 A 
ATOM     54  H   UNL A   1      42.059  27.343  30.009  1.00  0.00     0.167 HD
ATOM     55  C   UNL A   1      42.945  30.344  33.069  1.00  0.00     0.034 A 
ATOM     56  C   UNL A   1      42.731  25.266  28.259  1.00  0.00     0.034 A 
ATOM     57  C   UNL A   1      44.057  29.433  33.095  1.00  0.00     0.049 A 
ATOM     58  C   UNL A   1      43.901  25.428  29.192  1.00  0.00     0.074 A 
ATOM     59  C   UNL A   1      45.153  29.439  33.940  1.00  0.00     0.029 A 
ATOM     60  N   UNL A   1      44.226  28.364  32.229  1.00  0.00    -0.354 N 
ATOM     61  N   UNL A   1      44.058  26.276  30.179  1.00  0.00    -0.248 NA
ATOM     62  C   UNL A   1      45.026  24.499  29.013  1.00  0.00     0.031 C 
ATOM     63  C   UNL A   1      46.002  28.394  33.562  1.00  0.00     0.029 A 
ATOM     64  C   UNL A   1      45.415  27.712  32.507  1.00  0.00     0.049 A 
ATOM     65  H   UNL A   1      43.594  28.106  31.520  1.00  0.00     0.167 HD
ATOM     66  C   UNL A   1      45.280  25.959  30.762  1.00  0.00     0.074 A 
ATOM     67  C   UNL A   1      45.811  24.828  30.030  1.00  0.00     0.031 C 
ATOM     68  C   UNL A   1      45.911  26.559  31.802  1.00  0.00     0.034 A 
BRANCH  55  69
ATOM     69  C   UNL A   1      42.952  31.507  34.029  1.00  0.00     0.023 A 
ATOM     70  C   UNL A   1      43.514  32.738  33.630  1.00  0.00     0.012 A 
ATOM     71  C   UNL A   1      42.352  31.401  35.299  1.00  0.00     0.148 A 
ATOM     72  C   UNL A   1      43.513  33.832  34.495  1.00  0.00     0.002 A 
ATOM     73  C   UNL A   1      42.311  32.510  36.135  1.00  0.00     0.091 A 
ATOM     74  F   UNL A   1      41.842  30.217  35.667  1.00  0.00    -0.205 F 
ATOM     75  C   UNL A   1      42.902  33.721  35.740  1.00  0.00     0.022 A 
BRANCH  73  76
ATOM     76  S   UNL A   1      41.475  32.496  37.724  1.00  0.00     0.127 S 
ATOM     77  O   UNL A   1      41.540  33.907  38.103  1.00  0.00    -0.237 OA
ATOM     78  O   UNL A   1      40.139  32.023  37.363  1.00  0.00    -0.237 OA
ATOM     79  O   UNL A   1      42.235  31.587  38.571  1.00  0.00    -0.744 OA
ENDBRANCH  73  76
ENDBRANCH  55  69
BRANCH  56  80
ATOM     80  C   UNL A   1      42.730  24.209  27.209  1.00  0.00     0.023 A 
ATOM     81  C   UNL A   1      43.356  24.459  25.972  1.00  0.00     0.012 A 
ATOM     82  C   UNL A   1      42.134  22.953  27.436  1.00  0.00     0.148 A 
ATOM     83  C   UNL A   1      43.355  23.491  24.966  1.00  0.00     0.002 A 
ATOM     84  C   UNL A   1      42.187  21.973  26.452  1.00  0.00     0.091 A 
ATOM     85  F   UNL A   1      41.538  22.738  28.617  1.00  0.00    -0.205 F 
ATOM     86  C   UNL A   1      42.779  22.246  25.209  1.00  0.00     0.022 A 
BRANCH  84  87
ATOM     87  S   UNL A   1      41.592  20.301  26.725  1.00  0.00     0.127 S 
ATOM     88  O   UNL A   1      41.940  19.650  25.463  1.00  0.00    -0.237 OA
ATOM     89  O   UNL A   1      42.392  19.880  27.875  1.00  0.00    -0.237 OA
ATOM     90  O   UNL A   1      40.167  20.427  26.998  1.00  0.00    -0.744 OA
ENDBRANCH  84  87
ENDBRANCH  56  80
BRANCH  68  91
ATOM     91  C   UNL A   1      47.232  25.983  32.246  1.00  0.00     0.023 A 
ATOM     92  C   UNL A   1      47.278  25.073  33.321  1.00  0.00     0.012 A 
ATOM     93  C   UNL A   1      48.417  26.291  31.549  1.00  0.00     0.148 A 
ATOM     94  C   UNL A   1      48.489  24.506  33.717  1.00  0.00     0.002 A 
ATOM     95  C   UNL A   1      49.610  25.682  31.915  1.00  0.00     0.091 A 
ATOM     96  F   UNL A   1      48.354  27.173  30.540  1.00  0.00    -0.205 F 
ATOM     97  C   UNL A   1      49.651  24.799  33.007  1.00  0.00     0.022 A 
BRANCH  95  98
ATOM     98  S   UNL A   1      51.136  25.922  30.999  1.00  0.00     0.127 S 
ATOM     99  O   UNL A   1      50.766  25.435  29.671  1.00  0.00    -0.237 OA
ATOM    100  O   UNL A   1      51.323  27.371  31.086  1.00  0.00    -0.237 OA
ATOM    101  O   UNL A   1      52.149  25.138  31.692  1.00  0.00    -0.744 OA
ENDBRANCH  95  98
ENDBRANCH  68  91
ENDBRANCH  42  43
ENDBRANCH  34  37
ENDBRANCH  32  33
ENDBRANCH  31  32
ENDBRANCH  30  31
ENDBRANCH   1  30
TORSDOF 22
ENDMDL
