MODEL 1
REMARK VINA RESULT:     -12.6      0.000      0.000
REMARK SMILES O=C(NCCCCCCNC(=O)c1ccc(-c2c3nc(c(-c4cccc(S(=O)(=O)[O-])c4F)c4ccc([nH]4)c(-c4cccc(S(=O)(=O)[O-])c4F)c4nc(c(-c5cccc(S(=O)(=O)[O-])c5F)c5ccc2[nH]5)C=C4)C=C3)cc1)C1=Cc2cc(Cl)cc(-c3ccccc3)c2O[C@@H]1C(F)(F)F
REMARK SMILES IDX 7 1 6 2 5 3 4 4 3 5 1 6 2 7 76 9 77 10 92 11 78 12 91 13
REMARK SMILES IDX 79 14 90 15 80 16 83 17 81 18 82 19 93 20 94 21 95 22 96 23
REMARK SMILES IDX 84 24 85 25 89 26 86 27 88 28 87 29 8 30 9 31 10 32 11 33
REMARK SMILES IDX 12 35 13 36 14 37 75 38 15 39 74 40 16 41 17 42 18 43 68 44
REMARK SMILES IDX 19 45 73 46 67 47 69 48 20 49 72 50 66 51 65 52 21 54 53 55
REMARK SMILES IDX 33 56 52 57 34 58 37 59 51 60 70 61 35 62 36 63 50 65 71 66
REMARK SMILES IDX 38 67 22 68 23 69 31 70 24 71 26 72 32 73 25 74 27 75 28 76
REMARK SMILES IDX 29 77 30 78 54 79 55 80 63 81 56 82 58 83 64 84 57 85 59 86
REMARK SMILES IDX 60 87 61 88 62 89 39 90 40 91 48 92 41 93 43 94 49 95 42 96
REMARK SMILES IDX 44 97 45 98 46 99 47 100
REMARK H PARENT 3 8 10 34 69 53 37 64
REMARK Flexibility Score: inf
ROOT
ATOM      1  C   UNL A   1      31.757  29.082  24.718  1.00  0.00     0.002 C 
ENDROOT
BRANCH   1   2
ATOM      2  C   UNL A   1      30.764  28.085  24.114  1.00  0.00     0.002 C 
BRANCH   2   3
ATOM      3  C   UNL A   1      30.532  26.777  24.875  1.00  0.00     0.021 C 
BRANCH   3   4
ATOM      4  C   UNL A   1      30.966  26.733  26.339  1.00  0.00     0.116 C 
BRANCH   4   5
ATOM      5  N   UNL A   1      31.343  25.433  26.865  1.00  0.00    -0.352 N 
ATOM      6  O   UNL A   1      32.532  23.549  27.105  1.00  0.00    -0.270 OA
ATOM      7  C   UNL A   1      32.300  24.555  26.430  1.00  0.00     0.251 C 
ATOM      8  H   UNL A   1      30.834  25.138  27.655  1.00  0.00     0.163 HD
BRANCH   7   9
ATOM      9  C   UNL A   1      33.134  24.776  25.201  1.00  0.00     0.067 C 
ATOM     10  C   UNL A   1      34.452  25.044  25.233  1.00  0.00     0.025 C 
ATOM     11  C   UNL A   1      32.653  23.926  24.039  1.00  0.00     0.314 C 
ATOM     12  C   UNL A   1      35.245  23.804  24.984  1.00  0.00     0.019 A 
ATOM     13  O   UNL A   1      33.303  22.626  24.085  1.00  0.00    -0.475 OA
ATOM     14  C   UNL A   1      36.563  23.778  25.450  1.00  0.00     0.032 A 
ATOM     15  C   UNL A   1      34.595  22.617  24.571  1.00  0.00     0.135 A 
ATOM     16  C   UNL A   1      37.197  22.554  25.609  1.00  0.00     0.042 A 
ATOM     17  C   UNL A   1      35.218  21.376  24.781  1.00  0.00     0.026 A 
ATOM     18  Cl  UNL A   1      38.738  22.494  26.372  1.00  0.00    -0.084 Cl
ATOM     19  C   UNL A   1      36.532  21.370  25.296  1.00  0.00     0.033 A 
BRANCH  11  20
ATOM     20  C   UNL A   1      32.806  24.624  22.673  1.00  0.00     0.429 C 
ATOM     21  F   UNL A   1      33.416  25.827  22.791  1.00  0.00    -0.167 F 
ATOM     22  F   UNL A   1      33.571  23.883  21.831  1.00  0.00    -0.167 F 
ATOM     23  F   UNL A   1      31.626  24.833  22.044  1.00  0.00    -0.167 F 
ENDBRANCH  11  20
BRANCH  17  24
ATOM     24  C   UNL A   1      34.515  20.083  24.721  1.00  0.00    -0.015 A 
ATOM     25  C   UNL A   1      35.259  18.892  24.664  1.00  0.00     0.009 A 
ATOM     26  C   UNL A   1      33.136  20.007  24.507  1.00  0.00     0.009 A 
ATOM     27  C   UNL A   1      34.676  17.686  24.273  1.00  0.00     0.001 A 
ATOM     28  C   UNL A   1      32.538  18.789  24.161  1.00  0.00     0.001 A 
ATOM     29  C   UNL A   1      33.313  17.640  24.007  1.00  0.00     0.000 A 
ENDBRANCH  17  24
ENDBRANCH   7   9
ENDBRANCH   4   5
ENDBRANCH   3   4
ENDBRANCH   2   3
ENDBRANCH   1   2
BRANCH   1  30
ATOM     30  C   UNL A   1      33.242  28.730  24.635  1.00  0.00     0.021 C 
BRANCH  30  31
ATOM     31  C   UNL A   1      34.014  28.863  25.940  1.00  0.00     0.116 C 
BRANCH  31  32
ATOM     32  N   UNL A   1      33.880  30.182  26.543  1.00  0.00    -0.352 N 
ATOM     33  C   UNL A   1      34.626  30.799  27.519  1.00  0.00     0.251 C 
ATOM     34  H   UNL A   1      33.132  30.719  26.194  1.00  0.00     0.163 HD
ATOM     35  O   UNL A   1      34.236  31.859  27.994  1.00  0.00    -0.269 OA
BRANCH  33  36
ATOM     36  C   UNL A   1      35.885  30.187  28.006  1.00  0.00     0.039 A 
ATOM     37  C   UNL A   1      37.033  30.275  27.212  1.00  0.00     0.014 A 
ATOM     38  C   UNL A   1      35.938  29.514  29.227  1.00  0.00     0.014 A 
ATOM     39  C   UNL A   1      38.239  29.738  27.671  1.00  0.00     0.010 A 
ATOM     40  C   UNL A   1      37.159  29.081  29.731  1.00  0.00     0.010 A 
ATOM     41  C   UNL A   1      38.320  29.164  28.950  1.00  0.00    -0.014 A 
BRANCH  41  42
ATOM     42  C   UNL A   1      39.600  28.622  29.480  1.00  0.00     0.031 A 
ATOM     43  C   UNL A   1      40.323  29.346  30.589  1.00  0.00     0.074 A 
ATOM     44  C   UNL A   1      40.149  27.528  28.918  1.00  0.00     0.049 A 
ATOM     45  N   UNL A   1      41.480  29.074  31.134  1.00  0.00    -0.248 NA
ATOM     46  C   UNL A   1      39.679  30.555  31.132  1.00  0.00     0.031 C 
ATOM     47  C   UNL A   1      39.593  26.789  27.780  1.00  0.00     0.029 A 
ATOM     48  N   UNL A   1      41.314  26.860  29.206  1.00  0.00    -0.354 N 
ATOM     49  C   UNL A   1      41.716  30.092  32.052  1.00  0.00     0.074 A 
ATOM     50  C   UNL A   1      40.609  31.015  31.954  1.00  0.00     0.031 C 
ATOM     51  C   UNL A   1      40.410  25.769  27.475  1.00  0.00     0.029 A 
ATOM     52  C   UNL A   1      41.566  25.800  28.366  1.00  0.00     0.049 A 
ATOM     53  H   UNL A   1      41.912  27.116  29.944  1.00  0.00     0.167 HD
ATOM     54  C   UNL A   1      42.739  30.227  32.928  1.00  0.00     0.034 A 
ATOM     55  C   UNL A   1      42.614  24.955  28.313  1.00  0.00     0.034 A 
ATOM     56  C   UNL A   1      43.813  29.281  33.056  1.00  0.00     0.049 A 
ATOM     57  C   UNL A   1      43.719  25.101  29.325  1.00  0.00     0.074 A 
ATOM     58  C   UNL A   1      44.857  29.282  33.963  1.00  0.00     0.029 A 
ATOM     59  N   UNL A   1      43.982  28.165  32.251  1.00  0.00    -0.354 N 
ATOM     60  N   UNL A   1      43.847  25.987  30.282  1.00  0.00    -0.248 NA
ATOM     61  C   UNL A   1      44.801  24.110  29.276  1.00  0.00     0.031 C 
ATOM     62  C   UNL A   1      45.673  28.180  33.690  1.00  0.00     0.029 A 
ATOM     63  C   UNL A   1      45.116  27.473  32.636  1.00  0.00     0.049 A 
ATOM     64  H   UNL A   1      43.385  27.905  31.514  1.00  0.00     0.167 HD
ATOM     65  C   UNL A   1      45.004  25.639  30.971  1.00  0.00     0.074 A 
ATOM     66  C   UNL A   1      45.524  24.447  30.335  1.00  0.00     0.031 C 
ATOM     67  C   UNL A   1      45.591  26.258  32.025  1.00  0.00     0.034 A 
BRANCH  54  68
ATOM     68  C   UNL A   1      42.712  31.411  33.861  1.00  0.00     0.023 A 
ATOM     69  C   UNL A   1      43.270  32.638  33.446  1.00  0.00     0.012 A 
ATOM     70  C   UNL A   1      42.087  31.330  35.121  1.00  0.00     0.148 A 
ATOM     71  C   UNL A   1      43.243  33.753  34.282  1.00  0.00     0.002 A 
ATOM     72  C   UNL A   1      42.019  32.459  35.929  1.00  0.00     0.091 A 
ATOM     73  F   UNL A   1      41.577  30.151  35.508  1.00  0.00    -0.205 F 
ATOM     74  C   UNL A   1      42.607  33.666  35.517  1.00  0.00     0.022 A 
BRANCH  72  75
ATOM     75  S   UNL A   1      41.154  32.479  37.503  1.00  0.00     0.127 S 
ATOM     76  O   UNL A   1      39.856  31.915  37.134  1.00  0.00    -0.237 OA
ATOM     77  O   UNL A   1      41.990  31.599  38.321  1.00  0.00    -0.237 OA
ATOM     78  O   UNL A   1      41.129  33.869  37.933  1.00  0.00    -0.744 OA
ENDBRANCH  72  75
ENDBRANCH  54  68
BRANCH  55  79
ATOM     79  C   UNL A   1      42.648  23.867  27.293  1.00  0.00     0.023 A 
ATOM     80  C   UNL A   1      43.269  24.094  26.050  1.00  0.00     0.012 A 
ATOM     81  C   UNL A   1      42.082  22.604  27.556  1.00  0.00     0.148 A 
ATOM     82  C   UNL A   1      43.289  23.099  25.072  1.00  0.00     0.002 A 
ATOM     83  C   UNL A   1      42.159  21.598  26.601  1.00  0.00     0.091 A 
ATOM     84  F   UNL A   1      41.487  22.409  28.741  1.00  0.00    -0.205 F 
ATOM     85  C   UNL A   1      42.744  21.849  25.350  1.00  0.00     0.022 A 
BRANCH  83  86
ATOM     86  S   UNL A   1      41.602  19.921  26.922  1.00  0.00     0.127 S 
ATOM     87  O   UNL A   1      40.894  19.598  25.686  1.00  0.00    -0.237 OA
ATOM     88  O   UNL A   1      42.870  19.213  27.111  1.00  0.00    -0.237 OA
ATOM     89  O   UNL A   1      40.779  20.003  28.122  1.00  0.00    -0.744 OA
ENDBRANCH  83  86
ENDBRANCH  55  79
BRANCH  67  90
ATOM     90  C   UNL A   1      46.839  25.636  32.594  1.00  0.00     0.023 A 
ATOM     91  C   UNL A   1      48.104  26.037  32.122  1.00  0.00     0.012 A 
ATOM     92  C   UNL A   1      46.754  24.707  33.650  1.00  0.00     0.148 A 
ATOM     93  C   UNL A   1      49.266  25.497  32.670  1.00  0.00     0.002 A 
ATOM     94  C   UNL A   1      47.918  24.214  34.227  1.00  0.00     0.091 A 
ATOM     95  F   UNL A   1      45.540  24.327  34.072  1.00  0.00    -0.205 F 
ATOM     96  C   UNL A   1      49.174  24.596  33.730  1.00  0.00     0.022 A 
BRANCH  94  97
ATOM     97  S   UNL A   1      47.899  23.129  35.658  1.00  0.00     0.127 S 
ATOM     98  O   UNL A   1      47.311  23.994  36.679  1.00  0.00    -0.237 OA
ATOM     99  O   UNL A   1      47.031  22.040  35.208  1.00  0.00    -0.237 OA
ATOM    100  O   UNL A   1      49.284  22.742  35.889  1.00  0.00    -0.744 OA
ENDBRANCH  94  97
ENDBRANCH  67  90
ENDBRANCH  41  42
ENDBRANCH  33  36
ENDBRANCH  31  32
ENDBRANCH  30  31
ENDBRANCH   1  30
TORSDOF 18
ENDMDL
MODEL 2
REMARK VINA RESULT:     -12.6      4.791      9.762
REMARK SMILES O=C(NCCCCCCNC(=O)c1ccc(-c2c3nc(c(-c4cccc(S(=O)(=O)[O-])c4F)c4ccc([nH]4)c(-c4cccc(S(=O)(=O)[O-])c4F)c4nc(c(-c5cccc(S(=O)(=O)[O-])c5F)c5ccc2[nH]5)C=C4)C=C3)cc1)C1=Cc2cc(Cl)cc(-c3ccccc3)c2O[C@@H]1C(F)(F)F
REMARK SMILES IDX 7 1 6 2 5 3 4 4 3 5 1 6 2 7 76 9 77 10 92 11 78 12 91 13
REMARK SMILES IDX 79 14 90 15 80 16 83 17 81 18 82 19 93 20 94 21 95 22 96 23
REMARK SMILES IDX 84 24 85 25 89 26 86 27 88 28 87 29 8 30 9 31 10 32 11 33
REMARK SMILES IDX 12 35 13 36 14 37 75 38 15 39 74 40 16 41 17 42 18 43 68 44
REMARK SMILES IDX 19 45 73 46 67 47 69 48 20 49 72 50 66 51 65 52 21 54 53 55
REMARK SMILES IDX 33 56 52 57 34 58 37 59 51 60 70 61 35 62 36 63 50 65 71 66
REMARK SMILES IDX 38 67 22 68 23 69 31 70 24 71 26 72 32 73 25 74 27 75 28 76
REMARK SMILES IDX 29 77 30 78 54 79 55 80 63 81 56 82 58 83 64 84 57 85 59 86
REMARK SMILES IDX 60 87 61 88 62 89 39 90 40 91 48 92 41 93 43 94 49 95 42 96
REMARK SMILES IDX 44 97 45 98 46 99 47 100
REMARK H PARENT 3 8 10 34 69 53 37 64
REMARK Flexibility Score: inf
ROOT
ATOM      1  C   UNL A   1      35.115  22.432  24.073  1.00  0.00     0.002 C 
ENDROOT
BRANCH   1   2
ATOM      2  C   UNL A   1      34.514  21.492  25.122  1.00  0.00     0.002 C 
BRANCH   2   3
ATOM      3  C   UNL A   1      33.147  21.869  25.699  1.00  0.00     0.021 C 
BRANCH   3   4
ATOM      4  C   UNL A   1      33.129  22.833  26.884  1.00  0.00     0.116 C 
BRANCH   4   5
ATOM      5  N   UNL A   1      31.948  23.666  27.025  1.00  0.00    -0.352 N 
ATOM      6  O   UNL A   1      30.625  25.458  26.789  1.00  0.00    -0.270 OA
ATOM      7  C   UNL A   1      31.756  24.979  26.688  1.00  0.00     0.251 C 
ATOM      8  H   UNL A   1      31.166  23.219  27.422  1.00  0.00     0.163 HD
BRANCH   7   9
ATOM      9  C   UNL A   1      32.839  25.863  26.139  1.00  0.00     0.067 C 
ATOM     10  C   UNL A   1      33.529  25.589  25.017  1.00  0.00     0.025 C 
ATOM     11  C   UNL A   1      32.550  27.330  26.403  1.00  0.00     0.314 C 
ATOM     12  C   UNL A   1      32.967  26.342  23.858  1.00  0.00     0.019 A 
ATOM     13  O   UNL A   1      31.743  27.870  25.319  1.00  0.00    -0.475 OA
ATOM     14  C   UNL A   1      33.213  25.834  22.578  1.00  0.00     0.032 A 
ATOM     15  C   UNL A   1      31.984  27.338  24.068  1.00  0.00     0.135 A 
ATOM     16  C   UNL A   1      32.406  26.239  21.525  1.00  0.00     0.042 A 
ATOM     17  C   UNL A   1      31.135  27.709  23.014  1.00  0.00     0.026 A 
ATOM     18  Cl  UNL A   1      32.567  25.471  19.994  1.00  0.00    -0.084 Cl
ATOM     19  C   UNL A   1      31.373  27.149  21.739  1.00  0.00     0.033 A 
BRANCH  11  20
ATOM     20  C   UNL A   1      33.820  28.160  26.673  1.00  0.00     0.429 C 
ATOM     21  F   UNL A   1      34.945  27.437  26.458  1.00  0.00    -0.167 F 
ATOM     22  F   UNL A   1      33.887  29.234  25.844  1.00  0.00    -0.167 F 
ATOM     23  F   UNL A   1      33.887  28.639  27.936  1.00  0.00    -0.167 F 
ENDBRANCH  11  20
BRANCH  17  24
ATOM     24  C   UNL A   1      29.879  28.457  23.194  1.00  0.00    -0.015 A 
ATOM     25  C   UNL A   1      28.666  27.756  23.313  1.00  0.00     0.009 A 
ATOM     26  C   UNL A   1      29.822  29.844  23.040  1.00  0.00     0.009 A 
ATOM     27  C   UNL A   1      27.436  28.393  23.150  1.00  0.00     0.001 A 
ATOM     28  C   UNL A   1      28.588  30.496  22.922  1.00  0.00     0.001 A 
ATOM     29  C   UNL A   1      27.400  29.766  22.939  1.00  0.00     0.000 A 
ENDBRANCH  17  24
ENDBRANCH   7   9
ENDBRANCH   4   5
ENDBRANCH   3   4
ENDBRANCH   2   3
ENDBRANCH   1   2
BRANCH   1  30
ATOM     30  C   UNL A   1      36.180  23.421  24.546  1.00  0.00     0.021 C 
BRANCH  30  31
ATOM     31  C   UNL A   1      36.680  23.205  25.967  1.00  0.00     0.116 C 
BRANCH  31  32
ATOM     32  N   UNL A   1      37.873  22.371  26.023  1.00  0.00    -0.352 N 
ATOM     33  C   UNL A   1      39.176  22.692  26.325  1.00  0.00     0.251 C 
ATOM     34  H   UNL A   1      37.722  21.421  25.811  1.00  0.00     0.163 HD
ATOM     35  O   UNL A   1      40.057  21.858  26.154  1.00  0.00    -0.269 OA
BRANCH  33  36
ATOM     36  C   UNL A   1      39.521  24.039  26.839  1.00  0.00     0.039 A 
ATOM     37  C   UNL A   1      39.329  24.316  28.197  1.00  0.00     0.014 A 
ATOM     38  C   UNL A   1      40.014  25.033  25.993  1.00  0.00     0.014 A 
ATOM     39  C   UNL A   1      39.684  25.568  28.708  1.00  0.00     0.010 A 
ATOM     40  C   UNL A   1      40.469  26.235  26.522  1.00  0.00     0.010 A 
ATOM     41  C   UNL A   1      40.288  26.528  27.881  1.00  0.00    -0.014 A 
BRANCH  41  42
ATOM     42  C   UNL A   1      40.714  27.852  28.407  1.00  0.00     0.031 A 
ATOM     43  C   UNL A   1      42.180  28.154  28.591  1.00  0.00     0.074 A 
ATOM     44  C   UNL A   1      39.786  28.751  28.791  1.00  0.00     0.049 A 
ATOM     45  N   UNL A   1      42.746  29.217  29.101  1.00  0.00    -0.248 NA
ATOM     46  C   UNL A   1      43.136  27.110  28.181  1.00  0.00     0.031 C 
ATOM     47  C   UNL A   1      38.336  28.544  28.748  1.00  0.00     0.029 A 
ATOM     48  N   UNL A   1      39.923  30.010  29.322  1.00  0.00    -0.354 N 
ATOM     49  C   UNL A   1      44.112  28.955  29.106  1.00  0.00     0.074 A 
ATOM     50  C   UNL A   1      44.287  27.614  28.598  1.00  0.00     0.031 C 
ATOM     51  C   UNL A   1      37.720  29.638  29.221  1.00  0.00     0.029 A 
ATOM     52  C   UNL A   1      38.726  30.610  29.638  1.00  0.00     0.049 A 
ATOM     53  H   UNL A   1      40.796  30.443  29.462  1.00  0.00     0.167 HD
ATOM     54  C   UNL A   1      45.133  29.770  29.461  1.00  0.00     0.034 A 
ATOM     55  C   UNL A   1      38.468  31.803  30.209  1.00  0.00     0.034 A 
ATOM     56  C   UNL A   1      44.956  31.120  29.920  1.00  0.00     0.049 A 
ATOM     57  C   UNL A   1      39.620  32.707  30.556  1.00  0.00     0.074 A 
ATOM     58  C   UNL A   1      45.926  32.056  30.231  1.00  0.00     0.029 A 
ATOM     59  N   UNL A   1      43.729  31.727  30.136  1.00  0.00    -0.354 N 
ATOM     60  N   UNL A   1      40.906  32.496  30.414  1.00  0.00    -0.248 NA
ATOM     61  C   UNL A   1      39.287  34.029  31.104  1.00  0.00     0.031 C 
ATOM     62  C   UNL A   1      45.284  33.222  30.661  1.00  0.00     0.029 A 
ATOM     63  C   UNL A   1      43.914  33.023  30.581  1.00  0.00     0.049 A 
ATOM     64  H   UNL A   1      42.855  31.298  29.994  1.00  0.00     0.167 HD
ATOM     65  C   UNL A   1      41.533  33.668  30.820  1.00  0.00     0.074 A 
ATOM     66  C   UNL A   1      40.483  34.595  31.190  1.00  0.00     0.031 C 
ATOM     67  C   UNL A   1      42.857  33.949  30.895  1.00  0.00     0.034 A 
BRANCH  54  68
ATOM     68  C   UNL A   1      46.537  29.243  29.307  1.00  0.00     0.023 A 
ATOM     69  C   UNL A   1      47.164  28.604  30.397  1.00  0.00     0.012 A 
ATOM     70  C   UNL A   1      47.214  29.326  28.074  1.00  0.00     0.148 A 
ATOM     71  C   UNL A   1      48.455  28.092  30.276  1.00  0.00     0.002 A 
ATOM     72  C   UNL A   1      48.481  28.769  27.947  1.00  0.00     0.091 A 
ATOM     73  F   UNL A   1      46.610  29.952  27.053  1.00  0.00    -0.205 F 
ATOM     74  C   UNL A   1      49.108  28.164  29.049  1.00  0.00     0.022 A 
BRANCH  72  75
ATOM     75  S   UNL A   1      49.377  28.736  26.390  1.00  0.00     0.127 S 
ATOM     76  O   UNL A   1      48.313  28.405  25.444  1.00  0.00    -0.237 OA
ATOM     77  O   UNL A   1      49.873  30.109  26.294  1.00  0.00    -0.237 OA
ATOM     78  O   UNL A   1      50.411  27.722  26.541  1.00  0.00    -0.744 OA
ENDBRANCH  72  75
ENDBRANCH  54  68
BRANCH  55  79
ATOM     79  C   UNL A   1      37.059  32.232  30.445  1.00  0.00     0.023 A 
ATOM     80  C   UNL A   1      36.474  32.037  31.711  1.00  0.00     0.012 A 
ATOM     81  C   UNL A   1      36.303  32.845  29.427  1.00  0.00     0.148 A 
ATOM     82  C   UNL A   1      35.149  32.406  31.948  1.00  0.00     0.002 A 
ATOM     83  C   UNL A   1      35.004  33.265  29.687  1.00  0.00     0.091 A 
ATOM     84  F   UNL A   1      36.873  33.014  28.226  1.00  0.00    -0.205 F 
ATOM     85  C   UNL A   1      34.418  33.028  30.940  1.00  0.00     0.022 A 
BRANCH  83  86
ATOM     86  S   UNL A   1      34.036  34.193  28.492  1.00  0.00     0.127 S 
ATOM     87  O   UNL A   1      33.821  33.198  27.444  1.00  0.00    -0.237 OA
ATOM     88  O   UNL A   1      32.845  34.537  29.271  1.00  0.00    -0.237 OA
ATOM     89  O   UNL A   1      34.860  35.337  28.122  1.00  0.00    -0.744 OA
ENDBRANCH  83  86
ENDBRANCH  55  79
BRANCH  67  90
ATOM     90  C   UNL A   1      43.254  35.329  31.351  1.00  0.00     0.023 A 
ATOM     91  C   UNL A   1      43.492  35.578  32.717  1.00  0.00     0.012 A 
ATOM     92  C   UNL A   1      43.464  36.357  30.410  1.00  0.00     0.148 A 
ATOM     93  C   UNL A   1      43.899  36.842  33.144  1.00  0.00     0.002 A 
ATOM     94  C   UNL A   1      43.921  37.597  30.838  1.00  0.00     0.091 A 
ATOM     95  F   UNL A   1      43.216  36.102  29.118  1.00  0.00    -0.205 F 
ATOM     96  C   UNL A   1      44.126  37.846  32.205  1.00  0.00     0.022 A 
BRANCH  94  97
ATOM     97  S   UNL A   1      44.336  38.918  29.694  1.00  0.00     0.127 S 
ATOM     98  O   UNL A   1      43.039  39.198  29.081  1.00  0.00    -0.237 OA
ATOM     99  O   UNL A   1      44.825  39.963  30.593  1.00  0.00    -0.237 OA
ATOM    100  O   UNL A   1      45.345  38.371  28.796  1.00  0.00    -0.744 OA
ENDBRANCH  94  97
ENDBRANCH  67  90
ENDBRANCH  41  42
ENDBRANCH  33  36
ENDBRANCH  31  32
ENDBRANCH  30  31
ENDBRANCH   1  30
TORSDOF 18
ENDMDL
MODEL 3
REMARK VINA RESULT:     -12.5      4.737      9.812
REMARK SMILES O=C(NCCCCCCNC(=O)c1ccc(-c2c3nc(c(-c4cccc(S(=O)(=O)[O-])c4F)c4ccc([nH]4)c(-c4cccc(S(=O)(=O)[O-])c4F)c4nc(c(-c5cccc(S(=O)(=O)[O-])c5F)c5ccc2[nH]5)C=C4)C=C3)cc1)C1=Cc2cc(Cl)cc(-c3ccccc3)c2O[C@@H]1C(F)(F)F
REMARK SMILES IDX 7 1 6 2 5 3 4 4 3 5 1 6 2 7 76 9 77 10 92 11 78 12 91 13
REMARK SMILES IDX 79 14 90 15 80 16 83 17 81 18 82 19 93 20 94 21 95 22 96 23
REMARK SMILES IDX 84 24 85 25 89 26 86 27 88 28 87 29 8 30 9 31 10 32 11 33
REMARK SMILES IDX 12 35 13 36 14 37 75 38 15 39 74 40 16 41 17 42 18 43 68 44
REMARK SMILES IDX 19 45 73 46 67 47 69 48 20 49 72 50 66 51 65 52 21 54 53 55
REMARK SMILES IDX 33 56 52 57 34 58 37 59 51 60 70 61 35 62 36 63 50 65 71 66
REMARK SMILES IDX 38 67 22 68 23 69 31 70 24 71 26 72 32 73 25 74 27 75 28 76
REMARK SMILES IDX 29 77 30 78 54 79 55 80 63 81 56 82 58 83 64 84 57 85 59 86
REMARK SMILES IDX 60 87 61 88 62 89 39 90 40 91 48 92 41 93 43 94 49 95 42 96
REMARK SMILES IDX 44 97 45 98 46 99 47 100
REMARK H PARENT 3 8 10 34 69 53 37 64
REMARK Flexibility Score: inf
ROOT
ATOM      1  C   UNL A   1      35.481  21.334  24.854  1.00  0.00     0.002 C 
ENDROOT
BRANCH   1   2
ATOM      2  C   UNL A   1      34.150  20.592  24.708  1.00  0.00     0.002 C 
BRANCH   2   3
ATOM      3  C   UNL A   1      33.106  20.802  25.808  1.00  0.00     0.021 C 
BRANCH   3   4
ATOM      4  C   UNL A   1      31.722  21.286  25.377  1.00  0.00     0.116 C 
BRANCH   4   5
ATOM      5  N   UNL A   1      31.193  22.443  26.076  1.00  0.00    -0.352 N 
ATOM      6  O   UNL A   1      30.477  24.544  26.381  1.00  0.00    -0.270 OA
ATOM      7  C   UNL A   1      31.069  23.741  25.656  1.00  0.00     0.251 C 
ATOM      8  H   UNL A   1      30.873  22.269  26.992  1.00  0.00     0.163 HD
BRANCH   7   9
ATOM      9  C   UNL A   1      31.561  24.235  24.327  1.00  0.00     0.067 C 
ATOM     10  C   UNL A   1      30.783  24.868  23.431  1.00  0.00     0.025 C 
ATOM     11  C   UNL A   1      33.005  24.699  24.403  1.00  0.00     0.314 C 
ATOM     12  C   UNL A   1      30.969  26.346  23.528  1.00  0.00     0.019 A 
ATOM     13  O   UNL A   1      33.046  26.100  24.790  1.00  0.00    -0.475 OA
ATOM     14  C   UNL A   1      29.933  27.158  23.054  1.00  0.00     0.032 A 
ATOM     15  C   UNL A   1      32.002  26.881  24.333  1.00  0.00     0.135 A 
ATOM     16  C   UNL A   1      29.867  28.479  23.473  1.00  0.00     0.042 A 
ATOM     17  C   UNL A   1      31.907  28.202  24.798  1.00  0.00     0.026 A 
ATOM     18  Cl  UNL A   1      28.491  29.427  23.064  1.00  0.00    -0.084 Cl
ATOM     19  C   UNL A   1      30.827  28.990  24.344  1.00  0.00     0.033 A 
BRANCH  11  20
ATOM     20  C   UNL A   1      33.804  24.409  23.117  1.00  0.00     0.429 C 
ATOM     21  F   UNL A   1      33.614  25.371  22.183  1.00  0.00    -0.167 F 
ATOM     22  F   UNL A   1      35.138  24.373  23.370  1.00  0.00    -0.167 F 
ATOM     23  F   UNL A   1      33.485  23.225  22.545  1.00  0.00    -0.167 F 
ENDBRANCH  11  20
BRANCH  17  24
ATOM     24  C   UNL A   1      32.718  28.745  25.901  1.00  0.00    -0.015 A 
ATOM     25  C   UNL A   1      32.231  29.830  26.650  1.00  0.00     0.009 A 
ATOM     26  C   UNL A   1      34.046  28.357  26.095  1.00  0.00     0.009 A 
ATOM     27  C   UNL A   1      33.070  30.591  27.464  1.00  0.00     0.001 A 
ATOM     28  C   UNL A   1      34.882  29.089  26.948  1.00  0.00     0.001 A 
ATOM     29  C   UNL A   1      34.404  30.225  27.601  1.00  0.00     0.000 A 
ENDBRANCH  17  24
ENDBRANCH   7   9
ENDBRANCH   4   5
ENDBRANCH   3   4
ENDBRANCH   2   3
ENDBRANCH   1   2
BRANCH   1  30
ATOM     30  C   UNL A   1      35.562  22.426  25.920  1.00  0.00     0.021 C 
BRANCH  30  31
ATOM     31  C   UNL A   1      36.849  23.239  25.921  1.00  0.00     0.116 C 
BRANCH  31  32
ATOM     32  N   UNL A   1      38.040  22.408  26.037  1.00  0.00    -0.352 N 
ATOM     33  C   UNL A   1      39.330  22.738  26.386  1.00  0.00     0.251 C 
ATOM     34  H   UNL A   1      37.899  21.456  25.834  1.00  0.00     0.163 HD
ATOM     35  O   UNL A   1      40.217  21.903  26.263  1.00  0.00    -0.269 OA
BRANCH  33  36
ATOM     36  C   UNL A   1      39.651  24.094  26.891  1.00  0.00     0.039 A 
ATOM     37  C   UNL A   1      39.481  24.367  28.252  1.00  0.00     0.014 A 
ATOM     38  C   UNL A   1      40.101  25.098  26.034  1.00  0.00     0.014 A 
ATOM     39  C   UNL A   1      39.815  25.628  28.755  1.00  0.00     0.010 A 
ATOM     40  C   UNL A   1      40.538  26.312  26.553  1.00  0.00     0.010 A 
ATOM     41  C   UNL A   1      40.378  26.602  27.915  1.00  0.00    -0.014 A 
BRANCH  41  42
ATOM     42  C   UNL A   1      40.782  27.936  28.431  1.00  0.00     0.031 A 
ATOM     43  C   UNL A   1      42.242  28.258  28.630  1.00  0.00     0.074 A 
ATOM     44  C   UNL A   1      39.839  28.829  28.794  1.00  0.00     0.049 A 
ATOM     45  N   UNL A   1      42.789  29.333  29.134  1.00  0.00    -0.248 NA
ATOM     46  C   UNL A   1      43.215  27.221  28.244  1.00  0.00     0.031 C 
ATOM     47  C   UNL A   1      38.392  28.604  28.735  1.00  0.00     0.029 A 
ATOM     48  N   UNL A   1      39.955  30.095  29.311  1.00  0.00    -0.354 N 
ATOM     49  C   UNL A   1      44.158  29.088  29.159  1.00  0.00     0.074 A 
ATOM     50  C   UNL A   1      44.355  27.743  28.669  1.00  0.00     0.031 C 
ATOM     51  C   UNL A   1      37.757  29.696  29.188  1.00  0.00     0.029 A 
ATOM     52  C   UNL A   1      38.746  30.685  29.606  1.00  0.00     0.049 A 
ATOM     53  H   UNL A   1      40.820  30.540  29.457  1.00  0.00     0.167 HD
ATOM     54  C   UNL A   1      45.165  29.918  29.518  1.00  0.00     0.034 A 
ATOM     55  C   UNL A   1      38.468  31.881  30.160  1.00  0.00     0.034 A 
ATOM     56  C   UNL A   1      44.967  31.271  29.959  1.00  0.00     0.049 A 
ATOM     57  C   UNL A   1      39.605  32.802  30.511  1.00  0.00     0.074 A 
ATOM     58  C   UNL A   1      45.921  32.222  30.271  1.00  0.00     0.029 A 
ATOM     59  N   UNL A   1      43.730  31.866  30.153  1.00  0.00    -0.354 N 
ATOM     60  N   UNL A   1      40.895  32.604  30.387  1.00  0.00    -0.248 NA
ATOM     61  C   UNL A   1      39.249  34.126  31.040  1.00  0.00     0.031 C 
ATOM     62  C   UNL A   1      45.260  33.385  30.680  1.00  0.00     0.029 A 
ATOM     63  C   UNL A   1      43.895  33.169  30.586  1.00  0.00     0.049 A 
ATOM     64  H   UNL A   1      42.862  31.425  30.005  1.00  0.00     0.167 HD
ATOM     65  C   UNL A   1      41.503  33.789  30.788  1.00  0.00     0.074 A 
ATOM     66  C   UNL A   1      40.438  34.707  31.135  1.00  0.00     0.031 C 
ATOM     67  C   UNL A   1      42.823  34.086  30.876  1.00  0.00     0.034 A 
BRANCH  54  68
ATOM     68  C   UNL A   1      46.577  29.406  29.387  1.00  0.00     0.023 A 
ATOM     69  C   UNL A   1      47.219  28.840  30.508  1.00  0.00     0.012 A 
ATOM     70  C   UNL A   1      47.247  29.430  28.148  1.00  0.00     0.148 A 
ATOM     71  C   UNL A   1      48.517  28.343  30.410  1.00  0.00     0.002 A 
ATOM     72  C   UNL A   1      48.523  28.887  28.046  1.00  0.00     0.091 A 
ATOM     73  F   UNL A   1      46.629  29.988  27.096  1.00  0.00    -0.205 F 
ATOM     74  C   UNL A   1      49.164  28.356  29.178  1.00  0.00     0.022 A 
BRANCH  72  75
ATOM     75  S   UNL A   1      49.413  28.780  26.490  1.00  0.00     0.127 S 
ATOM     76  O   UNL A   1      48.318  28.623  25.533  1.00  0.00    -0.237 OA
ATOM     77  O   UNL A   1      50.089  30.077  26.435  1.00  0.00    -0.237 OA
ATOM     78  O   UNL A   1      50.302  27.634  26.611  1.00  0.00    -0.744 OA
ENDBRANCH  72  75
ENDBRANCH  54  68
BRANCH  55  79
ATOM     79  C   UNL A   1      37.051  32.295  30.375  1.00  0.00     0.023 A 
ATOM     80  C   UNL A   1      36.404  31.969  31.582  1.00  0.00     0.012 A 
ATOM     81  C   UNL A   1      36.348  33.024  29.395  1.00  0.00     0.148 A 
ATOM     82  C   UNL A   1      35.071  32.324  31.794  1.00  0.00     0.002 A 
ATOM     83  C   UNL A   1      35.040  33.426  29.636  1.00  0.00     0.091 A 
ATOM     84  F   UNL A   1      36.977  33.317  28.248  1.00  0.00    -0.205 F 
ATOM     85  C   UNL A   1      34.393  33.060  30.827  1.00  0.00     0.022 A 
BRANCH  83  86
ATOM     86  S   UNL A   1      34.136  34.489  28.506  1.00  0.00     0.127 S 
ATOM     87  O   UNL A   1      34.224  33.738  27.255  1.00  0.00    -0.237 OA
ATOM     88  O   UNL A   1      32.806  34.518  29.116  1.00  0.00    -0.237 OA
ATOM     89  O   UNL A   1      34.832  35.769  28.527  1.00  0.00    -0.744 OA
ENDBRANCH  83  86
ENDBRANCH  55  79
BRANCH  67  90
ATOM     90  C   UNL A   1      43.198  35.475  31.321  1.00  0.00     0.023 A 
ATOM     91  C   UNL A   1      43.340  35.761  32.693  1.00  0.00     0.012 A 
ATOM     92  C   UNL A   1      43.484  36.475  30.370  1.00  0.00     0.148 A 
ATOM     93  C   UNL A   1      43.726  37.034  33.113  1.00  0.00     0.002 A 
ATOM     94  C   UNL A   1      43.919  37.724  30.794  1.00  0.00     0.091 A 
ATOM     95  F   UNL A   1      43.327  36.185  29.070  1.00  0.00    -0.205 F 
ATOM     96  C   UNL A   1      44.028  38.009  32.165  1.00  0.00     0.022 A 
BRANCH  94  97
ATOM     97  S   UNL A   1      44.426  39.009  29.647  1.00  0.00     0.127 S 
ATOM     98  O   UNL A   1      43.175  39.292  28.946  1.00  0.00    -0.237 OA
ATOM     99  O   UNL A   1      44.873  40.070  30.550  1.00  0.00    -0.237 OA
ATOM    100  O   UNL A   1      45.482  38.426  28.829  1.00  0.00    -0.744 OA
ENDBRANCH  94  97
ENDBRANCH  67  90
ENDBRANCH  41  42
ENDBRANCH  33  36
ENDBRANCH  31  32
ENDBRANCH  30  31
ENDBRANCH   1  30
TORSDOF 18
ENDMDL
