MODEL 1
REMARK VINA RESULT:     -11.5      0.000      0.000
REMARK SMILES C[C@@H](Oc1ccccc1Cl)C(=O)N1CC[C@H](C(=O)NCCCCCCNC(=O)c2ccc(-c3c4nc(c(-c5cccc(S(=O)(=O)[O-])c5F)c5ccc([nH]5)c(-c5cccc(S(=O)(=O)[O-])c5F)c5nc(c(-c6cccc(S(=O)(=O)[O-])c6F)c6ccc3[nH]6)C=C5)C=C4)cc2)[C@@H]1C
REMARK SMILES IDX 22 1 21 2 20 3 19 4 17 5 18 6 16 8 13 9 14 10 92 11 15 12
REMARK SMILES IDX 93 13 11 14 12 15 2 16 1 17 3 18 4 19 5 20 9 21 6 22 8 23
REMARK SMILES IDX 10 24 7 25 23 26 24 27 25 28 26 29 27 30 28 32 29 33 30 34
REMARK SMILES IDX 91 35 31 36 90 37 32 38 33 39 34 40 84 41 35 42 89 43 83 44
REMARK SMILES IDX 85 45 36 46 88 47 82 48 81 49 37 51 69 52 49 53 68 54 50 55
REMARK SMILES IDX 53 56 67 57 86 58 51 59 52 60 66 62 87 63 54 64 38 65 39 66
REMARK SMILES IDX 47 67 40 68 42 69 48 70 41 71 43 72 44 73 45 74 46 75 70 76
REMARK SMILES IDX 71 77 79 78 72 79 74 80 80 81 73 82 75 83 76 84 77 85 78 86
REMARK SMILES IDX 55 87 56 88 64 89 57 90 59 91 65 92 58 93 60 94 61 95 62 96
REMARK SMILES IDX 63 97
REMARK H PARENT 19 7 26 31 85 50 53 61
REMARK Flexibility Score: inf
ROOT
ATOM      1  C   UNL A   1      34.420  20.387  24.993  1.00  0.00     0.002 C 
ENDROOT
BRANCH   1   2
ATOM      2  C   UNL A   1      33.535  21.471  24.362  1.00  0.00     0.021 C 
BRANCH   2   3
ATOM      3  C   UNL A   1      32.060  21.432  24.782  1.00  0.00     0.116 C 
BRANCH   3   4
ATOM      4  N   UNL A   1      31.876  22.063  26.075  1.00  0.00    -0.356 N 
ATOM      5  C   UNL A   1      31.647  23.356  26.418  1.00  0.00     0.225 C 
ATOM      6  O   UNL A   1      31.610  23.616  27.623  1.00  0.00    -0.275 OA
ATOM      7  H   UNL A   1      31.926  21.443  26.838  1.00  0.00     0.163 HD
BRANCH   5   8
ATOM      8  C   UNL A   1      31.415  24.417  25.344  1.00  0.00     0.102 C 
ATOM      9  N   UNL A   1      32.181  26.675  25.649  1.00  0.00    -0.336 N 
ATOM     10  C   UNL A   1      31.050  26.466  26.530  1.00  0.00     0.121 C 
ATOM     11  C   UNL A   1      32.590  25.393  25.050  1.00  0.00     0.094 C 
ATOM     12  C   UNL A   1      30.292  25.359  25.818  1.00  0.00     0.037 C 
ATOM     13  C   UNL A   1      33.941  24.939  25.599  1.00  0.00     0.032 C 
BRANCH   9  14
ATOM     14  C   UNL A   1      32.576  27.966  25.358  1.00  0.00     0.263 C 
ATOM     15  O   UNL A   1      33.775  28.230  25.190  1.00  0.00    -0.271 OA
BRANCH  14  16
ATOM     16  C   UNL A   1      31.556  29.124  25.331  1.00  0.00     0.259 C 
ATOM     17  C   UNL A   1      31.890  30.277  26.263  1.00  0.00     0.064 C 
BRANCH  16  18
ATOM     18  O   UNL A   1      31.399  29.581  23.977  1.00  0.00    -0.479 OA
BRANCH  18  19
ATOM     19  C   UNL A   1      30.081  29.734  23.631  1.00  0.00     0.139 A 
ATOM     20  C   UNL A   1      29.433  30.944  23.899  1.00  0.00     0.048 A 
ATOM     21  C   UNL A   1      29.362  28.664  23.084  1.00  0.00     0.083 A 
ATOM     22  C   UNL A   1      28.087  31.102  23.563  1.00  0.00     0.004 A 
ATOM     23  C   UNL A   1      28.021  28.831  22.736  1.00  0.00     0.024 A 
ATOM     24  Cl  UNL A   1      30.094  27.122  22.826  1.00  0.00    -0.080 Cl
ATOM     25  C   UNL A   1      27.385  30.051  22.971  1.00  0.00     0.002 A 
ENDBRANCH  18  19
ENDBRANCH  16  18
ENDBRANCH  14  16
ENDBRANCH   9  14
ENDBRANCH   5   8
ENDBRANCH   3   4
ENDBRANCH   2   3
ENDBRANCH   1   2
BRANCH   1  26
ATOM     26  C   UNL A   1      35.898  20.758  25.141  1.00  0.00     0.002 C 
BRANCH  26  27
ATOM     27  C   UNL A   1      36.226  22.223  24.851  1.00  0.00     0.021 C 
BRANCH  27  28
ATOM     28  C   UNL A   1      37.298  22.835  25.749  1.00  0.00     0.116 C 
BRANCH  28  29
ATOM     29  N   UNL A   1      38.375  21.904  26.043  1.00  0.00    -0.352 N 
ATOM     30  C   UNL A   1      39.644  22.150  26.505  1.00  0.00     0.251 C 
ATOM     31  H   UNL A   1      38.162  20.955  25.887  1.00  0.00     0.163 HD
ATOM     32  O   UNL A   1      40.466  21.238  26.528  1.00  0.00    -0.269 OA
BRANCH  30  33
ATOM     33  C   UNL A   1      40.031  23.507  26.959  1.00  0.00     0.039 A 
ATOM     34  C   UNL A   1      40.733  23.636  28.160  1.00  0.00     0.014 A 
ATOM     35  C   UNL A   1      39.676  24.648  26.233  1.00  0.00     0.014 A 
ATOM     36  C   UNL A   1      41.110  24.903  28.612  1.00  0.00     0.010 A 
ATOM     37  C   UNL A   1      40.123  25.903  26.644  1.00  0.00     0.010 A 
ATOM     38  C   UNL A   1      40.825  26.048  27.848  1.00  0.00    -0.014 A 
BRANCH  38  39
ATOM     39  C   UNL A   1      41.242  27.396  28.316  1.00  0.00     0.031 A 
ATOM     40  C   UNL A   1      42.689  27.810  28.269  1.00  0.00     0.074 A 
ATOM     41  C   UNL A   1      40.320  28.240  28.825  1.00  0.00     0.049 A 
ATOM     42  N   UNL A   1      43.232  28.953  28.602  1.00  0.00    -0.248 NA
ATOM     43  C   UNL A   1      43.659  26.802  27.809  1.00  0.00     0.031 C 
ATOM     44  C   UNL A   1      38.900  27.932  29.005  1.00  0.00     0.029 A 
ATOM     45  N   UNL A   1      40.444  29.524  29.293  1.00  0.00    -0.354 N 
ATOM     46  C   UNL A   1      44.601  28.794  28.420  1.00  0.00     0.074 A 
ATOM     47  C   UNL A   1      44.812  27.429  27.991  1.00  0.00     0.031 C 
ATOM     48  C   UNL A   1      38.280  29.005  29.523  1.00  0.00     0.029 A 
ATOM     49  C   UNL A   1      39.258  30.068  29.731  1.00  0.00     0.049 A 
ATOM     50  H   UNL A   1      41.299  30.010  29.313  1.00  0.00     0.167 HD
ATOM     51  C   UNL A   1      45.592  29.708  28.558  1.00  0.00     0.034 A 
ATOM     52  C   UNL A   1      38.988  31.290  30.231  1.00  0.00     0.034 A 
ATOM     53  C   UNL A   1      45.378  31.075  28.949  1.00  0.00     0.049 A 
ATOM     54  C   UNL A   1      40.097  32.303  30.325  1.00  0.00     0.074 A 
ATOM     55  C   UNL A   1      46.304  32.098  29.054  1.00  0.00     0.029 A 
ATOM     56  N   UNL A   1      44.150  31.613  29.304  1.00  0.00    -0.354 N 
ATOM     57  N   UNL A   1      41.361  32.179  29.999  1.00  0.00    -0.248 NA
ATOM     58  C   UNL A   1      39.731  33.641  30.810  1.00  0.00     0.031 C 
ATOM     59  C   UNL A   1      45.638  33.249  29.491  1.00  0.00     0.029 A 
ATOM     60  C   UNL A   1      44.293  32.952  29.627  1.00  0.00     0.049 A 
ATOM     61  H   UNL A   1      43.301  31.115  29.324  1.00  0.00     0.167 HD
ATOM     62  C   UNL A   1      41.930  33.432  30.195  1.00  0.00     0.074 A 
ATOM     63  C   UNL A   1      40.866  34.306  30.649  1.00  0.00     0.031 C 
ATOM     64  C   UNL A   1      43.217  33.824  30.025  1.00  0.00     0.034 A 
BRANCH  51  65
ATOM     65  C   UNL A   1      46.997  29.267  28.228  1.00  0.00     0.023 A 
ATOM     66  C   UNL A   1      47.466  29.380  26.902  1.00  0.00     0.012 A 
ATOM     67  C   UNL A   1      47.865  28.785  29.225  1.00  0.00     0.148 A 
ATOM     68  C   UNL A   1      48.758  28.979  26.566  1.00  0.00     0.002 A 
ATOM     69  C   UNL A   1      49.169  28.432  28.892  1.00  0.00     0.091 A 
ATOM     70  F   UNL A   1      47.399  28.664  30.477  1.00  0.00    -0.205 F 
ATOM     71  C   UNL A   1      49.612  28.515  27.562  1.00  0.00     0.022 A 
BRANCH  69  72
ATOM     72  S   UNL A   1      50.371  27.901  30.116  1.00  0.00     0.127 S 
ATOM     73  O   UNL A   1      50.400  29.049  31.019  1.00  0.00    -0.237 OA
ATOM     74  O   UNL A   1      49.738  26.704  30.672  1.00  0.00    -0.237 OA
ATOM     75  O   UNL A   1      51.605  27.648  29.383  1.00  0.00    -0.744 OA
ENDBRANCH  69  72
ENDBRANCH  51  65
BRANCH  52  76
ATOM     76  C   UNL A   1      37.589  31.654  30.591  1.00  0.00     0.023 A 
ATOM     77  C   UNL A   1      37.101  31.339  31.874  1.00  0.00     0.012 A 
ATOM     78  C   UNL A   1      36.747  32.325  29.682  1.00  0.00     0.148 A 
ATOM     79  C   UNL A   1      35.789  31.650  32.234  1.00  0.00     0.002 A 
ATOM     80  C   UNL A   1      35.460  32.682  30.066  1.00  0.00     0.091 A 
ATOM     81  F   UNL A   1      37.227  32.609  28.464  1.00  0.00    -0.205 F 
ATOM     82  C   UNL A   1      34.972  32.329  31.335  1.00  0.00     0.022 A 
BRANCH  80  83
ATOM     83  S   UNL A   1      34.381  33.669  29.023  1.00  0.00     0.127 S 
ATOM     84  O   UNL A   1      33.906  32.679  28.061  1.00  0.00    -0.237 OA
ATOM     85  O   UNL A   1      33.377  34.131  29.981  1.00  0.00    -0.237 OA
ATOM     86  O   UNL A   1      35.222  34.728  28.479  1.00  0.00    -0.744 OA
ENDBRANCH  80  83
ENDBRANCH  52  76
BRANCH  64  87
ATOM     87  C   UNL A   1      43.542  35.274  30.277  1.00  0.00     0.023 A 
ATOM     88  C   UNL A   1      43.972  35.691  31.553  1.00  0.00     0.012 A 
ATOM     89  C   UNL A   1      43.463  36.218  29.234  1.00  0.00     0.148 A 
ATOM     90  C   UNL A   1      44.270  37.032  31.798  1.00  0.00     0.002 A 
ATOM     91  C   UNL A   1      43.814  37.542  29.472  1.00  0.00     0.091 A 
ATOM     92  F   UNL A   1      43.033  35.810  28.030  1.00  0.00    -0.205 F 
ATOM     93  C   UNL A   1      44.202  37.953  30.757  1.00  0.00     0.022 A 
BRANCH  91  94
ATOM     94  S   UNL A   1      43.849  38.770  28.162  1.00  0.00     0.127 S 
ATOM     95  O   UNL A   1      44.781  38.168  27.213  1.00  0.00    -0.237 OA
ATOM     96  O   UNL A   1      42.454  38.793  27.717  1.00  0.00    -0.237 OA
ATOM     97  O   UNL A   1      44.298  40.006  28.790  1.00  0.00    -0.744 OA
ENDBRANCH  91  94
ENDBRANCH  64  87
ENDBRANCH  38  39
ENDBRANCH  30  33
ENDBRANCH  28  29
ENDBRANCH  27  28
ENDBRANCH  26  27
ENDBRANCH   1  26
TORSDOF 20
ENDMDL
MODEL 2
REMARK VINA RESULT:     -11.3      2.223      2.526
REMARK SMILES C[C@@H](Oc1ccccc1Cl)C(=O)N1CC[C@H](C(=O)NCCCCCCNC(=O)c2ccc(-c3c4nc(c(-c5cccc(S(=O)(=O)[O-])c5F)c5ccc([nH]5)c(-c5cccc(S(=O)(=O)[O-])c5F)c5nc(c(-c6cccc(S(=O)(=O)[O-])c6F)c6ccc3[nH]6)C=C5)C=C4)cc2)[C@@H]1C
REMARK SMILES IDX 22 1 21 2 20 3 19 4 17 5 18 6 16 8 13 9 14 10 92 11 15 12
REMARK SMILES IDX 93 13 11 14 12 15 2 16 1 17 3 18 4 19 5 20 9 21 6 22 8 23
REMARK SMILES IDX 10 24 7 25 23 26 24 27 25 28 26 29 27 30 28 32 29 33 30 34
REMARK SMILES IDX 91 35 31 36 90 37 32 38 33 39 34 40 84 41 35 42 89 43 83 44
REMARK SMILES IDX 85 45 36 46 88 47 82 48 81 49 37 51 69 52 49 53 68 54 50 55
REMARK SMILES IDX 53 56 67 57 86 58 51 59 52 60 66 62 87 63 54 64 38 65 39 66
REMARK SMILES IDX 47 67 40 68 42 69 48 70 41 71 43 72 44 73 45 74 46 75 70 76
REMARK SMILES IDX 71 77 79 78 72 79 74 80 80 81 73 82 75 83 76 84 77 85 78 86
REMARK SMILES IDX 55 87 56 88 64 89 57 90 59 91 65 92 58 93 60 94 61 95 62 96
REMARK SMILES IDX 63 97
REMARK H PARENT 19 7 26 31 85 50 53 61
REMARK Flexibility Score: inf
ROOT
ATOM      1  C   UNL A   1      34.201  20.101  25.003  1.00  0.00     0.002 C 
ENDROOT
BRANCH   1   2
ATOM      2  C   UNL A   1      33.382  21.297  24.495  1.00  0.00     0.021 C 
BRANCH   2   3
ATOM      3  C   UNL A   1      31.904  21.293  24.906  1.00  0.00     0.116 C 
BRANCH   3   4
ATOM      4  N   UNL A   1      31.717  21.990  26.164  1.00  0.00    -0.356 N 
ATOM      5  C   UNL A   1      31.519  23.304  26.442  1.00  0.00     0.225 C 
ATOM      6  O   UNL A   1      31.470  23.622  27.632  1.00  0.00    -0.275 OA
ATOM      7  H   UNL A   1      31.739  21.406  26.957  1.00  0.00     0.163 HD
BRANCH   5   8
ATOM      8  C   UNL A   1      31.332  24.318  25.316  1.00  0.00     0.102 C 
ATOM      9  N   UNL A   1      32.143  26.571  25.532  1.00  0.00    -0.336 N 
ATOM     10  C   UNL A   1      30.991  26.428  26.398  1.00  0.00     0.121 C 
ATOM     11  C   UNL A   1      32.535  25.254  25.001  1.00  0.00     0.094 C 
ATOM     12  C   UNL A   1      30.222  25.306  25.722  1.00  0.00     0.037 C 
ATOM     13  C   UNL A   1      33.864  24.796  25.600  1.00  0.00     0.032 C 
BRANCH   9  14
ATOM     14  C   UNL A   1      32.574  27.838  25.190  1.00  0.00     0.263 C 
ATOM     15  O   UNL A   1      33.764  28.039  24.909  1.00  0.00    -0.271 OA
BRANCH  14  16
ATOM     16  C   UNL A   1      31.615  29.046  25.243  1.00  0.00     0.259 C 
ATOM     17  C   UNL A   1      32.040  30.144  26.205  1.00  0.00     0.064 C 
BRANCH  16  18
ATOM     18  O   UNL A   1      31.436  29.562  23.914  1.00  0.00    -0.479 OA
BRANCH  18  19
ATOM     19  C   UNL A   1      30.111  29.703  23.586  1.00  0.00     0.139 A 
ATOM     20  C   UNL A   1      29.450  30.898  23.884  1.00  0.00     0.048 A 
ATOM     21  C   UNL A   1      29.401  28.633  23.029  1.00  0.00     0.083 A 
ATOM     22  C   UNL A   1      28.098  31.044  23.568  1.00  0.00     0.004 A 
ATOM     23  C   UNL A   1      28.053  28.788  22.700  1.00  0.00     0.024 A 
ATOM     24  Cl  UNL A   1      30.150  27.107  22.734  1.00  0.00    -0.080 Cl
ATOM     25  C   UNL A   1      27.403  29.994  22.965  1.00  0.00     0.002 A 
ENDBRANCH  18  19
ENDBRANCH  16  18
ENDBRANCH  14  16
ENDBRANCH   9  14
ENDBRANCH   5   8
ENDBRANCH   3   4
ENDBRANCH   2   3
ENDBRANCH   1   2
BRANCH   1  26
ATOM     26  C   UNL A   1      35.719  20.297  24.981  1.00  0.00     0.002 C 
BRANCH  26  27
ATOM     27  C   UNL A   1      36.181  21.711  24.629  1.00  0.00     0.021 C 
BRANCH  27  28
ATOM     28  C   UNL A   1      37.278  22.276  25.528  1.00  0.00     0.116 C 
BRANCH  28  29
ATOM     29  N   UNL A   1      38.246  21.268  25.924  1.00  0.00    -0.352 N 
ATOM     30  C   UNL A   1      39.514  21.421  26.430  1.00  0.00     0.251 C 
ATOM     31  H   UNL A   1      37.949  20.335  25.812  1.00  0.00     0.163 HD
ATOM     32  O   UNL A   1      40.242  20.439  26.542  1.00  0.00    -0.269 OA
BRANCH  30  33
ATOM     33  C   UNL A   1      40.010  22.760  26.824  1.00  0.00     0.039 A 
ATOM     34  C   UNL A   1      40.894  22.856  27.901  1.00  0.00     0.014 A 
ATOM     35  C   UNL A   1      39.585  23.918  26.167  1.00  0.00     0.014 A 
ATOM     36  C   UNL A   1      41.379  24.106  28.294  1.00  0.00     0.010 A 
ATOM     37  C   UNL A   1      40.131  25.155  26.509  1.00  0.00     0.010 A 
ATOM     38  C   UNL A   1      41.017  25.266  27.590  1.00  0.00    -0.014 A 
BRANCH  38  39
ATOM     39  C   UNL A   1      41.544  26.597  27.993  1.00  0.00     0.031 A 
ATOM     40  C   UNL A   1      42.967  26.982  27.681  1.00  0.00     0.074 A 
ATOM     41  C   UNL A   1      40.755  27.447  28.679  1.00  0.00     0.049 A 
ATOM     42  N   UNL A   1      43.589  28.107  27.925  1.00  0.00    -0.248 NA
ATOM     43  C   UNL A   1      43.809  25.965  27.031  1.00  0.00     0.031 C 
ATOM     44  C   UNL A   1      39.387  27.165  29.118  1.00  0.00     0.029 A 
ATOM     45  N   UNL A   1      40.994  28.719  29.136  1.00  0.00    -0.354 N 
ATOM     46  C   UNL A   1      44.895  27.925  27.486  1.00  0.00     0.074 A 
ATOM     47  C   UNL A   1      44.990  26.565  27.003  1.00  0.00     0.031 C 
ATOM     48  C   UNL A   1      38.901  28.238  29.761  1.00  0.00     0.029 A 
ATOM     49  C   UNL A   1      39.925  29.278  29.798  1.00  0.00     0.049 A 
ATOM     50  H   UNL A   1      41.849  29.188  29.003  1.00  0.00     0.167 HD
ATOM     51  C   UNL A   1      45.916  28.816  27.450  1.00  0.00     0.034 A 
ATOM     52  C   UNL A   1      39.782  30.494  30.360  1.00  0.00     0.034 A 
ATOM     53  C   UNL A   1      45.811  30.179  27.897  1.00  0.00     0.049 A 
ATOM     54  C   UNL A   1      40.912  31.483  30.260  1.00  0.00     0.074 A 
ATOM     55  C   UNL A   1      46.764  31.180  27.841  1.00  0.00     0.029 A 
ATOM     56  N   UNL A   1      44.684  30.733  28.484  1.00  0.00    -0.354 N 
ATOM     57  N   UNL A   1      42.089  31.340  29.701  1.00  0.00    -0.248 NA
ATOM     58  C   UNL A   1      40.675  32.818  30.827  1.00  0.00     0.031 C 
ATOM     59  C   UNL A   1      46.219  32.336  28.414  1.00  0.00     0.029 A 
ATOM     60  C   UNL A   1      44.916  32.063  28.797  1.00  0.00     0.049 A 
ATOM     61  H   UNL A   1      43.842  30.252  28.656  1.00  0.00     0.167 HD
ATOM     62  C   UNL A   1      42.714  32.578  29.806  1.00  0.00     0.074 A 
ATOM     63  C   UNL A   1      41.774  33.463  30.466  1.00  0.00     0.031 C 
ATOM     64  C   UNL A   1      43.955  32.948  29.403  1.00  0.00     0.034 A 
BRANCH  51  65
ATOM     65  C   UNL A   1      47.223  28.354  26.854  1.00  0.00     0.023 A 
ATOM     66  C   UNL A   1      48.320  28.098  27.703  1.00  0.00     0.012 A 
ATOM     67  C   UNL A   1      47.358  28.133  25.470  1.00  0.00     0.148 A 
ATOM     68  C   UNL A   1      49.541  27.672  27.182  1.00  0.00     0.002 A 
ATOM     69  C   UNL A   1      48.564  27.662  24.962  1.00  0.00     0.091 A 
ATOM     70  F   UNL A   1      46.313  28.401  24.674  1.00  0.00    -0.205 F 
ATOM     71  C   UNL A   1      49.660  27.445  25.814  1.00  0.00     0.022 A 
BRANCH  69  72
ATOM     72  S   UNL A   1      48.793  27.260  23.227  1.00  0.00     0.127 S 
ATOM     73  O   UNL A   1      50.244  27.374  23.087  1.00  0.00    -0.237 OA
ATOM     74  O   UNL A   1      48.280  25.892  23.156  1.00  0.00    -0.237 OA
ATOM     75  O   UNL A   1      48.013  28.239  22.482  1.00  0.00    -0.744 OA
ENDBRANCH  69  72
ENDBRANCH  51  65
BRANCH  52  76
ATOM     76  C   UNL A   1      38.484  30.879  30.982  1.00  0.00     0.023 A 
ATOM     77  C   UNL A   1      38.256  30.588  32.342  1.00  0.00     0.012 A 
ATOM     78  C   UNL A   1      37.484  31.546  30.246  1.00  0.00     0.148 A 
ATOM     79  C   UNL A   1      37.044  30.919  32.947  1.00  0.00     0.002 A 
ATOM     80  C   UNL A   1      36.301  31.922  30.870  1.00  0.00     0.091 A 
ATOM     81  F   UNL A   1      37.717  31.807  28.953  1.00  0.00    -0.205 F 
ATOM     82  C   UNL A   1      36.070  31.593  32.216  1.00  0.00     0.022 A 
BRANCH  80  83
ATOM     83  S   UNL A   1      35.046  32.905  30.044  1.00  0.00     0.127 S 
ATOM     84  O   UNL A   1      35.838  33.997  29.487  1.00  0.00    -0.237 OA
ATOM     85  O   UNL A   1      34.520  31.958  29.061  1.00  0.00    -0.237 OA
ATOM     86  O   UNL A   1      34.094  33.280  31.083  1.00  0.00    -0.744 OA
ENDBRANCH  80  83
ENDBRANCH  52  76
BRANCH  64  87
ATOM     87  C   UNL A   1      44.356  34.385  29.613  1.00  0.00     0.023 A 
ATOM     88  C   UNL A   1      44.136  35.337  28.597  1.00  0.00     0.012 A 
ATOM     89  C   UNL A   1      44.912  34.802  30.839  1.00  0.00     0.148 A 
ATOM     90  C   UNL A   1      44.510  36.669  28.779  1.00  0.00     0.002 A 
ATOM     91  C   UNL A   1      45.232  36.141  31.033  1.00  0.00     0.091 A 
ATOM     92  F   UNL A   1      45.134  33.881  31.789  1.00  0.00    -0.205 F 
ATOM     93  C   UNL A   1      45.047  37.072  29.999  1.00  0.00     0.022 A 
BRANCH  91  94
ATOM     94  S   UNL A   1      45.834  36.760  32.608  1.00  0.00     0.127 S 
ATOM     95  O   UNL A   1      46.852  37.718  32.183  1.00  0.00    -0.237 OA
ATOM     96  O   UNL A   1      44.632  37.363  33.187  1.00  0.00    -0.237 OA
ATOM     97  O   UNL A   1      46.327  35.594  33.330  1.00  0.00    -0.744 OA
ENDBRANCH  91  94
ENDBRANCH  64  87
ENDBRANCH  38  39
ENDBRANCH  30  33
ENDBRANCH  28  29
ENDBRANCH  27  28
ENDBRANCH  26  27
ENDBRANCH   1  26
TORSDOF 20
ENDMDL
MODEL 3
REMARK VINA RESULT:     -10.8      2.793      7.945
REMARK SMILES C[C@@H](Oc1ccccc1Cl)C(=O)N1CC[C@H](C(=O)NCCCCCCNC(=O)c2ccc(-c3c4nc(c(-c5cccc(S(=O)(=O)[O-])c5F)c5ccc([nH]5)c(-c5cccc(S(=O)(=O)[O-])c5F)c5nc(c(-c6cccc(S(=O)(=O)[O-])c6F)c6ccc3[nH]6)C=C5)C=C4)cc2)[C@@H]1C
REMARK SMILES IDX 22 1 21 2 20 3 19 4 17 5 18 6 16 8 13 9 14 10 92 11 15 12
REMARK SMILES IDX 93 13 11 14 12 15 2 16 1 17 3 18 4 19 5 20 9 21 6 22 8 23
REMARK SMILES IDX 10 24 7 25 23 26 24 27 25 28 26 29 27 30 28 32 29 33 30 34
REMARK SMILES IDX 91 35 31 36 90 37 32 38 33 39 34 40 84 41 35 42 89 43 83 44
REMARK SMILES IDX 85 45 36 46 88 47 82 48 81 49 37 51 69 52 49 53 68 54 50 55
REMARK SMILES IDX 53 56 67 57 86 58 51 59 52 60 66 62 87 63 54 64 38 65 39 66
REMARK SMILES IDX 47 67 40 68 42 69 48 70 41 71 43 72 44 73 45 74 46 75 70 76
REMARK SMILES IDX 71 77 79 78 72 79 74 80 80 81 73 82 75 83 76 84 77 85 78 86
REMARK SMILES IDX 55 87 56 88 64 89 57 90 59 91 65 92 58 93 60 94 61 95 62 96
REMARK SMILES IDX 63 97
REMARK H PARENT 19 7 26 31 85 50 53 61
REMARK Flexibility Score: inf
ROOT
ATOM      1  C   UNL A   1      35.539  20.299  24.900  1.00  0.00     0.002 C 
ENDROOT
BRANCH   1   2
ATOM      2  C   UNL A   1      34.084  19.810  24.885  1.00  0.00     0.021 C 
BRANCH   2   3
ATOM      3  C   UNL A   1      33.050  20.859  24.458  1.00  0.00     0.116 C 
BRANCH   3   4
ATOM      4  N   UNL A   1      33.661  21.872  23.618  1.00  0.00    -0.356 N 
ATOM      5  C   UNL A   1      33.864  23.200  23.817  1.00  0.00     0.225 C 
ATOM      6  O   UNL A   1      34.345  23.838  22.878  1.00  0.00    -0.275 OA
ATOM      7  H   UNL A   1      33.985  21.538  22.751  1.00  0.00     0.163 HD
BRANCH   5   8
ATOM      8  C   UNL A   1      33.534  23.845  25.161  1.00  0.00     0.102 C 
ATOM      9  N   UNL A   1      32.346  25.932  25.275  1.00  0.00    -0.336 N 
ATOM     10  C   UNL A   1      33.685  26.208  24.798  1.00  0.00     0.121 C 
ATOM     11  C   UNL A   1      32.121  24.477  25.315  1.00  0.00     0.094 C 
ATOM     12  C   UNL A   1      34.475  25.046  25.375  1.00  0.00     0.037 C 
ATOM     13  C   UNL A   1      31.119  24.049  24.244  1.00  0.00     0.032 C 
BRANCH   9  14
ATOM     14  C   UNL A   1      31.583  26.970  25.773  1.00  0.00     0.263 C 
ATOM     15  O   UNL A   1      30.909  26.813  26.801  1.00  0.00    -0.271 OA
BRANCH  14  16
ATOM     16  C   UNL A   1      31.472  28.310  25.017  1.00  0.00     0.259 C 
ATOM     17  C   UNL A   1      32.734  29.158  25.051  1.00  0.00     0.064 C 
BRANCH  16  18
ATOM     18  O   UNL A   1      31.056  28.055  23.665  1.00  0.00    -0.479 OA
BRANCH  18  19
ATOM     19  C   UNL A   1      29.903  28.724  23.341  1.00  0.00     0.139 A 
ATOM     20  C   UNL A   1      29.961  30.087  23.032  1.00  0.00     0.048 A 
ATOM     21  C   UNL A   1      28.666  28.073  23.395  1.00  0.00     0.083 A 
ATOM     22  C   UNL A   1      28.790  30.779  22.717  1.00  0.00     0.004 A 
ATOM     23  C   UNL A   1      27.499  28.765  23.065  1.00  0.00     0.024 A 
ATOM     24  Cl  UNL A   1      28.535  26.418  23.867  1.00  0.00    -0.080 Cl
ATOM     25  C   UNL A   1      27.562  30.116  22.720  1.00  0.00     0.002 A 
ENDBRANCH  18  19
ENDBRANCH  16  18
ENDBRANCH  14  16
ENDBRANCH   9  14
ENDBRANCH   5   8
ENDBRANCH   3   4
ENDBRANCH   2   3
ENDBRANCH   1   2
BRANCH   1  26
ATOM     26  C   UNL A   1      36.596  19.196  24.994  1.00  0.00     0.002 C 
BRANCH  26  27
ATOM     27  C   UNL A   1      38.021  19.640  24.662  1.00  0.00     0.021 C 
BRANCH  27  28
ATOM     28  C   UNL A   1      38.842  20.123  25.856  1.00  0.00     0.116 C 
BRANCH  28  29
ATOM     29  N   UNL A   1      39.975  19.258  26.138  1.00  0.00    -0.352 N 
ATOM     30  C   UNL A   1      41.284  19.585  26.394  1.00  0.00     0.251 C 
ATOM     31  H   UNL A   1      39.775  18.293  26.145  1.00  0.00     0.163 HD
ATOM     32  O   UNL A   1      42.130  18.697  26.440  1.00  0.00    -0.269 OA
BRANCH  30  33
ATOM     33  C   UNL A   1      41.681  20.998  26.600  1.00  0.00     0.039 A 
ATOM     34  C   UNL A   1      42.062  21.407  27.880  1.00  0.00     0.014 A 
ATOM     35  C   UNL A   1      41.647  21.925  25.555  1.00  0.00     0.014 A 
ATOM     36  C   UNL A   1      42.441  22.732  28.103  1.00  0.00     0.010 A 
ATOM     37  C   UNL A   1      42.102  23.226  25.761  1.00  0.00     0.010 A 
ATOM     38  C   UNL A   1      42.483  23.651  27.041  1.00  0.00    -0.014 A 
BRANCH  38  39
ATOM     39  C   UNL A   1      42.905  25.058  27.270  1.00  0.00     0.031 A 
ATOM     40  C   UNL A   1      41.965  26.044  27.913  1.00  0.00     0.074 A 
ATOM     41  C   UNL A   1      44.124  25.465  26.859  1.00  0.00     0.049 A 
ATOM     42  N   UNL A   1      42.170  27.300  28.220  1.00  0.00    -0.248 NA
ATOM     43  C   UNL A   1      40.610  25.567  28.233  1.00  0.00     0.031 C 
ATOM     44  C   UNL A   1      45.097  24.634  26.148  1.00  0.00     0.029 A 
ATOM     45  N   UNL A   1      44.747  26.682  26.973  1.00  0.00    -0.354 N 
ATOM     46  C   UNL A   1      40.969  27.767  28.741  1.00  0.00     0.074 A 
ATOM     47  C   UNL A   1      40.025  26.674  28.666  1.00  0.00     0.031 C 
ATOM     48  C   UNL A   1      46.202  25.358  25.910  1.00  0.00     0.029 A 
ATOM     49  C   UNL A   1      46.011  26.708  26.431  1.00  0.00     0.049 A 
ATOM     50  H   UNL A   1      44.329  27.463  27.403  1.00  0.00     0.167 HD
ATOM     51  C   UNL A   1      40.683  28.981  29.270  1.00  0.00     0.034 A 
ATOM     52  C   UNL A   1      46.918  27.703  26.372  1.00  0.00     0.034 A 
ATOM     53  C   UNL A   1      41.633  30.056  29.378  1.00  0.00     0.049 A 
ATOM     54  C   UNL A   1      46.595  29.026  27.013  1.00  0.00     0.074 A 
ATOM     55  C   UNL A   1      41.463  31.301  29.958  1.00  0.00     0.029 A 
ATOM     56  N   UNL A   1      42.930  30.016  28.893  1.00  0.00    -0.354 N 
ATOM     57  N   UNL A   1      45.505  29.396  27.640  1.00  0.00    -0.248 NA
ATOM     58  C   UNL A   1      47.648  30.051  26.981  1.00  0.00     0.031 C 
ATOM     59  C   UNL A   1      42.655  32.020  29.806  1.00  0.00     0.029 A 
ATOM     60  C   UNL A   1      43.575  31.213  29.160  1.00  0.00     0.049 A 
ATOM     61  H   UNL A   1      43.335  29.249  28.426  1.00  0.00     0.167 HD
ATOM     62  C   UNL A   1      45.758  30.678  28.118  1.00  0.00     0.074 A 
ATOM     63  C   UNL A   1      47.113  31.010  27.723  1.00  0.00     0.031 C 
ATOM     64  C   UNL A   1      44.941  31.510  28.810  1.00  0.00     0.034 A 
BRANCH  51  65
ATOM     65  C   UNL A   1      39.296  29.190  29.826  1.00  0.00     0.023 A 
ATOM     66  C   UNL A   1      39.003  28.769  31.140  1.00  0.00     0.012 A 
ATOM     67  C   UNL A   1      38.297  29.836  29.073  1.00  0.00     0.148 A 
ATOM     68  C   UNL A   1      37.730  28.946  31.679  1.00  0.00     0.002 A 
ATOM     69  C   UNL A   1      37.043  30.054  29.635  1.00  0.00     0.091 A 
ATOM     70  F   UNL A   1      38.583  30.213  27.818  1.00  0.00    -0.205 F 
ATOM     71  C   UNL A   1      36.754  29.597  30.931  1.00  0.00     0.022 A 
BRANCH  69  72
ATOM     72  S   UNL A   1      35.743  30.954  28.783  1.00  0.00     0.127 S 
ATOM     73  O   UNL A   1      34.972  31.489  29.904  1.00  0.00    -0.237 OA
ATOM     74  O   UNL A   1      36.501  31.956  28.033  1.00  0.00    -0.237 OA
ATOM     75  O   UNL A   1      35.051  29.974  27.957  1.00  0.00    -0.744 OA
ENDBRANCH  69  72
ENDBRANCH  51  65
BRANCH  52  76
ATOM     76  C   UNL A   1      48.256  27.456  25.764  1.00  0.00     0.023 A 
ATOM     77  C   UNL A   1      49.322  27.041  26.586  1.00  0.00     0.012 A 
ATOM     78  C   UNL A   1      48.475  27.610  24.381  1.00  0.00     0.148 A 
ATOM     79  C   UNL A   1      50.591  26.820  26.049  1.00  0.00     0.002 A 
ATOM     80  C   UNL A   1      49.727  27.335  23.845  1.00  0.00     0.091 A 
ATOM     81  F   UNL A   1      47.451  28.013  23.617  1.00  0.00    -0.205 F 
ATOM     82  C   UNL A   1      50.792  26.958  24.679  1.00  0.00     0.022 A 
BRANCH  80  83
ATOM     83  S   UNL A   1      50.046  27.361  22.078  1.00  0.00     0.127 S 
ATOM     84  O   UNL A   1      49.028  26.444  21.575  1.00  0.00    -0.237 OA
ATOM     85  O   UNL A   1      49.824  28.770  21.752  1.00  0.00    -0.237 OA
ATOM     86  O   UNL A   1      51.427  26.920  21.921  1.00  0.00    -0.744 OA
ENDBRANCH  80  83
ENDBRANCH  52  76
BRANCH  64  87
ATOM     87  C   UNL A   1      45.503  32.841  29.237  1.00  0.00     0.023 A 
ATOM     88  C   UNL A   1      46.244  32.947  30.432  1.00  0.00     0.012 A 
ATOM     89  C   UNL A   1      45.332  33.983  28.429  1.00  0.00     0.148 A 
ATOM     90  C   UNL A   1      46.763  34.176  30.839  1.00  0.00     0.002 A 
ATOM     91  C   UNL A   1      45.899  35.193  28.814  1.00  0.00     0.091 A 
ATOM     92  F   UNL A   1      44.608  33.872  27.305  1.00  0.00    -0.205 F 
ATOM     93  C   UNL A   1      46.600  35.295  30.026  1.00  0.00     0.022 A 
BRANCH  91  94
ATOM     94  S   UNL A   1      45.820  36.656  27.776  1.00  0.00     0.127 S 
ATOM     95  O   UNL A   1      44.434  36.622  27.315  1.00  0.00    -0.237 OA
ATOM     96  O   UNL A   1      46.122  37.730  28.725  1.00  0.00    -0.237 OA
ATOM     97  O   UNL A   1      46.833  36.466  26.746  1.00  0.00    -0.744 OA
ENDBRANCH  91  94
ENDBRANCH  64  87
ENDBRANCH  38  39
ENDBRANCH  30  33
ENDBRANCH  28  29
ENDBRANCH  27  28
ENDBRANCH  26  27
ENDBRANCH   1  26
TORSDOF 20
ENDMDL
