MODEL 1
REMARK VINA RESULT:     -10.3      0.000      0.000
REMARK SMILES CCC(CC)(NC(=O)NCCc1nccs1)C(=O)NCCCCCCNC(=O)c1ccc(-c2c3nc(c(-c4cccc(S(=O)(=O)[O-])c4F)c4ccc([nH]4)c(-c4cccc(S(=O)(=O)[O-])c4F)c4nc(c(-c5cccc(S(=O)(=O)[O-])c5F)c5ccc2[nH]5)C=C4)C=C3)cc1
REMARK SMILES IDX 22 1 21 2 20 3 19 4 17 5 18 6 3 8 2 9 1 10 4 11 5 12 6 13
REMARK SMILES IDX 7 14 8 16 9 17 10 19 11 20 12 21 13 22 16 23 14 24 15 25
REMARK SMILES IDX 23 26 24 27 25 28 26 29 27 30 28 32 29 33 30 34 91 35 31 36
REMARK SMILES IDX 90 37 32 38 33 39 34 40 84 41 35 42 89 43 83 44 85 45 36 46
REMARK SMILES IDX 88 47 82 48 81 49 37 51 69 52 49 53 68 54 50 55 53 56 67 57
REMARK SMILES IDX 86 58 51 59 52 60 66 62 87 63 54 64 38 65 39 66 47 67 40 68
REMARK SMILES IDX 42 69 48 70 41 71 43 72 44 73 45 74 46 75 70 76 71 77 79 78
REMARK SMILES IDX 72 79 74 80 80 81 73 82 75 83 76 84 77 85 78 86 55 87 56 88
REMARK SMILES IDX 64 89 57 90 59 91 65 92 58 93 60 94 61 95 62 96 63 97
REMARK H PARENT 19 7 6 15 9 18 26 31 85 50 53 61
REMARK Flexibility Score: inf
ROOT
ATOM      1  C   UNL A   1      37.867  22.434  24.987  1.00  0.00     0.002 C 
ENDROOT
BRANCH   1   2
ATOM      2  C   UNL A   1      37.159  23.276  26.040  1.00  0.00     0.021 C 
BRANCH   2   3
ATOM      3  C   UNL A   1      35.682  23.590  25.790  1.00  0.00     0.116 C 
BRANCH   3   4
ATOM      4  N   UNL A   1      35.309  23.932  24.417  1.00  0.00    -0.354 N 
ATOM      5  C   UNL A   1      34.245  23.580  23.621  1.00  0.00     0.245 C 
ATOM      6  O   UNL A   1      34.130  24.190  22.550  1.00  0.00    -0.272 OA
ATOM      7  H   UNL A   1      35.948  24.535  23.974  1.00  0.00     0.163 HD
BRANCH   5   8
ATOM      8  C   UNL A   1      33.162  22.576  24.102  1.00  0.00     0.120 C 
BRANCH   8   9
ATOM      9  C   UNL A   1      33.631  21.148  24.497  1.00  0.00     0.035 C 
ATOM     10  C   UNL A   1      33.412  20.696  25.934  1.00  0.00     0.007 C 
ENDBRANCH   8   9
BRANCH   8  11
ATOM     11  C   UNL A   1      32.190  22.478  22.868  1.00  0.00     0.035 C 
ATOM     12  C   UNL A   1      31.926  21.097  22.287  1.00  0.00     0.007 C 
ENDBRANCH   8  11
BRANCH   8  13
ATOM     13  N   UNL A   1      32.510  23.163  25.290  1.00  0.00    -0.324 N 
ATOM     14  C   UNL A   1      31.662  24.175  25.517  1.00  0.00     0.315 C 
ATOM     15  H   UNL A   1      32.760  22.696  26.119  1.00  0.00     0.166 HD
ATOM     16  O   UNL A   1      31.446  24.446  26.702  1.00  0.00    -0.249 OA
ATOM     17  N   UNL A   1      30.951  24.844  24.599  1.00  0.00    -0.338 N 
ATOM     18  H   UNL A   1      30.110  25.183  24.984  1.00  0.00     0.165 HD
BRANCH  17  19
ATOM     19  C   UNL A   1      31.069  25.212  23.191  1.00  0.00     0.125 C 
BRANCH  19  20
ATOM     20  C   UNL A   1      31.718  26.560  22.859  1.00  0.00     0.089 C 
BRANCH  20  21
ATOM     21  C   UNL A   1      30.855  27.781  22.973  1.00  0.00     0.094 A 
ATOM     22  N   UNL A   1      29.989  28.224  22.087  1.00  0.00    -0.250 NA
ATOM     23  S   UNL A   1      31.069  28.793  24.364  1.00  0.00    -0.127 S 
ATOM     24  C   UNL A   1      29.506  29.460  22.490  1.00  0.00     0.123 A 
ATOM     25  C   UNL A   1      29.990  29.933  23.690  1.00  0.00     0.087 A 
ENDBRANCH  20  21
ENDBRANCH  19  20
ENDBRANCH  17  19
ENDBRANCH   8  13
ENDBRANCH   5   8
ENDBRANCH   3   4
ENDBRANCH   2   3
ENDBRANCH   1   2
BRANCH   1  26
ATOM     26  C   UNL A   1      37.192  21.116  24.625  1.00  0.00     0.002 C 
BRANCH  26  27
ATOM     27  C   UNL A   1      38.062  19.881  24.837  1.00  0.00     0.021 C 
BRANCH  27  28
ATOM     28  C   UNL A   1      38.872  19.897  26.126  1.00  0.00     0.116 C 
BRANCH  28  29
ATOM     29  N   UNL A   1      40.082  19.094  26.031  1.00  0.00    -0.352 N 
ATOM     30  C   UNL A   1      41.390  19.520  26.109  1.00  0.00     0.251 C 
ATOM     31  H   UNL A   1      39.950  18.128  25.894  1.00  0.00     0.163 HD
ATOM     32  O   UNL A   1      42.315  18.765  25.862  1.00  0.00    -0.269 OA
BRANCH  30  33
ATOM     33  C   UNL A   1      41.640  20.932  26.475  1.00  0.00     0.039 A 
ATOM     34  C   UNL A   1      42.091  21.231  27.762  1.00  0.00     0.014 A 
ATOM     35  C   UNL A   1      41.502  21.937  25.514  1.00  0.00     0.014 A 
ATOM     36  C   UNL A   1      42.463  22.543  28.067  1.00  0.00     0.010 A 
ATOM     37  C   UNL A   1      41.945  23.224  25.799  1.00  0.00     0.010 A 
ATOM     38  C   UNL A   1      42.425  23.541  27.080  1.00  0.00    -0.014 A 
BRANCH  38  39
ATOM     39  C   UNL A   1      42.884  24.925  27.361  1.00  0.00     0.031 A 
ATOM     40  C   UNL A   1      41.950  25.910  28.009  1.00  0.00     0.074 A 
ATOM     41  C   UNL A   1      44.106  25.321  26.949  1.00  0.00     0.049 A 
ATOM     42  N   UNL A   1      42.146  27.174  28.285  1.00  0.00    -0.248 NA
ATOM     43  C   UNL A   1      40.608  25.422  28.366  1.00  0.00     0.031 C 
ATOM     44  C   UNL A   1      45.070  24.485  26.230  1.00  0.00     0.029 A 
ATOM     45  N   UNL A   1      44.734  26.537  27.053  1.00  0.00    -0.354 N 
ATOM     46  C   UNL A   1      40.947  27.638  28.810  1.00  0.00     0.074 A 
ATOM     47  C   UNL A   1      40.015  26.532  28.779  1.00  0.00     0.031 C 
ATOM     48  C   UNL A   1      46.167  25.210  25.963  1.00  0.00     0.029 A 
ATOM     49  C   UNL A   1      45.979  26.567  26.466  1.00  0.00     0.049 A 
ATOM     50  H   UNL A   1      44.333  27.313  27.505  1.00  0.00     0.167 HD
ATOM     51  C   UNL A   1      40.655  28.864  29.306  1.00  0.00     0.034 A 
ATOM     52  C   UNL A   1      46.866  27.575  26.347  1.00  0.00     0.034 A 
ATOM     53  C   UNL A   1      41.599  29.944  29.382  1.00  0.00     0.049 A 
ATOM     54  C   UNL A   1      46.536  28.913  26.954  1.00  0.00     0.074 A 
ATOM     55  C   UNL A   1      41.433  31.193  29.954  1.00  0.00     0.029 A 
ATOM     56  N   UNL A   1      42.885  29.909  28.865  1.00  0.00    -0.354 N 
ATOM     57  N   UNL A   1      45.458  29.282  27.600  1.00  0.00    -0.248 NA
ATOM     58  C   UNL A   1      47.562  29.961  26.849  1.00  0.00     0.031 C 
ATOM     59  C   UNL A   1      42.613  31.920  29.764  1.00  0.00     0.029 A 
ATOM     60  C   UNL A   1      43.522  31.114  29.097  1.00  0.00     0.049 A 
ATOM     61  H   UNL A   1      43.285  29.138  28.401  1.00  0.00     0.167 HD
ATOM     62  C   UNL A   1      45.688  30.590  28.012  1.00  0.00     0.074 A 
ATOM     63  C   UNL A   1      47.019  30.941  27.558  1.00  0.00     0.031 C 
ATOM     64  C   UNL A   1      44.868  31.430  28.690  1.00  0.00     0.034 A 
BRANCH  51  65
ATOM     65  C   UNL A   1      39.272  29.080  29.863  1.00  0.00     0.023 A 
ATOM     66  C   UNL A   1      38.964  28.616  31.158  1.00  0.00     0.012 A 
ATOM     67  C   UNL A   1      38.295  29.784  29.131  1.00  0.00     0.148 A 
ATOM     68  C   UNL A   1      37.696  28.815  31.703  1.00  0.00     0.002 A 
ATOM     69  C   UNL A   1      37.048  30.017  29.700  1.00  0.00     0.091 A 
ATOM     70  F   UNL A   1      38.598  30.198  27.893  1.00  0.00    -0.205 F 
ATOM     71  C   UNL A   1      36.743  29.523  30.979  1.00  0.00     0.022 A 
BRANCH  69  72
ATOM     72  S   UNL A   1      35.778  30.990  28.882  1.00  0.00     0.127 S 
ATOM     73  O   UNL A   1      36.582  31.987  28.174  1.00  0.00    -0.237 OA
ATOM     74  O   UNL A   1      35.138  29.998  28.017  1.00  0.00    -0.237 OA
ATOM     75  O   UNL A   1      34.926  31.511  29.942  1.00  0.00    -0.744 OA
ENDBRANCH  69  72
ENDBRANCH  51  65
BRANCH  52  76
ATOM     76  C   UNL A   1      48.182  27.336  25.688  1.00  0.00     0.023 A 
ATOM     77  C   UNL A   1      49.273  26.904  26.467  1.00  0.00     0.012 A 
ATOM     78  C   UNL A   1      48.353  27.506  24.300  1.00  0.00     0.148 A 
ATOM     79  C   UNL A   1      50.520  26.677  25.882  1.00  0.00     0.002 A 
ATOM     80  C   UNL A   1      49.583  27.226  23.715  1.00  0.00     0.091 A 
ATOM     81  F   UNL A   1      47.305  27.929  23.578  1.00  0.00    -0.205 F 
ATOM     82  C   UNL A   1      50.672  26.828  24.506  1.00  0.00     0.022 A 
BRANCH  80  83
ATOM     83  S   UNL A   1      49.833  27.265  21.937  1.00  0.00     0.127 S 
ATOM     84  O   UNL A   1      51.231  26.856  21.823  1.00  0.00    -0.237 OA
ATOM     85  O   UNL A   1      48.861  26.275  21.473  1.00  0.00    -0.237 OA
ATOM     86  O   UNL A   1      49.536  28.631  21.528  1.00  0.00    -0.744 OA
ENDBRANCH  80  83
ENDBRANCH  52  76
BRANCH  64  87
ATOM     87  C   UNL A   1      45.390  32.803  29.021  1.00  0.00     0.023 A 
ATOM     88  C   UNL A   1      46.170  32.996  30.178  1.00  0.00     0.012 A 
ATOM     89  C   UNL A   1      45.176  33.884  28.142  1.00  0.00     0.148 A 
ATOM     90  C   UNL A   1      46.703  34.250  30.472  1.00  0.00     0.002 A 
ATOM     91  C   UNL A   1      45.751  35.118  28.416  1.00  0.00     0.091 A 
ATOM     92  F   UNL A   1      44.415  33.684  27.056  1.00  0.00    -0.205 F 
ATOM     93  C   UNL A   1      46.504  35.307  29.586  1.00  0.00     0.022 A 
BRANCH  91  94
ATOM     94  S   UNL A   1      45.631  36.508  27.284  1.00  0.00     0.127 S 
ATOM     95  O   UNL A   1      44.187  36.595  27.071  1.00  0.00    -0.237 OA
ATOM     96  O   UNL A   1      46.198  37.602  28.073  1.00  0.00    -0.237 OA
ATOM     97  O   UNL A   1      46.416  36.140  26.113  1.00  0.00    -0.744 OA
ENDBRANCH  91  94
ENDBRANCH  64  87
ENDBRANCH  38  39
ENDBRANCH  30  33
ENDBRANCH  28  29
ENDBRANCH  27  28
ENDBRANCH  26  27
ENDBRANCH   1  26
TORSDOF 22
ENDMDL
MODEL 2
REMARK VINA RESULT:     -10.2      2.001      8.241
REMARK SMILES CCC(CC)(NC(=O)NCCc1nccs1)C(=O)NCCCCCCNC(=O)c1ccc(-c2c3nc(c(-c4cccc(S(=O)(=O)[O-])c4F)c4ccc([nH]4)c(-c4cccc(S(=O)(=O)[O-])c4F)c4nc(c(-c5cccc(S(=O)(=O)[O-])c5F)c5ccc2[nH]5)C=C4)C=C3)cc1
REMARK SMILES IDX 22 1 21 2 20 3 19 4 17 5 18 6 3 8 2 9 1 10 4 11 5 12 6 13
REMARK SMILES IDX 7 14 8 16 9 17 10 19 11 20 12 21 13 22 16 23 14 24 15 25
REMARK SMILES IDX 23 26 24 27 25 28 26 29 27 30 28 32 29 33 30 34 91 35 31 36
REMARK SMILES IDX 90 37 32 38 33 39 34 40 84 41 35 42 89 43 83 44 85 45 36 46
REMARK SMILES IDX 88 47 82 48 81 49 37 51 69 52 49 53 68 54 50 55 53 56 67 57
REMARK SMILES IDX 86 58 51 59 52 60 66 62 87 63 54 64 38 65 39 66 47 67 40 68
REMARK SMILES IDX 42 69 48 70 41 71 43 72 44 73 45 74 46 75 70 76 71 77 79 78
REMARK SMILES IDX 72 79 74 80 80 81 73 82 75 83 76 84 77 85 78 86 55 87 56 88
REMARK SMILES IDX 64 89 57 90 59 91 65 92 58 93 60 94 61 95 62 96 63 97
REMARK H PARENT 19 7 6 15 9 18 26 31 85 50 53 61
REMARK Flexibility Score: inf
ROOT
ATOM      1  C   UNL A   1      37.499  22.109  24.570  1.00  0.00     0.002 C 
ENDROOT
BRANCH   1   2
ATOM      2  C   UNL A   1      37.430  23.082  25.739  1.00  0.00     0.021 C 
BRANCH   2   3
ATOM      3  C   UNL A   1      36.064  23.705  26.036  1.00  0.00     0.116 C 
BRANCH   3   4
ATOM      4  N   UNL A   1      35.212  22.991  26.990  1.00  0.00    -0.354 N 
ATOM      5  C   UNL A   1      33.851  22.833  27.094  1.00  0.00     0.245 C 
ATOM      6  O   UNL A   1      33.452  22.010  27.927  1.00  0.00    -0.272 OA
ATOM      7  H   UNL A   1      35.717  22.532  27.699  1.00  0.00     0.163 HD
BRANCH   5   8
ATOM      8  C   UNL A   1      32.870  23.538  26.118  1.00  0.00     0.120 C 
BRANCH   8   9
ATOM      9  C   UNL A   1      32.499  25.018  26.418  1.00  0.00     0.035 C 
ATOM     10  C   UNL A   1      33.363  26.110  25.805  1.00  0.00     0.007 C 
ENDBRANCH   8   9
BRANCH   8  11
ATOM     11  C   UNL A   1      31.573  22.652  26.209  1.00  0.00     0.035 C 
ATOM     12  C   UNL A   1      30.287  23.328  26.655  1.00  0.00     0.007 C 
ENDBRANCH   8  11
BRANCH   8  13
ATOM     13  N   UNL A   1      33.483  23.509  24.774  1.00  0.00    -0.324 N 
ATOM     14  C   UNL A   1      33.825  22.555  23.897  1.00  0.00     0.315 C 
ATOM     15  H   UNL A   1      33.691  24.411  24.441  1.00  0.00     0.166 HD
ATOM     16  O   UNL A   1      34.457  22.933  22.906  1.00  0.00    -0.249 OA
ATOM     17  N   UNL A   1      33.462  21.267  23.935  1.00  0.00    -0.338 N 
ATOM     18  H   UNL A   1      33.419  20.886  23.027  1.00  0.00     0.165 HD
BRANCH  17  19
ATOM     19  C   UNL A   1      33.112  20.266  24.939  1.00  0.00     0.125 C 
BRANCH  19  20
ATOM     20  C   UNL A   1      32.385  19.003  24.465  1.00  0.00     0.089 C 
BRANCH  20  21
ATOM     21  C   UNL A   1      33.034  17.686  24.768  1.00  0.00     0.094 A 
ATOM     22  N   UNL A   1      32.507  16.676  25.426  1.00  0.00    -0.250 NA
ATOM     23  S   UNL A   1      34.690  17.476  24.301  1.00  0.00    -0.127 S 
ATOM     24  C   UNL A   1      33.472  15.702  25.632  1.00  0.00     0.123 A 
ATOM     25  C   UNL A   1      34.717  15.969  25.106  1.00  0.00     0.087 A 
ENDBRANCH  20  21
ENDBRANCH  19  20
ENDBRANCH  17  19
ENDBRANCH   8  13
ENDBRANCH   5   8
ENDBRANCH   3   4
ENDBRANCH   2   3
ENDBRANCH   1   2
BRANCH   1  26
ATOM     26  C   UNL A   1      37.057  20.681  24.867  1.00  0.00     0.002 C 
BRANCH  26  27
ATOM     27  C   UNL A   1      38.201  19.681  25.001  1.00  0.00     0.021 C 
BRANCH  27  28
ATOM     28  C   UNL A   1      39.113  19.926  26.195  1.00  0.00     0.116 C 
BRANCH  28  29
ATOM     29  N   UNL A   1      40.387  19.233  26.073  1.00  0.00    -0.352 N 
ATOM     30  C   UNL A   1      41.654  19.766  26.165  1.00  0.00     0.251 C 
ATOM     31  H   UNL A   1      40.337  18.264  25.903  1.00  0.00     0.163 HD
ATOM     32  O   UNL A   1      42.639  19.101  25.892  1.00  0.00    -0.269 OA
BRANCH  30  33
ATOM     33  C   UNL A   1      41.784  21.181  26.578  1.00  0.00     0.039 A 
ATOM     34  C   UNL A   1      42.167  21.474  27.888  1.00  0.00     0.014 A 
ATOM     35  C   UNL A   1      41.603  22.201  25.641  1.00  0.00     0.014 A 
ATOM     36  C   UNL A   1      42.429  22.800  28.243  1.00  0.00     0.010 A 
ATOM     37  C   UNL A   1      41.938  23.508  25.977  1.00  0.00     0.010 A 
ATOM     38  C   UNL A   1      42.348  23.822  27.283  1.00  0.00    -0.014 A 
BRANCH  38  39
ATOM     39  C   UNL A   1      42.692  25.227  27.618  1.00  0.00     0.031 A 
ATOM     40  C   UNL A   1      44.111  25.707  27.480  1.00  0.00     0.074 A 
ATOM     41  C   UNL A   1      41.749  26.042  28.133  1.00  0.00     0.049 A 
ATOM     42  N   UNL A   1      44.618  26.876  27.773  1.00  0.00    -0.248 NA
ATOM     43  C   UNL A   1      45.097  24.737  26.976  1.00  0.00     0.031 C 
ATOM     44  C   UNL A   1      40.358  25.668  28.399  1.00  0.00     0.029 A 
ATOM     45  N   UNL A   1      41.826  27.348  28.551  1.00  0.00    -0.354 N 
ATOM     46  C   UNL A   1      45.981  26.771  27.527  1.00  0.00     0.074 A 
ATOM     47  C   UNL A   1      46.230  25.413  27.097  1.00  0.00     0.031 C 
ATOM     48  C   UNL A   1      39.713  26.719  28.928  1.00  0.00     0.029 A 
ATOM     49  C   UNL A   1      40.646  27.833  29.066  1.00  0.00     0.049 A 
ATOM     50  H   UNL A   1      42.648  27.885  28.489  1.00  0.00     0.167 HD
ATOM     51  C   UNL A   1      46.937  27.727  27.616  1.00  0.00     0.034 A 
ATOM     52  C   UNL A   1      40.350  29.039  29.590  1.00  0.00     0.034 A 
ATOM     53  C   UNL A   1      46.676  29.089  27.994  1.00  0.00     0.049 A 
ATOM     54  C   UNL A   1      41.418  30.100  29.627  1.00  0.00     0.074 A 
ATOM     55  C   UNL A   1      47.555  30.157  28.022  1.00  0.00     0.029 A 
ATOM     56  N   UNL A   1      45.447  29.572  28.416  1.00  0.00    -0.354 N 
ATOM     57  N   UNL A   1      42.665  30.030  29.229  1.00  0.00    -0.248 NA
ATOM     58  C   UNL A   1      41.029  31.417  30.153  1.00  0.00     0.031 C 
ATOM     59  C   UNL A   1      46.861  31.281  28.481  1.00  0.00     0.029 A 
ATOM     60  C   UNL A   1      45.544  30.919  28.714  1.00  0.00     0.049 A 
ATOM     61  H   UNL A   1      44.626  29.033  28.492  1.00  0.00     0.167 HD
ATOM     62  C   UNL A   1      43.199  31.300  29.417  1.00  0.00     0.074 A 
ATOM     63  C   UNL A   1      42.132  32.125  29.949  1.00  0.00     0.031 C 
ATOM     64  C   UNL A   1      44.460  31.741  29.188  1.00  0.00     0.034 A 
BRANCH  51  65
ATOM     65  C   UNL A   1      48.343  27.345  27.238  1.00  0.00     0.023 A 
ATOM     66  C   UNL A   1      49.168  26.706  28.186  1.00  0.00     0.012 A 
ATOM     67  C   UNL A   1      48.833  27.568  25.936  1.00  0.00     0.148 A 
ATOM     68  C   UNL A   1      50.470  26.329  27.859  1.00  0.00     0.002 A 
ATOM     69  C   UNL A   1      50.116  27.147  25.604  1.00  0.00     0.091 A 
ATOM     70  F   UNL A   1      48.043  28.195  25.054  1.00  0.00    -0.205 F 
ATOM     71  C   UNL A   1      50.940  26.540  26.567  1.00  0.00     0.022 A 
BRANCH  69  72
ATOM     72  S   UNL A   1      50.785  27.299  23.944  1.00  0.00     0.127 S 
ATOM     73  O   UNL A   1      52.001  26.492  24.041  1.00  0.00    -0.237 OA
ATOM     74  O   UNL A   1      49.725  26.706  23.128  1.00  0.00    -0.237 OA
ATOM     75  O   UNL A   1      50.995  28.723  23.724  1.00  0.00    -0.744 OA
ENDBRANCH  69  72
ENDBRANCH  51  65
BRANCH  52  76
ATOM     76  C   UNL A   1      38.963  29.332  30.051  1.00  0.00     0.023 A 
ATOM     77  C   UNL A   1      38.587  28.990  31.365  1.00  0.00     0.012 A 
ATOM     78  C   UNL A   1      38.027  29.968  29.213  1.00  0.00     0.148 A 
ATOM     79  C   UNL A   1      37.295  29.245  31.825  1.00  0.00     0.002 A 
ATOM     80  C   UNL A   1      36.758  30.269  29.696  1.00  0.00     0.091 A 
ATOM     81  F   UNL A   1      38.400  30.276  27.962  1.00  0.00    -0.205 F 
ATOM     82  C   UNL A   1      36.384  29.892  30.995  1.00  0.00     0.022 A 
BRANCH  80  83
ATOM     83  S   UNL A   1      35.567  31.218  28.744  1.00  0.00     0.127 S 
ATOM     84  O   UNL A   1      34.776  31.849  29.797  1.00  0.00    -0.237 OA
ATOM     85  O   UNL A   1      36.434  32.128  27.994  1.00  0.00    -0.237 OA
ATOM     86  O   UNL A   1      34.862  30.248  27.916  1.00  0.00    -0.744 OA
ENDBRANCH  80  83
ENDBRANCH  52  76
BRANCH  64  87
ATOM     87  C   UNL A   1      44.758  33.189  29.472  1.00  0.00     0.023 A 
ATOM     88  C   UNL A   1      45.272  33.565  30.729  1.00  0.00     0.012 A 
ATOM     89  C   UNL A   1      44.607  34.164  28.466  1.00  0.00     0.148 A 
ATOM     90  C   UNL A   1      45.600  34.894  30.990  1.00  0.00     0.002 A 
ATOM     91  C   UNL A   1      44.983  35.477  28.718  1.00  0.00     0.091 A 
ATOM     92  F   UNL A   1      44.099  33.789  27.283  1.00  0.00    -0.205 F 
ATOM     93  C   UNL A   1      45.468  35.847  29.982  1.00  0.00     0.022 A 
BRANCH  91  94
ATOM     94  S   UNL A   1      44.940  36.750  27.450  1.00  0.00     0.127 S 
ATOM     95  O   UNL A   1      45.908  36.239  26.481  1.00  0.00    -0.237 OA
ATOM     96  O   UNL A   1      43.546  36.701  27.007  1.00  0.00    -0.237 OA
ATOM     97  O   UNL A   1      45.316  37.991  28.116  1.00  0.00    -0.744 OA
ENDBRANCH  91  94
ENDBRANCH  64  87
ENDBRANCH  38  39
ENDBRANCH  30  33
ENDBRANCH  28  29
ENDBRANCH  27  28
ENDBRANCH  26  27
ENDBRANCH   1  26
TORSDOF 22
ENDMDL
MODEL 3
REMARK VINA RESULT:     -10.1      2.892      8.313
REMARK SMILES CCC(CC)(NC(=O)NCCc1nccs1)C(=O)NCCCCCCNC(=O)c1ccc(-c2c3nc(c(-c4cccc(S(=O)(=O)[O-])c4F)c4ccc([nH]4)c(-c4cccc(S(=O)(=O)[O-])c4F)c4nc(c(-c5cccc(S(=O)(=O)[O-])c5F)c5ccc2[nH]5)C=C4)C=C3)cc1
REMARK SMILES IDX 22 1 21 2 20 3 19 4 17 5 18 6 3 8 2 9 1 10 4 11 5 12 6 13
REMARK SMILES IDX 7 14 8 16 9 17 10 19 11 20 12 21 13 22 16 23 14 24 15 25
REMARK SMILES IDX 23 26 24 27 25 28 26 29 27 30 28 32 29 33 30 34 91 35 31 36
REMARK SMILES IDX 90 37 32 38 33 39 34 40 84 41 35 42 89 43 83 44 85 45 36 46
REMARK SMILES IDX 88 47 82 48 81 49 37 51 69 52 49 53 68 54 50 55 53 56 67 57
REMARK SMILES IDX 86 58 51 59 52 60 66 62 87 63 54 64 38 65 39 66 47 67 40 68
REMARK SMILES IDX 42 69 48 70 41 71 43 72 44 73 45 74 46 75 70 76 71 77 79 78
REMARK SMILES IDX 72 79 74 80 80 81 73 82 75 83 76 84 77 85 78 86 55 87 56 88
REMARK SMILES IDX 64 89 57 90 59 91 65 92 58 93 60 94 61 95 62 96 63 97
REMARK H PARENT 19 7 6 15 9 18 26 31 85 50 53 61
REMARK Flexibility Score: inf
ROOT
ATOM      1  C   UNL A   1      34.519  21.738  25.498  1.00  0.00     0.002 C 
ENDROOT
BRANCH   1   2
ATOM      2  C   UNL A   1      33.359  20.757  25.381  1.00  0.00     0.021 C 
BRANCH   2   3
ATOM      3  C   UNL A   1      31.987  21.351  25.056  1.00  0.00     0.116 C 
BRANCH   3   4
ATOM      4  N   UNL A   1      31.370  22.180  26.093  1.00  0.00    -0.354 N 
ATOM      5  C   UNL A   1      30.928  23.481  26.111  1.00  0.00     0.245 C 
ATOM      6  O   UNL A   1      30.284  23.833  27.107  1.00  0.00    -0.272 OA
ATOM      7  H   UNL A   1      31.247  21.712  26.949  1.00  0.00     0.163 HD
BRANCH   5   8
ATOM      8  C   UNL A   1      31.099  24.419  24.884  1.00  0.00     0.120 C 
BRANCH   8   9
ATOM      9  C   UNL A   1      31.580  23.778  23.552  1.00  0.00     0.035 C 
ATOM     10  C   UNL A   1      32.804  24.375  22.871  1.00  0.00     0.007 C 
ENDBRANCH   8   9
BRANCH   8  11
ATOM     11  C   UNL A   1      32.173  25.459  25.374  1.00  0.00     0.035 C 
ATOM     12  C   UNL A   1      33.369  24.927  26.147  1.00  0.00     0.007 C 
ENDBRANCH   8  11
BRANCH   8  13
ATOM     13  N   UNL A   1      29.787  25.042  24.616  1.00  0.00    -0.324 N 
ATOM     14  C   UNL A   1      29.365  26.210  24.114  1.00  0.00     0.315 C 
ATOM     15  H   UNL A   1      29.039  24.455  24.868  1.00  0.00     0.166 HD
ATOM     16  O   UNL A   1      28.150  26.420  24.177  1.00  0.00    -0.249 OA
ATOM     17  N   UNL A   1      30.107  27.116  23.463  1.00  0.00    -0.338 N 
ATOM     18  H   UNL A   1      29.561  27.620  22.817  1.00  0.00     0.165 HD
BRANCH  17  19
ATOM     19  C   UNL A   1      31.496  27.567  23.439  1.00  0.00     0.125 C 
BRANCH  19  20
ATOM     20  C   UNL A   1      31.781  29.017  23.843  1.00  0.00     0.089 C 
BRANCH  20  21
ATOM     21  C   UNL A   1      32.694  29.234  25.013  1.00  0.00     0.094 A 
ATOM     22  N   UNL A   1      33.832  28.619  25.255  1.00  0.00    -0.250 NA
ATOM     23  S   UNL A   1      32.177  30.337  26.246  1.00  0.00    -0.127 S 
ATOM     24  C   UNL A   1      34.299  28.984  26.508  1.00  0.00     0.123 A 
ATOM     25  C   UNL A   1      33.526  29.894  27.196  1.00  0.00     0.087 A 
ENDBRANCH  20  21
ENDBRANCH  19  20
ENDBRANCH  17  19
ENDBRANCH   8  13
ENDBRANCH   5   8
ENDBRANCH   3   4
ENDBRANCH   2   3
ENDBRANCH   1   2
BRANCH   1  26
ATOM     26  C   UNL A   1      35.332  21.960  24.228  1.00  0.00     0.002 C 
BRANCH  26  27
ATOM     27  C   UNL A   1      36.329  23.112  24.310  1.00  0.00     0.021 C 
BRANCH  27  28
ATOM     28  C   UNL A   1      36.914  23.339  25.698  1.00  0.00     0.116 C 
BRANCH  28  29
ATOM     29  N   UNL A   1      38.025  22.444  25.985  1.00  0.00    -0.352 N 
ATOM     30  C   UNL A   1      39.264  22.767  26.493  1.00  0.00     0.251 C 
ATOM     31  H   UNL A   1      37.873  21.491  25.792  1.00  0.00     0.163 HD
ATOM     32  O   UNL A   1      40.160  21.942  26.545  1.00  0.00    -0.269 OA
BRANCH  30  33
ATOM     33  C   UNL A   1      39.487  24.157  26.950  1.00  0.00     0.039 A 
ATOM     34  C   UNL A   1      39.216  24.488  28.279  1.00  0.00     0.014 A 
ATOM     35  C   UNL A   1      40.037  25.100  26.077  1.00  0.00     0.014 A 
ATOM     36  C   UNL A   1      39.558  25.758  28.750  1.00  0.00     0.010 A 
ATOM     37  C   UNL A   1      40.444  26.335  26.568  1.00  0.00     0.010 A 
ATOM     38  C   UNL A   1      40.203  26.679  27.908  1.00  0.00    -0.014 A 
BRANCH  38  39
ATOM     39  C   UNL A   1      40.641  28.008  28.406  1.00  0.00     0.031 A 
ATOM     40  C   UNL A   1      42.105  28.294  28.598  1.00  0.00     0.074 A 
ATOM     41  C   UNL A   1      39.720  28.922  28.773  1.00  0.00     0.049 A 
ATOM     42  N   UNL A   1      42.681  29.368  29.071  1.00  0.00    -0.248 NA
ATOM     43  C   UNL A   1      43.047  27.220  28.240  1.00  0.00     0.031 C 
ATOM     44  C   UNL A   1      38.269  28.731  28.720  1.00  0.00     0.029 A 
ATOM     45  N   UNL A   1      39.869  30.185  29.290  1.00  0.00    -0.354 N 
ATOM     46  C   UNL A   1      44.041  29.087  29.103  1.00  0.00     0.074 A 
ATOM     47  C   UNL A   1      44.203  27.727  28.639  1.00  0.00     0.031 C 
ATOM     48  C   UNL A   1      37.662  29.837  29.179  1.00  0.00     0.029 A 
ATOM     49  C   UNL A   1      38.676  30.805  29.584  1.00  0.00     0.049 A 
ATOM     50  H   UNL A   1      40.746  30.606  29.436  1.00  0.00     0.167 HD
ATOM     51  C   UNL A   1      45.068  29.898  29.455  1.00  0.00     0.034 A 
ATOM     52  C   UNL A   1      38.429  32.017  30.121  1.00  0.00     0.034 A 
ATOM     53  C   UNL A   1      44.905  31.265  29.868  1.00  0.00     0.049 A 
ATOM     54  C   UNL A   1      39.589  32.918  30.453  1.00  0.00     0.074 A 
ATOM     55  C   UNL A   1      45.885  32.200  30.152  1.00  0.00     0.029 A 
ATOM     56  N   UNL A   1      43.684  31.893  30.061  1.00  0.00    -0.354 N 
ATOM     57  N   UNL A   1      40.873  32.695  30.315  1.00  0.00    -0.248 NA
ATOM     58  C   UNL A   1      39.265  34.252  30.979  1.00  0.00     0.031 C 
ATOM     59  C   UNL A   1      45.255  33.388  30.537  1.00  0.00     0.029 A 
ATOM     60  C   UNL A   1      43.884  33.200  30.468  1.00  0.00     0.049 A 
ATOM     61  H   UNL A   1      42.805  31.470  29.929  1.00  0.00     0.167 HD
ATOM     62  C   UNL A   1      41.509  33.870  30.700  1.00  0.00     0.074 A 
ATOM     63  C   UNL A   1      40.466  34.810  31.058  1.00  0.00     0.031 C 
ATOM     64  C   UNL A   1      42.835  34.142  30.767  1.00  0.00     0.034 A 
BRANCH  51  65
ATOM     65  C   UNL A   1      46.463  29.342  29.349  1.00  0.00     0.023 A 
ATOM     66  C   UNL A   1      47.011  28.627  30.433  1.00  0.00     0.012 A 
ATOM     67  C   UNL A   1      47.213  29.480  28.163  1.00  0.00     0.148 A 
ATOM     68  C   UNL A   1      48.296  28.090  30.356  1.00  0.00     0.002 A 
ATOM     69  C   UNL A   1      48.475  28.903  28.078  1.00  0.00     0.091 A 
ATOM     70  F   UNL A   1      46.685  30.181  27.150  1.00  0.00    -0.205 F 
ATOM     71  C   UNL A   1      49.022  28.219  29.177  1.00  0.00     0.022 A 
BRANCH  69  72
ATOM     72  S   UNL A   1      49.457  28.941  26.575  1.00  0.00     0.127 S 
ATOM     73  O   UNL A   1      48.516  28.403  25.594  1.00  0.00    -0.237 OA
ATOM     74  O   UNL A   1      49.740  30.370  26.427  1.00  0.00    -0.237 OA
ATOM     75  O   UNL A   1      50.628  28.116  26.839  1.00  0.00    -0.744 OA
ENDBRANCH  69  72
ENDBRANCH  51  65
BRANCH  52  76
ATOM     76  C   UNL A   1      37.024  32.477  30.306  1.00  0.00     0.023 A 
ATOM     77  C   UNL A   1      36.377  32.237  31.534  1.00  0.00     0.012 A 
ATOM     78  C   UNL A   1      36.336  33.172  29.292  1.00  0.00     0.148 A 
ATOM     79  C   UNL A   1      35.059  32.650  31.738  1.00  0.00     0.002 A 
ATOM     80  C   UNL A   1      35.042  33.629  29.521  1.00  0.00     0.091 A 
ATOM     81  F   UNL A   1      36.965  33.381  28.127  1.00  0.00    -0.205 F 
ATOM     82  C   UNL A   1      34.396  33.354  30.737  1.00  0.00     0.022 A 
BRANCH  80  83
ATOM     83  S   UNL A   1      34.163  34.656  28.340  1.00  0.00     0.127 S 
ATOM     84  O   UNL A   1      32.786  34.200  28.513  1.00  0.00    -0.237 OA
ATOM     85  O   UNL A   1      34.434  36.002  28.848  1.00  0.00    -0.237 OA
ATOM     86  O   UNL A   1      34.768  34.374  27.045  1.00  0.00    -0.744 OA
ENDBRANCH  80  83
ENDBRANCH  52  76
BRANCH  64  87
ATOM     87  C   UNL A   1      43.246  35.522  31.208  1.00  0.00     0.023 A 
ATOM     88  C   UNL A   1      43.380  35.807  32.581  1.00  0.00     0.012 A 
ATOM     89  C   UNL A   1      43.578  36.510  30.260  1.00  0.00     0.148 A 
ATOM     90  C   UNL A   1      43.806  37.064  33.005  1.00  0.00     0.002 A 
ATOM     91  C   UNL A   1      44.050  37.744  30.689  1.00  0.00     0.091 A 
ATOM     92  F   UNL A   1      43.426  36.225  28.959  1.00  0.00    -0.205 F 
ATOM     93  C   UNL A   1      44.153  38.028  32.060  1.00  0.00     0.022 A 
BRANCH  91  94
ATOM     94  S   UNL A   1      44.612  39.010  29.544  1.00  0.00     0.127 S 
ATOM     95  O   UNL A   1      44.771  40.163  30.429  1.00  0.00    -0.237 OA
ATOM     96  O   UNL A   1      45.867  38.444  29.047  1.00  0.00    -0.237 OA
ATOM     97  O   UNL A   1      43.566  39.132  28.537  1.00  0.00    -0.744 OA
ENDBRANCH  91  94
ENDBRANCH  64  87
ENDBRANCH  38  39
ENDBRANCH  30  33
ENDBRANCH  28  29
ENDBRANCH  27  28
ENDBRANCH  26  27
ENDBRANCH   1  26
TORSDOF 22
ENDMDL
