MODEL 1
REMARK VINA RESULT:     -10.8      0.000      0.000
REMARK SMILES CC[C@@H]1CCCN1c1cc(C)c(N)c(C(=O)NCCCCCCNC(=O)c2ccc(-c3c4nc(c(-c5cccc(S(=O)(=O)[O-])c5F)c5ccc([nH]5)c(-c5cccc(S(=O)(=O)[O-])c5F)c5nc(c(-c6cccc(S(=O)(=O)[O-])c6F)c6ccc3[nH]6)C=C5)C=C4)cc2)c1
REMARK SMILES IDX 21 1 20 2 19 3 18 4 17 5 15 6 16 7 14 9 8 10 9 11 90 12
REMARK SMILES IDX 10 13 11 14 12 15 7 16 3 17 4 18 5 19 6 20 2 21 1 22 13 23
REMARK SMILES IDX 22 26 23 27 24 28 25 29 26 31 27 32 28 33 89 34 29 35 88 36
REMARK SMILES IDX 30 37 31 38 32 39 82 40 33 41 87 42 81 43 83 44 34 45 86 46
REMARK SMILES IDX 80 47 79 48 35 50 67 51 47 52 66 53 48 54 51 55 65 56 84 57
REMARK SMILES IDX 49 58 50 59 64 61 85 62 52 63 36 64 37 65 45 66 38 67 40 68
REMARK SMILES IDX 46 69 39 70 41 71 42 72 43 73 44 74 68 75 69 76 77 77 70 78
REMARK SMILES IDX 72 79 78 80 71 81 73 82 74 83 75 84 76 85 53 86 54 87 62 88
REMARK SMILES IDX 55 89 57 90 63 91 56 92 58 93 59 94 60 95 61 96
REMARK H PARENT 17 8 13 24 13 25 24 30 83 49 51 60
REMARK Flexibility Score: inf
ROOT
ATOM      1  C   UNL A   1      34.780  33.164  28.070  1.00  0.00     0.002 C 
ENDROOT
BRANCH   1   2
ATOM      2  C   UNL A   1      34.576  31.643  28.072  1.00  0.00     0.002 C 
BRANCH   2   3
ATOM      3  C   UNL A   1      35.831  30.834  27.710  1.00  0.00     0.021 C 
BRANCH   3   4
ATOM      4  C   UNL A   1      35.577  29.325  27.715  1.00  0.00     0.116 C 
BRANCH   4   5
ATOM      5  N   UNL A   1      34.157  29.086  27.863  1.00  0.00    -0.352 N 
ATOM      6  C   UNL A   1      33.192  28.508  27.083  1.00  0.00     0.253 C 
ATOM      7  O   UNL A   1      32.034  28.682  27.484  1.00  0.00    -0.269 OA
ATOM      8  H   UNL A   1      33.804  29.414  28.721  1.00  0.00     0.163 HD
BRANCH   6   9
ATOM      9  C   UNL A   1      33.445  27.661  25.864  1.00  0.00     0.065 A 
ATOM     10  C   UNL A   1      33.698  25.477  24.777  1.00  0.00     0.038 A 
ATOM     11  C   UNL A   1      33.693  26.125  23.545  1.00  0.00     0.031 A 
ATOM     12  C   UNL A   1      33.651  26.273  25.924  1.00  0.00     0.042 A 
ATOM     13  C   UNL A   1      33.630  27.520  23.432  1.00  0.00    -0.025 A 
ATOM     14  C   UNL A   1      33.693  28.134  22.061  1.00  0.00     0.046 C 
ATOM     15  C   UNL A   1      33.484  28.302  24.593  1.00  0.00     0.047 A 
BRANCH  10  16
ATOM     16  N   UNL A   1      33.667  24.106  24.830  1.00  0.00    -0.369 N 
ATOM     17  C   UNL A   1      34.783  23.216  25.161  1.00  0.00     0.082 C 
ATOM     18  C   UNL A   1      34.236  21.868  24.675  1.00  0.00     0.027 C 
ATOM     19  C   UNL A   1      32.771  21.921  25.099  1.00  0.00     0.024 C 
ATOM     20  C   UNL A   1      32.391  23.404  25.011  1.00  0.00     0.117 C 
BRANCH  17  21
ATOM     21  C   UNL A   1      36.155  23.602  24.604  1.00  0.00     0.021 C 
ATOM     22  C   UNL A   1      36.690  22.740  23.470  1.00  0.00     0.006 C 
ENDBRANCH  17  21
ENDBRANCH  10  16
BRANCH  15  23
ATOM     23  N   UNL A   1      33.225  29.673  24.451  1.00  0.00    -0.398 N 
ATOM     24  H   UNL A   1      32.696  29.998  23.688  1.00  0.00     0.156 HD
ATOM     25  H   UNL A   1      33.573  30.311  25.115  1.00  0.00     0.156 HD
ENDBRANCH  15  23
ENDBRANCH   6   9
ENDBRANCH   4   5
ENDBRANCH   3   4
ENDBRANCH   2   3
ENDBRANCH   1   2
BRANCH   1  26
ATOM     26  C   UNL A   1      33.524  33.971  28.401  1.00  0.00     0.021 C 
BRANCH  26  27
ATOM     27  C   UNL A   1      33.819  35.377  28.910  1.00  0.00     0.116 C 
BRANCH  27  28
ATOM     28  N   UNL A   1      33.071  35.665  30.124  1.00  0.00    -0.352 N 
ATOM     29  C   UNL A   1      33.209  35.102  31.369  1.00  0.00     0.251 C 
ATOM     30  H   UNL A   1      32.374  36.355  30.043  1.00  0.00     0.163 HD
ATOM     31  O   UNL A   1      32.338  35.256  32.217  1.00  0.00    -0.269 OA
BRANCH  29  32
ATOM     32  C   UNL A   1      34.417  34.310  31.667  1.00  0.00     0.039 A 
ATOM     33  C   UNL A   1      35.670  34.922  31.604  1.00  0.00     0.014 A 
ATOM     34  C   UNL A   1      34.304  32.960  32.012  1.00  0.00     0.014 A 
ATOM     35  C   UNL A   1      36.811  34.187  31.930  1.00  0.00     0.010 A 
ATOM     36  C   UNL A   1      35.431  32.255  32.415  1.00  0.00     0.010 A 
ATOM     37  C   UNL A   1      36.698  32.855  32.361  1.00  0.00    -0.014 A 
BRANCH  37  38
ATOM     38  C   UNL A   1      37.890  32.059  32.743  1.00  0.00     0.031 A 
ATOM     39  C   UNL A   1      38.629  32.380  34.014  1.00  0.00     0.074 A 
ATOM     40  C   UNL A   1      38.359  31.114  31.905  1.00  0.00     0.049 A 
ATOM     41  N   UNL A   1      39.736  31.863  34.477  1.00  0.00    -0.248 NA
ATOM     42  C   UNL A   1      38.067  33.447  34.860  1.00  0.00     0.031 C 
ATOM     43  C   UNL A   1      37.770  30.761  30.611  1.00  0.00     0.029 A 
ATOM     44  N   UNL A   1      39.459  30.298  32.003  1.00  0.00    -0.354 N 
ATOM     45  C   UNL A   1      40.024  32.564  35.642  1.00  0.00     0.074 A 
ATOM     46  C   UNL A   1      38.996  33.569  35.797  1.00  0.00     0.031 C 
ATOM     47  C   UNL A   1      38.512  29.800  30.037  1.00  0.00     0.029 A 
ATOM     48  C   UNL A   1      39.649  29.496  30.902  1.00  0.00     0.049 A 
ATOM     49  H   UNL A   1      40.055  30.289  32.786  1.00  0.00     0.167 HD
ATOM     50  C   UNL A   1      41.037  32.372  36.520  1.00  0.00     0.034 A 
ATOM     51  C   UNL A   1      40.635  28.624  30.615  1.00  0.00     0.034 A 
ATOM     52  C   UNL A   1      42.033  31.345  36.380  1.00  0.00     0.049 A 
ATOM     53  C   UNL A   1      41.733  28.408  31.621  1.00  0.00     0.074 A 
ATOM     54  C   UNL A   1      43.051  31.012  37.256  1.00  0.00     0.029 A 
ATOM     55  N   UNL A   1      42.145  30.493  35.292  1.00  0.00    -0.354 N 
ATOM     56  N   UNL A   1      41.907  28.979  32.788  1.00  0.00    -0.248 NA
ATOM     57  C   UNL A   1      42.750  27.401  31.289  1.00  0.00     0.031 C 
ATOM     58  C   UNL A   1      43.799  29.979  36.680  1.00  0.00     0.029 A 
ATOM     59  C   UNL A   1      43.221  29.641  35.467  1.00  0.00     0.049 A 
ATOM     60  H   UNL A   1      41.545  30.494  34.511  1.00  0.00     0.167 HD
ATOM     61  C   UNL A   1      43.026  28.373  33.347  1.00  0.00     0.074 A 
ATOM     62  C   UNL A   1      43.480  27.378  32.396  1.00  0.00     0.031 C 
ATOM     63  C   UNL A   1      43.628  28.621  34.537  1.00  0.00     0.034 A 
BRANCH  50  64
ATOM     64  C   UNL A   1      41.096  33.267  37.729  1.00  0.00     0.023 A 
ATOM     65  C   UNL A   1      40.336  32.949  38.874  1.00  0.00     0.012 A 
ATOM     66  C   UNL A   1      41.944  34.391  37.756  1.00  0.00     0.148 A 
ATOM     67  C   UNL A   1      40.389  33.756  40.010  1.00  0.00     0.002 A 
ATOM     68  C   UNL A   1      42.030  35.163  38.908  1.00  0.00     0.091 A 
ATOM     69  F   UNL A   1      42.644  34.690  36.651  1.00  0.00    -0.205 F 
ATOM     70  C   UNL A   1      41.243  34.855  40.031  1.00  0.00     0.022 A 
BRANCH  68  71
ATOM     71  S   UNL A   1      43.162  36.547  39.066  1.00  0.00     0.127 S 
ATOM     72  O   UNL A   1      42.834  37.333  37.876  1.00  0.00    -0.237 OA
ATOM     73  O   UNL A   1      42.737  37.149  40.329  1.00  0.00    -0.237 OA
ATOM     74  O   UNL A   1      44.500  35.974  39.084  1.00  0.00    -0.744 OA
ENDBRANCH  68  71
ENDBRANCH  50  64
BRANCH  51  75
ATOM     75  C   UNL A   1      40.602  27.852  29.341  1.00  0.00     0.023 A 
ATOM     76  C   UNL A   1      39.653  26.824  29.177  1.00  0.00     0.012 A 
ATOM     77  C   UNL A   1      41.488  28.143  28.286  1.00  0.00     0.148 A 
ATOM     78  C   UNL A   1      39.613  26.074  28.001  1.00  0.00     0.002 A 
ATOM     79  C   UNL A   1      41.405  27.430  27.096  1.00  0.00     0.091 A 
ATOM     80  F   UNL A   1      42.387  29.121  28.464  1.00  0.00    -0.205 F 
ATOM     81  C   UNL A   1      40.481  26.383  26.958  1.00  0.00     0.022 A 
BRANCH  79  82
ATOM     82  S   UNL A   1      42.394  27.844  25.655  1.00  0.00     0.127 S 
ATOM     83  O   UNL A   1      43.735  27.929  26.226  1.00  0.00    -0.237 OA
ATOM     84  O   UNL A   1      42.163  26.687  24.789  1.00  0.00    -0.237 OA
ATOM     85  O   UNL A   1      41.844  29.093  25.144  1.00  0.00    -0.744 OA
ENDBRANCH  79  82
ENDBRANCH  51  75
BRANCH  63  86
ATOM     86  C   UNL A   1      44.813  27.770  34.915  1.00  0.00     0.023 A 
ATOM     87  C   UNL A   1      46.122  28.230  34.672  1.00  0.00     0.012 A 
ATOM     88  C   UNL A   1      44.622  26.548  35.590  1.00  0.00     0.148 A 
ATOM     89  C   UNL A   1      47.223  27.469  35.065  1.00  0.00     0.002 A 
ATOM     90  C   UNL A   1      45.722  25.824  36.027  1.00  0.00     0.091 A 
ATOM     91  F   UNL A   1      43.368  26.121  35.797  1.00  0.00    -0.205 F 
ATOM     92  C   UNL A   1      47.024  26.275  35.754  1.00  0.00     0.022 A 
BRANCH  90  93
ATOM     93  S   UNL A   1      45.563  24.328  37.011  1.00  0.00     0.127 S 
ATOM     94  O   UNL A   1      46.964  23.971  37.237  1.00  0.00    -0.237 OA
ATOM     95  O   UNL A   1      44.857  24.812  38.196  1.00  0.00    -0.237 OA
ATOM     96  O   UNL A   1      44.805  23.389  36.196  1.00  0.00    -0.744 OA
ENDBRANCH  90  93
ENDBRANCH  63  86
ENDBRANCH  37  38
ENDBRANCH  29  32
ENDBRANCH  27  28
ENDBRANCH  26  27
ENDBRANCH   1  26
TORSDOF 19
ENDMDL
MODEL 2
REMARK VINA RESULT:     -10.8      3.668      5.553
REMARK SMILES CC[C@@H]1CCCN1c1cc(C)c(N)c(C(=O)NCCCCCCNC(=O)c2ccc(-c3c4nc(c(-c5cccc(S(=O)(=O)[O-])c5F)c5ccc([nH]5)c(-c5cccc(S(=O)(=O)[O-])c5F)c5nc(c(-c6cccc(S(=O)(=O)[O-])c6F)c6ccc3[nH]6)C=C5)C=C4)cc2)c1
REMARK SMILES IDX 21 1 20 2 19 3 18 4 17 5 15 6 16 7 14 9 8 10 9 11 90 12
REMARK SMILES IDX 10 13 11 14 12 15 7 16 3 17 4 18 5 19 6 20 2 21 1 22 13 23
REMARK SMILES IDX 22 26 23 27 24 28 25 29 26 31 27 32 28 33 89 34 29 35 88 36
REMARK SMILES IDX 30 37 31 38 32 39 82 40 33 41 87 42 81 43 83 44 34 45 86 46
REMARK SMILES IDX 80 47 79 48 35 50 67 51 47 52 66 53 48 54 51 55 65 56 84 57
REMARK SMILES IDX 49 58 50 59 64 61 85 62 52 63 36 64 37 65 45 66 38 67 40 68
REMARK SMILES IDX 46 69 39 70 41 71 42 72 43 73 44 74 68 75 69 76 77 77 70 78
REMARK SMILES IDX 72 79 78 80 71 81 73 82 74 83 75 84 76 85 53 86 54 87 62 88
REMARK SMILES IDX 55 89 57 90 63 91 56 92 58 93 59 94 60 95 61 96
REMARK H PARENT 17 8 13 24 13 25 24 30 83 49 51 60
REMARK Flexibility Score: inf
ROOT
ATOM      1  C   UNL A   1      32.870  26.695  26.109  1.00  0.00     0.002 C 
ENDROOT
BRANCH   1   2
ATOM      2  C   UNL A   1      31.522  26.012  26.376  1.00  0.00     0.002 C 
BRANCH   2   3
ATOM      3  C   UNL A   1      30.995  25.169  25.204  1.00  0.00     0.021 C 
BRANCH   3   4
ATOM      4  C   UNL A   1      31.027  23.668  25.501  1.00  0.00     0.116 C 
BRANCH   4   5
ATOM      5  N   UNL A   1      31.594  23.459  26.816  1.00  0.00    -0.352 N 
ATOM      6  C   UNL A   1      32.543  22.619  27.334  1.00  0.00     0.253 C 
ATOM      7  O   UNL A   1      32.602  22.608  28.569  1.00  0.00    -0.269 OA
ATOM      8  H   UNL A   1      31.209  24.059  27.495  1.00  0.00     0.163 HD
BRANCH   6   9
ATOM      9  C   UNL A   1      33.515  21.798  26.527  1.00  0.00     0.065 A 
ATOM     10  C   UNL A   1      34.005  20.000  24.932  1.00  0.00     0.038 A 
ATOM     11  C   UNL A   1      35.322  20.451  24.879  1.00  0.00     0.031 A 
ATOM     12  C   UNL A   1      33.141  20.642  25.822  1.00  0.00     0.042 A 
ATOM     13  C   UNL A   1      35.783  21.512  25.667  1.00  0.00    -0.025 A 
ATOM     14  C   UNL A   1      37.237  21.888  25.588  1.00  0.00     0.046 C 
ATOM     15  C   UNL A   1      34.876  22.212  26.486  1.00  0.00     0.047 A 
BRANCH  10  16
ATOM     16  N   UNL A   1      33.582  19.018  24.073  1.00  0.00    -0.369 N 
ATOM     17  C   UNL A   1      33.771  17.573  24.231  1.00  0.00     0.082 C 
ATOM     18  C   UNL A   1      33.447  17.079  22.816  1.00  0.00     0.027 C 
ATOM     19  C   UNL A   1      32.257  17.947  22.416  1.00  0.00     0.024 C 
ATOM     20  C   UNL A   1      32.488  19.283  23.131  1.00  0.00     0.117 C 
BRANCH  17  21
ATOM     21  C   UNL A   1      35.121  17.116  24.788  1.00  0.00     0.021 C 
ATOM     22  C   UNL A   1      35.211  15.665  25.236  1.00  0.00     0.006 C 
ENDBRANCH  17  21
ENDBRANCH  10  16
BRANCH  15  23
ATOM     23  N   UNL A   1      35.308  23.389  27.112  1.00  0.00    -0.398 N 
ATOM     24  H   UNL A   1      34.699  23.882  27.708  1.00  0.00     0.156 HD
ATOM     25  H   UNL A   1      36.221  23.724  26.956  1.00  0.00     0.156 HD
ENDBRANCH  15  23
ENDBRANCH   6   9
ENDBRANCH   4   5
ENDBRANCH   3   4
ENDBRANCH   2   3
ENDBRANCH   1   2
BRANCH   1  26
ATOM     26  C   UNL A   1      33.045  28.044  26.809  1.00  0.00     0.021 C 
BRANCH  26  27
ATOM     27  C   UNL A   1      34.037  28.967  26.112  1.00  0.00     0.116 C 
BRANCH  27  28
ATOM     28  N   UNL A   1      33.922  30.331  26.607  1.00  0.00    -0.352 N 
ATOM     29  C   UNL A   1      34.625  30.938  27.617  1.00  0.00     0.251 C 
ATOM     30  H   UNL A   1      33.251  30.893  26.157  1.00  0.00     0.163 HD
ATOM     31  O   UNL A   1      34.237  31.999  28.091  1.00  0.00    -0.269 OA
BRANCH  29  32
ATOM     32  C   UNL A   1      35.853  30.294  28.124  1.00  0.00     0.039 A 
ATOM     33  C   UNL A   1      37.019  30.346  27.359  1.00  0.00     0.014 A 
ATOM     34  C   UNL A   1      35.843  29.640  29.360  1.00  0.00     0.014 A 
ATOM     35  C   UNL A   1      38.192  29.777  27.856  1.00  0.00     0.010 A 
ATOM     36  C   UNL A   1      37.030  29.147  29.887  1.00  0.00     0.010 A 
ATOM     37  C   UNL A   1      38.212  29.194  29.134  1.00  0.00    -0.014 A 
BRANCH  37  38
ATOM     38  C   UNL A   1      39.453  28.609  29.700  1.00  0.00     0.031 A 
ATOM     39  C   UNL A   1      40.087  29.230  30.916  1.00  0.00     0.074 A 
ATOM     40  C   UNL A   1      40.055  27.581  29.070  1.00  0.00     0.049 A 
ATOM     41  N   UNL A   1      41.211  28.922  31.507  1.00  0.00    -0.248 NA
ATOM     42  C   UNL A   1      39.380  30.368  31.528  1.00  0.00     0.031 C 
ATOM     43  C   UNL A   1      39.573  26.941  27.844  1.00  0.00     0.029 A 
ATOM     44  N   UNL A   1      41.220  26.915  29.358  1.00  0.00    -0.354 N 
ATOM     45  C   UNL A   1      41.367  29.849  32.531  1.00  0.00     0.074 A 
ATOM     46  C   UNL A   1      40.241  30.753  32.459  1.00  0.00     0.031 C 
ATOM     47  C   UNL A   1      40.434  25.974  27.486  1.00  0.00     0.029 A 
ATOM     48  C   UNL A   1      41.545  25.951  28.432  1.00  0.00     0.049 A 
ATOM     49  H   UNL A   1      41.770  27.110  30.150  1.00  0.00     0.167 HD
ATOM     50  C   UNL A   1      42.344  29.925  33.465  1.00  0.00     0.034 A 
ATOM     51  C   UNL A   1      42.624  25.148  28.348  1.00  0.00     0.034 A 
ATOM     52  C   UNL A   1      43.439  28.998  33.555  1.00  0.00     0.049 A 
ATOM     53  C   UNL A   1      43.681  25.233  29.417  1.00  0.00     0.074 A 
ATOM     54  C   UNL A   1      44.435  28.936  34.514  1.00  0.00     0.029 A 
ATOM     55  N   UNL A   1      43.691  27.980  32.649  1.00  0.00    -0.354 N 
ATOM     56  N   UNL A   1      43.736  26.021  30.463  1.00  0.00    -0.248 NA
ATOM     57  C   UNL A   1      44.806  24.293  29.314  1.00  0.00     0.031 C 
ATOM     58  C   UNL A   1      45.308  27.900  34.168  1.00  0.00     0.029 A 
ATOM     59  C   UNL A   1      44.832  27.290  33.019  1.00  0.00     0.049 A 
ATOM     60  H   UNL A   1      43.138  27.777  31.860  1.00  0.00     0.167 HD
ATOM     61  C   UNL A   1      44.875  25.645  31.165  1.00  0.00     0.074 A 
ATOM     62  C   UNL A   1      45.473  24.547  30.433  1.00  0.00     0.031 C 
ATOM     63  C   UNL A   1      45.384  26.165  32.309  1.00  0.00     0.034 A 
BRANCH  50  64
ATOM     64  C   UNL A   1      42.251  31.026  34.489  1.00  0.00     0.023 A 
ATOM     65  C   UNL A   1      41.553  30.804  35.694  1.00  0.00     0.012 A 
ATOM     66  C   UNL A   1      42.900  32.259  34.285  1.00  0.00     0.148 A 
ATOM     67  C   UNL A   1      41.469  31.805  36.661  1.00  0.00     0.002 A 
ATOM     68  C   UNL A   1      42.855  33.234  35.274  1.00  0.00     0.091 A 
ATOM     69  F   UNL A   1      43.542  32.459  33.124  1.00  0.00    -0.205 F 
ATOM     70  C   UNL A   1      42.128  33.014  36.457  1.00  0.00     0.022 A 
BRANCH  68  71
ATOM     71  S   UNL A   1      43.740  34.790  35.143  1.00  0.00     0.127 S 
ATOM     72  O   UNL A   1      43.026  35.618  36.116  1.00  0.00    -0.237 OA
ATOM     73  O   UNL A   1      45.093  34.408  35.545  1.00  0.00    -0.237 OA
ATOM     74  O   UNL A   1      43.613  35.211  33.755  1.00  0.00    -0.744 OA
ENDBRANCH  68  71
ENDBRANCH  50  64
BRANCH  51  75
ATOM     75  C   UNL A   1      42.734  24.159  27.240  1.00  0.00     0.023 A 
ATOM     76  C   UNL A   1      43.442  24.502  26.072  1.00  0.00     0.012 A 
ATOM     77  C   UNL A   1      42.160  22.877  27.344  1.00  0.00     0.148 A 
ATOM     78  C   UNL A   1      43.544  23.600  25.011  1.00  0.00     0.002 A 
ATOM     79  C   UNL A   1      42.314  21.964  26.308  1.00  0.00     0.091 A 
ATOM     80  F   UNL A   1      41.485  22.573  28.462  1.00  0.00    -0.205 F 
ATOM     81  C   UNL A   1      42.989  22.329  25.133  1.00  0.00     0.022 A 
BRANCH  79  82
ATOM     82  S   UNL A   1      41.745  20.265  26.430  1.00  0.00     0.127 S 
ATOM     83  O   UNL A   1      42.271  19.865  27.733  1.00  0.00    -0.237 OA
ATOM     84  O   UNL A   1      40.293  20.429  26.374  1.00  0.00    -0.237 OA
ATOM     85  O   UNL A   1      42.315  19.574  25.281  1.00  0.00    -0.744 OA
ENDBRANCH  79  82
ENDBRANCH  51  75
BRANCH  63  86
ATOM     86  C   UNL A   1      46.622  25.524  32.881  1.00  0.00     0.023 A 
ATOM     87  C   UNL A   1      46.513  24.550  33.893  1.00  0.00     0.012 A 
ATOM     88  C   UNL A   1      47.890  25.831  32.350  1.00  0.00     0.148 A 
ATOM     89  C   UNL A   1      47.652  23.917  34.390  1.00  0.00     0.002 A 
ATOM     90  C   UNL A   1      49.013  25.158  32.811  1.00  0.00     0.091 A 
ATOM     91  F   UNL A   1      47.974  26.773  31.398  1.00  0.00    -0.205 F 
ATOM     92  C   UNL A   1      48.898  24.210  33.841  1.00  0.00     0.022 A 
BRANCH  90  93
ATOM     93  S   UNL A   1      50.643  25.394  32.093  1.00  0.00     0.127 S 
ATOM     94  O   UNL A   1      50.369  25.212  30.668  1.00  0.00    -0.237 OA
ATOM     95  O   UNL A   1      50.955  26.768  32.485  1.00  0.00    -0.237 OA
ATOM     96  O   UNL A   1      51.499  24.383  32.697  1.00  0.00    -0.744 OA
ENDBRANCH  90  93
ENDBRANCH  63  86
ENDBRANCH  37  38
ENDBRANCH  29  32
ENDBRANCH  27  28
ENDBRANCH  26  27
ENDBRANCH   1  26
TORSDOF 19
ENDMDL
MODEL 3
REMARK VINA RESULT:     -10.6      2.604      3.610
REMARK SMILES CC[C@@H]1CCCN1c1cc(C)c(N)c(C(=O)NCCCCCCNC(=O)c2ccc(-c3c4nc(c(-c5cccc(S(=O)(=O)[O-])c5F)c5ccc([nH]5)c(-c5cccc(S(=O)(=O)[O-])c5F)c5nc(c(-c6cccc(S(=O)(=O)[O-])c6F)c6ccc3[nH]6)C=C5)C=C4)cc2)c1
REMARK SMILES IDX 21 1 20 2 19 3 18 4 17 5 15 6 16 7 14 9 8 10 9 11 90 12
REMARK SMILES IDX 10 13 11 14 12 15 7 16 3 17 4 18 5 19 6 20 2 21 1 22 13 23
REMARK SMILES IDX 22 26 23 27 24 28 25 29 26 31 27 32 28 33 89 34 29 35 88 36
REMARK SMILES IDX 30 37 31 38 32 39 82 40 33 41 87 42 81 43 83 44 34 45 86 46
REMARK SMILES IDX 80 47 79 48 35 50 67 51 47 52 66 53 48 54 51 55 65 56 84 57
REMARK SMILES IDX 49 58 50 59 64 61 85 62 52 63 36 64 37 65 45 66 38 67 40 68
REMARK SMILES IDX 46 69 39 70 41 71 42 72 43 73 44 74 68 75 69 76 77 77 70 78
REMARK SMILES IDX 72 79 78 80 71 81 73 82 74 83 75 84 76 85 53 86 54 87 62 88
REMARK SMILES IDX 55 89 57 90 63 91 56 92 58 93 59 94 60 95 61 96
REMARK H PARENT 17 8 13 24 13 25 24 30 83 49 51 60
REMARK Flexibility Score: inf
ROOT
ATOM      1  C   UNL A   1      33.751  29.630  27.128  1.00  0.00     0.002 C 
ENDROOT
BRANCH   1   2
ATOM      2  C   UNL A   1      32.925  28.420  26.671  1.00  0.00     0.002 C 
BRANCH   2   3
ATOM      3  C   UNL A   1      33.763  27.219  26.204  1.00  0.00     0.021 C 
BRANCH   3   4
ATOM      4  C   UNL A   1      33.733  27.039  24.685  1.00  0.00     0.116 C 
BRANCH   4   5
ATOM      5  N   UNL A   1      32.356  27.016  24.239  1.00  0.00    -0.352 N 
ATOM      6  C   UNL A   1      31.387  26.053  24.154  1.00  0.00     0.253 C 
ATOM      7  O   UNL A   1      30.382  26.389  23.517  1.00  0.00    -0.269 OA
ATOM      8  H   UNL A   1      32.044  27.896  23.925  1.00  0.00     0.163 HD
BRANCH   6   9
ATOM      9  C   UNL A   1      31.442  24.699  24.812  1.00  0.00     0.065 A 
ATOM     10  C   UNL A   1      32.596  22.589  25.296  1.00  0.00     0.038 A 
ATOM     11  C   UNL A   1      31.603  22.298  26.229  1.00  0.00     0.031 A 
ATOM     12  C   UNL A   1      32.451  23.758  24.546  1.00  0.00     0.042 A 
ATOM     13  C   UNL A   1      30.499  23.136  26.434  1.00  0.00    -0.025 A 
ATOM     14  C   UNL A   1      29.446  22.708  27.418  1.00  0.00     0.046 C 
ATOM     15  C   UNL A   1      30.419  24.358  25.741  1.00  0.00     0.047 A 
BRANCH  10  16
ATOM     16  N   UNL A   1      33.702  21.784  25.199  1.00  0.00    -0.369 N 
ATOM     17  C   UNL A   1      34.964  21.936  25.929  1.00  0.00     0.082 C 
ATOM     18  C   UNL A   1      35.883  21.012  25.119  1.00  0.00     0.027 C 
ATOM     19  C   UNL A   1      34.983  19.819  24.813  1.00  0.00     0.024 C 
ATOM     20  C   UNL A   1      33.573  20.411  24.696  1.00  0.00     0.117 C 
BRANCH  17  21
ATOM     21  C   UNL A   1      35.478  23.365  26.117  1.00  0.00     0.021 C 
ATOM     22  C   UNL A   1      36.872  23.658  25.582  1.00  0.00     0.006 C 
ENDBRANCH  17  21
ENDBRANCH  10  16
BRANCH  15  23
ATOM     23  N   UNL A   1      29.418  25.270  26.102  1.00  0.00    -0.398 N 
ATOM     24  H   UNL A   1      28.551  24.944  26.434  1.00  0.00     0.156 HD
ATOM     25  H   UNL A   1      29.582  26.238  26.024  1.00  0.00     0.156 HD
ENDBRANCH  15  23
ENDBRANCH   6   9
ENDBRANCH   4   5
ENDBRANCH   3   4
ENDBRANCH   2   3
ENDBRANCH   1   2
BRANCH   1  26
ATOM     26  C   UNL A   1      33.323  30.959  26.503  1.00  0.00     0.021 C 
BRANCH  26  27
ATOM     27  C   UNL A   1      32.249  31.690  27.302  1.00  0.00     0.116 C 
BRANCH  27  28
ATOM     28  N   UNL A   1      32.495  33.124  27.325  1.00  0.00    -0.352 N 
ATOM     29  C   UNL A   1      33.458  33.817  28.015  1.00  0.00     0.251 C 
ATOM     30  H   UNL A   1      31.890  33.670  26.772  1.00  0.00     0.163 HD
ATOM     31  O   UNL A   1      33.375  35.032  28.142  1.00  0.00    -0.269 OA
BRANCH  29  32
ATOM     32  C   UNL A   1      34.592  33.076  28.601  1.00  0.00     0.039 A 
ATOM     33  C   UNL A   1      35.850  33.165  28.003  1.00  0.00     0.014 A 
ATOM     34  C   UNL A   1      34.404  32.296  29.746  1.00  0.00     0.014 A 
ATOM     35  C   UNL A   1      36.934  32.503  28.581  1.00  0.00     0.010 A 
ATOM     36  C   UNL A   1      35.499  31.706  30.365  1.00  0.00     0.010 A 
ATOM     37  C   UNL A   1      36.771  31.788  29.780  1.00  0.00    -0.014 A 
BRANCH  37  38
ATOM     38  C   UNL A   1      37.912  31.099  30.433  1.00  0.00     0.031 A 
ATOM     39  C   UNL A   1      38.290  31.453  31.847  1.00  0.00     0.074 A 
ATOM     40  C   UNL A   1      38.659  30.228  29.728  1.00  0.00     0.049 A 
ATOM     41  N   UNL A   1      39.300  31.030  32.560  1.00  0.00    -0.248 NA
ATOM     42  C   UNL A   1      37.438  32.435  32.539  1.00  0.00     0.031 C 
ATOM     43  C   UNL A   1      38.435  29.858  28.329  1.00  0.00     0.029 A 
ATOM     44  N   UNL A   1      39.780  29.519  30.083  1.00  0.00    -0.354 N 
ATOM     45  C   UNL A   1      39.230  31.721  33.763  1.00  0.00     0.074 A 
ATOM     46  C   UNL A   1      38.099  32.618  33.672  1.00  0.00     0.031 C 
ATOM     47  C   UNL A   1      39.385  28.990  27.945  1.00  0.00     0.029 A 
ATOM     48  C   UNL A   1      40.306  28.771  29.056  1.00  0.00     0.049 A 
ATOM     49  H   UNL A   1      40.169  29.544  30.986  1.00  0.00     0.167 HD
ATOM     50  C   UNL A   1      40.018  31.601  34.858  1.00  0.00     0.034 A 
ATOM     51  C   UNL A   1      41.415  28.007  29.010  1.00  0.00     0.034 A 
ATOM     52  C   UNL A   1      41.116  30.679  34.957  1.00  0.00     0.049 A 
ATOM     53  C   UNL A   1      42.257  27.868  30.250  1.00  0.00     0.074 A 
ATOM     54  C   UNL A   1      41.923  30.419  36.050  1.00  0.00     0.029 A 
ATOM     55  N   UNL A   1      41.569  29.874  33.923  1.00  0.00    -0.354 N 
ATOM     56  N   UNL A   1      42.089  28.418  31.427  1.00  0.00    -0.248 NA
ATOM     57  C   UNL A   1      43.419  26.972  30.166  1.00  0.00     0.031 C 
ATOM     58  C   UNL A   1      42.886  29.481  35.665  1.00  0.00     0.029 A 
ATOM     59  C   UNL A   1      42.652  29.125  34.347  1.00  0.00     0.049 A 
ATOM     60  H   UNL A   1      41.177  29.841  33.020  1.00  0.00     0.167 HD
ATOM     61  C   UNL A   1      43.097  27.906  32.236  1.00  0.00     0.074 A 
ATOM     62  C   UNL A   1      43.862  26.987  31.417  1.00  0.00     0.031 C 
ATOM     63  C   UNL A   1      43.369  28.175  33.536  1.00  0.00     0.034 A 
BRANCH  50  64
ATOM     64  C   UNL A   1      39.696  32.462  36.051  1.00  0.00     0.023 A 
ATOM     65  C   UNL A   1      40.313  33.723  36.192  1.00  0.00     0.012 A 
ATOM     66  C   UNL A   1      38.745  32.051  37.004  1.00  0.00     0.148 A 
ATOM     67  C   UNL A   1      40.017  34.542  37.281  1.00  0.00     0.002 A 
ATOM     68  C   UNL A   1      38.417  32.893  38.060  1.00  0.00     0.091 A 
ATOM     69  F   UNL A   1      38.183  30.840  36.865  1.00  0.00    -0.205 F 
ATOM     70  C   UNL A   1      39.063  34.132  38.208  1.00  0.00     0.022 A 
BRANCH  68  71
ATOM     71  S   UNL A   1      37.141  32.495  39.258  1.00  0.00     0.127 S 
ATOM     72  O   UNL A   1      37.415  33.469  40.315  1.00  0.00    -0.237 OA
ATOM     73  O   UNL A   1      35.918  32.748  38.499  1.00  0.00    -0.237 OA
ATOM     74  O   UNL A   1      37.353  31.102  39.626  1.00  0.00    -0.744 OA
ENDBRANCH  68  71
ENDBRANCH  50  64
BRANCH  51  75
ATOM     75  C   UNL A   1      41.764  27.273  27.761  1.00  0.00     0.023 A 
ATOM     76  C   UNL A   1      42.267  27.985  26.655  1.00  0.00     0.012 A 
ATOM     77  C   UNL A   1      41.620  25.875  27.670  1.00  0.00     0.148 A 
ATOM     78  C   UNL A   1      42.584  27.324  25.467  1.00  0.00     0.002 A 
ATOM     79  C   UNL A   1      41.991  25.215  26.505  1.00  0.00     0.091 A 
ATOM     80  F   UNL A   1      41.134  25.216  28.732  1.00  0.00    -0.205 F 
ATOM     81  C   UNL A   1      42.455  25.939  25.396  1.00  0.00     0.022 A 
BRANCH  79  82
ATOM     82  S   UNL A   1      41.982  23.424  26.367  1.00  0.00     0.127 S 
ATOM     83  O   UNL A   1      42.770  23.030  27.532  1.00  0.00    -0.237 OA
ATOM     84  O   UNL A   1      40.553  23.123  26.456  1.00  0.00    -0.237 OA
ATOM     85  O   UNL A   1      42.578  23.125  25.072  1.00  0.00    -0.744 OA
ENDBRANCH  79  82
ENDBRANCH  51  75
BRANCH  63  86
ATOM     86  C   UNL A   1      44.508  27.431  34.184  1.00  0.00     0.023 A 
ATOM     87  C   UNL A   1      45.824  27.926  34.087  1.00  0.00     0.012 A 
ATOM     88  C   UNL A   1      44.256  26.283  34.960  1.00  0.00     0.148 A 
ATOM     89  C   UNL A   1      46.875  27.270  34.727  1.00  0.00     0.002 A 
ATOM     90  C   UNL A   1      45.298  25.667  35.638  1.00  0.00     0.091 A 
ATOM     91  F   UNL A   1      42.999  25.819  35.025  1.00  0.00    -0.205 F 
ATOM     92  C   UNL A   1      46.611  26.149  35.512  1.00  0.00     0.022 A 
BRANCH  90  93
ATOM     93  S   UNL A   1      45.038  24.283  36.754  1.00  0.00     0.127 S 
ATOM     94  O   UNL A   1      44.524  23.260  35.843  1.00  0.00    -0.237 OA
ATOM     95  O   UNL A   1      46.389  24.032  37.255  1.00  0.00    -0.237 OA
ATOM     96  O   UNL A   1      44.095  24.749  37.761  1.00  0.00    -0.744 OA
ENDBRANCH  90  93
ENDBRANCH  63  86
ENDBRANCH  37  38
ENDBRANCH  29  32
ENDBRANCH  27  28
ENDBRANCH  26  27
ENDBRANCH   1  26
TORSDOF 19
ENDMDL
