MODEL 1
REMARK VINA RESULT:     -11.8      0.000      0.000
REMARK SMILES O=C(CCC(=O)Nc1ccc2nc(-c3ccccc3)oc2c1)NCCCCCCNC(=O)c1ccc(-c2c3nc(c(-c4cccc(S(=O)(=O)[O-])c4F)c4ccc([nH]4)c(-c4cccc(S(=O)(=O)[O-])c4F)c4nc(c(-c5cccc(S(=O)(=O)[O-])c5F)c5ccc2[nH]5)C=C4)C=C3)cc1
REMARK SMILES IDX 26 1 25 2 24 3 23 4 1 5 2 6 3 8 4 9 5 10 6 11 7 12 8 14 9 15
REMARK SMILES IDX 22 16 10 17 21 18 11 19 20 20 12 21 13 22 14 23 15 24 19 25
REMARK SMILES IDX 16 26 18 27 17 28 27 29 28 30 29 31 30 32 31 33 32 35 33 36
REMARK SMILES IDX 34 37 95 38 35 39 94 40 36 41 37 42 38 43 88 44 39 45 93 46
REMARK SMILES IDX 87 47 89 48 40 49 92 50 86 51 85 52 41 54 73 55 53 56 72 57
REMARK SMILES IDX 54 58 57 59 71 60 90 61 55 62 56 63 70 65 91 66 58 67 42 68
REMARK SMILES IDX 43 69 51 70 44 71 46 72 52 73 45 74 47 75 48 76 49 77 50 78
REMARK SMILES IDX 74 79 75 80 83 81 76 82 78 83 84 84 77 85 79 86 80 87 81 88
REMARK SMILES IDX 82 89 59 90 60 91 68 92 61 93 63 94 69 95 62 96 64 97 65 98
REMARK SMILES IDX 66 99 67 100
REMARK H PARENT 23 7 7 13 30 34 89 53 57 64
REMARK Flexibility Score: inf
ROOT
ATOM      1  C   UNL A   1      31.985  26.391  26.506  1.00  0.00     0.002 C 
ENDROOT
BRANCH   1   2
ATOM      2  C   UNL A   1      30.596  25.748  26.427  1.00  0.00     0.021 C 
BRANCH   2   3
ATOM      3  C   UNL A   1      30.586  24.225  26.486  1.00  0.00     0.116 C 
BRANCH   3   4
ATOM      4  N   UNL A   1      31.907  23.637  26.345  1.00  0.00    -0.356 N 
ATOM      5  O   UNL A   1      31.224  21.586  25.557  1.00  0.00    -0.275 OA
ATOM      6  C   UNL A   1      32.113  22.398  25.787  1.00  0.00     0.220 C 
ATOM      7  H   UNL A   1      32.687  24.147  26.662  1.00  0.00     0.163 HD
BRANCH   6   8
ATOM      8  C   UNL A   1      33.554  22.118  25.406  1.00  0.00     0.110 C 
BRANCH   8   9
ATOM      9  C   UNL A   1      33.902  22.389  23.941  1.00  0.00     0.110 C 
BRANCH   9  10
ATOM     10  C   UNL A   1      34.766  23.609  23.719  1.00  0.00     0.224 C 
ATOM     11  O   UNL A   1      35.951  23.566  24.074  1.00  0.00    -0.275 OA
ATOM     12  N   UNL A   1      34.324  24.779  23.177  1.00  0.00    -0.326 N 
ATOM     13  H   UNL A   1      35.058  25.362  22.876  1.00  0.00     0.169 HD
BRANCH  12  14
ATOM     14  C   UNL A   1      33.050  25.344  22.951  1.00  0.00     0.045 A 
ATOM     15  C   UNL A   1      31.869  24.601  22.843  1.00  0.00     0.028 A 
ATOM     16  C   UNL A   1      32.979  26.755  22.978  1.00  0.00     0.075 A 
ATOM     17  C   UNL A   1      30.602  25.188  22.933  1.00  0.00     0.034 A 
ATOM     18  C   UNL A   1      31.699  27.311  23.011  1.00  0.00     0.157 A 
ATOM     19  C   UNL A   1      30.533  26.568  23.043  1.00  0.00     0.110 A 
ATOM     20  O   UNL A   1      31.339  28.633  23.014  1.00  0.00    -0.436 OA
ATOM     21  N   UNL A   1      29.450  27.377  23.157  1.00  0.00    -0.209 NA
ATOM     22  C   UNL A   1      29.965  28.587  23.077  1.00  0.00     0.227 A 
BRANCH  22  23
ATOM     23  C   UNL A   1      29.221  29.808  22.847  1.00  0.00     0.037 A 
ATOM     24  C   UNL A   1      28.541  29.994  21.637  1.00  0.00     0.014 A 
ATOM     25  C   UNL A   1      29.374  30.886  23.727  1.00  0.00     0.014 A 
ATOM     26  C   UNL A   1      28.042  31.252  21.300  1.00  0.00     0.001 A 
ATOM     27  C   UNL A   1      28.890  32.147  23.380  1.00  0.00     0.001 A 
ATOM     28  C   UNL A   1      28.233  32.330  22.164  1.00  0.00     0.000 A 
ENDBRANCH  22  23
ENDBRANCH  12  14
ENDBRANCH   9  10
ENDBRANCH   8   9
ENDBRANCH   6   8
ENDBRANCH   3   4
ENDBRANCH   2   3
ENDBRANCH   1   2
BRANCH   1  29
ATOM     29  C   UNL A   1      32.061  27.737  27.234  1.00  0.00     0.002 C 
BRANCH  29  30
ATOM     30  C   UNL A   1      31.575  28.953  26.443  1.00  0.00     0.021 C 
BRANCH  30  31
ATOM     31  C   UNL A   1      32.664  29.903  25.948  1.00  0.00     0.116 C 
BRANCH  31  32
ATOM     32  N   UNL A   1      32.486  31.271  26.410  1.00  0.00    -0.352 N 
ATOM     33  C   UNL A   1      33.259  32.011  27.271  1.00  0.00     0.251 C 
ATOM     34  H   UNL A   1      31.695  31.735  26.054  1.00  0.00     0.163 HD
ATOM     35  O   UNL A   1      32.884  33.129  27.622  1.00  0.00    -0.269 OA
BRANCH  33  36
ATOM     36  C   UNL A   1      34.520  31.455  27.807  1.00  0.00     0.039 A 
ATOM     37  C   UNL A   1      35.601  32.316  28.008  1.00  0.00     0.014 A 
ATOM     38  C   UNL A   1      34.637  30.099  28.123  1.00  0.00     0.014 A 
ATOM     39  C   UNL A   1      36.772  31.835  28.598  1.00  0.00     0.010 A 
ATOM     40  C   UNL A   1      35.776  29.636  28.778  1.00  0.00     0.010 A 
ATOM     41  C   UNL A   1      36.852  30.500  29.030  1.00  0.00    -0.014 A 
BRANCH  41  42
ATOM     42  C   UNL A   1      38.032  30.012  29.792  1.00  0.00     0.031 A 
ATOM     43  C   UNL A   1      38.308  30.506  31.183  1.00  0.00     0.074 A 
ATOM     44  C   UNL A   1      38.910  29.189  29.186  1.00  0.00     0.049 A 
ATOM     45  N   UNL A   1      39.314  30.227  31.972  1.00  0.00    -0.248 NA
ATOM     46  C   UNL A   1      37.345  31.460  31.755  1.00  0.00     0.031 C 
ATOM     47  C   UNL A   1      38.803  28.709  27.806  1.00  0.00     0.029 A 
ATOM     48  N   UNL A   1      40.083  28.636  29.639  1.00  0.00    -0.354 N 
ATOM     49  C   UNL A   1      39.121  30.987  33.120  1.00  0.00     0.074 A 
ATOM     50  C   UNL A   1      37.922  31.770  32.906  1.00  0.00     0.031 C 
ATOM     51  C   UNL A   1      39.865  27.939  27.524  1.00  0.00     0.029 A 
ATOM     52  C   UNL A   1      40.746  27.898  28.687  1.00  0.00     0.049 A 
ATOM     53  H   UNL A   1      40.417  28.758  30.557  1.00  0.00     0.167 HD
ATOM     54  C   UNL A   1      39.856  31.011  34.258  1.00  0.00     0.034 A 
ATOM     55  C   UNL A   1      41.939  27.274  28.733  1.00  0.00     0.034 A 
ATOM     56  C   UNL A   1      41.039  30.219  34.471  1.00  0.00     0.049 A 
ATOM     57  C   UNL A   1      42.730  27.298  30.010  1.00  0.00     0.074 A 
ATOM     58  C   UNL A   1      41.805  30.107  35.617  1.00  0.00     0.029 A 
ATOM     59  N   UNL A   1      41.643  29.421  33.509  1.00  0.00    -0.354 N 
ATOM     60  N   UNL A   1      42.444  27.887  31.145  1.00  0.00    -0.248 NA
ATOM     61  C   UNL A   1      43.991  26.543  30.026  1.00  0.00     0.031 C 
ATOM     62  C   UNL A   1      42.893  29.273  35.338  1.00  0.00     0.029 A 
ATOM     63  C   UNL A   1      42.785  28.832  34.029  1.00  0.00     0.049 A 
ATOM     64  H   UNL A   1      41.309  29.293  32.593  1.00  0.00     0.167 HD
ATOM     65  C   UNL A   1      43.476  27.559  32.017  1.00  0.00     0.074 A 
ATOM     66  C   UNL A   1      44.379  26.694  31.285  1.00  0.00     0.031 C 
ATOM     67  C   UNL A   1      43.664  27.951  33.302  1.00  0.00     0.034 A 
BRANCH  54  68
ATOM     68  C   UNL A   1      39.372  31.900  35.376  1.00  0.00     0.023 A 
ATOM     69  C   UNL A   1      38.433  31.405  36.305  1.00  0.00     0.012 A 
ATOM     70  C   UNL A   1      39.864  33.212  35.530  1.00  0.00     0.148 A 
ATOM     71  C   UNL A   1      37.952  32.213  37.334  1.00  0.00     0.002 A 
ATOM     72  C   UNL A   1      39.416  33.995  36.588  1.00  0.00     0.091 A 
ATOM     73  F   UNL A   1      40.742  33.676  34.629  1.00  0.00    -0.205 F 
ATOM     74  C   UNL A   1      38.449  33.504  37.480  1.00  0.00     0.022 A 
BRANCH  72  75
ATOM     75  S   UNL A   1      40.058  35.642  36.910  1.00  0.00     0.127 S 
ATOM     76  O   UNL A   1      39.370  35.988  38.153  1.00  0.00    -0.237 OA
ATOM     77  O   UNL A   1      41.492  35.391  37.058  1.00  0.00    -0.237 OA
ATOM     78  O   UNL A   1      39.701  36.445  35.750  1.00  0.00    -0.744 OA
ENDBRANCH  72  75
ENDBRANCH  54  68
BRANCH  55  79
ATOM     79  C   UNL A   1      42.430  26.544  27.530  1.00  0.00     0.023 A 
ATOM     80  C   UNL A   1      43.223  27.216  26.581  1.00  0.00     0.012 A 
ATOM     81  C   UNL A   1      42.161  25.172  27.357  1.00  0.00     0.148 A 
ATOM     82  C   UNL A   1      43.725  26.538  25.468  1.00  0.00     0.002 A 
ATOM     83  C   UNL A   1      42.713  24.491  26.279  1.00  0.00     0.091 A 
ATOM     84  F   UNL A   1      41.397  24.557  28.270  1.00  0.00    -0.205 F 
ATOM     85  C   UNL A   1      43.481  25.175  25.324  1.00  0.00     0.022 A 
BRANCH  83  86
ATOM     86  S   UNL A   1      42.571  22.710  26.089  1.00  0.00     0.127 S 
ATOM     87  O   UNL A   1      43.152  22.228  27.339  1.00  0.00    -0.237 OA
ATOM     88  O   UNL A   1      41.122  22.537  25.974  1.00  0.00    -0.237 OA
ATOM     89  O   UNL A   1      43.315  22.380  24.881  1.00  0.00    -0.744 OA
ENDBRANCH  83  86
ENDBRANCH  55  79
BRANCH  67  90
ATOM     90  C   UNL A   1      44.891  27.438  34.014  1.00  0.00     0.023 A 
ATOM     91  C   UNL A   1      46.077  28.198  34.003  1.00  0.00     0.012 A 
ATOM     92  C   UNL A   1      44.848  26.236  34.748  1.00  0.00     0.148 A 
ATOM     93  C   UNL A   1      47.211  27.754  34.685  1.00  0.00     0.002 A 
ATOM     94  C   UNL A   1      45.965  25.826  35.466  1.00  0.00     0.091 A 
ATOM     95  F   UNL A   1      43.715  25.517  34.733  1.00  0.00    -0.205 F 
ATOM     96  C   UNL A   1      47.151  26.576  35.425  1.00  0.00     0.022 A 
BRANCH  94  97
ATOM     97  S   UNL A   1      45.956  24.373  36.524  1.00  0.00     0.127 S 
ATOM     98  O   UNL A   1      47.386  24.142  36.724  1.00  0.00    -0.237 OA
ATOM     99  O   UNL A   1      45.244  24.857  37.706  1.00  0.00    -0.237 OA
ATOM    100  O   UNL A   1      45.257  23.335  35.778  1.00  0.00    -0.744 OA
ENDBRANCH  94  97
ENDBRANCH  67  90
ENDBRANCH  41  42
ENDBRANCH  33  36
ENDBRANCH  31  32
ENDBRANCH  30  31
ENDBRANCH  29  30
ENDBRANCH   1  29
TORSDOF 20
ENDMDL
MODEL 2
REMARK VINA RESULT:     -11.7      1.922      2.665
REMARK SMILES O=C(CCC(=O)Nc1ccc2nc(-c3ccccc3)oc2c1)NCCCCCCNC(=O)c1ccc(-c2c3nc(c(-c4cccc(S(=O)(=O)[O-])c4F)c4ccc([nH]4)c(-c4cccc(S(=O)(=O)[O-])c4F)c4nc(c(-c5cccc(S(=O)(=O)[O-])c5F)c5ccc2[nH]5)C=C4)C=C3)cc1
REMARK SMILES IDX 26 1 25 2 24 3 23 4 1 5 2 6 3 8 4 9 5 10 6 11 7 12 8 14 9 15
REMARK SMILES IDX 22 16 10 17 21 18 11 19 20 20 12 21 13 22 14 23 15 24 19 25
REMARK SMILES IDX 16 26 18 27 17 28 27 29 28 30 29 31 30 32 31 33 32 35 33 36
REMARK SMILES IDX 34 37 95 38 35 39 94 40 36 41 37 42 38 43 88 44 39 45 93 46
REMARK SMILES IDX 87 47 89 48 40 49 92 50 86 51 85 52 41 54 73 55 53 56 72 57
REMARK SMILES IDX 54 58 57 59 71 60 90 61 55 62 56 63 70 65 91 66 58 67 42 68
REMARK SMILES IDX 43 69 51 70 44 71 46 72 52 73 45 74 47 75 48 76 49 77 50 78
REMARK SMILES IDX 74 79 75 80 83 81 76 82 78 83 84 84 77 85 79 86 80 87 81 88
REMARK SMILES IDX 82 89 59 90 60 91 68 92 61 93 63 94 69 95 62 96 64 97 65 98
REMARK SMILES IDX 66 99 67 100
REMARK H PARENT 23 7 7 13 30 34 89 53 57 64
REMARK Flexibility Score: inf
ROOT
ATOM      1  C   UNL A   1      31.579  26.121  26.890  1.00  0.00     0.002 C 
ENDROOT
BRANCH   1   2
ATOM      2  C   UNL A   1      30.452  25.276  26.285  1.00  0.00     0.021 C 
BRANCH   2   3
ATOM      3  C   UNL A   1      30.759  23.789  26.155  1.00  0.00     0.116 C 
BRANCH   3   4
ATOM      4  N   UNL A   1      32.021  23.408  26.767  1.00  0.00    -0.356 N 
ATOM      5  O   UNL A   1      32.352  21.478  25.558  1.00  0.00    -0.275 OA
ATOM      6  C   UNL A   1      32.762  22.335  26.334  1.00  0.00     0.220 C 
ATOM      7  H   UNL A   1      32.358  23.941  27.522  1.00  0.00     0.163 HD
BRANCH   6   8
ATOM      8  C   UNL A   1      34.188  22.315  26.848  1.00  0.00     0.110 C 
BRANCH   8   9
ATOM      9  C   UNL A   1      35.182  21.548  25.974  1.00  0.00     0.110 C 
BRANCH   9  10
ATOM     10  C   UNL A   1      36.237  22.412  25.321  1.00  0.00     0.224 C 
ATOM     11  O   UNL A   1      37.377  22.415  25.803  1.00  0.00    -0.275 OA
ATOM     12  N   UNL A   1      36.016  23.220  24.246  1.00  0.00    -0.326 N 
ATOM     13  H   UNL A   1      36.848  23.504  23.805  1.00  0.00     0.169 HD
BRANCH  12  14
ATOM     14  C   UNL A   1      34.861  23.743  23.624  1.00  0.00     0.045 A 
ATOM     15  C   UNL A   1      34.042  23.017  22.752  1.00  0.00     0.028 A 
ATOM     16  C   UNL A   1      34.460  25.034  24.035  1.00  0.00     0.075 A 
ATOM     17  C   UNL A   1      32.756  23.442  22.402  1.00  0.00     0.034 A 
ATOM     18  C   UNL A   1      33.194  25.450  23.623  1.00  0.00     0.157 A 
ATOM     19  C   UNL A   1      32.328  24.674  22.874  1.00  0.00     0.110 A 
ATOM     20  O   UNL A   1      32.570  26.650  23.850  1.00  0.00    -0.436 OA
ATOM     21  N   UNL A   1      31.143  25.308  22.697  1.00  0.00    -0.209 NA
ATOM     22  C   UNL A   1      31.348  26.491  23.238  1.00  0.00     0.227 A 
BRANCH  22  23
ATOM     23  C   UNL A   1      30.508  27.658  23.060  1.00  0.00     0.037 A 
ATOM     24  C   UNL A   1      29.135  27.577  23.328  1.00  0.00     0.014 A 
ATOM     25  C   UNL A   1      31.019  28.783  22.402  1.00  0.00     0.014 A 
ATOM     26  C   UNL A   1      28.281  28.601  22.920  1.00  0.00     0.001 A 
ATOM     27  C   UNL A   1      30.160  29.797  21.980  1.00  0.00     0.001 A 
ATOM     28  C   UNL A   1      28.791  29.701  22.231  1.00  0.00     0.000 A 
ENDBRANCH  22  23
ENDBRANCH  12  14
ENDBRANCH   9  10
ENDBRANCH   8   9
ENDBRANCH   6   8
ENDBRANCH   3   4
ENDBRANCH   2   3
ENDBRANCH   1   2
BRANCH   1  29
ATOM     29  C   UNL A   1      31.419  27.640  26.768  1.00  0.00     0.002 C 
BRANCH  29  30
ATOM     30  C   UNL A   1      32.475  28.483  27.486  1.00  0.00     0.021 C 
BRANCH  30  31
ATOM     31  C   UNL A   1      33.437  29.254  26.584  1.00  0.00     0.116 C 
BRANCH  31  32
ATOM     32  N   UNL A   1      33.586  30.650  26.965  1.00  0.00    -0.352 N 
ATOM     33  C   UNL A   1      34.573  31.255  27.705  1.00  0.00     0.251 C 
ATOM     34  H   UNL A   1      32.874  31.251  26.646  1.00  0.00     0.163 HD
ATOM     35  O   UNL A   1      34.469  32.442  28.009  1.00  0.00    -0.269 OA
BRANCH  33  36
ATOM     36  C   UNL A   1      35.741  30.475  28.168  1.00  0.00     0.039 A 
ATOM     37  C   UNL A   1      36.918  30.520  27.417  1.00  0.00     0.014 A 
ATOM     38  C   UNL A   1      35.686  29.716  29.340  1.00  0.00     0.014 A 
ATOM     39  C   UNL A   1      38.062  29.867  27.881  1.00  0.00     0.010 A 
ATOM     40  C   UNL A   1      36.847  29.127  29.838  1.00  0.00     0.010 A 
ATOM     41  C   UNL A   1      38.048  29.203  29.119  1.00  0.00    -0.014 A 
BRANCH  41  42
ATOM     42  C   UNL A   1      39.294  28.632  29.695  1.00  0.00     0.031 A 
ATOM     43  C   UNL A   1      39.949  29.263  30.890  1.00  0.00     0.074 A 
ATOM     44  C   UNL A   1      39.888  27.593  29.075  1.00  0.00     0.049 A 
ATOM     45  N   UNL A   1      41.063  28.929  31.492  1.00  0.00    -0.248 NA
ATOM     46  C   UNL A   1      39.284  30.439  31.471  1.00  0.00     0.031 C 
ATOM     47  C   UNL A   1      39.401  26.949  27.853  1.00  0.00     0.029 A 
ATOM     48  N   UNL A   1      41.047  26.917  29.367  1.00  0.00    -0.354 N 
ATOM     49  C   UNL A   1      41.245  29.865  32.503  1.00  0.00     0.074 A 
ATOM     50  C   UNL A   1      40.148  30.805  32.406  1.00  0.00     0.031 C 
ATOM     51  C   UNL A   1      40.253  25.976  27.499  1.00  0.00     0.029 A 
ATOM     52  C   UNL A   1      41.366  25.949  28.443  1.00  0.00     0.049 A 
ATOM     53  H   UNL A   1      41.597  27.107  30.161  1.00  0.00     0.167 HD
ATOM     54  C   UNL A   1      42.220  29.923  33.442  1.00  0.00     0.034 A 
ATOM     55  C   UNL A   1      42.440  25.142  28.351  1.00  0.00     0.034 A 
ATOM     56  C   UNL A   1      43.301  28.978  33.543  1.00  0.00     0.049 A 
ATOM     57  C   UNL A   1      43.501  25.209  29.413  1.00  0.00     0.074 A 
ATOM     58  C   UNL A   1      44.289  28.899  34.508  1.00  0.00     0.029 A 
ATOM     59  N   UNL A   1      43.552  27.961  32.633  1.00  0.00    -0.354 N 
ATOM     60  N   UNL A   1      43.567  25.994  30.462  1.00  0.00    -0.248 NA
ATOM     61  C   UNL A   1      44.616  24.259  29.301  1.00  0.00     0.031 C 
ATOM     62  C   UNL A   1      45.159  27.859  34.162  1.00  0.00     0.029 A 
ATOM     63  C   UNL A   1      44.691  27.263  33.001  1.00  0.00     0.049 A 
ATOM     64  H   UNL A   1      43.000  27.764  31.842  1.00  0.00     0.167 HD
ATOM     65  C   UNL A   1      44.719  25.619  31.146  1.00  0.00     0.074 A 
ATOM     66  C   UNL A   1      45.302  24.517  30.407  1.00  0.00     0.031 C 
ATOM     67  C   UNL A   1      45.250  26.150  32.275  1.00  0.00     0.034 A 
BRANCH  54  68
ATOM     68  C   UNL A   1      42.133  31.031  34.462  1.00  0.00     0.023 A 
ATOM     69  C   UNL A   1      41.465  30.805  35.684  1.00  0.00     0.012 A 
ATOM     70  C   UNL A   1      42.735  32.284  34.230  1.00  0.00     0.148 A 
ATOM     71  C   UNL A   1      41.350  31.818  36.633  1.00  0.00     0.002 A 
ATOM     72  C   UNL A   1      42.660  33.275  35.204  1.00  0.00     0.091 A 
ATOM     73  F   UNL A   1      43.351  32.492  33.058  1.00  0.00    -0.205 F 
ATOM     74  C   UNL A   1      41.954  33.049  36.397  1.00  0.00     0.022 A 
BRANCH  72  75
ATOM     75  S   UNL A   1      43.475  34.866  35.029  1.00  0.00     0.127 S 
ATOM     76  O   UNL A   1      44.862  34.463  34.799  1.00  0.00    -0.237 OA
ATOM     77  O   UNL A   1      42.803  35.428  33.856  1.00  0.00    -0.237 OA
ATOM     78  O   UNL A   1      43.226  35.583  36.270  1.00  0.00    -0.744 OA
ENDBRANCH  72  75
ENDBRANCH  54  68
BRANCH  55  79
ATOM     79  C   UNL A   1      42.535  24.177  27.221  1.00  0.00     0.023 A 
ATOM     80  C   UNL A   1      43.245  24.530  26.058  1.00  0.00     0.012 A 
ATOM     81  C   UNL A   1      41.975  22.888  27.320  1.00  0.00     0.148 A 
ATOM     82  C   UNL A   1      43.379  23.624  25.004  1.00  0.00     0.002 A 
ATOM     83  C   UNL A   1      42.162  21.971  26.293  1.00  0.00     0.091 A 
ATOM     84  F   UNL A   1      41.297  22.577  28.434  1.00  0.00    -0.205 F 
ATOM     85  C   UNL A   1      42.849  22.341  25.127  1.00  0.00     0.022 A 
BRANCH  83  86
ATOM     86  S   UNL A   1      41.640  20.257  26.423  1.00  0.00     0.127 S 
ATOM     87  O   UNL A   1      40.194  20.371  26.245  1.00  0.00    -0.237 OA
ATOM     88  O   UNL A   1      42.353  19.641  25.304  1.00  0.00    -0.237 OA
ATOM     89  O   UNL A   1      42.078  19.809  27.738  1.00  0.00    -0.744 OA
ENDBRANCH  83  86
ENDBRANCH  55  79
BRANCH  67  90
ATOM     90  C   UNL A   1      46.527  25.541  32.797  1.00  0.00     0.023 A 
ATOM     91  C   UNL A   1      47.771  26.067  32.398  1.00  0.00     0.012 A 
ATOM     92  C   UNL A   1      46.492  24.489  33.735  1.00  0.00     0.148 A 
ATOM     93  C   UNL A   1      48.961  25.536  32.898  1.00  0.00     0.002 A 
ATOM     94  C   UNL A   1      47.678  23.999  34.267  1.00  0.00     0.091 A 
ATOM     95  F   UNL A   1      45.298  23.989  34.091  1.00  0.00    -0.205 F 
ATOM     96  C   UNL A   1      48.913  24.512  33.840  1.00  0.00     0.022 A 
BRANCH  94  97
ATOM     97  S   UNL A   1      47.717  22.747  35.555  1.00  0.00     0.127 S 
ATOM     98  O   UNL A   1      46.783  23.299  36.536  1.00  0.00    -0.237 OA
ATOM     99  O   UNL A   1      47.230  21.563  34.848  1.00  0.00    -0.237 OA
ATOM    100  O   UNL A   1      49.103  22.662  35.996  1.00  0.00    -0.744 OA
ENDBRANCH  94  97
ENDBRANCH  67  90
ENDBRANCH  41  42
ENDBRANCH  33  36
ENDBRANCH  31  32
ENDBRANCH  30  31
ENDBRANCH  29  30
ENDBRANCH   1  29
TORSDOF 20
ENDMDL
MODEL 3
REMARK VINA RESULT:     -11.7      1.907      7.591
REMARK SMILES O=C(CCC(=O)Nc1ccc2nc(-c3ccccc3)oc2c1)NCCCCCCNC(=O)c1ccc(-c2c3nc(c(-c4cccc(S(=O)(=O)[O-])c4F)c4ccc([nH]4)c(-c4cccc(S(=O)(=O)[O-])c4F)c4nc(c(-c5cccc(S(=O)(=O)[O-])c5F)c5ccc2[nH]5)C=C4)C=C3)cc1
REMARK SMILES IDX 26 1 25 2 24 3 23 4 1 5 2 6 3 8 4 9 5 10 6 11 7 12 8 14 9 15
REMARK SMILES IDX 22 16 10 17 21 18 11 19 20 20 12 21 13 22 14 23 15 24 19 25
REMARK SMILES IDX 16 26 18 27 17 28 27 29 28 30 29 31 30 32 31 33 32 35 33 36
REMARK SMILES IDX 34 37 95 38 35 39 94 40 36 41 37 42 38 43 88 44 39 45 93 46
REMARK SMILES IDX 87 47 89 48 40 49 92 50 86 51 85 52 41 54 73 55 53 56 72 57
REMARK SMILES IDX 54 58 57 59 71 60 90 61 55 62 56 63 70 65 91 66 58 67 42 68
REMARK SMILES IDX 43 69 51 70 44 71 46 72 52 73 45 74 47 75 48 76 49 77 50 78
REMARK SMILES IDX 74 79 75 80 83 81 76 82 78 83 84 84 77 85 79 86 80 87 81 88
REMARK SMILES IDX 82 89 59 90 60 91 68 92 61 93 63 94 69 95 62 96 64 97 65 98
REMARK SMILES IDX 66 99 67 100
REMARK H PARENT 23 7 7 13 30 34 89 53 57 64
REMARK Flexibility Score: inf
ROOT
ATOM      1  C   UNL A   1      34.173  28.697  26.364  1.00  0.00     0.002 C 
ENDROOT
BRANCH   1   2
ATOM      2  C   UNL A   1      32.732  28.215  26.168  1.00  0.00     0.021 C 
BRANCH   2   3
ATOM      3  C   UNL A   1      32.543  26.703  26.223  1.00  0.00     0.116 C 
BRANCH   3   4
ATOM      4  N   UNL A   1      33.783  25.965  26.054  1.00  0.00    -0.356 N 
ATOM      5  O   UNL A   1      32.909  23.861  26.384  1.00  0.00    -0.275 OA
ATOM      6  C   UNL A   1      33.834  24.591  26.043  1.00  0.00     0.220 C 
ATOM      7  H   UNL A   1      34.621  26.469  25.942  1.00  0.00     0.163 HD
BRANCH   6   8
ATOM      8  C   UNL A   1      35.132  24.020  25.507  1.00  0.00     0.110 C 
BRANCH   8   9
ATOM      9  C   UNL A   1      34.983  22.758  24.655  1.00  0.00     0.110 C 
BRANCH   9  10
ATOM     10  C   UNL A   1      35.127  22.987  23.168  1.00  0.00     0.224 C 
ATOM     11  O   UNL A   1      36.232  22.792  22.646  1.00  0.00    -0.275 OA
ATOM     12  N   UNL A   1      34.125  23.426  22.354  1.00  0.00    -0.326 N 
ATOM     13  H   UNL A   1      34.315  23.276  21.400  1.00  0.00     0.169 HD
BRANCH  12  14
ATOM     14  C   UNL A   1      32.877  24.050  22.572  1.00  0.00     0.045 A 
ATOM     15  C   UNL A   1      31.760  23.403  23.112  1.00  0.00     0.028 A 
ATOM     16  C   UNL A   1      32.828  25.444  22.348  1.00  0.00     0.075 A 
ATOM     17  C   UNL A   1      30.653  24.103  23.604  1.00  0.00     0.034 A 
ATOM     18  C   UNL A   1      31.685  26.104  22.800  1.00  0.00     0.157 A 
ATOM     19  C   UNL A   1      30.640  25.482  23.459  1.00  0.00     0.110 A 
ATOM     20  O   UNL A   1      31.363  27.432  22.692  1.00  0.00    -0.436 OA
ATOM     21  N   UNL A   1      29.710  26.387  23.851  1.00  0.00    -0.209 NA
ATOM     22  C   UNL A   1      30.146  27.515  23.329  1.00  0.00     0.227 A 
BRANCH  22  23
ATOM     23  C   UNL A   1      29.377  28.735  23.194  1.00  0.00     0.037 A 
ATOM     24  C   UNL A   1      29.923  29.955  23.613  1.00  0.00     0.014 A 
ATOM     25  C   UNL A   1      28.017  28.662  22.868  1.00  0.00     0.014 A 
ATOM     26  C   UNL A   1      29.110  31.083  23.729  1.00  0.00     0.001 A 
ATOM     27  C   UNL A   1      27.204  29.787  23.002  1.00  0.00     0.001 A 
ATOM     28  C   UNL A   1      27.749  30.993  23.440  1.00  0.00     0.000 A 
ENDBRANCH  22  23
ENDBRANCH  12  14
ENDBRANCH   9  10
ENDBRANCH   8   9
ENDBRANCH   6   8
ENDBRANCH   3   4
ENDBRANCH   2   3
ENDBRANCH   1   2
BRANCH   1  29
ATOM     29  C   UNL A   1      34.370  29.831  27.376  1.00  0.00     0.002 C 
BRANCH  29  30
ATOM     30  C   UNL A   1      33.912  31.218  26.921  1.00  0.00     0.021 C 
BRANCH  30  31
ATOM     31  C   UNL A   1      32.542  31.665  27.428  1.00  0.00     0.116 C 
BRANCH  31  32
ATOM     32  N   UNL A   1      32.405  33.112  27.511  1.00  0.00    -0.352 N 
ATOM     33  C   UNL A   1      33.156  34.023  28.212  1.00  0.00     0.251 C 
ATOM     34  H   UNL A   1      31.664  33.494  26.987  1.00  0.00     0.163 HD
ATOM     35  O   UNL A   1      32.817  35.205  28.237  1.00  0.00    -0.269 OA
BRANCH  33  36
ATOM     36  C   UNL A   1      34.348  33.581  28.968  1.00  0.00     0.039 A 
ATOM     37  C   UNL A   1      34.171  32.734  30.065  1.00  0.00     0.014 A 
ATOM     38  C   UNL A   1      35.633  33.984  28.594  1.00  0.00     0.014 A 
ATOM     39  C   UNL A   1      35.285  32.229  30.738  1.00  0.00     0.010 A 
ATOM     40  C   UNL A   1      36.744  33.422  29.220  1.00  0.00     0.010 A 
ATOM     41  C   UNL A   1      36.582  32.534  30.293  1.00  0.00    -0.014 A 
BRANCH  41  42
ATOM     42  C   UNL A   1      37.773  31.887  30.905  1.00  0.00     0.031 A 
ATOM     43  C   UNL A   1      38.526  30.811  30.176  1.00  0.00     0.074 A 
ATOM     44  C   UNL A   1      38.118  32.209  32.168  1.00  0.00     0.049 A 
ATOM     45  N   UNL A   1      39.553  30.107  30.578  1.00  0.00    -0.248 NA
ATOM     46  C   UNL A   1      38.049  30.460  28.829  1.00  0.00     0.031 C 
ATOM     47  C   UNL A   1      37.412  33.171  33.016  1.00  0.00     0.029 A 
ATOM     48  N   UNL A   1      39.128  31.737  32.971  1.00  0.00    -0.354 N 
ATOM     49  C   UNL A   1      39.829  29.214  29.549  1.00  0.00     0.074 A 
ATOM     50  C   UNL A   1      38.834  29.439  28.522  1.00  0.00     0.031 C 
ATOM     51  C   UNL A   1      38.006  33.217  34.218  1.00  0.00     0.029 A 
ATOM     52  C   UNL A   1      39.110  32.264  34.241  1.00  0.00     0.049 A 
ATOM     53  H   UNL A   1      39.799  31.085  32.666  1.00  0.00     0.167 HD
ATOM     54  C   UNL A   1      40.833  28.309  29.455  1.00  0.00     0.034 A 
ATOM     55  C   UNL A   1      39.881  31.997  35.313  1.00  0.00     0.034 A 
ATOM     56  C   UNL A   1      41.828  28.099  30.474  1.00  0.00     0.049 A 
ATOM     57  C   UNL A   1      41.000  31.004  35.182  1.00  0.00     0.074 A 
ATOM     58  C   UNL A   1      42.934  27.268  30.439  1.00  0.00     0.029 A 
ATOM     59  N   UNL A   1      41.825  28.705  31.722  1.00  0.00    -0.354 N 
ATOM     60  N   UNL A   1      41.351  30.290  34.140  1.00  0.00    -0.248 NA
ATOM     61  C   UNL A   1      41.853  30.803  36.362  1.00  0.00     0.031 C 
ATOM     62  C   UNL A   1      43.578  27.344  31.678  1.00  0.00     0.029 A 
ATOM     63  C   UNL A   1      42.897  28.251  32.473  1.00  0.00     0.049 A 
ATOM     64  H   UNL A   1      41.159  29.362  32.027  1.00  0.00     0.167 HD
ATOM     65  C   UNL A   1      42.476  29.571  34.529  1.00  0.00     0.074 A 
ATOM     66  C   UNL A   1      42.764  29.959  35.895  1.00  0.00     0.031 C 
ATOM     67  C   UNL A   1      43.193  28.663  33.823  1.00  0.00     0.034 A 
BRANCH  54  68
ATOM     68  C   UNL A   1      40.922  27.504  28.182  1.00  0.00     0.023 A 
ATOM     69  C   UNL A   1      41.514  28.075  27.036  1.00  0.00     0.012 A 
ATOM     70  C   UNL A   1      40.452  26.177  28.124  1.00  0.00     0.148 A 
ATOM     71  C   UNL A   1      41.588  27.362  25.840  1.00  0.00     0.002 A 
ATOM     72  C   UNL A   1      40.575  25.455  26.942  1.00  0.00     0.091 A 
ATOM     73  F   UNL A   1      39.876  25.654  29.215  1.00  0.00    -0.205 F 
ATOM     74  C   UNL A   1      41.127  26.050  25.796  1.00  0.00     0.022 A 
BRANCH  72  75
ATOM     75  S   UNL A   1      40.085  23.731  26.807  1.00  0.00     0.127 S 
ATOM     76  O   UNL A   1      38.682  23.854  26.412  1.00  0.00    -0.237 OA
ATOM     77  O   UNL A   1      40.973  23.241  25.752  1.00  0.00    -0.237 OA
ATOM     78  O   UNL A   1      40.320  23.144  28.117  1.00  0.00    -0.744 OA
ENDBRANCH  72  75
ENDBRANCH  54  68
BRANCH  55  79
ATOM     79  C   UNL A   1      39.631  32.720  36.592  1.00  0.00     0.023 A 
ATOM     80  C   UNL A   1      40.318  33.918  36.862  1.00  0.00     0.012 A 
ATOM     81  C   UNL A   1      38.671  32.253  37.511  1.00  0.00     0.148 A 
ATOM     82  C   UNL A   1      40.067  34.630  38.037  1.00  0.00     0.002 A 
ATOM     83  C   UNL A   1      38.384  32.997  38.649  1.00  0.00     0.091 A 
ATOM     84  F   UNL A   1      38.036  31.105  37.235  1.00  0.00    -0.205 F 
ATOM     85  C   UNL A   1      39.093  34.177  38.923  1.00  0.00     0.022 A 
BRANCH  83  86
ATOM     86  S   UNL A   1      37.050  32.566  39.772  1.00  0.00     0.127 S 
ATOM     87  O   UNL A   1      37.497  31.274  40.286  1.00  0.00    -0.237 OA
ATOM     88  O   UNL A   1      37.103  33.667  40.735  1.00  0.00    -0.237 OA
ATOM     89  O   UNL A   1      35.843  32.535  38.958  1.00  0.00    -0.744 OA
ENDBRANCH  83  86
ENDBRANCH  55  79
BRANCH  67  90
ATOM     90  C   UNL A   1      44.377  28.026  34.508  1.00  0.00     0.023 A 
ATOM     91  C   UNL A   1      45.622  28.686  34.514  1.00  0.00     0.012 A 
ATOM     92  C   UNL A   1      44.238  26.807  35.201  1.00  0.00     0.148 A 
ATOM     93  C   UNL A   1      46.719  28.126  35.171  1.00  0.00     0.002 A 
ATOM     94  C   UNL A   1      45.321  26.282  35.896  1.00  0.00     0.091 A 
ATOM     95  F   UNL A   1      43.050  26.185  35.169  1.00  0.00    -0.205 F 
ATOM     96  C   UNL A   1      46.565  26.932  35.871  1.00  0.00     0.022 A 
BRANCH  94  97
ATOM     97  S   UNL A   1      45.197  24.799  36.903  1.00  0.00     0.127 S 
ATOM     98  O   UNL A   1      46.588  24.349  36.944  1.00  0.00    -0.237 OA
ATOM     99  O   UNL A   1      44.689  25.328  38.168  1.00  0.00    -0.237 OA
ATOM    100  O   UNL A   1      44.277  23.911  36.204  1.00  0.00    -0.744 OA
ENDBRANCH  94  97
ENDBRANCH  67  90
ENDBRANCH  41  42
ENDBRANCH  33  36
ENDBRANCH  31  32
ENDBRANCH  30  31
ENDBRANCH  29  30
ENDBRANCH   1  29
TORSDOF 20
ENDMDL
