MODEL 1
REMARK VINA RESULT:     -11.4      0.000      0.000
REMARK SMILES COc1ccc2c(C)cc(SCC(=O)NCCCCCCNC(=O)c3ccc(-c4c5nc(c(-c6cccc(S(=O)(=O)[O-])c6F)c6ccc([nH]6)c(-c6cccc(S(=O)(=O)[O-])c6F)c6nc(c(-c7cccc(S(=O)(=O)[O-])c7F)c7ccc4[nH]7)C=C6)C=C5)cc3)nc2c1
REMARK SMILES IDX 18 1 17 2 16 3 15 4 13 5 14 6 12 8 11 9 10 10 3 11 4 12
REMARK SMILES IDX 90 13 5 14 89 15 6 16 88 17 7 18 8 19 9 20 2 21 1 22 19 23
REMARK SMILES IDX 20 24 21 25 22 26 23 27 24 29 25 30 26 31 87 32 27 33 86 34
REMARK SMILES IDX 28 35 29 36 30 37 80 38 31 39 85 40 79 41 81 42 32 43 84 44
REMARK SMILES IDX 78 45 77 46 33 48 65 49 45 50 64 51 46 52 49 53 63 54 82 55
REMARK SMILES IDX 47 56 48 57 62 59 83 60 50 61 34 62 35 63 43 64 36 65 38 66
REMARK SMILES IDX 44 67 37 68 39 69 40 70 41 71 42 72 66 73 67 74 75 75 68 76
REMARK SMILES IDX 70 77 76 78 69 79 71 80 72 81 73 82 74 83 51 84 52 85 60 86
REMARK SMILES IDX 53 87 55 88 61 89 54 90 56 91 57 92 58 93 59 94
REMARK H PARENT 15 7 22 28 81 47 49 58
REMARK Flexibility Score: inf
ROOT
ATOM      1  C   UNL A   1      37.405  22.396  25.136  1.00  0.00     0.002 C 
ENDROOT
BRANCH   1   2
ATOM      2  C   UNL A   1      36.102  22.772  25.856  1.00  0.00     0.021 C 
BRANCH   2   3
ATOM      3  C   UNL A   1      35.203  21.580  26.183  1.00  0.00     0.116 C 
BRANCH   3   4
ATOM      4  N   UNL A   1      34.356  21.874  27.324  1.00  0.00    -0.355 N 
ATOM      5  C   UNL A   1      33.080  22.342  27.358  1.00  0.00     0.230 C 
ATOM      6  O   UNL A   1      32.590  22.591  28.465  1.00  0.00    -0.274 OA
ATOM      7  H   UNL A   1      34.766  21.711  28.204  1.00  0.00     0.163 HD
BRANCH   5   8
ATOM      8  C   UNL A   1      32.246  22.460  26.098  1.00  0.00     0.176 C 
BRANCH   8   9
ATOM      9  S   UNL A   1      30.656  23.317  26.291  1.00  0.00    -0.096 SA
BRANCH   9  10
ATOM     10  C   UNL A   1      30.972  25.023  25.919  1.00  0.00     0.097 A 
ATOM     11  C   UNL A   1      29.560  28.545  23.041  1.00  0.00     0.121 A 
ATOM     12  C   UNL A   1      30.452  29.436  23.626  1.00  0.00     0.047 A 
ATOM     13  C   UNL A   1      29.498  27.230  23.501  1.00  0.00     0.075 A 
ATOM     14  C   UNL A   1      31.291  28.995  24.648  1.00  0.00     0.014 A 
ATOM     15  C   UNL A   1      30.323  26.768  24.518  1.00  0.00     0.075 A 
ATOM     16  C   UNL A   1      31.240  27.661  25.111  1.00  0.00     0.003 A 
ATOM     17  N   UNL A   1      30.212  25.489  24.904  1.00  0.00    -0.241 NA
ATOM     18  C   UNL A   1      32.045  27.163  26.158  1.00  0.00    -0.039 A 
ATOM     19  C   UNL A   1      33.078  28.010  26.849  1.00  0.00     0.045 C 
ATOM     20  C   UNL A   1      31.872  25.839  26.579  1.00  0.00     0.039 A 
BRANCH  11  21
ATOM     21  O   UNL A   1      28.662  28.892  22.070  1.00  0.00    -0.497 OA
ATOM     22  C   UNL A   1      28.678  30.274  21.723  1.00  0.00     0.278 C 
ENDBRANCH  11  21
ENDBRANCH   9  10
ENDBRANCH   8   9
ENDBRANCH   5   8
ENDBRANCH   3   4
ENDBRANCH   2   3
ENDBRANCH   1   2
BRANCH   1  23
ATOM     23  C   UNL A   1      37.338  21.122  24.288  1.00  0.00     0.002 C 
BRANCH  23  24
ATOM     24  C   UNL A   1      38.026  19.900  24.904  1.00  0.00     0.021 C 
BRANCH  24  25
ATOM     25  C   UNL A   1      39.071  20.228  25.963  1.00  0.00     0.116 C 
BRANCH  25  26
ATOM     26  N   UNL A   1      40.131  19.230  26.014  1.00  0.00    -0.352 N 
ATOM     27  C   UNL A   1      41.487  19.412  26.121  1.00  0.00     0.251 C 
ATOM     28  H   UNL A   1      39.833  18.294  25.963  1.00  0.00     0.163 HD
ATOM     29  O   UNL A   1      42.249  18.462  25.951  1.00  0.00    -0.269 OA
BRANCH  27  30
ATOM     30  C   UNL A   1      42.030  20.755  26.421  1.00  0.00     0.039 A 
ATOM     31  C   UNL A   1      42.281  21.636  25.366  1.00  0.00     0.014 A 
ATOM     32  C   UNL A   1      42.290  21.144  27.738  1.00  0.00     0.014 A 
ATOM     33  C   UNL A   1      42.737  22.928  25.638  1.00  0.00     0.010 A 
ATOM     34  C   UNL A   1      42.670  22.455  28.011  1.00  0.00     0.010 A 
ATOM     35  C   UNL A   1      42.904  23.360  26.965  1.00  0.00    -0.014 A 
BRANCH  35  36
ATOM     36  C   UNL A   1      43.308  24.757  27.276  1.00  0.00     0.031 A 
ATOM     37  C   UNL A   1      42.328  25.710  27.907  1.00  0.00     0.074 A 
ATOM     38  C   UNL A   1      44.533  25.191  26.914  1.00  0.00     0.049 A 
ATOM     39  N   UNL A   1      42.488  26.971  28.214  1.00  0.00    -0.248 NA
ATOM     40  C   UNL A   1      40.985  25.188  28.213  1.00  0.00     0.031 C 
ATOM     41  C   UNL A   1      45.550  24.386  26.231  1.00  0.00     0.029 A 
ATOM     42  N   UNL A   1      45.125  26.422  27.050  1.00  0.00    -0.354 N 
ATOM     43  C   UNL A   1      41.261  27.404  28.704  1.00  0.00     0.074 A 
ATOM     44  C   UNL A   1      40.358  26.277  28.636  1.00  0.00     0.031 C 
ATOM     45  C   UNL A   1      46.639  25.141  26.018  1.00  0.00     0.029 A 
ATOM     46  C   UNL A   1      46.390  26.490  26.513  1.00  0.00     0.049 A 
ATOM     47  H   UNL A   1      44.685  27.185  27.490  1.00  0.00     0.167 HD
ATOM     48  C   UNL A   1      40.924  28.623  29.187  1.00  0.00     0.034 A 
ATOM     49  C   UNL A   1      47.249  27.525  26.420  1.00  0.00     0.034 A 
ATOM     50  C   UNL A   1      41.836  29.728  29.297  1.00  0.00     0.049 A 
ATOM     51  C   UNL A   1      46.851  28.859  26.994  1.00  0.00     0.074 A 
ATOM     52  C   UNL A   1      41.617  30.968  29.872  1.00  0.00     0.029 A 
ATOM     53  N   UNL A   1      43.132  29.738  28.807  1.00  0.00    -0.354 N 
ATOM     54  N   UNL A   1      45.746  29.196  27.613  1.00  0.00    -0.248 NA
ATOM     55  C   UNL A   1      47.834  29.948  26.886  1.00  0.00     0.031 C 
ATOM     56  C   UNL A   1      42.767  31.742  29.692  1.00  0.00     0.029 A 
ATOM     57  C   UNL A   1      43.718  30.969  29.045  1.00  0.00     0.049 A 
ATOM     58  H   UNL A   1      43.571  28.981  28.356  1.00  0.00     0.167 HD
ATOM     59  C   UNL A   1      45.919  30.517  28.008  1.00  0.00     0.074 A 
ATOM     60  C   UNL A   1      47.243  30.914  27.575  1.00  0.00     0.031 C 
ATOM     61  C   UNL A   1      45.056  31.335  28.660  1.00  0.00     0.034 A 
BRANCH  48  62
ATOM     62  C   UNL A   1      39.510  28.828  29.670  1.00  0.00     0.023 A 
ATOM     63  C   UNL A   1      39.120  28.333  30.931  1.00  0.00     0.012 A 
ATOM     64  C   UNL A   1      38.598  29.588  28.913  1.00  0.00     0.148 A 
ATOM     65  C   UNL A   1      37.834  28.568  31.418  1.00  0.00     0.002 A 
ATOM     66  C   UNL A   1      37.335  29.859  29.426  1.00  0.00     0.091 A 
ATOM     67  F   UNL A   1      38.982  30.034  27.709  1.00  0.00    -0.205 F 
ATOM     68  C   UNL A   1      36.948  29.340  30.672  1.00  0.00     0.022 A 
BRANCH  66  69
ATOM     69  S   UNL A   1      36.151  30.915  28.584  1.00  0.00     0.127 S 
ATOM     70  O   UNL A   1      36.988  32.054  28.206  1.00  0.00    -0.237 OA
ATOM     71  O   UNL A   1      35.730  30.071  27.465  1.00  0.00    -0.237 OA
ATOM     72  O   UNL A   1      35.106  31.206  29.556  1.00  0.00    -0.744 OA
ENDBRANCH  66  69
ENDBRANCH  48  62
BRANCH  49  73
ATOM     73  C   UNL A   1      48.596  27.337  25.808  1.00  0.00     0.023 A 
ATOM     74  C   UNL A   1      49.682  26.967  26.628  1.00  0.00     0.012 A 
ATOM     75  C   UNL A   1      48.813  27.533  24.431  1.00  0.00     0.148 A 
ATOM     76  C   UNL A   1      50.966  26.840  26.096  1.00  0.00     0.002 A 
ATOM     77  C   UNL A   1      50.085  27.348  23.898  1.00  0.00     0.091 A 
ATOM     78  F   UNL A   1      47.773  27.895  23.668  1.00  0.00    -0.205 F 
ATOM     79  C   UNL A   1      51.166  27.024  24.731  1.00  0.00     0.022 A 
BRANCH  77  80
ATOM     80  S   UNL A   1      50.409  27.438  22.134  1.00  0.00     0.127 S 
ATOM     81  O   UNL A   1      51.819  27.066  22.068  1.00  0.00    -0.237 OA
ATOM     82  O   UNL A   1      49.480  26.438  21.605  1.00  0.00    -0.237 OA
ATOM     83  O   UNL A   1      50.096  28.807  21.746  1.00  0.00    -0.744 OA
ENDBRANCH  77  80
ENDBRANCH  49  73
BRANCH  61  84
ATOM     84  C   UNL A   1      45.526  32.725  29.000  1.00  0.00     0.023 A 
ATOM     85  C   UNL A   1      46.233  32.961  30.196  1.00  0.00     0.012 A 
ATOM     86  C   UNL A   1      45.327  33.786  28.094  1.00  0.00     0.148 A 
ATOM     87  C   UNL A   1      46.700  34.239  30.502  1.00  0.00     0.002 A 
ATOM     88  C   UNL A   1      45.845  35.043  28.379  1.00  0.00     0.091 A 
ATOM     89  F   UNL A   1      44.638  33.545  26.969  1.00  0.00    -0.205 F 
ATOM     90  C   UNL A   1      46.518  35.275  29.590  1.00  0.00     0.022 A 
BRANCH  88  91
ATOM     91  S   UNL A   1      45.747  36.411  27.219  1.00  0.00     0.127 S 
ATOM     92  O   UNL A   1      44.304  36.530  27.018  1.00  0.00    -0.237 OA
ATOM     93  O   UNL A   1      46.349  37.506  27.981  1.00  0.00    -0.237 OA
ATOM     94  O   UNL A   1      46.508  36.000  26.047  1.00  0.00    -0.744 OA
ENDBRANCH  88  91
ENDBRANCH  61  84
ENDBRANCH  35  36
ENDBRANCH  27  30
ENDBRANCH  25  26
ENDBRANCH  24  25
ENDBRANCH  23  24
ENDBRANCH   1  23
TORSDOF 19
ENDMDL
MODEL 2
REMARK VINA RESULT:     -11.3      1.882      3.892
REMARK SMILES COc1ccc2c(C)cc(SCC(=O)NCCCCCCNC(=O)c3ccc(-c4c5nc(c(-c6cccc(S(=O)(=O)[O-])c6F)c6ccc([nH]6)c(-c6cccc(S(=O)(=O)[O-])c6F)c6nc(c(-c7cccc(S(=O)(=O)[O-])c7F)c7ccc4[nH]7)C=C6)C=C5)cc3)nc2c1
REMARK SMILES IDX 18 1 17 2 16 3 15 4 13 5 14 6 12 8 11 9 10 10 3 11 4 12
REMARK SMILES IDX 90 13 5 14 89 15 6 16 88 17 7 18 8 19 9 20 2 21 1 22 19 23
REMARK SMILES IDX 20 24 21 25 22 26 23 27 24 29 25 30 26 31 87 32 27 33 86 34
REMARK SMILES IDX 28 35 29 36 30 37 80 38 31 39 85 40 79 41 81 42 32 43 84 44
REMARK SMILES IDX 78 45 77 46 33 48 65 49 45 50 64 51 46 52 49 53 63 54 82 55
REMARK SMILES IDX 47 56 48 57 62 59 83 60 50 61 34 62 35 63 43 64 36 65 38 66
REMARK SMILES IDX 44 67 37 68 39 69 40 70 41 71 42 72 66 73 67 74 75 75 68 76
REMARK SMILES IDX 70 77 76 78 69 79 71 80 72 81 73 82 74 83 51 84 52 85 60 86
REMARK SMILES IDX 53 87 55 88 61 89 54 90 56 91 57 92 58 93 59 94
REMARK H PARENT 15 7 22 28 81 47 49 58
REMARK Flexibility Score: inf
ROOT
ATOM      1  C   UNL A   1      36.222  21.816  25.316  1.00  0.00     0.002 C 
ENDROOT
BRANCH   1   2
ATOM      2  C   UNL A   1      35.498  22.596  24.210  1.00  0.00     0.021 C 
BRANCH   2   3
ATOM      3  C   UNL A   1      35.757  24.103  24.235  1.00  0.00     0.116 C 
BRANCH   3   4
ATOM      4  N   UNL A   1      34.566  24.835  23.847  1.00  0.00    -0.355 N 
ATOM      5  C   UNL A   1      33.423  25.064  24.549  1.00  0.00     0.230 C 
ATOM      6  O   UNL A   1      32.505  25.656  23.970  1.00  0.00    -0.274 OA
ATOM      7  H   UNL A   1      34.587  25.222  22.943  1.00  0.00     0.163 HD
BRANCH   5   8
ATOM      8  C   UNL A   1      33.309  24.704  26.016  1.00  0.00     0.176 C 
BRANCH   8   9
ATOM      9  S   UNL A   1      31.983  23.535  26.432  1.00  0.00    -0.096 SA
BRANCH   9  10
ATOM     10  C   UNL A   1      32.146  22.183  25.294  1.00  0.00     0.097 A 
ATOM     11  C   UNL A   1      33.150  17.531  25.134  1.00  0.00     0.121 A 
ATOM     12  C   UNL A   1      32.972  17.498  23.757  1.00  0.00     0.047 A 
ATOM     13  C   UNL A   1      32.975  18.731  25.823  1.00  0.00     0.075 A 
ATOM     14  C   UNL A   1      32.645  18.671  23.078  1.00  0.00     0.014 A 
ATOM     15  C   UNL A   1      32.650  19.912  25.170  1.00  0.00     0.075 A 
ATOM     16  C   UNL A   1      32.477  19.891  23.770  1.00  0.00     0.003 A 
ATOM     17  N   UNL A   1      32.505  21.029  25.897  1.00  0.00    -0.241 NA
ATOM     18  C   UNL A   1      32.122  21.105  23.143  1.00  0.00    -0.039 A 
ATOM     19  C   UNL A   1      31.938  21.217  21.655  1.00  0.00     0.045 C 
ATOM     20  C   UNL A   1      31.923  22.246  23.930  1.00  0.00     0.039 A 
BRANCH  11  21
ATOM     21  O   UNL A   1      33.420  16.427  25.895  1.00  0.00    -0.497 OA
ATOM     22  C   UNL A   1      32.930  15.205  25.350  1.00  0.00     0.278 C 
ENDBRANCH  11  21
ENDBRANCH   9  10
ENDBRANCH   8   9
ENDBRANCH   5   8
ENDBRANCH   3   4
ENDBRANCH   2   3
ENDBRANCH   1   2
BRANCH   1  23
ATOM     23  C   UNL A   1      36.457  20.330  25.021  1.00  0.00     0.002 C 
BRANCH  23  24
ATOM     24  C   UNL A   1      37.910  19.954  24.722  1.00  0.00     0.021 C 
BRANCH  24  25
ATOM     25  C   UNL A   1      38.892  20.273  25.844  1.00  0.00     0.116 C 
BRANCH  25  26
ATOM     26  N   UNL A   1      39.933  19.261  25.965  1.00  0.00    -0.352 N 
ATOM     27  C   UNL A   1      41.283  19.426  26.143  1.00  0.00     0.251 C 
ATOM     28  H   UNL A   1      39.624  18.329  25.910  1.00  0.00     0.163 HD
ATOM     29  O   UNL A   1      42.040  18.463  26.028  1.00  0.00    -0.269 OA
BRANCH  27  30
ATOM     30  C   UNL A   1      41.829  20.765  26.455  1.00  0.00     0.039 A 
ATOM     31  C   UNL A   1      42.134  21.634  25.405  1.00  0.00     0.014 A 
ATOM     32  C   UNL A   1      42.038  21.163  27.779  1.00  0.00     0.014 A 
ATOM     33  C   UNL A   1      42.593  22.923  25.685  1.00  0.00     0.010 A 
ATOM     34  C   UNL A   1      42.420  22.472  28.056  1.00  0.00     0.010 A 
ATOM     35  C   UNL A   1      42.710  23.365  27.014  1.00  0.00    -0.014 A 
BRANCH  35  36
ATOM     36  C   UNL A   1      43.117  24.760  27.330  1.00  0.00     0.031 A 
ATOM     37  C   UNL A   1      42.125  25.726  27.923  1.00  0.00     0.074 A 
ATOM     38  C   UNL A   1      44.357  25.180  27.007  1.00  0.00     0.049 A 
ATOM     39  N   UNL A   1      42.287  26.987  28.228  1.00  0.00    -0.248 NA
ATOM     40  C   UNL A   1      40.768  25.217  28.188  1.00  0.00     0.031 C 
ATOM     41  C   UNL A   1      45.387  24.361  26.362  1.00  0.00     0.029 A 
ATOM     42  N   UNL A   1      44.955  26.407  27.155  1.00  0.00    -0.354 N 
ATOM     43  C   UNL A   1      41.049  27.434  28.675  1.00  0.00     0.074 A 
ATOM     44  C   UNL A   1      40.138  26.315  28.583  1.00  0.00     0.031 C 
ATOM     45  C   UNL A   1      46.491  25.105  26.180  1.00  0.00     0.029 A 
ATOM     46  C   UNL A   1      46.238  26.460  26.660  1.00  0.00     0.049 A 
ATOM     47  H   UNL A   1      44.508  27.176  27.576  1.00  0.00     0.167 HD
ATOM     48  C   UNL A   1      40.707  28.659  29.139  1.00  0.00     0.034 A 
ATOM     49  C   UNL A   1      47.109  27.486  26.589  1.00  0.00     0.034 A 
ATOM     50  C   UNL A   1      41.626  29.757  29.274  1.00  0.00     0.049 A 
ATOM     51  C   UNL A   1      46.706  28.827  27.142  1.00  0.00     0.074 A 
ATOM     52  C   UNL A   1      41.400  31.001  29.834  1.00  0.00     0.029 A 
ATOM     53  N   UNL A   1      42.937  29.751  28.826  1.00  0.00    -0.354 N 
ATOM     54  N   UNL A   1      45.584  29.178  27.723  1.00  0.00    -0.248 NA
ATOM     55  C   UNL A   1      47.702  29.906  27.060  1.00  0.00     0.031 C 
ATOM     56  C   UNL A   1      42.562  31.763  29.687  1.00  0.00     0.029 A 
ATOM     57  C   UNL A   1      43.526  30.978  29.077  1.00  0.00     0.049 A 
ATOM     58  H   UNL A   1      43.383  28.987  28.394  1.00  0.00     0.167 HD
ATOM     59  C   UNL A   1      45.757  30.500  28.115  1.00  0.00     0.074 A 
ATOM     60  C   UNL A   1      47.097  30.882  27.724  1.00  0.00     0.031 C 
ATOM     61  C   UNL A   1      44.880  31.329  28.734  1.00  0.00     0.034 A 
BRANCH  48  62
ATOM     62  C   UNL A   1      39.280  28.880  29.574  1.00  0.00     0.023 A 
ATOM     63  C   UNL A   1      38.887  28.550  30.888  1.00  0.00     0.012 A 
ATOM     64  C   UNL A   1      38.356  29.497  28.710  1.00  0.00     0.148 A 
ATOM     65  C   UNL A   1      37.587  28.806  31.324  1.00  0.00     0.002 A 
ATOM     66  C   UNL A   1      37.077  29.793  29.167  1.00  0.00     0.091 A 
ATOM     67  F   UNL A   1      38.744  29.786  27.460  1.00  0.00    -0.205 F 
ATOM     68  C   UNL A   1      36.688  29.438  30.469  1.00  0.00     0.022 A 
BRANCH  66  69
ATOM     69  S   UNL A   1      35.872  30.682  28.175  1.00  0.00     0.127 S 
ATOM     70  O   UNL A   1      34.827  30.960  29.160  1.00  0.00    -0.237 OA
ATOM     71  O   UNL A   1      36.634  31.855  27.748  1.00  0.00    -0.237 OA
ATOM     72  O   UNL A   1      35.488  29.778  27.100  1.00  0.00    -0.744 OA
ENDBRANCH  66  69
ENDBRANCH  48  62
BRANCH  49  73
ATOM     73  C   UNL A   1      48.474  27.282  26.023  1.00  0.00     0.023 A 
ATOM     74  C   UNL A   1      49.518  26.859  26.871  1.00  0.00     0.012 A 
ATOM     75  C   UNL A   1      48.749  27.512  24.661  1.00  0.00     0.148 A 
ATOM     76  C   UNL A   1      50.818  26.716  26.385  1.00  0.00     0.002 A 
ATOM     77  C   UNL A   1      50.035  27.311  24.171  1.00  0.00     0.091 A 
ATOM     78  F   UNL A   1      47.747  27.923  23.872  1.00  0.00    -0.205 F 
ATOM     79  C   UNL A   1      51.075  26.934  25.034  1.00  0.00     0.022 A 
BRANCH  77  80
ATOM     80  S   UNL A   1      50.428  27.445  22.424  1.00  0.00     0.127 S 
ATOM     81  O   UNL A   1      50.259  28.876  22.188  1.00  0.00    -0.237 OA
ATOM     82  O   UNL A   1      51.814  26.973  22.390  1.00  0.00    -0.237 OA
ATOM     83  O   UNL A   1      49.484  26.572  21.740  1.00  0.00    -0.744 OA
ENDBRANCH  77  80
ENDBRANCH  49  73
BRANCH  61  84
ATOM     84  C   UNL A   1      45.352  32.717  29.082  1.00  0.00     0.023 A 
ATOM     85  C   UNL A   1      46.021  32.953  30.298  1.00  0.00     0.012 A 
ATOM     86  C   UNL A   1      45.193  33.774  28.163  1.00  0.00     0.148 A 
ATOM     87  C   UNL A   1      46.490  34.229  30.613  1.00  0.00     0.002 A 
ATOM     88  C   UNL A   1      45.712  35.028  28.458  1.00  0.00     0.091 A 
ATOM     89  F   UNL A   1      44.539  33.533  27.018  1.00  0.00    -0.205 F 
ATOM     90  C   UNL A   1      46.348  35.261  29.689  1.00  0.00     0.022 A 
BRANCH  88  91
ATOM     91  S   UNL A   1      45.666  36.390  27.288  1.00  0.00     0.127 S 
ATOM     92  O   UNL A   1      44.228  36.606  27.138  1.00  0.00    -0.237 OA
ATOM     93  O   UNL A   1      46.369  37.447  28.015  1.00  0.00    -0.237 OA
ATOM     94  O   UNL A   1      46.353  35.919  26.093  1.00  0.00    -0.744 OA
ENDBRANCH  88  91
ENDBRANCH  61  84
ENDBRANCH  35  36
ENDBRANCH  27  30
ENDBRANCH  25  26
ENDBRANCH  24  25
ENDBRANCH  23  24
ENDBRANCH   1  23
TORSDOF 19
ENDMDL
MODEL 3
REMARK VINA RESULT:     -11.1      6.485     11.905
REMARK SMILES COc1ccc2c(C)cc(SCC(=O)NCCCCCCNC(=O)c3ccc(-c4c5nc(c(-c6cccc(S(=O)(=O)[O-])c6F)c6ccc([nH]6)c(-c6cccc(S(=O)(=O)[O-])c6F)c6nc(c(-c7cccc(S(=O)(=O)[O-])c7F)c7ccc4[nH]7)C=C6)C=C5)cc3)nc2c1
REMARK SMILES IDX 18 1 17 2 16 3 15 4 13 5 14 6 12 8 11 9 10 10 3 11 4 12
REMARK SMILES IDX 90 13 5 14 89 15 6 16 88 17 7 18 8 19 9 20 2 21 1 22 19 23
REMARK SMILES IDX 20 24 21 25 22 26 23 27 24 29 25 30 26 31 87 32 27 33 86 34
REMARK SMILES IDX 28 35 29 36 30 37 80 38 31 39 85 40 79 41 81 42 32 43 84 44
REMARK SMILES IDX 78 45 77 46 33 48 65 49 45 50 64 51 46 52 49 53 63 54 82 55
REMARK SMILES IDX 47 56 48 57 62 59 83 60 50 61 34 62 35 63 43 64 36 65 38 66
REMARK SMILES IDX 44 67 37 68 39 69 40 70 41 71 42 72 66 73 67 74 75 75 68 76
REMARK SMILES IDX 70 77 76 78 69 79 71 80 72 81 73 82 74 83 51 84 52 85 60 86
REMARK SMILES IDX 53 87 55 88 61 89 54 90 56 91 57 92 58 93 59 94
REMARK H PARENT 15 7 22 28 81 47 49 58
REMARK Flexibility Score: inf
ROOT
ATOM      1  C   UNL A   1      31.450  29.846  25.052  1.00  0.00     0.002 C 
ENDROOT
BRANCH   1   2
ATOM      2  C   UNL A   1      32.598  29.303  24.188  1.00  0.00     0.021 C 
BRANCH   2   3
ATOM      3  C   UNL A   1      33.108  27.927  24.619  1.00  0.00     0.116 C 
BRANCH   3   4
ATOM      4  N   UNL A   1      33.642  27.200  23.483  1.00  0.00    -0.355 N 
ATOM      5  C   UNL A   1      33.320  25.963  23.017  1.00  0.00     0.230 C 
ATOM      6  O   UNL A   1      33.977  25.520  22.068  1.00  0.00    -0.274 OA
ATOM      7  H   UNL A   1      34.341  27.671  22.975  1.00  0.00     0.163 HD
BRANCH   5   8
ATOM      8  C   UNL A   1      32.137  25.193  23.567  1.00  0.00     0.176 C 
BRANCH   8   9
ATOM      9  S   UNL A   1      32.332  24.566  25.260  1.00  0.00    -0.096 SA
BRANCH   9  10
ATOM     10  C   UNL A   1      33.626  23.353  25.188  1.00  0.00     0.097 A 
ATOM     11  C   UNL A   1      34.343  18.681  24.616  1.00  0.00     0.121 A 
ATOM     12  C   UNL A   1      35.720  18.839  24.707  1.00  0.00     0.047 A 
ATOM     13  C   UNL A   1      33.512  19.797  24.716  1.00  0.00     0.075 A 
ATOM     14  C   UNL A   1      36.252  20.110  24.923  1.00  0.00     0.014 A 
ATOM     15  C   UNL A   1      34.019  21.072  24.930  1.00  0.00     0.075 A 
ATOM     16  C   UNL A   1      35.415  21.242  25.034  1.00  0.00     0.003 A 
ATOM     17  N   UNL A   1      33.159  22.097  25.022  1.00  0.00    -0.241 NA
ATOM     18  C   UNL A   1      35.895  22.555  25.228  1.00  0.00    -0.039 A 
ATOM     19  C   UNL A   1      37.360  22.861  25.383  1.00  0.00     0.045 C 
ATOM     20  C   UNL A   1      34.982  23.615  25.267  1.00  0.00     0.039 A 
BRANCH  11  21
ATOM     21  O   UNL A   1      33.728  17.487  24.355  1.00  0.00    -0.497 OA
ATOM     22  C   UNL A   1      34.034  16.937  23.077  1.00  0.00     0.278 C 
ENDBRANCH  11  21
ENDBRANCH   9  10
ENDBRANCH   8   9
ENDBRANCH   5   8
ENDBRANCH   3   4
ENDBRANCH   2   3
ENDBRANCH   1   2
BRANCH   1  23
ATOM     23  C   UNL A   1      31.848  30.287  26.465  1.00  0.00     0.002 C 
BRANCH  23  24
ATOM     24  C   UNL A   1      31.650  31.777  26.755  1.00  0.00     0.021 C 
BRANCH  24  25
ATOM     25  C   UNL A   1      32.899  32.497  27.250  1.00  0.00     0.116 C 
BRANCH  25  26
ATOM     26  N   UNL A   1      32.635  33.896  27.564  1.00  0.00    -0.352 N 
ATOM     27  C   UNL A   1      33.170  34.674  28.559  1.00  0.00     0.251 C 
ATOM     28  H   UNL A   1      31.981  34.343  26.982  1.00  0.00     0.163 HD
ATOM     29  O   UNL A   1      32.687  35.780  28.800  1.00  0.00    -0.269 OA
BRANCH  27  30
ATOM     30  C   UNL A   1      34.315  34.176  29.353  1.00  0.00     0.039 A 
ATOM     31  C   UNL A   1      34.069  33.345  30.448  1.00  0.00     0.014 A 
ATOM     32  C   UNL A   1      35.625  34.527  29.017  1.00  0.00     0.014 A 
ATOM     33  C   UNL A   1      35.142  32.818  31.170  1.00  0.00     0.010 A 
ATOM     34  C   UNL A   1      36.693  33.939  29.689  1.00  0.00     0.010 A 
ATOM     35  C   UNL A   1      36.465  33.084  30.778  1.00  0.00    -0.014 A 
BRANCH  35  36
ATOM     36  C   UNL A   1      37.618  32.464  31.483  1.00  0.00     0.031 A 
ATOM     37  C   UNL A   1      38.375  31.327  30.851  1.00  0.00     0.074 A 
ATOM     38  C   UNL A   1      37.933  32.874  32.729  1.00  0.00     0.049 A 
ATOM     39  N   UNL A   1      39.379  30.639  31.330  1.00  0.00    -0.248 NA
ATOM     40  C   UNL A   1      37.934  30.886  29.516  1.00  0.00     0.031 C 
ATOM     41  C   UNL A   1      37.231  33.918  33.480  1.00  0.00     0.029 A 
ATOM     42  N   UNL A   1      38.909  32.445  33.594  1.00  0.00    -0.354 N 
ATOM     43  C   UNL A   1      39.660  29.661  30.383  1.00  0.00     0.074 A 
ATOM     44  C   UNL A   1      38.707  29.829  29.308  1.00  0.00     0.031 C 
ATOM     45  C   UNL A   1      37.805  34.055  34.686  1.00  0.00     0.029 A 
ATOM     46  C   UNL A   1      38.890  33.087  34.811  1.00  0.00     0.049 A 
ATOM     47  H   UNL A   1      39.561  31.744  33.365  1.00  0.00     0.167 HD
ATOM     48  C   UNL A   1      40.635  28.722  30.397  1.00  0.00     0.034 A 
ATOM     49  C   UNL A   1      39.653  32.909  35.909  1.00  0.00     0.034 A 
ATOM     50  C   UNL A   1      41.610  28.587  31.445  1.00  0.00     0.049 A 
ATOM     51  C   UNL A   1      40.747  31.876  35.879  1.00  0.00     0.074 A 
ATOM     52  C   UNL A   1      42.701  27.738  31.498  1.00  0.00     0.029 A 
ATOM     53  N   UNL A   1      41.602  29.303  32.632  1.00  0.00    -0.354 N 
ATOM     54  N   UNL A   1      41.107  31.081  34.900  1.00  0.00    -0.248 NA
ATOM     55  C   UNL A   1      41.564  31.738  37.094  1.00  0.00     0.031 C 
ATOM     56  C   UNL A   1      43.329  27.911  32.735  1.00  0.00     0.029 A 
ATOM     57  C   UNL A   1      42.655  28.899  33.433  1.00  0.00     0.049 A 
ATOM     58  H   UNL A   1      40.944  29.996  32.869  1.00  0.00     0.167 HD
ATOM     59  C   UNL A   1      42.217  30.385  35.364  1.00  0.00     0.074 A 
ATOM     60  C   UNL A   1      42.482  30.865  36.705  1.00  0.00     0.031 C 
ATOM     61  C   UNL A   1      42.945  29.425  34.743  1.00  0.00     0.034 A 
BRANCH  48  62
ATOM     62  C   UNL A   1      40.727  27.778  29.226  1.00  0.00     0.023 A 
ATOM     63  C   UNL A   1      39.868  26.663  29.154  1.00  0.00     0.012 A 
ATOM     64  C   UNL A   1      41.602  28.047  28.156  1.00  0.00     0.148 A 
ATOM     65  C   UNL A   1      39.898  25.814  28.046  1.00  0.00     0.002 A 
ATOM     66  C   UNL A   1      41.593  27.225  27.035  1.00  0.00     0.091 A 
ATOM     67  F   UNL A   1      42.424  29.102  28.252  1.00  0.00    -0.205 F 
ATOM     68  C   UNL A   1      40.751  26.103  26.984  1.00  0.00     0.022 A 
BRANCH  66  69
ATOM     69  S   UNL A   1      42.589  27.559  25.578  1.00  0.00     0.127 S 
ATOM     70  O   UNL A   1      41.976  28.790  25.078  1.00  0.00    -0.237 OA
ATOM     71  O   UNL A   1      43.923  27.734  26.153  1.00  0.00    -0.237 OA
ATOM     72  O   UNL A   1      42.443  26.396  24.714  1.00  0.00    -0.744 OA
ENDBRANCH  66  69
ENDBRANCH  48  62
BRANCH  49  73
ATOM     73  C   UNL A   1      39.452  33.763  37.115  1.00  0.00     0.023 A 
ATOM     74  C   UNL A   1      39.975  35.072  37.130  1.00  0.00     0.012 A 
ATOM     75  C   UNL A   1      38.763  33.288  38.247  1.00  0.00     0.148 A 
ATOM     76  C   UNL A   1      39.856  35.875  38.265  1.00  0.00     0.002 A 
ATOM     77  C   UNL A   1      38.596  34.115  39.353  1.00  0.00     0.091 A 
ATOM     78  F   UNL A   1      38.281  32.038  38.220  1.00  0.00    -0.205 F 
ATOM     79  C   UNL A   1      39.160  35.399  39.373  1.00  0.00     0.022 A 
BRANCH  77  80
ATOM     80  S   UNL A   1      37.607  33.632  40.772  1.00  0.00     0.127 S 
ATOM     81  O   UNL A   1      38.512  32.725  41.474  1.00  0.00    -0.237 OA
ATOM     82  O   UNL A   1      37.385  34.918  41.437  1.00  0.00    -0.237 OA
ATOM     83  O   UNL A   1      36.401  33.027  40.224  1.00  0.00    -0.744 OA
ENDBRANCH  77  80
ENDBRANCH  49  73
BRANCH  61  84
ATOM     84  C   UNL A   1      44.135  28.862  35.474  1.00  0.00     0.023 A 
ATOM     85  C   UNL A   1      45.415  29.416  35.277  1.00  0.00     0.012 A 
ATOM     86  C   UNL A   1      43.968  27.826  36.415  1.00  0.00     0.148 A 
ATOM     87  C   UNL A   1      46.517  28.923  35.975  1.00  0.00     0.002 A 
ATOM     88  C   UNL A   1      45.060  27.378  37.148  1.00  0.00     0.091 A 
ATOM     89  F   UNL A   1      42.746  27.300  36.577  1.00  0.00    -0.205 F 
ATOM     90  C   UNL A   1      46.337  27.914  36.918  1.00  0.00     0.022 A 
BRANCH  88  91
ATOM     91  S   UNL A   1      44.907  26.155  38.455  1.00  0.00     0.127 S 
ATOM     92  O   UNL A   1      46.307  25.905  38.796  1.00  0.00    -0.237 OA
ATOM     93  O   UNL A   1      44.151  26.883  39.474  1.00  0.00    -0.237 OA
ATOM     94  O   UNL A   1      44.198  25.025  37.869  1.00  0.00    -0.744 OA
ENDBRANCH  88  91
ENDBRANCH  61  84
ENDBRANCH  35  36
ENDBRANCH  27  30
ENDBRANCH  25  26
ENDBRANCH  24  25
ENDBRANCH  23  24
ENDBRANCH   1  23
TORSDOF 19
ENDMDL
