MODEL 1
REMARK VINA RESULT:     -12.5      0.000      0.000
REMARK SMILES Cc1cc(-c2cncc(C(=O)NCCCCCCNC(=O)c3ccc(-c4c5nc(c(-c6cccc(S(=O)(=O)[O-])c6F)c6ccc([nH]6)c(-c6cccc(S(=O)(=O)[O-])c6F)c6nc(c(-c7cccc(S(=O)(=O)[O-])c7F)c7ccc4[nH]7)C=C6)C=C5)cc3)c2)ccc1F
REMARK SMILES IDX 16 1 15 2 14 3 13 4 12 5 10 6 11 7 9 9 5 10 6 11 85 12 7 13
REMARK SMILES IDX 8 14 4 15 1 16 2 17 3 18 88 19 87 20 89 21 86 22 17 23 18 24
REMARK SMILES IDX 19 25 20 26 21 28 22 29 23 30 84 31 24 32 83 33 25 34 26 35
REMARK SMILES IDX 27 36 77 37 28 38 82 39 76 40 78 41 29 42 81 43 75 44 74 45
REMARK SMILES IDX 30 47 62 48 42 49 61 50 43 51 46 52 60 53 79 54 44 55 45 56
REMARK SMILES IDX 59 58 80 59 47 60 31 61 32 62 40 63 33 64 35 65 41 66 34 67
REMARK SMILES IDX 36 68 37 69 38 70 39 71 63 72 64 73 72 74 65 75 67 76 73 77
REMARK SMILES IDX 66 78 68 79 69 80 70 81 71 82 48 83 49 84 57 85 50 86 52 87
REMARK SMILES IDX 58 88 51 89 53 90 54 91 55 92 56 93
REMARK H PARENT 12 8 19 27 78 46 46 57
REMARK Flexibility Score: inf
ROOT
ATOM      1  C   UNL A   1      35.298  24.361  25.010  1.00  0.00     0.002 C 
ENDROOT
BRANCH   1   2
ATOM      2  C   UNL A   1      34.226  25.289  25.607  1.00  0.00     0.002 C 
BRANCH   2   3
ATOM      3  C   UNL A   1      33.784  26.427  24.678  1.00  0.00     0.021 C 
BRANCH   3   4
ATOM      4  C   UNL A   1      33.221  25.909  23.355  1.00  0.00     0.116 C 
BRANCH   4   5
ATOM      5  N   UNL A   1      31.782  26.079  23.335  1.00  0.00    -0.352 N 
ATOM      6  C   UNL A   1      30.746  25.384  23.897  1.00  0.00     0.252 C 
ATOM      7  O   UNL A   1      29.603  25.783  23.672  1.00  0.00    -0.269 OA
ATOM      8  H   UNL A   1      31.488  26.856  22.805  1.00  0.00     0.163 HD
BRANCH   6   9
ATOM      9  C   UNL A   1      30.934  24.245  24.825  1.00  0.00     0.058 A 
ATOM     10  C   UNL A   1      31.843  22.101  25.512  1.00  0.00     0.001 A 
ATOM     11  C   UNL A   1      31.418  22.398  26.803  1.00  0.00     0.119 A 
ATOM     12  C   UNL A   1      31.508  23.018  24.506  1.00  0.00     0.025 A 
ATOM     13  N   UNL A   1      30.753  23.528  27.142  1.00  0.00    -0.263 NA
ATOM     14  C   UNL A   1      30.545  24.429  26.147  1.00  0.00     0.124 A 
BRANCH  10  15
ATOM     15  C   UNL A   1      32.684  20.944  25.197  1.00  0.00    -0.016 A 
ATOM     16  C   UNL A   1      36.423  20.137  24.964  1.00  0.00     0.047 C 
ATOM     17  C   UNL A   1      34.932  20.004  24.913  1.00  0.00    -0.015 A 
ATOM     18  C   UNL A   1      34.089  21.066  25.266  1.00  0.00     0.015 A 
ATOM     19  C   UNL A   1      34.349  18.808  24.498  1.00  0.00     0.126 A 
ATOM     20  C   UNL A   1      32.967  18.662  24.430  1.00  0.00     0.040 A 
ATOM     21  F   UNL A   1      35.129  17.775  24.150  1.00  0.00    -0.207 F 
ATOM     22  C   UNL A   1      32.134  19.727  24.781  1.00  0.00     0.012 A 
ENDBRANCH  10  15
ENDBRANCH   6   9
ENDBRANCH   4   5
ENDBRANCH   3   4
ENDBRANCH   2   3
ENDBRANCH   1   2
BRANCH   1  23
ATOM     23  C   UNL A   1      36.391  23.923  25.995  1.00  0.00     0.021 C 
BRANCH  23  24
ATOM     24  C   UNL A   1      37.693  23.647  25.276  1.00  0.00     0.116 C 
BRANCH  24  25
ATOM     25  N   UNL A   1      38.525  22.749  26.070  1.00  0.00    -0.352 N 
ATOM     26  C   UNL A   1      39.665  23.070  26.771  1.00  0.00     0.251 C 
ATOM     27  H   UNL A   1      38.237  21.809  26.109  1.00  0.00     0.163 HD
ATOM     28  O   UNL A   1      40.539  22.244  26.975  1.00  0.00    -0.269 OA
BRANCH  26  29
ATOM     29  C   UNL A   1      39.788  24.451  27.254  1.00  0.00     0.039 A 
ATOM     30  C   UNL A   1      40.459  25.427  26.508  1.00  0.00     0.014 A 
ATOM     31  C   UNL A   1      39.252  24.735  28.507  1.00  0.00     0.014 A 
ATOM     32  C   UNL A   1      40.586  26.704  27.039  1.00  0.00     0.010 A 
ATOM     33  C   UNL A   1      39.202  26.019  28.939  1.00  0.00     0.010 A 
ATOM     34  C   UNL A   1      39.961  26.968  28.256  1.00  0.00    -0.014 A 
BRANCH  34  35
ATOM     35  C   UNL A   1      40.124  28.170  29.038  1.00  0.00     0.031 A 
ATOM     36  C   UNL A   1      39.184  29.271  28.854  1.00  0.00     0.074 A 
ATOM     37  C   UNL A   1      40.997  28.029  30.060  1.00  0.00     0.049 A 
ATOM     38  N   UNL A   1      39.449  30.497  29.120  1.00  0.00    -0.248 NA
ATOM     39  C   UNL A   1      37.845  29.089  28.289  1.00  0.00     0.031 C 
ATOM     40  C   UNL A   1      41.141  28.775  31.295  1.00  0.00     0.029 A 
ATOM     41  N   UNL A   1      42.045  27.114  30.111  1.00  0.00    -0.354 N 
ATOM     42  C   UNL A   1      38.236  31.145  29.195  1.00  0.00     0.074 A 
ATOM     43  C   UNL A   1      37.308  30.300  28.482  1.00  0.00     0.031 C 
ATOM     44  C   UNL A   1      42.345  28.492  31.836  1.00  0.00     0.029 A 
ATOM     45  C   UNL A   1      43.067  27.648  30.891  1.00  0.00     0.049 A 
ATOM     46  H   UNL A   1      42.061  26.234  29.669  1.00  0.00     0.167 HD
ATOM     47  C   UNL A   1      38.109  32.188  30.065  1.00  0.00     0.034 A 
ATOM     48  C   UNL A   1      44.237  27.981  30.262  1.00  0.00     0.034 A 
ATOM     49  C   UNL A   1      39.358  32.364  30.801  1.00  0.00     0.049 A 
ATOM     50  C   UNL A   1      44.366  29.482  30.196  1.00  0.00     0.074 A 
ATOM     51  C   UNL A   1      39.743  31.952  32.066  1.00  0.00     0.029 A 
ATOM     52  N   UNL A   1      40.522  32.676  30.115  1.00  0.00    -0.354 N 
ATOM     53  N   UNL A   1      43.353  30.302  30.088  1.00  0.00    -0.248 NA
ATOM     54  C   UNL A   1      45.641  30.167  30.361  1.00  0.00     0.031 C 
ATOM     55  C   UNL A   1      41.159  31.968  32.117  1.00  0.00     0.029 A 
ATOM     56  C   UNL A   1      41.629  32.378  30.881  1.00  0.00     0.049 A 
ATOM     57  H   UNL A   1      40.554  33.058  29.208  1.00  0.00     0.167 HD
ATOM     58  C   UNL A   1      43.801  31.584  30.278  1.00  0.00     0.074 A 
ATOM     59  C   UNL A   1      45.241  31.448  30.409  1.00  0.00     0.031 C 
ATOM     60  C   UNL A   1      42.967  32.660  30.386  1.00  0.00     0.034 A 
BRANCH  47  61
ATOM     61  C   UNL A   1      36.801  32.819  30.487  1.00  0.00     0.023 A 
ATOM     62  C   UNL A   1      36.351  32.829  31.824  1.00  0.00     0.012 A 
ATOM     63  C   UNL A   1      35.942  33.424  29.540  1.00  0.00     0.148 A 
ATOM     64  C   UNL A   1      35.166  33.475  32.211  1.00  0.00     0.002 A 
ATOM     65  C   UNL A   1      34.755  34.048  29.922  1.00  0.00     0.091 A 
ATOM     66  F   UNL A   1      36.250  33.410  28.238  1.00  0.00    -0.205 F 
ATOM     67  C   UNL A   1      34.365  34.091  31.258  1.00  0.00     0.022 A 
BRANCH  65  68
ATOM     68  S   UNL A   1      33.724  34.791  28.652  1.00  0.00     0.127 S 
ATOM     69  O   UNL A   1      34.617  35.776  28.048  1.00  0.00    -0.237 OA
ATOM     70  O   UNL A   1      33.342  33.651  27.825  1.00  0.00    -0.237 OA
ATOM     71  O   UNL A   1      32.619  35.372  29.418  1.00  0.00    -0.744 OA
ENDBRANCH  65  68
ENDBRANCH  47  61
BRANCH  48  72
ATOM     72  C   UNL A   1      44.576  27.007  29.165  1.00  0.00     0.023 A 
ATOM     73  C   UNL A   1      45.481  25.951  29.388  1.00  0.00     0.012 A 
ATOM     74  C   UNL A   1      44.397  27.465  27.839  1.00  0.00     0.148 A 
ATOM     75  C   UNL A   1      46.280  25.470  28.337  1.00  0.00     0.002 A 
ATOM     76  C   UNL A   1      45.241  27.029  26.817  1.00  0.00     0.091 A 
ATOM     77  F   UNL A   1      43.495  28.436  27.613  1.00  0.00    -0.205 F 
ATOM     78  C   UNL A   1      46.198  26.042  27.064  1.00  0.00     0.022 A 
BRANCH  76  79
ATOM     79  S   UNL A   1      45.253  27.935  25.262  1.00  0.00     0.127 S 
ATOM     80  O   UNL A   1      43.851  27.911  24.861  1.00  0.00    -0.237 OA
ATOM     81  O   UNL A   1      45.801  29.236  25.639  1.00  0.00    -0.237 OA
ATOM     82  O   UNL A   1      46.144  27.150  24.406  1.00  0.00    -0.744 OA
ENDBRANCH  76  79
ENDBRANCH  48  72
BRANCH  60  83
ATOM     83  C   UNL A   1      43.347  34.108  30.194  1.00  0.00     0.023 A 
ATOM     84  C   UNL A   1      43.538  34.921  31.346  1.00  0.00     0.012 A 
ATOM     85  C   UNL A   1      43.411  34.761  28.960  1.00  0.00     0.148 A 
ATOM     86  C   UNL A   1      43.762  36.295  31.273  1.00  0.00     0.002 A 
ATOM     87  C   UNL A   1      43.776  36.102  28.885  1.00  0.00     0.091 A 
ATOM     88  F   UNL A   1      43.065  34.128  27.833  1.00  0.00    -0.205 F 
ATOM     89  C   UNL A   1      43.914  36.887  30.031  1.00  0.00     0.022 A 
BRANCH  87  90
ATOM     90  S   UNL A   1      44.229  36.755  27.281  1.00  0.00     0.127 S 
ATOM     91  O   UNL A   1      44.966  37.967  27.635  1.00  0.00    -0.237 OA
ATOM     92  O   UNL A   1      45.006  35.677  26.679  1.00  0.00    -0.237 OA
ATOM     93  O   UNL A   1      42.937  37.001  26.639  1.00  0.00    -0.744 OA
ENDBRANCH  87  90
ENDBRANCH  60  83
ENDBRANCH  34  35
ENDBRANCH  26  29
ENDBRANCH  24  25
ENDBRANCH  23  24
ENDBRANCH   1  23
TORSDOF 17
ENDMDL
MODEL 2
REMARK VINA RESULT:     -12.1      4.158      8.989
REMARK SMILES Cc1cc(-c2cncc(C(=O)NCCCCCCNC(=O)c3ccc(-c4c5nc(c(-c6cccc(S(=O)(=O)[O-])c6F)c6ccc([nH]6)c(-c6cccc(S(=O)(=O)[O-])c6F)c6nc(c(-c7cccc(S(=O)(=O)[O-])c7F)c7ccc4[nH]7)C=C6)C=C5)cc3)c2)ccc1F
REMARK SMILES IDX 16 1 15 2 14 3 13 4 12 5 10 6 11 7 9 9 5 10 6 11 85 12 7 13
REMARK SMILES IDX 8 14 4 15 1 16 2 17 3 18 88 19 87 20 89 21 86 22 17 23 18 24
REMARK SMILES IDX 19 25 20 26 21 28 22 29 23 30 84 31 24 32 83 33 25 34 26 35
REMARK SMILES IDX 27 36 77 37 28 38 82 39 76 40 78 41 29 42 81 43 75 44 74 45
REMARK SMILES IDX 30 47 62 48 42 49 61 50 43 51 46 52 60 53 79 54 44 55 45 56
REMARK SMILES IDX 59 58 80 59 47 60 31 61 32 62 40 63 33 64 35 65 41 66 34 67
REMARK SMILES IDX 36 68 37 69 38 70 39 71 63 72 64 73 72 74 65 75 67 76 73 77
REMARK SMILES IDX 66 78 68 79 69 80 70 81 71 82 48 83 49 84 57 85 50 86 52 87
REMARK SMILES IDX 58 88 51 89 53 90 54 91 55 92 56 93
REMARK H PARENT 12 8 19 27 78 46 46 57
REMARK Flexibility Score: inf
ROOT
ATOM      1  C   UNL A   1      31.901  29.809  26.013  1.00  0.00     0.002 C 
ENDROOT
BRANCH   1   2
ATOM      2  C   UNL A   1      31.753  29.348  24.553  1.00  0.00     0.002 C 
BRANCH   2   3
ATOM      3  C   UNL A   1      30.935  28.062  24.374  1.00  0.00     0.021 C 
BRANCH   3   4
ATOM      4  C   UNL A   1      30.703  27.724  22.901  1.00  0.00     0.116 C 
BRANCH   4   5
ATOM      5  N   UNL A   1      31.976  27.610  22.219  1.00  0.00    -0.352 N 
ATOM      6  C   UNL A   1      33.072  26.810  22.402  1.00  0.00     0.252 C 
ATOM      7  O   UNL A   1      34.030  26.972  21.645  1.00  0.00    -0.269 OA
ATOM      8  H   UNL A   1      32.074  28.239  21.468  1.00  0.00     0.163 HD
BRANCH   6   9
ATOM      9  C   UNL A   1      33.125  25.711  23.395  1.00  0.00     0.058 A 
ATOM     10  C   UNL A   1      32.936  23.405  24.129  1.00  0.00     0.001 A 
ATOM     11  C   UNL A   1      33.599  23.780  25.293  1.00  0.00     0.119 A 
ATOM     12  C   UNL A   1      32.629  24.424  23.216  1.00  0.00     0.025 A 
ATOM     13  N   UNL A   1      33.999  25.045  25.565  1.00  0.00    -0.263 NA
ATOM     14  C   UNL A   1      33.767  25.973  24.600  1.00  0.00     0.124 A 
BRANCH  10  15
ATOM     15  C   UNL A   1      32.642  22.010  23.795  1.00  0.00    -0.016 A 
ATOM     16  C   UNL A   1      32.785  18.590  25.518  1.00  0.00     0.047 C 
ATOM     17  C   UNL A   1      32.594  19.656  24.483  1.00  0.00    -0.015 A 
ATOM     18  C   UNL A   1      32.804  21.010  24.778  1.00  0.00     0.015 A 
ATOM     19  C   UNL A   1      32.208  19.314  23.188  1.00  0.00     0.126 A 
ATOM     20  C   UNL A   1      32.034  20.283  22.205  1.00  0.00     0.040 A 
ATOM     21  F   UNL A   1      32.003  18.026  22.874  1.00  0.00    -0.207 F 
ATOM     22  C   UNL A   1      32.249  21.630  22.507  1.00  0.00     0.012 A 
ENDBRANCH  10  15
ENDBRANCH   6   9
ENDBRANCH   4   5
ENDBRANCH   3   4
ENDBRANCH   2   3
ENDBRANCH   1   2
BRANCH   1  23
ATOM     23  C   UNL A   1      32.576  28.792  26.944  1.00  0.00     0.021 C 
BRANCH  23  24
ATOM     24  C   UNL A   1      34.068  29.027  27.018  1.00  0.00     0.116 C 
BRANCH  24  25
ATOM     25  N   UNL A   1      34.348  30.455  27.113  1.00  0.00    -0.352 N 
ATOM     26  C   UNL A   1      35.312  31.068  27.880  1.00  0.00     0.251 C 
ATOM     27  H   UNL A   1      33.783  31.047  26.566  1.00  0.00     0.163 HD
ATOM     28  O   UNL A   1      35.172  32.209  28.286  1.00  0.00    -0.269 OA
BRANCH  26  29
ATOM     29  C   UNL A   1      36.512  30.284  28.198  1.00  0.00     0.039 A 
ATOM     30  C   UNL A   1      36.676  29.674  29.448  1.00  0.00     0.014 A 
ATOM     31  C   UNL A   1      37.502  30.215  27.222  1.00  0.00     0.014 A 
ATOM     32  C   UNL A   1      37.854  28.987  29.708  1.00  0.00     0.010 A 
ATOM     33  C   UNL A   1      38.560  29.387  27.398  1.00  0.00     0.010 A 
ATOM     34  C   UNL A   1      38.780  28.870  28.674  1.00  0.00    -0.014 A 
BRANCH  34  35
ATOM     35  C   UNL A   1      40.119  28.348  28.804  1.00  0.00     0.031 A 
ATOM     36  C   UNL A   1      40.352  26.924  28.587  1.00  0.00     0.074 A 
ATOM     37  C   UNL A   1      41.066  29.312  28.859  1.00  0.00     0.049 A 
ATOM     38  N   UNL A   1      41.337  26.271  29.085  1.00  0.00    -0.248 NA
ATOM     39  C   UNL A   1      39.441  26.077  27.813  1.00  0.00     0.031 C 
ATOM     40  C   UNL A   1      42.485  29.266  28.566  1.00  0.00     0.029 A 
ATOM     41  N   UNL A   1      40.868  30.618  29.298  1.00  0.00    -0.354 N 
ATOM     42  C   UNL A   1      41.432  25.105  28.356  1.00  0.00     0.074 A 
ATOM     43  C   UNL A   1      40.140  24.937  27.737  1.00  0.00     0.031 C 
ATOM     44  C   UNL A   1      43.072  30.366  29.082  1.00  0.00     0.029 A 
ATOM     45  C   UNL A   1      42.059  31.093  29.840  1.00  0.00     0.049 A 
ATOM     46  H   UNL A   1      40.026  31.124  29.234  1.00  0.00     0.167 HD
ATOM     47  C   UNL A   1      42.667  24.559  28.163  1.00  0.00     0.034 A 
ATOM     48  C   UNL A   1      42.093  31.326  31.189  1.00  0.00     0.034 A 
ATOM     49  C   UNL A   1      43.680  25.414  28.772  1.00  0.00     0.049 A 
ATOM     50  C   UNL A   1      42.943  30.279  31.863  1.00  0.00     0.074 A 
ATOM     51  C   UNL A   1      44.522  26.371  28.228  1.00  0.00     0.029 A 
ATOM     52  N   UNL A   1      43.657  25.641  30.140  1.00  0.00    -0.354 N 
ATOM     53  N   UNL A   1      43.052  29.043  31.448  1.00  0.00    -0.248 NA
ATOM     54  C   UNL A   1      43.819  30.584  32.986  1.00  0.00     0.031 C 
ATOM     55  C   UNL A   1      44.963  27.212  29.280  1.00  0.00     0.029 A 
ATOM     56  C   UNL A   1      44.381  26.771  30.456  1.00  0.00     0.049 A 
ATOM     57  H   UNL A   1      43.188  25.074  30.795  1.00  0.00     0.167 HD
ATOM     58  C   UNL A   1      44.062  28.432  32.146  1.00  0.00     0.074 A 
ATOM     59  C   UNL A   1      44.484  29.424  33.117  1.00  0.00     0.031 C 
ATOM     60  C   UNL A   1      44.534  27.186  31.841  1.00  0.00     0.034 A 
BRANCH  47  61
ATOM     61  C   UNL A   1      42.992  23.466  27.168  1.00  0.00     0.023 A 
ATOM     62  C   UNL A   1      43.909  23.641  26.110  1.00  0.00     0.012 A 
ATOM     63  C   UNL A   1      42.366  22.200  27.242  1.00  0.00     0.148 A 
ATOM     64  C   UNL A   1      44.250  22.599  25.234  1.00  0.00     0.002 A 
ATOM     65  C   UNL A   1      42.689  21.171  26.358  1.00  0.00     0.091 A 
ATOM     66  F   UNL A   1      41.434  21.958  28.171  1.00  0.00    -0.205 F 
ATOM     67  C   UNL A   1      43.641  21.357  25.359  1.00  0.00     0.022 A 
BRANCH  65  68
ATOM     68  S   UNL A   1      41.844  19.595  26.525  1.00  0.00     0.127 S 
ATOM     69  O   UNL A   1      42.408  18.809  25.432  1.00  0.00    -0.237 OA
ATOM     70  O   UNL A   1      42.182  19.178  27.881  1.00  0.00    -0.237 OA
ATOM     71  O   UNL A   1      40.435  19.952  26.342  1.00  0.00    -0.744 OA
ENDBRANCH  65  68
ENDBRANCH  47  61
BRANCH  48  72
ATOM     72  C   UNL A   1      40.782  31.871  31.693  1.00  0.00     0.023 A 
ATOM     73  C   UNL A   1      40.566  33.258  31.796  1.00  0.00     0.012 A 
ATOM     74  C   UNL A   1      40.020  31.012  32.519  1.00  0.00     0.148 A 
ATOM     75  C   UNL A   1      39.717  33.770  32.792  1.00  0.00     0.002 A 
ATOM     76  C   UNL A   1      39.233  31.531  33.547  1.00  0.00     0.091 A 
ATOM     77  F   UNL A   1      40.183  29.684  32.387  1.00  0.00    -0.205 F 
ATOM     78  C   UNL A   1      39.090  32.912  33.700  1.00  0.00     0.022 A 
BRANCH  76  79
ATOM     79  S   UNL A   1      38.624  30.410  34.818  1.00  0.00     0.127 S 
ATOM     80  O   UNL A   1      39.853  29.914  35.428  1.00  0.00    -0.237 OA
ATOM     81  O   UNL A   1      37.785  31.272  35.648  1.00  0.00    -0.237 OA
ATOM     82  O   UNL A   1      37.870  29.406  34.067  1.00  0.00    -0.744 OA
ENDBRANCH  76  79
ENDBRANCH  48  72
BRANCH  60  83
ATOM     83  C   UNL A   1      45.328  26.284  32.755  1.00  0.00     0.023 A 
ATOM     84  C   UNL A   1      46.737  26.207  32.581  1.00  0.00     0.012 A 
ATOM     85  C   UNL A   1      44.773  25.410  33.693  1.00  0.00     0.148 A 
ATOM     86  C   UNL A   1      47.538  25.309  33.284  1.00  0.00     0.002 A 
ATOM     87  C   UNL A   1      45.590  24.617  34.495  1.00  0.00     0.091 A 
ATOM     88  F   UNL A   1      43.445  25.272  33.799  1.00  0.00    -0.205 F 
ATOM     89  C   UNL A   1      46.966  24.528  34.273  1.00  0.00     0.022 A 
BRANCH  87  90
ATOM     90  S   UNL A   1      44.852  23.840  35.928  1.00  0.00     0.127 S 
ATOM     91  O   UNL A   1      44.237  24.974  36.615  1.00  0.00    -0.237 OA
ATOM     92  O   UNL A   1      43.939  22.858  35.353  1.00  0.00    -0.237 OA
ATOM     93  O   UNL A   1      46.000  23.261  36.628  1.00  0.00    -0.744 OA
ENDBRANCH  87  90
ENDBRANCH  60  83
ENDBRANCH  34  35
ENDBRANCH  26  29
ENDBRANCH  24  25
ENDBRANCH  23  24
ENDBRANCH   1  23
TORSDOF 17
ENDMDL
MODEL 3
REMARK VINA RESULT:     -12.0      1.784      3.523
REMARK SMILES Cc1cc(-c2cncc(C(=O)NCCCCCCNC(=O)c3ccc(-c4c5nc(c(-c6cccc(S(=O)(=O)[O-])c6F)c6ccc([nH]6)c(-c6cccc(S(=O)(=O)[O-])c6F)c6nc(c(-c7cccc(S(=O)(=O)[O-])c7F)c7ccc4[nH]7)C=C6)C=C5)cc3)c2)ccc1F
REMARK SMILES IDX 16 1 15 2 14 3 13 4 12 5 10 6 11 7 9 9 5 10 6 11 85 12 7 13
REMARK SMILES IDX 8 14 4 15 1 16 2 17 3 18 88 19 87 20 89 21 86 22 17 23 18 24
REMARK SMILES IDX 19 25 20 26 21 28 22 29 23 30 84 31 24 32 83 33 25 34 26 35
REMARK SMILES IDX 27 36 77 37 28 38 82 39 76 40 78 41 29 42 81 43 75 44 74 45
REMARK SMILES IDX 30 47 62 48 42 49 61 50 43 51 46 52 60 53 79 54 44 55 45 56
REMARK SMILES IDX 59 58 80 59 47 60 31 61 32 62 40 63 33 64 35 65 41 66 34 67
REMARK SMILES IDX 36 68 37 69 38 70 39 71 63 72 64 73 72 74 65 75 67 76 73 77
REMARK SMILES IDX 66 78 68 79 69 80 70 81 71 82 48 83 49 84 57 85 50 86 52 87
REMARK SMILES IDX 58 88 51 89 53 90 54 91 55 92 56 93
REMARK H PARENT 12 8 19 27 78 46 46 57
REMARK Flexibility Score: inf
ROOT
ATOM      1  C   UNL A   1      35.695  22.111  24.546  1.00  0.00     0.002 C 
ENDROOT
BRANCH   1   2
ATOM      2  C   UNL A   1      34.511  21.130  24.575  1.00  0.00     0.002 C 
BRANCH   2   3
ATOM      3  C   UNL A   1      33.208  21.693  23.990  1.00  0.00     0.021 C 
BRANCH   3   4
ATOM      4  C   UNL A   1      31.973  21.190  24.738  1.00  0.00     0.116 C 
BRANCH   4   5
ATOM      5  N   UNL A   1      32.026  21.626  26.119  1.00  0.00    -0.352 N 
ATOM      6  C   UNL A   1      32.222  22.844  26.713  1.00  0.00     0.252 C 
ATOM      7  O   UNL A   1      32.230  22.883  27.944  1.00  0.00    -0.269 OA
ATOM      8  H   UNL A   1      31.896  20.894  26.764  1.00  0.00     0.163 HD
BRANCH   6   9
ATOM      9  C   UNL A   1      32.332  24.113  25.957  1.00  0.00     0.058 A 
ATOM     10  C   UNL A   1      31.468  26.006  24.707  1.00  0.00     0.001 A 
ATOM     11  C   UNL A   1      32.707  26.614  24.880  1.00  0.00     0.119 A 
ATOM     12  C   UNL A   1      31.330  24.697  25.190  1.00  0.00     0.025 A 
ATOM     13  N   UNL A   1      33.753  26.039  25.519  1.00  0.00    -0.263 NA
ATOM     14  C   UNL A   1      33.531  24.810  26.057  1.00  0.00     0.124 A 
BRANCH  10  15
ATOM     15  C   UNL A   1      30.312  26.703  24.141  1.00  0.00    -0.016 A 
ATOM     16  C   UNL A   1      29.611  29.961  22.247  1.00  0.00     0.047 C 
ATOM     17  C   UNL A   1      29.416  28.654  22.954  1.00  0.00    -0.015 A 
ATOM     18  C   UNL A   1      30.501  27.924  23.457  1.00  0.00     0.015 A 
ATOM     19  C   UNL A   1      28.132  28.141  23.135  1.00  0.00     0.126 A 
ATOM     20  C   UNL A   1      27.922  26.936  23.798  1.00  0.00     0.040 A 
ATOM     21  F   UNL A   1      27.074  28.818  22.668  1.00  0.00    -0.207 F 
ATOM     22  C   UNL A   1      29.010  26.216  24.299  1.00  0.00     0.012 A 
ENDBRANCH  10  15
ENDBRANCH   6   9
ENDBRANCH   4   5
ENDBRANCH   3   4
ENDBRANCH   2   3
ENDBRANCH   1   2
BRANCH   1  23
ATOM     23  C   UNL A   1      36.187  22.568  25.926  1.00  0.00     0.021 C 
BRANCH  23  24
ATOM     24  C   UNL A   1      37.478  23.347  25.814  1.00  0.00     0.116 C 
BRANCH  24  25
ATOM     25  N   UNL A   1      38.593  22.545  26.306  1.00  0.00    -0.352 N 
ATOM     26  C   UNL A   1      39.839  22.990  26.684  1.00  0.00     0.251 C 
ATOM     27  H   UNL A   1      38.435  21.576  26.376  1.00  0.00     0.163 HD
ATOM     28  O   UNL A   1      40.823  22.274  26.601  1.00  0.00    -0.269 OA
BRANCH  26  29
ATOM     29  C   UNL A   1      39.935  24.368  27.182  1.00  0.00     0.039 A 
ATOM     30  C   UNL A   1      40.552  25.374  26.429  1.00  0.00     0.014 A 
ATOM     31  C   UNL A   1      39.432  24.619  28.456  1.00  0.00     0.014 A 
ATOM     32  C   UNL A   1      40.657  26.648  26.973  1.00  0.00     0.010 A 
ATOM     33  C   UNL A   1      39.355  25.895  28.906  1.00  0.00     0.010 A 
ATOM     34  C   UNL A   1      40.063  26.876  28.213  1.00  0.00    -0.014 A 
BRANCH  34  35
ATOM     35  C   UNL A   1      40.214  28.072  29.006  1.00  0.00     0.031 A 
ATOM     36  C   UNL A   1      39.258  29.163  28.838  1.00  0.00     0.074 A 
ATOM     37  C   UNL A   1      41.094  27.933  30.023  1.00  0.00     0.049 A 
ATOM     38  N   UNL A   1      39.508  30.389  29.115  1.00  0.00    -0.248 NA
ATOM     39  C   UNL A   1      37.918  28.967  28.278  1.00  0.00     0.031 C 
ATOM     40  C   UNL A   1      41.235  28.668  31.264  1.00  0.00     0.029 A 
ATOM     41  N   UNL A   1      42.154  27.032  30.059  1.00  0.00    -0.354 N 
ATOM     42  C   UNL A   1      38.286  31.019  29.203  1.00  0.00     0.074 A 
ATOM     43  C   UNL A   1      37.366  30.170  28.486  1.00  0.00     0.031 C 
ATOM     44  C   UNL A   1      42.444  28.397  31.796  1.00  0.00     0.029 A 
ATOM     45  C   UNL A   1      43.173  27.571  30.839  1.00  0.00     0.049 A 
ATOM     46  H   UNL A   1      42.180  26.157  29.608  1.00  0.00     0.167 HD
ATOM     47  C   UNL A   1      38.150  32.052  30.083  1.00  0.00     0.034 A 
ATOM     48  C   UNL A   1      44.335  27.927  30.207  1.00  0.00     0.034 A 
ATOM     49  C   UNL A   1      39.400  32.238  30.815  1.00  0.00     0.049 A 
ATOM     50  C   UNL A   1      44.443  29.430  30.155  1.00  0.00     0.074 A 
ATOM     51  C   UNL A   1      39.798  31.818  32.074  1.00  0.00     0.029 A 
ATOM     52  N   UNL A   1      40.557  32.573  30.126  1.00  0.00    -0.354 N 
ATOM     53  N   UNL A   1      43.419  30.237  30.061  1.00  0.00    -0.248 NA
ATOM     54  C   UNL A   1      45.710  30.130  30.320  1.00  0.00     0.031 C 
ATOM     55  C   UNL A   1      41.214  31.853  32.118  1.00  0.00     0.029 A 
ATOM     56  C   UNL A   1      41.672  32.282  30.883  1.00  0.00     0.049 A 
ATOM     57  H   UNL A   1      40.579  32.964  29.223  1.00  0.00     0.167 HD
ATOM     58  C   UNL A   1      43.851  31.523  30.261  1.00  0.00     0.074 A 
ATOM     59  C   UNL A   1      45.293  31.406  30.384  1.00  0.00     0.031 C 
ATOM     60  C   UNL A   1      43.003  32.587  30.384  1.00  0.00     0.034 A 
BRANCH  47  61
ATOM     61  C   UNL A   1      36.836  32.661  30.519  1.00  0.00     0.023 A 
ATOM     62  C   UNL A   1      36.386  32.640  31.856  1.00  0.00     0.012 A 
ATOM     63  C   UNL A   1      35.971  33.277  29.584  1.00  0.00     0.148 A 
ATOM     64  C   UNL A   1      35.195  33.266  32.256  1.00  0.00     0.002 A 
ATOM     65  C   UNL A   1      34.777  33.881  29.979  1.00  0.00     0.091 A 
ATOM     66  F   UNL A   1      36.279  33.293  28.282  1.00  0.00    -0.205 F 
ATOM     67  C   UNL A   1      34.388  33.892  31.316  1.00  0.00     0.022 A 
BRANCH  65  68
ATOM     68  S   UNL A   1      33.739  34.639  28.725  1.00  0.00     0.127 S 
ATOM     69  O   UNL A   1      32.581  35.088  29.492  1.00  0.00    -0.237 OA
ATOM     70  O   UNL A   1      34.600  35.674  28.162  1.00  0.00    -0.237 OA
ATOM     71  O   UNL A   1      33.459  33.531  27.809  1.00  0.00    -0.744 OA
ENDBRANCH  65  68
ENDBRANCH  47  61
BRANCH  48  72
ATOM     72  C   UNL A   1      44.682  26.968  29.099  1.00  0.00     0.023 A 
ATOM     73  C   UNL A   1      45.598  25.921  29.308  1.00  0.00     0.012 A 
ATOM     74  C   UNL A   1      44.494  27.439  27.778  1.00  0.00     0.148 A 
ATOM     75  C   UNL A   1      46.399  25.459  28.249  1.00  0.00     0.002 A 
ATOM     76  C   UNL A   1      45.339  27.023  26.750  1.00  0.00     0.091 A 
ATOM     77  F   UNL A   1      43.581  28.402  27.565  1.00  0.00    -0.205 F 
ATOM     78  C   UNL A   1      46.308  26.044  26.983  1.00  0.00     0.022 A 
BRANCH  76  79
ATOM     79  S   UNL A   1      45.337  27.946  25.204  1.00  0.00     0.127 S 
ATOM     80  O   UNL A   1      46.255  27.180  24.367  1.00  0.00    -0.237 OA
ATOM     81  O   UNL A   1      43.930  27.933  24.810  1.00  0.00    -0.237 OA
ATOM     82  O   UNL A   1      45.826  29.271  25.587  1.00  0.00    -0.744 OA
ENDBRANCH  76  79
ENDBRANCH  48  72
BRANCH  60  83
ATOM     83  C   UNL A   1      43.363  34.042  30.205  1.00  0.00     0.023 A 
ATOM     84  C   UNL A   1      43.556  34.844  31.364  1.00  0.00     0.012 A 
ATOM     85  C   UNL A   1      43.405  34.709  28.978  1.00  0.00     0.148 A 
ATOM     86  C   UNL A   1      43.761  36.221  31.304  1.00  0.00     0.002 A 
ATOM     87  C   UNL A   1      43.752  36.056  28.915  1.00  0.00     0.091 A 
ATOM     88  F   UNL A   1      43.054  34.085  27.848  1.00  0.00    -0.205 F 
ATOM     89  C   UNL A   1      43.892  36.830  30.069  1.00  0.00     0.022 A 
BRANCH  87  90
ATOM     90  S   UNL A   1      44.178  36.733  27.314  1.00  0.00     0.127 S 
ATOM     91  O   UNL A   1      45.330  35.920  26.928  1.00  0.00    -0.237 OA
ATOM     92  O   UNL A   1      42.962  36.548  26.529  1.00  0.00    -0.237 OA
ATOM     93  O   UNL A   1      44.498  38.130  27.612  1.00  0.00    -0.744 OA
ENDBRANCH  87  90
ENDBRANCH  60  83
ENDBRANCH  34  35
ENDBRANCH  26  29
ENDBRANCH  24  25
ENDBRANCH  23  24
ENDBRANCH   1  23
TORSDOF 17
ENDMDL
