MODEL 1
REMARK VINA RESULT:     -12.5      0.000      0.000
REMARK SMILES O=C(NCCCCCCNC(=O)[C@@H](Cc1ccccc1)/N=C1\C(=O)c2ccccc2C(=O)[C@H]1Cl)c1ccc(-c2c3nc(c(-c4cccc(S(=O)(=O)[O-])c4F)c4ccc([nH]4)c(-c4cccc(S(=O)(=O)[O-])c4F)c4nc(c(-c5cccc(S(=O)(=O)[O-])c5F)c5ccc2[nH]5)C=C4)C=C3)cc1
REMARK SMILES IDX 6 1 5 2 4 3 3 4 1 5 2 6 35 8 36 9 97 10 37 11 96 12 38 13
REMARK SMILES IDX 39 14 40 15 90 16 41 17 95 18 89 19 91 20 42 21 94 22 88 23
REMARK SMILES IDX 87 24 43 26 75 27 55 28 74 29 56 30 59 31 73 32 92 33 57 34
REMARK SMILES IDX 58 35 72 37 93 38 60 39 44 40 45 41 53 42 46 43 48 44 54 45
REMARK SMILES IDX 47 46 49 47 50 48 51 49 52 50 76 51 77 52 85 53 78 54 80 55
REMARK SMILES IDX 86 56 79 57 81 58 82 59 83 60 84 61 61 62 62 63 70 64 63 65
REMARK SMILES IDX 65 66 71 67 64 68 66 69 67 70 68 71 69 72 7 73 8 74 9 75
REMARK SMILES IDX 10 76 11 77 12 79 13 80 14 81 15 82 16 83 20 84 17 85 19 86
REMARK SMILES IDX 18 87 21 88 22 89 23 90 33 91 24 92 25 93 31 94 34 95 26 96
REMARK SMILES IDX 30 97 32 98 27 99 29 100 28 101
REMARK H PARENT 3 7 91 25 59 36 10 78
REMARK Flexibility Score: inf
ROOT
ATOM      1  C   UNL A   1      35.751  21.555  26.358  1.00  0.00     0.002 C 
ENDROOT
BRANCH   1   2
ATOM      2  C   UNL A   1      36.057  20.660  25.151  1.00  0.00     0.021 C 
BRANCH   2   3
ATOM      3  C   UNL A   1      37.466  20.751  24.574  1.00  0.00     0.116 C 
BRANCH   3   4
ATOM      4  N   UNL A   1      38.381  19.842  25.241  1.00  0.00    -0.352 N 
ATOM      5  O   UNL A   1      40.276  19.079  26.128  1.00  0.00    -0.269 OA
ATOM      6  C   UNL A   1      39.546  20.052  25.936  1.00  0.00     0.251 C 
ATOM      7  H   UNL A   1      38.116  18.895  25.184  1.00  0.00     0.163 HD
BRANCH   6   8
ATOM      8  C   UNL A   1      39.955  21.382  26.466  1.00  0.00     0.039 A 
ATOM      9  C   UNL A   1      40.971  21.543  27.412  1.00  0.00     0.014 A 
ATOM     10  C   UNL A   1      39.401  22.526  25.870  1.00  0.00     0.014 A 
ATOM     11  C   UNL A   1      41.375  22.824  27.809  1.00  0.00     0.010 A 
ATOM     12  C   UNL A   1      39.855  23.806  26.215  1.00  0.00     0.010 A 
ATOM     13  C   UNL A   1      40.846  23.969  27.192  1.00  0.00    -0.014 A 
BRANCH  13  14
ATOM     14  C   UNL A   1      41.427  25.313  27.470  1.00  0.00     0.031 A 
ATOM     15  C   UNL A   1      42.839  25.657  27.086  1.00  0.00     0.074 A 
ATOM     16  C   UNL A   1      40.686  26.216  28.144  1.00  0.00     0.049 A 
ATOM     17  N   UNL A   1      43.490  26.778  27.270  1.00  0.00    -0.248 NA
ATOM     18  C   UNL A   1      43.629  24.607  26.425  1.00  0.00     0.031 C 
ATOM     19  C   UNL A   1      39.332  25.979  28.652  1.00  0.00     0.029 A 
ATOM     20  N   UNL A   1      40.970  27.499  28.545  1.00  0.00    -0.354 N 
ATOM     21  C   UNL A   1      44.773  26.561  26.783  1.00  0.00     0.074 A 
ATOM     22  C   UNL A   1      44.812  25.195  26.301  1.00  0.00     0.031 C 
ATOM     23  C   UNL A   1      38.905  27.074  29.296  1.00  0.00     0.029 A 
ATOM     24  C   UNL A   1      39.962  28.082  29.278  1.00  0.00     0.049 A 
ATOM     25  H   UNL A   1      41.814  27.957  28.328  1.00  0.00     0.167 HD
ATOM     26  C   UNL A   1      45.817  27.423  26.721  1.00  0.00     0.034 A 
ATOM     27  C   UNL A   1      39.891  29.283  29.884  1.00  0.00     0.034 A 
ATOM     28  C   UNL A   1      45.768  28.792  27.164  1.00  0.00     0.049 A 
ATOM     29  C   UNL A   1      41.042  30.240  29.759  1.00  0.00     0.074 A 
ATOM     30  C   UNL A   1      46.742  29.769  27.044  1.00  0.00     0.029 A 
ATOM     31  N   UNL A   1      44.698  29.377  27.821  1.00  0.00    -0.354 N 
ATOM     32  N   UNL A   1      42.180  30.076  29.129  1.00  0.00    -0.248 NA
ATOM     33  C   UNL A   1      40.891  31.556  30.397  1.00  0.00     0.031 C 
ATOM     34  C   UNL A   1      46.264  30.941  27.642  1.00  0.00     0.029 A 
ATOM     35  C   UNL A   1      44.990  30.696  28.126  1.00  0.00     0.049 A 
ATOM     36  H   UNL A   1      43.852  28.922  28.040  1.00  0.00     0.167 HD
ATOM     37  C   UNL A   1      42.873  31.272  29.278  1.00  0.00     0.074 A 
ATOM     38  C   UNL A   1      42.017  32.160  30.037  1.00  0.00     0.031 C 
ATOM     39  C   UNL A   1      44.116  31.592  28.839  1.00  0.00     0.034 A 
BRANCH  26  40
ATOM     40  C   UNL A   1      47.093  26.929  26.096  1.00  0.00     0.023 A 
ATOM     41  C   UNL A   1      47.290  27.093  24.711  1.00  0.00     0.012 A 
ATOM     42  C   UNL A   1      48.119  26.361  26.877  1.00  0.00     0.148 A 
ATOM     43  C   UNL A   1      48.475  26.675  24.106  1.00  0.00     0.002 A 
ATOM     44  C   UNL A   1      49.311  25.976  26.271  1.00  0.00     0.091 A 
ATOM     45  F   UNL A   1      47.907  26.187  28.189  1.00  0.00    -0.205 F 
ATOM     46  C   UNL A   1      49.488  26.125  24.887  1.00  0.00     0.022 A 
BRANCH  44  47
ATOM     47  S   UNL A   1      50.685  25.316  27.223  1.00  0.00     0.127 S 
ATOM     48  O   UNL A   1      50.071  24.156  27.865  1.00  0.00    -0.237 OA
ATOM     49  O   UNL A   1      51.664  24.989  26.184  1.00  0.00    -0.237 OA
ATOM     50  O   UNL A   1      51.094  26.396  28.110  1.00  0.00    -0.744 OA
ENDBRANCH  44  47
ENDBRANCH  26  40
BRANCH  27  51
ATOM     51  C   UNL A   1      38.647  29.652  30.615  1.00  0.00     0.023 A 
ATOM     52  C   UNL A   1      38.472  29.224  31.945  1.00  0.00     0.012 A 
ATOM     53  C   UNL A   1      37.687  30.505  30.034  1.00  0.00     0.148 A 
ATOM     54  C   UNL A   1      37.360  29.633  32.680  1.00  0.00     0.002 A 
ATOM     55  C   UNL A   1      36.611  30.953  30.791  1.00  0.00     0.091 A 
ATOM     56  F   UNL A   1      37.865  30.885  28.760  1.00  0.00    -0.205 F 
ATOM     57  C   UNL A   1      36.439  30.509  32.110  1.00  0.00     0.022 A 
BRANCH  55  58
ATOM     58  S   UNL A   1      35.467  32.200  30.185  1.00  0.00     0.127 S 
ATOM     59  O   UNL A   1      34.914  31.548  29.001  1.00  0.00    -0.237 OA
ATOM     60  O   UNL A   1      34.539  32.331  31.308  1.00  0.00    -0.237 OA
ATOM     61  O   UNL A   1      36.278  33.385  29.939  1.00  0.00    -0.744 OA
ENDBRANCH  55  58
ENDBRANCH  27  51
BRANCH  39  62
ATOM     62  C   UNL A   1      44.638  32.966  29.160  1.00  0.00     0.023 A 
ATOM     63  C   UNL A   1      45.322  33.180  30.374  1.00  0.00     0.012 A 
ATOM     64  C   UNL A   1      44.536  34.018  28.228  1.00  0.00     0.148 A 
ATOM     65  C   UNL A   1      45.883  34.423  30.661  1.00  0.00     0.002 A 
ATOM     66  C   UNL A   1      45.130  35.244  28.506  1.00  0.00     0.091 A 
ATOM     67  F   UNL A   1      43.862  33.800  27.090  1.00  0.00    -0.205 F 
ATOM     68  C   UNL A   1      45.799  35.450  29.724  1.00  0.00     0.022 A 
BRANCH  66  69
ATOM     69  S   UNL A   1      45.143  36.596  27.323  1.00  0.00     0.127 S 
ATOM     70  O   UNL A   1      45.974  36.050  26.253  1.00  0.00    -0.237 OA
ATOM     71  O   UNL A   1      43.725  36.731  26.987  1.00  0.00    -0.237 OA
ATOM     72  O   UNL A   1      45.703  37.740  28.030  1.00  0.00    -0.744 OA
ENDBRANCH  66  69
ENDBRANCH  39  62
ENDBRANCH  13  14
ENDBRANCH   6   8
ENDBRANCH   3   4
ENDBRANCH   2   3
ENDBRANCH   1   2
BRANCH   1  73
ATOM     73  C   UNL A   1      34.963  22.836  26.060  1.00  0.00     0.002 C 
BRANCH  73  74
ATOM     74  C   UNL A   1      35.779  24.037  25.556  1.00  0.00     0.021 C 
BRANCH  74  75
ATOM     75  C   UNL A   1      36.058  24.033  24.054  1.00  0.00     0.116 C 
BRANCH  75  76
ATOM     76  N   UNL A   1      35.005  23.405  23.250  1.00  0.00    -0.354 N 
ATOM     77  C   UNL A   1      33.777  23.872  22.880  1.00  0.00     0.245 C 
ATOM     78  H   UNL A   1      35.218  22.501  22.926  1.00  0.00     0.163 HD
ATOM     79  O   UNL A   1      33.607  23.909  21.649  1.00  0.00    -0.273 OA
BRANCH  77  80
ATOM     80  C   UNL A   1      32.560  24.112  23.815  1.00  0.00     0.199 C 
BRANCH  80  81
ATOM     81  C   UNL A   1      31.529  23.015  24.146  1.00  0.00     0.073 C 
BRANCH  81  82
ATOM     82  C   UNL A   1      31.931  21.563  24.158  1.00  0.00    -0.045 A 
ATOM     83  C   UNL A   1      32.083  20.831  22.972  1.00  0.00     0.004 A 
ATOM     84  C   UNL A   1      32.242  20.940  25.373  1.00  0.00     0.004 A 
ATOM     85  C   UNL A   1      32.421  19.477  23.011  1.00  0.00     0.000 A 
ATOM     86  C   UNL A   1      32.586  19.589  25.414  1.00  0.00     0.000 A 
ATOM     87  C   UNL A   1      32.655  18.853  24.235  1.00  0.00     0.000 A 
ENDBRANCH  81  82
ENDBRANCH  80  81
BRANCH  80  88
ATOM     88  N   UNL A   1      32.577  25.295  24.705  1.00  0.00    -0.270 NA
ATOM     89  C   UNL A   1      31.893  26.379  24.620  1.00  0.00     0.109 C 
ATOM     90  C   UNL A   1      30.814  26.672  23.623  1.00  0.00     0.209 C 
ATOM     91  C   UNL A   1      32.197  27.513  25.565  1.00  0.00     0.205 C 
ATOM     92  O   UNL A   1      30.569  25.882  22.735  1.00  0.00    -0.287 OA
ATOM     93  C   UNL A   1      30.122  27.964  23.648  1.00  0.00     0.035 A 
ATOM     94  C   UNL A   1      32.006  28.880  24.947  1.00  0.00     0.187 C 
ATOM     95  Cl  UNL A   1      31.113  27.371  26.976  1.00  0.00    -0.107 Cl
ATOM     96  C   UNL A   1      28.871  28.092  23.043  1.00  0.00     0.013 A 
ATOM     97  C   UNL A   1      30.774  29.078  24.159  1.00  0.00     0.031 A 
ATOM     98  O   UNL A   1      32.790  29.808  25.113  1.00  0.00    -0.292 OA
ATOM     99  C   UNL A   1      28.315  29.355  22.861  1.00  0.00     0.001 A 
ATOM    100  C   UNL A   1      30.236  30.351  23.951  1.00  0.00     0.012 A 
ATOM    101  C   UNL A   1      29.012  30.486  23.288  1.00  0.00     0.001 A 
ENDBRANCH  80  88
ENDBRANCH  77  80
ENDBRANCH  75  76
ENDBRANCH  74  75
ENDBRANCH  73  74
ENDBRANCH   1  73
TORSDOF 19
ENDMDL
MODEL 2
REMARK VINA RESULT:     -11.7      5.810      9.582
REMARK SMILES O=C(NCCCCCCNC(=O)[C@@H](Cc1ccccc1)/N=C1\C(=O)c2ccccc2C(=O)[C@H]1Cl)c1ccc(-c2c3nc(c(-c4cccc(S(=O)(=O)[O-])c4F)c4ccc([nH]4)c(-c4cccc(S(=O)(=O)[O-])c4F)c4nc(c(-c5cccc(S(=O)(=O)[O-])c5F)c5ccc2[nH]5)C=C4)C=C3)cc1
REMARK SMILES IDX 6 1 5 2 4 3 3 4 1 5 2 6 35 8 36 9 97 10 37 11 96 12 38 13
REMARK SMILES IDX 39 14 40 15 90 16 41 17 95 18 89 19 91 20 42 21 94 22 88 23
REMARK SMILES IDX 87 24 43 26 75 27 55 28 74 29 56 30 59 31 73 32 92 33 57 34
REMARK SMILES IDX 58 35 72 37 93 38 60 39 44 40 45 41 53 42 46 43 48 44 54 45
REMARK SMILES IDX 47 46 49 47 50 48 51 49 52 50 76 51 77 52 85 53 78 54 80 55
REMARK SMILES IDX 86 56 79 57 81 58 82 59 83 60 84 61 61 62 62 63 70 64 63 65
REMARK SMILES IDX 65 66 71 67 64 68 66 69 67 70 68 71 69 72 7 73 8 74 9 75
REMARK SMILES IDX 10 76 11 77 12 79 13 80 14 81 15 82 16 83 20 84 17 85 19 86
REMARK SMILES IDX 18 87 21 88 22 89 23 90 33 91 24 92 25 93 31 94 34 95 26 96
REMARK SMILES IDX 30 97 32 98 27 99 29 100 28 101
REMARK H PARENT 3 7 91 25 59 36 10 78
REMARK Flexibility Score: inf
ROOT
ATOM      1  C   UNL A   1      34.721  31.433  28.488  1.00  0.00     0.002 C 
ENDROOT
BRANCH   1   2
ATOM      2  C   UNL A   1      33.355  32.070  28.203  1.00  0.00     0.021 C 
BRANCH   2   3
ATOM      3  C   UNL A   1      33.343  33.263  27.253  1.00  0.00     0.116 C 
BRANCH   3   4
ATOM      4  N   UNL A   1      32.933  34.483  27.926  1.00  0.00    -0.352 N 
ATOM      5  O   UNL A   1      32.503  35.893  29.595  1.00  0.00    -0.269 OA
ATOM      6  C   UNL A   1      33.231  34.999  29.162  1.00  0.00     0.251 C 
ATOM      7  H   UNL A   1      32.325  35.047  27.394  1.00  0.00     0.163 HD
BRANCH   6   8
ATOM      8  C   UNL A   1      34.380  34.537  29.988  1.00  0.00     0.039 A 
ATOM      9  C   UNL A   1      34.222  33.832  31.183  1.00  0.00     0.014 A 
ATOM     10  C   UNL A   1      35.671  34.682  29.457  1.00  0.00     0.014 A 
ATOM     11  C   UNL A   1      35.339  33.344  31.874  1.00  0.00     0.010 A 
ATOM     12  C   UNL A   1      36.782  34.133  30.110  1.00  0.00     0.010 A 
ATOM     13  C   UNL A   1      36.628  33.460  31.329  1.00  0.00    -0.014 A 
BRANCH  13  14
ATOM     14  C   UNL A   1      37.781  32.760  31.963  1.00  0.00     0.031 A 
ATOM     15  C   UNL A   1      38.443  31.579  31.310  1.00  0.00     0.074 A 
ATOM     16  C   UNL A   1      38.191  33.157  33.185  1.00  0.00     0.049 A 
ATOM     17  N   UNL A   1      39.448  30.859  31.741  1.00  0.00    -0.248 NA
ATOM     18  C   UNL A   1      37.902  31.139  30.015  1.00  0.00     0.031 C 
ATOM     19  C   UNL A   1      37.578  34.232  33.968  1.00  0.00     0.029 A 
ATOM     20  N   UNL A   1      39.197  32.690  33.996  1.00  0.00    -0.354 N 
ATOM     21  C   UNL A   1      39.639  29.861  30.794  1.00  0.00     0.074 A 
ATOM     22  C   UNL A   1      38.639  30.063  29.766  1.00  0.00     0.031 C 
ATOM     23  C   UNL A   1      38.216  34.342  35.142  1.00  0.00     0.029 A 
ATOM     24  C   UNL A   1      39.262  33.326  35.214  1.00  0.00     0.049 A 
ATOM     25  H   UNL A   1      39.812  31.968  33.731  1.00  0.00     0.167 HD
ATOM     26  C   UNL A   1      40.573  28.879  30.770  1.00  0.00     0.034 A 
ATOM     27  C   UNL A   1      40.057  33.113  36.281  1.00  0.00     0.034 A 
ATOM     28  C   UNL A   1      41.592  28.700  31.770  1.00  0.00     0.049 A 
ATOM     29  C   UNL A   1      41.118  32.052  36.210  1.00  0.00     0.074 A 
ATOM     30  C   UNL A   1      42.644  27.799  31.775  1.00  0.00     0.029 A 
ATOM     31  N   UNL A   1      41.683  29.422  32.950  1.00  0.00    -0.354 N 
ATOM     32  N   UNL A   1      41.399  31.239  35.220  1.00  0.00    -0.248 NA
ATOM     33  C   UNL A   1      41.991  31.898  37.382  1.00  0.00     0.031 C 
ATOM     34  C   UNL A   1      43.363  27.969  32.964  1.00  0.00     0.029 A 
ATOM     35  C   UNL A   1      42.763  28.981  33.696  1.00  0.00     0.049 A 
ATOM     36  H   UNL A   1      41.069  30.144  33.218  1.00  0.00     0.167 HD
ATOM     37  C   UNL A   1      42.490  30.489  35.642  1.00  0.00     0.074 A 
ATOM     38  C   UNL A   1      42.836  30.962  36.967  1.00  0.00     0.031 C 
ATOM     39  C   UNL A   1      43.133  29.487  34.993  1.00  0.00     0.034 A 
BRANCH  26  40
ATOM     40  C   UNL A   1      40.576  27.950  29.586  1.00  0.00     0.023 A 
ATOM     41  C   UNL A   1      39.683  26.860  29.564  1.00  0.00     0.012 A 
ATOM     42  C   UNL A   1      41.410  28.182  28.475  1.00  0.00     0.148 A 
ATOM     43  C   UNL A   1      39.638  25.999  28.467  1.00  0.00     0.002 A 
ATOM     44  C   UNL A   1      41.337  27.337  27.372  1.00  0.00     0.091 A 
ATOM     45  F   UNL A   1      42.273  29.207  28.521  1.00  0.00    -0.205 F 
ATOM     46  C   UNL A   1      40.458  26.243  27.369  1.00  0.00     0.022 A 
BRANCH  44  47
ATOM     47  S   UNL A   1      42.319  27.625  25.894  1.00  0.00     0.127 S 
ATOM     48  O   UNL A   1      43.679  27.500  26.413  1.00  0.00    -0.237 OA
ATOM     49  O   UNL A   1      41.901  26.530  25.016  1.00  0.00    -0.237 OA
ATOM     50  O   UNL A   1      41.931  28.948  25.425  1.00  0.00    -0.744 OA
ENDBRANCH  44  47
ENDBRANCH  26  40
BRANCH  27  51
ATOM     51  C   UNL A   1      39.901  33.978  37.484  1.00  0.00     0.023 A 
ATOM     52  C   UNL A   1      40.393  35.297  37.456  1.00  0.00     0.012 A 
ATOM     53  C   UNL A   1      39.183  33.534  38.612  1.00  0.00     0.148 A 
ATOM     54  C   UNL A   1      40.178  36.156  38.534  1.00  0.00     0.002 A 
ATOM     55  C   UNL A   1      38.925  34.412  39.657  1.00  0.00     0.091 A 
ATOM     56  F   UNL A   1      38.741  32.268  38.625  1.00  0.00    -0.205 F 
ATOM     57  C   UNL A   1      39.431  35.720  39.626  1.00  0.00     0.022 A 
BRANCH  55  58
ATOM     58  S   UNL A   1      37.845  33.980  41.027  1.00  0.00     0.127 S 
ATOM     59  O   UNL A   1      36.733  33.330  40.337  1.00  0.00    -0.237 OA
ATOM     60  O   UNL A   1      38.693  33.083  41.813  1.00  0.00    -0.237 OA
ATOM     61  O   UNL A   1      37.533  35.239  41.690  1.00  0.00    -0.744 OA
ENDBRANCH  55  58
ENDBRANCH  27  51
BRANCH  39  62
ATOM     62  C   UNL A   1      44.286  28.825  35.697  1.00  0.00     0.023 A 
ATOM     63  C   UNL A   1      45.589  29.331  35.515  1.00  0.00     0.012 A 
ATOM     64  C   UNL A   1      44.073  27.769  36.604  1.00  0.00     0.148 A 
ATOM     65  C   UNL A   1      46.664  28.786  36.215  1.00  0.00     0.002 A 
ATOM     66  C   UNL A   1      45.145  27.255  37.326  1.00  0.00     0.091 A 
ATOM     67  F   UNL A   1      42.830  27.288  36.745  1.00  0.00    -0.205 F 
ATOM     68  C   UNL A   1      46.442  27.758  37.128  1.00  0.00     0.022 A 
BRANCH  66  69
ATOM     69  S   UNL A   1      44.939  25.988  38.583  1.00  0.00     0.127 S 
ATOM     70  O   UNL A   1      46.308  25.818  39.064  1.00  0.00    -0.237 OA
ATOM     71  O   UNL A   1      44.033  26.634  39.533  1.00  0.00    -0.237 OA
ATOM     72  O   UNL A   1      44.367  24.835  37.898  1.00  0.00    -0.744 OA
ENDBRANCH  66  69
ENDBRANCH  39  62
ENDBRANCH  13  14
ENDBRANCH   6   8
ENDBRANCH   3   4
ENDBRANCH   2   3
ENDBRANCH   1   2
BRANCH   1  73
ATOM     73  C   UNL A   1      35.210  30.407  27.460  1.00  0.00     0.002 C 
BRANCH  73  74
ATOM     74  C   UNL A   1      34.391  29.111  27.348  1.00  0.00     0.021 C 
BRANCH  74  75
ATOM     75  C   UNL A   1      33.805  28.844  25.963  1.00  0.00     0.116 C 
BRANCH  75  76
ATOM     76  N   UNL A   1      32.579  28.041  25.975  1.00  0.00    -0.354 N 
ATOM     77  C   UNL A   1      32.403  26.692  25.864  1.00  0.00     0.245 C 
ATOM     78  H   UNL A   1      31.748  28.558  26.077  1.00  0.00     0.163 HD
ATOM     79  O   UNL A   1      31.811  26.185  26.832  1.00  0.00    -0.273 OA
BRANCH  77  80
ATOM     80  C   UNL A   1      32.648  25.829  24.596  1.00  0.00     0.199 C 
BRANCH  80  81
ATOM     81  C   UNL A   1      31.868  26.032  23.282  1.00  0.00     0.073 C 
BRANCH  81  82
ATOM     82  C   UNL A   1      30.528  26.721  23.285  1.00  0.00    -0.045 A 
ATOM     83  C   UNL A   1      29.398  26.132  23.870  1.00  0.00     0.004 A 
ATOM     84  C   UNL A   1      30.413  28.016  22.765  1.00  0.00     0.004 A 
ATOM     85  C   UNL A   1      28.159  26.774  23.826  1.00  0.00     0.000 A 
ATOM     86  C   UNL A   1      29.178  28.662  22.726  1.00  0.00     0.000 A 
ATOM     87  C   UNL A   1      28.048  28.032  23.239  1.00  0.00     0.000 A 
ENDBRANCH  81  82
ENDBRANCH  80  81
BRANCH  80  88
ATOM     88  N   UNL A   1      33.899  25.043  24.508  1.00  0.00    -0.270 NA
ATOM     89  C   UNL A   1      34.048  23.771  24.409  1.00  0.00     0.109 C 
ATOM     90  C   UNL A   1      32.954  22.758  24.260  1.00  0.00     0.209 C 
ATOM     91  C   UNL A   1      35.436  23.187  24.490  1.00  0.00     0.205 C 
ATOM     92  O   UNL A   1      31.792  23.100  24.308  1.00  0.00    -0.287 OA
ATOM     93  C   UNL A   1      33.282  21.333  24.163  1.00  0.00     0.035 A 
ATOM     94  C   UNL A   1      35.480  21.832  25.159  1.00  0.00     0.187 C 
ATOM     95  Cl  UNL A   1      36.070  23.023  22.830  1.00  0.00    -0.107 Cl
ATOM     96  C   UNL A   1      32.359  20.446  23.606  1.00  0.00     0.013 A 
ATOM     97  C   UNL A   1      34.450  20.859  24.743  1.00  0.00     0.031 A 
ATOM     98  O   UNL A   1      36.342  21.510  25.970  1.00  0.00    -0.292 OA
ATOM     99  C   UNL A   1      32.561  19.073  23.719  1.00  0.00     0.001 A 
ATOM    100  C   UNL A   1      34.644  19.483  24.888  1.00  0.00     0.012 A 
ATOM    101  C   UNL A   1      33.688  18.593  24.386  1.00  0.00     0.001 A 
ENDBRANCH  80  88
ENDBRANCH  77  80
ENDBRANCH  75  76
ENDBRANCH  74  75
ENDBRANCH  73  74
ENDBRANCH   1  73
TORSDOF 19
ENDMDL
MODEL 3
REMARK VINA RESULT:     -11.3      5.315      9.074
REMARK SMILES O=C(NCCCCCCNC(=O)[C@@H](Cc1ccccc1)/N=C1\C(=O)c2ccccc2C(=O)[C@H]1Cl)c1ccc(-c2c3nc(c(-c4cccc(S(=O)(=O)[O-])c4F)c4ccc([nH]4)c(-c4cccc(S(=O)(=O)[O-])c4F)c4nc(c(-c5cccc(S(=O)(=O)[O-])c5F)c5ccc2[nH]5)C=C4)C=C3)cc1
REMARK SMILES IDX 6 1 5 2 4 3 3 4 1 5 2 6 35 8 36 9 97 10 37 11 96 12 38 13
REMARK SMILES IDX 39 14 40 15 90 16 41 17 95 18 89 19 91 20 42 21 94 22 88 23
REMARK SMILES IDX 87 24 43 26 75 27 55 28 74 29 56 30 59 31 73 32 92 33 57 34
REMARK SMILES IDX 58 35 72 37 93 38 60 39 44 40 45 41 53 42 46 43 48 44 54 45
REMARK SMILES IDX 47 46 49 47 50 48 51 49 52 50 76 51 77 52 85 53 78 54 80 55
REMARK SMILES IDX 86 56 79 57 81 58 82 59 83 60 84 61 61 62 62 63 70 64 63 65
REMARK SMILES IDX 65 66 71 67 64 68 66 69 67 70 68 71 69 72 7 73 8 74 9 75
REMARK SMILES IDX 10 76 11 77 12 79 13 80 14 81 15 82 16 83 20 84 17 85 19 86
REMARK SMILES IDX 18 87 21 88 22 89 23 90 33 91 24 92 25 93 31 94 34 95 26 96
REMARK SMILES IDX 30 97 32 98 27 99 29 100 28 101
REMARK H PARENT 3 7 91 25 59 36 10 78
REMARK Flexibility Score: inf
ROOT
ATOM      1  C   UNL A   1      34.952  31.086  28.100  1.00  0.00     0.002 C 
ENDROOT
BRANCH   1   2
ATOM      2  C   UNL A   1      33.542  31.690  28.070  1.00  0.00     0.021 C 
BRANCH   2   3
ATOM      3  C   UNL A   1      33.289  32.777  27.031  1.00  0.00     0.116 C 
BRANCH   3   4
ATOM      4  N   UNL A   1      32.887  34.029  27.648  1.00  0.00    -0.352 N 
ATOM      5  O   UNL A   1      32.477  35.519  29.251  1.00  0.00    -0.269 OA
ATOM      6  C   UNL A   1      33.199  34.605  28.854  1.00  0.00     0.251 C 
ATOM      7  H   UNL A   1      32.272  34.567  27.097  1.00  0.00     0.163 HD
BRANCH   6   8
ATOM      8  C   UNL A   1      34.359  34.183  29.687  1.00  0.00     0.039 A 
ATOM      9  C   UNL A   1      34.220  33.447  30.866  1.00  0.00     0.014 A 
ATOM     10  C   UNL A   1      35.648  34.402  29.177  1.00  0.00     0.014 A 
ATOM     11  C   UNL A   1      35.351  33.001  31.563  1.00  0.00     0.010 A 
ATOM     12  C   UNL A   1      36.776  33.894  29.836  1.00  0.00     0.010 A 
ATOM     13  C   UNL A   1      36.640  33.191  31.039  1.00  0.00    -0.014 A 
BRANCH  13  14
ATOM     14  C   UNL A   1      37.817  32.536  31.676  1.00  0.00     0.031 A 
ATOM     15  C   UNL A   1      38.533  31.389  31.019  1.00  0.00     0.074 A 
ATOM     16  C   UNL A   1      38.202  32.941  32.903  1.00  0.00     0.049 A 
ATOM     17  N   UNL A   1      39.564  30.708  31.452  1.00  0.00    -0.248 NA
ATOM     18  C   UNL A   1      38.019  30.935  29.717  1.00  0.00     0.031 C 
ATOM     19  C   UNL A   1      37.540  33.984  33.689  1.00  0.00     0.029 A 
ATOM     20  N   UNL A   1      39.222  32.511  33.717  1.00  0.00    -0.354 N 
ATOM     21  C   UNL A   1      39.803  29.726  30.499  1.00  0.00     0.074 A 
ATOM     22  C   UNL A   1      38.802  29.893  29.466  1.00  0.00     0.031 C 
ATOM     23  C   UNL A   1      38.164  34.112  34.868  1.00  0.00     0.029 A 
ATOM     24  C   UNL A   1      39.252  33.141  34.940  1.00  0.00     0.049 A 
ATOM     25  H   UNL A   1      39.869  31.818  33.451  1.00  0.00     0.167 HD
ATOM     26  C   UNL A   1      40.778  28.785  30.474  1.00  0.00     0.034 A 
ATOM     27  C   UNL A   1      40.049  32.954  36.011  1.00  0.00     0.034 A 
ATOM     28  C   UNL A   1      41.798  28.642  31.480  1.00  0.00     0.049 A 
ATOM     29  C   UNL A   1      41.154  31.939  35.939  1.00  0.00     0.074 A 
ATOM     30  C   UNL A   1      42.887  27.787  31.485  1.00  0.00     0.029 A 
ATOM     31  N   UNL A   1      41.850  29.359  32.665  1.00  0.00    -0.354 N 
ATOM     32  N   UNL A   1      41.475  31.146  34.946  1.00  0.00    -0.248 NA
ATOM     33  C   UNL A   1      42.025  31.814  37.116  1.00  0.00     0.031 C 
ATOM     34  C   UNL A   1      43.590  27.979  32.680  1.00  0.00     0.029 A 
ATOM     35  C   UNL A   1      42.944  28.958  33.415  1.00  0.00     0.049 A 
ATOM     36  H   UNL A   1      41.205  30.052  32.935  1.00  0.00     0.167 HD
ATOM     37  C   UNL A   1      42.595  30.440  35.370  1.00  0.00     0.074 A 
ATOM     38  C   UNL A   1      42.912  30.917  36.700  1.00  0.00     0.031 C 
ATOM     39  C   UNL A   1      43.284  29.471  34.718  1.00  0.00     0.034 A 
BRANCH  26  40
ATOM     40  C   UNL A   1      40.828  27.865  29.284  1.00  0.00     0.023 A 
ATOM     41  C   UNL A   1      40.001  26.724  29.261  1.00  0.00     0.012 A 
ATOM     42  C   UNL A   1      41.638  28.154  28.169  1.00  0.00     0.148 A 
ATOM     43  C   UNL A   1      40.000  25.869  28.159  1.00  0.00     0.002 A 
ATOM     44  C   UNL A   1      41.607  27.313  27.060  1.00  0.00     0.091 A 
ATOM     45  F   UNL A   1      42.438  29.228  28.216  1.00  0.00    -0.205 F 
ATOM     46  C   UNL A   1      40.796  26.168  27.056  1.00  0.00     0.022 A 
BRANCH  44  47
ATOM     47  S   UNL A   1      42.559  27.668  25.578  1.00  0.00     0.127 S 
ATOM     48  O   UNL A   1      43.919  27.736  26.108  1.00  0.00    -0.237 OA
ATOM     49  O   UNL A   1      42.292  26.498  24.739  1.00  0.00    -0.237 OA
ATOM     50  O   UNL A   1      42.013  28.914  25.057  1.00  0.00    -0.744 OA
ENDBRANCH  44  47
ENDBRANCH  26  40
BRANCH  27  51
ATOM     51  C   UNL A   1      39.849  33.804  37.218  1.00  0.00     0.023 A 
ATOM     52  C   UNL A   1      40.296  35.139  37.207  1.00  0.00     0.012 A 
ATOM     53  C   UNL A   1      39.133  33.325  38.334  1.00  0.00     0.148 A 
ATOM     54  C   UNL A   1      40.038  35.981  38.289  1.00  0.00     0.002 A 
ATOM     55  C   UNL A   1      38.833  34.186  39.383  1.00  0.00     0.091 A 
ATOM     56  F   UNL A   1      38.734  32.045  38.331  1.00  0.00    -0.205 F 
ATOM     57  C   UNL A   1      39.294  35.511  39.368  1.00  0.00     0.022 A 
BRANCH  55  58
ATOM     58  S   UNL A   1      37.751  33.705  40.736  1.00  0.00     0.127 S 
ATOM     59  O   UNL A   1      36.587  33.191  40.019  1.00  0.00    -0.237 OA
ATOM     60  O   UNL A   1      38.553  32.690  41.420  1.00  0.00    -0.237 OA
ATOM     61  O   UNL A   1      37.536  34.918  41.512  1.00  0.00    -0.744 OA
ENDBRANCH  55  58
ENDBRANCH  27  51
BRANCH  39  62
ATOM     62  C   UNL A   1      44.459  28.853  35.425  1.00  0.00     0.023 A 
ATOM     63  C   UNL A   1      44.266  27.695  36.206  1.00  0.00     0.012 A 
ATOM     64  C   UNL A   1      45.763  29.356  35.242  1.00  0.00     0.148 A 
ATOM     65  C   UNL A   1      45.350  27.058  36.808  1.00  0.00     0.002 A 
ATOM     66  C   UNL A   1      46.842  28.693  35.816  1.00  0.00     0.091 A 
ATOM     67  F   UNL A   1      45.922  30.470  34.514  1.00  0.00    -0.205 F 
ATOM     68  C   UNL A   1      46.637  27.548  36.604  1.00  0.00     0.022 A 
BRANCH  66  69
ATOM     69  S   UNL A   1      48.542  29.205  35.537  1.00  0.00     0.127 S 
ATOM     70  O   UNL A   1      49.275  27.972  35.818  1.00  0.00    -0.237 OA
ATOM     71  O   UNL A   1      48.524  29.597  34.127  1.00  0.00    -0.237 OA
ATOM     72  O   UNL A   1      48.785  30.303  36.463  1.00  0.00    -0.744 OA
ENDBRANCH  66  69
ENDBRANCH  39  62
ENDBRANCH  13  14
ENDBRANCH   6   8
ENDBRANCH   3   4
ENDBRANCH   2   3
ENDBRANCH   1   2
BRANCH   1  73
ATOM     73  C   UNL A   1      35.275  30.082  26.987  1.00  0.00     0.002 C 
BRANCH  73  74
ATOM     74  C   UNL A   1      34.385  28.830  26.919  1.00  0.00     0.021 C 
BRANCH  74  75
ATOM     75  C   UNL A   1      33.422  28.796  25.734  1.00  0.00     0.116 C 
BRANCH  75  76
ATOM     76  N   UNL A   1      32.025  28.552  26.103  1.00  0.00    -0.354 N 
ATOM     77  C   UNL A   1      31.376  27.386  26.390  1.00  0.00     0.245 C 
ATOM     78  H   UNL A   1      31.463  29.358  26.151  1.00  0.00     0.163 HD
ATOM     79  O   UNL A   1      30.859  27.367  27.520  1.00  0.00    -0.273 OA
BRANCH  77  80
ATOM     80  C   UNL A   1      31.040  26.245  25.390  1.00  0.00     0.199 C 
BRANCH  80  81
ATOM     81  C   UNL A   1      30.877  26.480  23.876  1.00  0.00     0.073 C 
BRANCH  81  82
ATOM     82  C   UNL A   1      29.947  27.547  23.361  1.00  0.00    -0.045 A 
ATOM     83  C   UNL A   1      28.557  27.455  23.529  1.00  0.00     0.004 A 
ATOM     84  C   UNL A   1      30.474  28.702  22.770  1.00  0.00     0.004 A 
ATOM     85  C   UNL A   1      27.712  28.438  23.010  1.00  0.00     0.000 A 
ATOM     86  C   UNL A   1      29.632  29.689  22.258  1.00  0.00     0.000 A 
ATOM     87  C   UNL A   1      28.252  29.547  22.360  1.00  0.00     0.000 A 
ENDBRANCH  81  82
ENDBRANCH  80  81
BRANCH  80  88
ATOM     88  N   UNL A   1      31.242  24.845  25.825  1.00  0.00    -0.270 NA
ATOM     89  C   UNL A   1      32.291  24.111  25.726  1.00  0.00     0.109 C 
ATOM     90  C   UNL A   1      33.632  24.544  25.214  1.00  0.00     0.209 C 
ATOM     91  C   UNL A   1      32.207  22.655  26.106  1.00  0.00     0.205 C 
ATOM     92  O   UNL A   1      33.784  25.660  24.764  1.00  0.00    -0.287 OA
ATOM     93  C   UNL A   1      34.740  23.587  25.155  1.00  0.00     0.035 A 
ATOM     94  C   UNL A   1      33.088  21.761  25.262  1.00  0.00     0.187 C 
ATOM     95  Cl  UNL A   1      32.703  22.494  27.813  1.00  0.00    -0.107 Cl
ATOM     96  C   UNL A   1      36.054  24.051  25.101  1.00  0.00     0.013 A 
ATOM     97  C   UNL A   1      34.466  22.233  25.022  1.00  0.00     0.031 A 
ATOM     98  O   UNL A   1      32.722  20.674  24.828  1.00  0.00    -0.292 OA
ATOM     99  C   UNL A   1      37.091  23.167  24.815  1.00  0.00     0.001 A 
ATOM    100  C   UNL A   1      35.497  21.345  24.703  1.00  0.00     0.012 A 
ATOM    101  C   UNL A   1      36.807  21.820  24.586  1.00  0.00     0.001 A 
ENDBRANCH  80  88
ENDBRANCH  77  80
ENDBRANCH  75  76
ENDBRANCH  74  75
ENDBRANCH  73  74
ENDBRANCH   1  73
TORSDOF 19
ENDMDL
