MODEL 1
REMARK VINA RESULT:     -13.9      0.000      0.000
REMARK SMILES O=C(NCCCCCCNC(=O)[C@@H]1CCCC[C@@H]1C(=O)Nc1cccc(C(F)(F)F)c1)c1ccc(-c2c3nc(c(-c4cccc(S(=O)(=O)[O-])c4F)c4ccc([nH]4)c(-c4cccc(S(=O)(=O)[O-])c4F)c4nc(c(-c5cccc(S(=O)(=O)[O-])c5F)c5ccc2[nH]5)C=C4)C=C3)cc1
REMARK SMILES IDX 6 1 5 2 4 3 3 4 1 5 2 6 32 8 33 9 94 10 34 11 93 12 35 13
REMARK SMILES IDX 36 14 37 15 87 16 38 17 92 18 86 19 88 20 39 21 91 22 85 23
REMARK SMILES IDX 84 24 40 26 72 27 52 28 71 29 53 30 56 31 70 32 89 33 54 34
REMARK SMILES IDX 55 35 69 37 90 38 57 39 41 40 42 41 50 42 43 43 45 44 51 45
REMARK SMILES IDX 44 46 46 47 47 48 48 49 49 50 73 51 74 52 82 53 75 54 77 55
REMARK SMILES IDX 83 56 76 57 78 58 79 59 80 60 81 61 58 62 59 63 67 64 60 65
REMARK SMILES IDX 62 66 68 67 61 68 63 69 64 70 65 71 66 72 7 73 8 74 9 75
REMARK SMILES IDX 10 76 11 77 12 79 13 80 14 81 18 82 15 83 17 84 16 85 19 86
REMARK SMILES IDX 20 87 21 88 22 90 23 91 31 92 24 93 26 94 25 95 27 96 28 97
REMARK SMILES IDX 29 98 30 99
REMARK H PARENT 3 7 88 25 56 36 10 78 21 89
REMARK Flexibility Score: inf
ROOT
ATOM      1  C   UNL A   1      32.352  30.445  26.157  1.00  0.00     0.002 C 
ENDROOT
BRANCH   1   2
ATOM      2  C   UNL A   1      31.930  31.644  27.018  1.00  0.00     0.021 C 
BRANCH   2   3
ATOM      3  C   UNL A   1      33.020  32.604  27.483  1.00  0.00     0.116 C 
BRANCH   3   4
ATOM      4  N   UNL A   1      32.578  33.966  27.744  1.00  0.00    -0.352 N 
ATOM      5  O   UNL A   1      32.598  35.933  28.888  1.00  0.00    -0.269 OA
ATOM      6  C   UNL A   1      33.083  34.824  28.702  1.00  0.00     0.251 C 
ATOM      7  H   UNL A   1      31.847  34.309  27.182  1.00  0.00     0.163 HD
BRANCH   6   8
ATOM      8  C   UNL A   1      34.215  34.341  29.519  1.00  0.00     0.039 A 
ATOM      9  C   UNL A   1      35.521  34.532  29.057  1.00  0.00     0.014 A 
ATOM     10  C   UNL A   1      33.967  33.578  30.661  1.00  0.00     0.014 A 
ATOM     11  C   UNL A   1      36.564  33.838  29.653  1.00  0.00     0.010 A 
ATOM     12  C   UNL A   1      35.034  32.958  31.315  1.00  0.00     0.010 A 
ATOM     13  C   UNL A   1      36.338  33.053  30.797  1.00  0.00    -0.014 A 
BRANCH  13  14
ATOM     14  C   UNL A   1      37.485  32.400  31.479  1.00  0.00     0.031 A 
ATOM     15  C   UNL A   1      37.976  32.869  32.822  1.00  0.00     0.074 A 
ATOM     16  C   UNL A   1      38.102  31.379  30.852  1.00  0.00     0.049 A 
ATOM     17  N   UNL A   1      38.973  32.412  33.536  1.00  0.00    -0.248 NA
ATOM     18  C   UNL A   1      37.269  34.001  33.438  1.00  0.00     0.031 C 
ATOM     19  C   UNL A   1      37.734  30.855  29.534  1.00  0.00     0.029 A 
ATOM     20  N   UNL A   1      39.169  30.605  31.229  1.00  0.00    -0.354 N 
ATOM     21  C   UNL A   1      39.050  33.231  34.656  1.00  0.00     0.074 A 
ATOM     22  C   UNL A   1      37.996  34.215  34.526  1.00  0.00     0.031 C 
ATOM     23  C   UNL A   1      38.539  29.829  29.226  1.00  0.00     0.029 A 
ATOM     24  C   UNL A   1      39.526  29.671  30.286  1.00  0.00     0.049 A 
ATOM     25  H   UNL A   1      39.635  30.708  32.091  1.00  0.00     0.167 HD
ATOM     26  C   UNL A   1      39.919  33.168  35.697  1.00  0.00     0.034 A 
ATOM     27  C   UNL A   1      40.550  28.799  30.257  1.00  0.00     0.034 A 
ATOM     28  C   UNL A   1      40.959  32.179  35.818  1.00  0.00     0.049 A 
ATOM     29  C   UNL A   1      41.501  28.760  31.416  1.00  0.00     0.074 A 
ATOM     30  C   UNL A   1      41.845  31.986  36.864  1.00  0.00     0.029 A 
ATOM     31  N   UNL A   1      41.277  31.238  34.851  1.00  0.00    -0.354 N 
ATOM     32  N   UNL A   1      41.488  29.470  32.518  1.00  0.00    -0.248 NA
ATOM     33  C   UNL A   1      42.589  27.778  31.343  1.00  0.00     0.031 C 
ATOM     34  C   UNL A   1      42.736  30.971  36.502  1.00  0.00     0.029 A 
ATOM     35  C   UNL A   1      42.359  30.477  35.264  1.00  0.00     0.049 A 
ATOM     36  H   UNL A   1      40.802  31.125  33.995  1.00  0.00     0.167 HD
ATOM     37  C   UNL A   1      42.535  28.986  33.291  1.00  0.00     0.074 A 
ATOM     38  C   UNL A   1      43.152  27.917  32.534  1.00  0.00     0.031 C 
ATOM     39  C   UNL A   1      42.944  29.390  34.519  1.00  0.00     0.034 A 
BRANCH  26  40
ATOM     40  C   UNL A   1      39.796  34.211  36.782  1.00  0.00     0.023 A 
ATOM     41  C   UNL A   1      40.119  35.557  36.519  1.00  0.00     0.012 A 
ATOM     42  C   UNL A   1      39.311  33.857  38.058  1.00  0.00     0.148 A 
ATOM     43  C   UNL A   1      40.014  36.523  37.520  1.00  0.00     0.002 A 
ATOM     44  C   UNL A   1      39.157  34.834  39.034  1.00  0.00     0.091 A 
ATOM     45  F   UNL A   1      39.020  32.571  38.298  1.00  0.00    -0.205 F 
ATOM     46  C   UNL A   1      39.525  36.163  38.773  1.00  0.00     0.022 A 
BRANCH  44  47
ATOM     47  S   UNL A   1      38.454  34.487  40.650  1.00  0.00     0.127 S 
ATOM     48  O   UNL A   1      39.566  33.805  41.314  1.00  0.00    -0.237 OA
ATOM     49  O   UNL A   1      38.173  35.830  41.157  1.00  0.00    -0.237 OA
ATOM     50  O   UNL A   1      37.275  33.668  40.410  1.00  0.00    -0.744 OA
ENDBRANCH  44  47
ENDBRANCH  26  40
BRANCH  27  51
ATOM     51  C   UNL A   1      40.701  27.870  29.105  1.00  0.00     0.023 A 
ATOM     52  C   UNL A   1      39.907  26.707  29.045  1.00  0.00     0.012 A 
ATOM     53  C   UNL A   1      41.601  28.144  28.057  1.00  0.00     0.148 A 
ATOM     54  C   UNL A   1      40.034  25.816  27.981  1.00  0.00     0.002 A 
ATOM     55  C   UNL A   1      41.679  27.283  26.971  1.00  0.00     0.091 A 
ATOM     56  F   UNL A   1      42.344  29.258  28.135  1.00  0.00    -0.205 F 
ATOM     57  C   UNL A   1      40.912  26.108  26.940  1.00  0.00     0.022 A 
BRANCH  55  58
ATOM     58  S   UNL A   1      42.685  27.637  25.528  1.00  0.00     0.127 S 
ATOM     59  O   UNL A   1      42.054  28.850  25.014  1.00  0.00    -0.237 OA
ATOM     60  O   UNL A   1      44.006  27.835  26.127  1.00  0.00    -0.237 OA
ATOM     61  O   UNL A   1      42.579  26.464  24.672  1.00  0.00    -0.744 OA
ENDBRANCH  55  58
ENDBRANCH  27  51
BRANCH  39  62
ATOM     62  C   UNL A   1      44.067  28.621  35.164  1.00  0.00     0.023 A 
ATOM     63  C   UNL A   1      45.413  28.939  34.890  1.00  0.00     0.012 A 
ATOM     64  C   UNL A   1      43.777  27.596  36.088  1.00  0.00     0.148 A 
ATOM     65  C   UNL A   1      46.447  28.218  35.487  1.00  0.00     0.002 A 
ATOM     66  C   UNL A   1      44.811  26.926  36.726  1.00  0.00     0.091 A 
ATOM     67  F   UNL A   1      42.491  27.293  36.321  1.00  0.00    -0.205 F 
ATOM     68  C   UNL A   1      46.147  27.222  36.413  1.00  0.00     0.022 A 
BRANCH  66  69
ATOM     69  S   UNL A   1      44.516  25.703  38.008  1.00  0.00     0.127 S 
ATOM     70  O   UNL A   1      43.805  26.492  39.012  1.00  0.00    -0.237 OA
ATOM     71  O   UNL A   1      43.692  24.717  37.308  1.00  0.00    -0.237 OA
ATOM     72  O   UNL A   1      45.829  25.217  38.412  1.00  0.00    -0.744 OA
ENDBRANCH  66  69
ENDBRANCH  39  62
ENDBRANCH  13  14
ENDBRANCH   6   8
ENDBRANCH   3   4
ENDBRANCH   2   3
ENDBRANCH   1   2
BRANCH   1  73
ATOM     73  C   UNL A   1      32.393  28.872  26.807  1.00  0.00     0.002 C 
BRANCH  73  74
ATOM     74  C   UNL A   1      31.094  27.132  26.985  1.00  0.00     0.021 C 
BRANCH  74  75
ATOM     75  C   UNL A   1      31.058  25.550  26.469  1.00  0.00     0.116 C 
BRANCH  75  76
ATOM     76  N   UNL A   1      30.382  24.938  25.369  1.00  0.00    -0.356 N 
ATOM     77  C   UNL A   1      30.707  25.173  24.056  1.00  0.00     0.223 C 
ATOM     78  H   UNL A   1      29.645  24.316  25.563  1.00  0.00     0.163 HD
ATOM     79  O   UNL A   1      30.127  24.501  23.202  1.00  0.00    -0.275 OA
BRANCH  77  80
ATOM     80  C   UNL A   1      31.622  26.377  23.700  1.00  0.00     0.091 C 
ATOM     81  C   UNL A   1      30.776  27.450  22.978  1.00  0.00     0.014 C 
ATOM     82  C   UNL A   1      33.017  26.210  22.994  1.00  0.00     0.091 C 
ATOM     83  C   UNL A   1      31.476  28.802  22.985  1.00  0.00     0.001 C 
ATOM     84  C   UNL A   1      33.688  27.601  22.858  1.00  0.00     0.014 C 
ATOM     85  C   UNL A   1      32.827  28.716  22.296  1.00  0.00     0.001 C 
BRANCH  82  86
ATOM     86  C   UNL A   1      33.052  25.325  21.712  1.00  0.00     0.228 C 
ATOM     87  O   UNL A   1      33.056  25.897  20.613  1.00  0.00    -0.274 OA
ATOM     88  N   UNL A   1      33.114  23.937  21.657  1.00  0.00    -0.326 N 
ATOM     89  H   UNL A   1      33.017  23.593  20.739  1.00  0.00     0.169 HD
BRANCH  88  90
ATOM     90  C   UNL A   1      33.287  22.894  22.615  1.00  0.00     0.041 A 
ATOM     91  C   UNL A   1      32.074  21.582  22.721  1.00  0.00     0.026 A 
ATOM     92  C   UNL A   1      34.780  22.809  23.633  1.00  0.00     0.039 A 
ATOM     93  C   UNL A   1      32.400  20.106  23.716  1.00  0.00     0.003 A 
ATOM     94  C   UNL A   1      35.161  21.306  24.590  1.00  0.00     0.058 A 
ATOM     95  C   UNL A   1      33.916  19.981  24.697  1.00  0.00     0.013 A 
BRANCH  94  96
ATOM     96  C   UNL A   1      36.588  20.973  24.934  1.00  0.00     0.416 C 
ATOM     97  F   UNL A   1      37.496  21.381  24.019  1.00  0.00    -0.166 F 
ATOM     98  F   UNL A   1      36.952  21.535  26.122  1.00  0.00    -0.166 F 
ATOM     99  F   UNL A   1      36.773  19.633  25.104  1.00  0.00    -0.166 F 
ENDBRANCH  94  96
ENDBRANCH  88  90
ENDBRANCH  82  86
ENDBRANCH  77  80
ENDBRANCH  75  76
ENDBRANCH  74  75
ENDBRANCH  73  74
ENDBRANCH   1  73
TORSDOF 19
ENDMDL
MODEL 2
REMARK VINA RESULT:     -13.4      6.281      9.655
REMARK SMILES O=C(NCCCCCCNC(=O)[C@@H]1CCCC[C@@H]1C(=O)Nc1cccc(C(F)(F)F)c1)c1ccc(-c2c3nc(c(-c4cccc(S(=O)(=O)[O-])c4F)c4ccc([nH]4)c(-c4cccc(S(=O)(=O)[O-])c4F)c4nc(c(-c5cccc(S(=O)(=O)[O-])c5F)c5ccc2[nH]5)C=C4)C=C3)cc1
REMARK SMILES IDX 6 1 5 2 4 3 3 4 1 5 2 6 32 8 33 9 94 10 34 11 93 12 35 13
REMARK SMILES IDX 36 14 37 15 87 16 38 17 92 18 86 19 88 20 39 21 91 22 85 23
REMARK SMILES IDX 84 24 40 26 72 27 52 28 71 29 53 30 56 31 70 32 89 33 54 34
REMARK SMILES IDX 55 35 69 37 90 38 57 39 41 40 42 41 50 42 43 43 45 44 51 45
REMARK SMILES IDX 44 46 46 47 47 48 48 49 49 50 73 51 74 52 82 53 75 54 77 55
REMARK SMILES IDX 83 56 76 57 78 58 79 59 80 60 81 61 58 62 59 63 67 64 60 65
REMARK SMILES IDX 62 66 68 67 61 68 63 69 64 70 65 71 66 72 7 73 8 74 9 75
REMARK SMILES IDX 10 76 11 77 12 79 13 80 14 81 18 82 15 83 17 84 16 85 19 86
REMARK SMILES IDX 20 87 21 88 22 90 23 91 31 92 24 93 26 94 25 95 27 96 28 97
REMARK SMILES IDX 29 98 30 99
REMARK H PARENT 3 7 88 25 56 36 10 78 21 89
REMARK Flexibility Score: inf
ROOT
ATOM      1  C   UNL A   1      37.059  21.431  24.575  1.00  0.00     0.002 C 
ENDROOT
BRANCH   1   2
ATOM      2  C   UNL A   1      37.892  20.220  25.019  1.00  0.00     0.021 C 
BRANCH   2   3
ATOM      3  C   UNL A   1      39.196  20.488  25.764  1.00  0.00     0.116 C 
BRANCH   3   4
ATOM      4  N   UNL A   1      40.102  19.353  25.857  1.00  0.00    -0.352 N 
ATOM      5  O   UNL A   1      42.147  18.392  26.128  1.00  0.00    -0.269 OA
ATOM      6  C   UNL A   1      41.454  19.402  26.135  1.00  0.00     0.251 C 
ATOM      7  H   UNL A   1      39.712  18.462  25.708  1.00  0.00     0.163 HD
BRANCH   6   8
ATOM      8  C   UNL A   1      42.044  20.729  26.411  1.00  0.00     0.039 A 
ATOM      9  C   UNL A   1      42.228  21.130  27.738  1.00  0.00     0.014 A 
ATOM     10  C   UNL A   1      42.274  21.615  25.358  1.00  0.00     0.014 A 
ATOM     11  C   UNL A   1      42.499  22.462  28.016  1.00  0.00     0.010 A 
ATOM     12  C   UNL A   1      42.642  22.932  25.642  1.00  0.00     0.010 A 
ATOM     13  C   UNL A   1      42.723  23.378  26.973  1.00  0.00    -0.014 A 
BRANCH  13  14
ATOM     14  C   UNL A   1      43.112  24.775  27.294  1.00  0.00     0.031 A 
ATOM     15  C   UNL A   1      42.145  25.737  27.930  1.00  0.00     0.074 A 
ATOM     16  C   UNL A   1      44.359  25.179  26.979  1.00  0.00     0.049 A 
ATOM     17  N   UNL A   1      42.330  26.991  28.257  1.00  0.00    -0.248 NA
ATOM     18  C   UNL A   1      40.796  25.235  28.227  1.00  0.00     0.031 C 
ATOM     19  C   UNL A   1      45.375  24.345  26.333  1.00  0.00     0.029 A 
ATOM     20  N   UNL A   1      44.983  26.388  27.149  1.00  0.00    -0.354 N 
ATOM     21  C   UNL A   1      41.111  27.445  28.745  1.00  0.00     0.074 A 
ATOM     22  C   UNL A   1      40.192  26.329  28.671  1.00  0.00     0.031 C 
ATOM     23  C   UNL A   1      46.503  25.053  26.189  1.00  0.00     0.029 A 
ATOM     24  C   UNL A   1      46.268  26.412  26.661  1.00  0.00     0.049 A 
ATOM     25  H   UNL A   1      44.554  27.163  27.577  1.00  0.00     0.167 HD
ATOM     26  C   UNL A   1      40.788  28.677  29.211  1.00  0.00     0.034 A 
ATOM     27  C   UNL A   1      47.155  27.419  26.573  1.00  0.00     0.034 A 
ATOM     28  C   UNL A   1      41.715  29.778  29.285  1.00  0.00     0.049 A 
ATOM     29  C   UNL A   1      46.766  28.774  27.086  1.00  0.00     0.074 A 
ATOM     30  C   UNL A   1      41.507  31.044  29.805  1.00  0.00     0.029 A 
ATOM     31  N   UNL A   1      43.014  29.758  28.798  1.00  0.00    -0.354 N 
ATOM     32  N   UNL A   1      45.644  29.152  27.647  1.00  0.00    -0.248 NA
ATOM     33  C   UNL A   1      47.777  29.832  26.983  1.00  0.00     0.031 C 
ATOM     34  C   UNL A   1      42.657  31.806  29.576  1.00  0.00     0.029 A 
ATOM     35  C   UNL A   1      43.611  30.994  28.984  1.00  0.00     0.049 A 
ATOM     36  H   UNL A   1      43.448  28.978  28.383  1.00  0.00     0.167 HD
ATOM     37  C   UNL A   1      45.831  30.480  28.009  1.00  0.00     0.074 A 
ATOM     38  C   UNL A   1      47.179  30.833  27.613  1.00  0.00     0.031 C 
ATOM     39  C   UNL A   1      44.965  31.326  28.619  1.00  0.00     0.034 A 
BRANCH  26  40
ATOM     40  C   UNL A   1      39.366  28.911  29.661  1.00  0.00     0.023 A 
ATOM     41  C   UNL A   1      38.971  28.593  30.976  1.00  0.00     0.012 A 
ATOM     42  C   UNL A   1      38.429  29.495  28.784  1.00  0.00     0.148 A 
ATOM     43  C   UNL A   1      37.657  28.801  31.394  1.00  0.00     0.002 A 
ATOM     44  C   UNL A   1      37.135  29.749  29.225  1.00  0.00     0.091 A 
ATOM     45  F   UNL A   1      38.814  29.780  27.533  1.00  0.00    -0.205 F 
ATOM     46  C   UNL A   1      36.743  29.387  30.522  1.00  0.00     0.022 A 
BRANCH  44  47
ATOM     47  S   UNL A   1      35.910  30.579  28.206  1.00  0.00     0.127 S 
ATOM     48  O   UNL A   1      34.864  30.874  29.185  1.00  0.00    -0.237 OA
ATOM     49  O   UNL A   1      36.649  31.749  27.731  1.00  0.00    -0.237 OA
ATOM     50  O   UNL A   1      35.540  29.629  27.166  1.00  0.00    -0.744 OA
ENDBRANCH  44  47
ENDBRANCH  26  40
BRANCH  27  51
ATOM     51  C   UNL A   1      48.509  27.169  26.008  1.00  0.00     0.023 A 
ATOM     52  C   UNL A   1      49.509  26.613  26.830  1.00  0.00     0.012 A 
ATOM     53  C   UNL A   1      48.801  27.448  24.659  1.00  0.00     0.148 A 
ATOM     54  C   UNL A   1      50.787  26.375  26.328  1.00  0.00     0.002 A 
ATOM     55  C   UNL A   1      50.059  27.154  24.151  1.00  0.00     0.091 A 
ATOM     56  F   UNL A   1      47.833  27.974  23.896  1.00  0.00    -0.205 F 
ATOM     57  C   UNL A   1      51.060  26.636  24.988  1.00  0.00     0.022 A 
BRANCH  55  58
ATOM     58  S   UNL A   1      50.465  27.336  22.412  1.00  0.00     0.127 S 
ATOM     59  O   UNL A   1      50.363  28.783  22.233  1.00  0.00    -0.237 OA
ATOM     60  O   UNL A   1      51.827  26.804  22.367  1.00  0.00    -0.237 OA
ATOM     61  O   UNL A   1      49.481  26.544  21.688  1.00  0.00    -0.744 OA
ENDBRANCH  55  58
ENDBRANCH  27  51
BRANCH  39  62
ATOM     62  C   UNL A   1      45.472  32.701  28.973  1.00  0.00     0.023 A 
ATOM     63  C   UNL A   1      46.160  32.928  30.182  1.00  0.00     0.012 A 
ATOM     64  C   UNL A   1      45.297  33.767  28.068  1.00  0.00     0.148 A 
ATOM     65  C   UNL A   1      46.621  34.205  30.504  1.00  0.00     0.002 A 
ATOM     66  C   UNL A   1      45.814  35.020  28.368  1.00  0.00     0.091 A 
ATOM     67  F   UNL A   1      44.622  33.537  26.933  1.00  0.00    -0.205 F 
ATOM     68  C   UNL A   1      46.459  35.246  29.593  1.00  0.00     0.022 A 
BRANCH  66  69
ATOM     69  S   UNL A   1      45.743  36.390  27.208  1.00  0.00     0.127 S 
ATOM     70  O   UNL A   1      46.582  35.898  26.117  1.00  0.00    -0.237 OA
ATOM     71  O   UNL A   1      44.314  36.457  26.898  1.00  0.00    -0.237 OA
ATOM     72  O   UNL A   1      46.263  37.549  27.921  1.00  0.00    -0.744 OA
ENDBRANCH  66  69
ENDBRANCH  39  62
ENDBRANCH  13  14
ENDBRANCH   6   8
ENDBRANCH   3   4
ENDBRANCH   2   3
ENDBRANCH   1   2
BRANCH   1  73
ATOM     73  C   UNL A   1      36.581  22.622  25.693  1.00  0.00     0.002 C 
BRANCH  73  74
ATOM     74  C   UNL A   1      35.571  24.553  25.708  1.00  0.00     0.021 C 
BRANCH  74  75
ATOM     75  C   UNL A   1      34.039  25.156  25.464  1.00  0.00     0.116 C 
BRANCH  75  76
ATOM     76  N   UNL A   1      32.815  24.915  26.160  1.00  0.00    -0.356 N 
ATOM     77  C   UNL A   1      31.859  25.879  26.364  1.00  0.00     0.223 C 
ATOM     78  H   UNL A   1      32.648  24.011  26.511  1.00  0.00     0.163 HD
ATOM     79  O   UNL A   1      30.798  25.523  26.879  1.00  0.00    -0.275 OA
BRANCH  77  80
ATOM     80  C   UNL A   1      32.218  27.372  26.126  1.00  0.00     0.091 C 
ATOM     81  C   UNL A   1      31.478  28.236  27.173  1.00  0.00     0.014 C 
ATOM     82  C   UNL A   1      32.154  28.050  24.709  1.00  0.00     0.091 C 
ATOM     83  C   UNL A   1      32.097  29.622  27.281  1.00  0.00     0.001 C 
ATOM     84  C   UNL A   1      32.644  29.516  24.823  1.00  0.00     0.014 C 
ATOM     85  C   UNL A   1      32.048  30.344  25.946  1.00  0.00     0.001 C 
BRANCH  82  86
ATOM     86  C   UNL A   1      30.840  27.849  23.895  1.00  0.00     0.228 C 
ATOM     87  O   UNL A   1      30.037  28.792  23.848  1.00  0.00    -0.274 OA
ATOM     88  N   UNL A   1      30.471  26.721  23.171  1.00  0.00    -0.326 N 
ATOM     89  H   UNL A   1      29.550  26.780  22.827  1.00  0.00     0.169 HD
BRANCH  88  90
ATOM     90  C   UNL A   1      31.111  25.499  22.807  1.00  0.00     0.041 A 
ATOM     91  C   UNL A   1      32.306  25.490  21.475  1.00  0.00     0.026 A 
ATOM     92  C   UNL A   1      30.828  23.986  23.758  1.00  0.00     0.039 A 
ATOM     93  C   UNL A   1      33.339  24.034  21.175  1.00  0.00     0.003 A 
ATOM     94  C   UNL A   1      31.898  22.531  23.519  1.00  0.00     0.058 A 
ATOM     95  C   UNL A   1      33.106  22.531  22.156  1.00  0.00     0.013 A 
BRANCH  94  96
ATOM     96  C   UNL A   1      32.084  21.541  24.637  1.00  0.00     0.416 C 
ATOM     97  F   UNL A   1      33.274  21.628  25.273  1.00  0.00    -0.166 F 
ATOM     98  F   UNL A   1      31.120  21.688  25.591  1.00  0.00    -0.166 F 
ATOM     99  F   UNL A   1      31.960  20.254  24.205  1.00  0.00    -0.166 F 
ENDBRANCH  94  96
ENDBRANCH  88  90
ENDBRANCH  82  86
ENDBRANCH  77  80
ENDBRANCH  75  76
ENDBRANCH  74  75
ENDBRANCH  73  74
ENDBRANCH   1  73
TORSDOF 19
ENDMDL
MODEL 3
REMARK VINA RESULT:     -13.3      2.339      3.790
REMARK SMILES O=C(NCCCCCCNC(=O)[C@@H]1CCCC[C@@H]1C(=O)Nc1cccc(C(F)(F)F)c1)c1ccc(-c2c3nc(c(-c4cccc(S(=O)(=O)[O-])c4F)c4ccc([nH]4)c(-c4cccc(S(=O)(=O)[O-])c4F)c4nc(c(-c5cccc(S(=O)(=O)[O-])c5F)c5ccc2[nH]5)C=C4)C=C3)cc1
REMARK SMILES IDX 6 1 5 2 4 3 3 4 1 5 2 6 32 8 33 9 94 10 34 11 93 12 35 13
REMARK SMILES IDX 36 14 37 15 87 16 38 17 92 18 86 19 88 20 39 21 91 22 85 23
REMARK SMILES IDX 84 24 40 26 72 27 52 28 71 29 53 30 56 31 70 32 89 33 54 34
REMARK SMILES IDX 55 35 69 37 90 38 57 39 41 40 42 41 50 42 43 43 45 44 51 45
REMARK SMILES IDX 44 46 46 47 47 48 48 49 49 50 73 51 74 52 82 53 75 54 77 55
REMARK SMILES IDX 83 56 76 57 78 58 79 59 80 60 81 61 58 62 59 63 67 64 60 65
REMARK SMILES IDX 62 66 68 67 61 68 63 69 64 70 65 71 66 72 7 73 8 74 9 75
REMARK SMILES IDX 10 76 11 77 12 79 13 80 14 81 18 82 15 83 17 84 16 85 19 86
REMARK SMILES IDX 20 87 21 88 22 90 23 91 31 92 24 93 26 94 25 95 27 96 28 97
REMARK SMILES IDX 29 98 30 99
REMARK H PARENT 3 7 88 25 56 36 10 78 21 89
REMARK Flexibility Score: inf
ROOT
ATOM      1  C   UNL A   1      31.766  29.551  27.193  1.00  0.00     0.002 C 
ENDROOT
BRANCH   1   2
ATOM      2  C   UNL A   1      32.154  30.896  26.564  1.00  0.00     0.021 C 
BRANCH   2   3
ATOM      3  C   UNL A   1      33.114  31.793  27.339  1.00  0.00     0.116 C 
BRANCH   3   4
ATOM      4  N   UNL A   1      32.681  33.173  27.501  1.00  0.00    -0.352 N 
ATOM      5  O   UNL A   1      32.724  35.222  28.490  1.00  0.00    -0.269 OA
ATOM      6  C   UNL A   1      33.202  34.099  28.382  1.00  0.00     0.251 C 
ATOM      7  H   UNL A   1      31.942  33.475  26.925  1.00  0.00     0.163 HD
BRANCH   6   8
ATOM      8  C   UNL A   1      34.344  33.675  29.219  1.00  0.00     0.039 A 
ATOM      9  C   UNL A   1      35.643  33.991  28.809  1.00  0.00     0.014 A 
ATOM     10  C   UNL A   1      34.124  32.848  30.321  1.00  0.00     0.014 A 
ATOM     11  C   UNL A   1      36.721  33.359  29.413  1.00  0.00     0.010 A 
ATOM     12  C   UNL A   1      35.217  32.289  30.986  1.00  0.00     0.010 A 
ATOM     13  C   UNL A   1      36.524  32.511  30.517  1.00  0.00    -0.014 A 
BRANCH  13  14
ATOM     14  C   UNL A   1      37.699  31.925  31.211  1.00  0.00     0.031 A 
ATOM     15  C   UNL A   1      38.183  32.460  32.532  1.00  0.00     0.074 A 
ATOM     16  C   UNL A   1      38.349  30.904  30.617  1.00  0.00     0.049 A 
ATOM     17  N   UNL A   1      39.202  32.065  33.254  1.00  0.00    -0.248 NA
ATOM     18  C   UNL A   1      37.441  33.587  33.113  1.00  0.00     0.031 C 
ATOM     19  C   UNL A   1      37.990  30.320  29.322  1.00  0.00     0.029 A 
ATOM     20  N   UNL A   1      39.446  30.184  31.012  1.00  0.00    -0.354 N 
ATOM     21  C   UNL A   1      39.258  32.926  34.343  1.00  0.00     0.074 A 
ATOM     22  C   UNL A   1      38.168  33.867  34.187  1.00  0.00     0.031 C 
ATOM     23  C   UNL A   1      38.828  29.313  29.044  1.00  0.00     0.029 A 
ATOM     24  C   UNL A   1      39.829  29.229  30.100  1.00  0.00     0.049 A 
ATOM     25  H   UNL A   1      39.914  30.334  31.865  1.00  0.00     0.167 HD
ATOM     26  C   UNL A   1      40.136  32.933  35.377  1.00  0.00     0.034 A 
ATOM     27  C   UNL A   1      40.883  28.394  30.093  1.00  0.00     0.034 A 
ATOM     28  C   UNL A   1      41.213  31.987  35.524  1.00  0.00     0.049 A 
ATOM     29  C   UNL A   1      41.844  28.432  31.245  1.00  0.00     0.074 A 
ATOM     30  C   UNL A   1      42.113  31.864  36.569  1.00  0.00     0.029 A 
ATOM     31  N   UNL A   1      41.557  31.023  34.589  1.00  0.00    -0.354 N 
ATOM     32  N   UNL A   1      41.814  29.180  32.320  1.00  0.00    -0.248 NA
ATOM     33  C   UNL A   1      42.966  27.487  31.196  1.00  0.00     0.031 C 
ATOM     34  C   UNL A   1      43.037  30.869  36.236  1.00  0.00     0.029 A 
ATOM     35  C   UNL A   1      42.669  30.317  35.019  1.00  0.00     0.049 A 
ATOM     36  H   UNL A   1      41.080  30.862  33.743  1.00  0.00     0.167 HD
ATOM     37  C   UNL A   1      42.884  28.762  33.101  1.00  0.00     0.074 A 
ATOM     38  C   UNL A   1      43.534  27.689  32.377  1.00  0.00     0.031 C 
ATOM     39  C   UNL A   1      43.287  29.225  34.309  1.00  0.00     0.034 A 
BRANCH  26  40
ATOM     40  C   UNL A   1      39.984  34.009  36.425  1.00  0.00     0.023 A 
ATOM     41  C   UNL A   1      40.263  35.355  36.113  1.00  0.00     0.012 A 
ATOM     42  C   UNL A   1      39.516  33.686  37.715  1.00  0.00     0.148 A 
ATOM     43  C   UNL A   1      40.131  36.352  37.079  1.00  0.00     0.002 A 
ATOM     44  C   UNL A   1      39.335  34.692  38.656  1.00  0.00     0.091 A 
ATOM     45  F   UNL A   1      39.268  32.401  38.002  1.00  0.00    -0.205 F 
ATOM     46  C   UNL A   1      39.658  36.022  38.347  1.00  0.00     0.022 A 
BRANCH  44  47
ATOM     47  S   UNL A   1      38.650  34.381  40.288  1.00  0.00     0.127 S 
ATOM     48  O   UNL A   1      38.404  35.740  40.769  1.00  0.00    -0.237 OA
ATOM     49  O   UNL A   1      37.442  33.618  39.972  1.00  0.00    -0.237 OA
ATOM     50  O   UNL A   1      39.666  33.635  41.017  1.00  0.00    -0.744 OA
ENDBRANCH  44  47
ENDBRANCH  26  40
BRANCH  27  51
ATOM     51  C   UNL A   1      41.059  27.429  28.974  1.00  0.00     0.023 A 
ATOM     52  C   UNL A   1      40.259  26.271  28.927  1.00  0.00     0.012 A 
ATOM     53  C   UNL A   1      41.989  27.666  27.944  1.00  0.00     0.148 A 
ATOM     54  C   UNL A   1      40.408  25.347  27.894  1.00  0.00     0.002 A 
ATOM     55  C   UNL A   1      42.091  26.772  26.887  1.00  0.00     0.091 A 
ATOM     56  F   UNL A   1      42.738  28.776  28.008  1.00  0.00    -0.205 F 
ATOM     57  C   UNL A   1      41.316  25.602  26.870  1.00  0.00     0.022 A 
BRANCH  55  58
ATOM     58  S   UNL A   1      43.139  27.076  25.462  1.00  0.00     0.127 S 
ATOM     59  O   UNL A   1      44.362  27.568  26.091  1.00  0.00    -0.237 OA
ATOM     60  O   UNL A   1      43.240  25.739  24.876  1.00  0.00    -0.237 OA
ATOM     61  O   UNL A   1      42.424  28.043  24.641  1.00  0.00    -0.744 OA
ENDBRANCH  55  58
ENDBRANCH  27  51
BRANCH  39  62
ATOM     62  C   UNL A   1      44.443  28.520  34.972  1.00  0.00     0.023 A 
ATOM     63  C   UNL A   1      45.773  28.842  34.636  1.00  0.00     0.012 A 
ATOM     64  C   UNL A   1      44.197  27.557  35.971  1.00  0.00     0.148 A 
ATOM     65  C   UNL A   1      46.838  28.181  35.250  1.00  0.00     0.002 A 
ATOM     66  C   UNL A   1      45.262  26.950  36.622  1.00  0.00     0.091 A 
ATOM     67  F   UNL A   1      42.925  27.249  36.263  1.00  0.00    -0.205 F 
ATOM     68  C   UNL A   1      46.583  27.245  36.251  1.00  0.00     0.022 A 
BRANCH  66  69
ATOM     69  S   UNL A   1      45.026  25.813  37.993  1.00  0.00     0.127 S 
ATOM     70  O   UNL A   1      44.590  24.601  37.301  1.00  0.00    -0.237 OA
ATOM     71  O   UNL A   1      46.371  25.738  38.565  1.00  0.00    -0.237 OA
ATOM     72  O   UNL A   1      44.032  26.427  38.861  1.00  0.00    -0.744 OA
ENDBRANCH  66  69
ENDBRANCH  39  62
ENDBRANCH  13  14
ENDBRANCH   6   8
ENDBRANCH   3   4
ENDBRANCH   2   3
ENDBRANCH   1   2
BRANCH   1  73
ATOM     73  C   UNL A   1      32.174  28.081  26.438  1.00  0.00     0.002 C 
BRANCH  73  74
ATOM     74  C   UNL A   1      33.938  26.855  26.071  1.00  0.00     0.021 C 
BRANCH  74  75
ATOM     75  C   UNL A   1      34.296  25.275  25.689  1.00  0.00     0.116 C 
BRANCH  75  76
ATOM     76  N   UNL A   1      35.243  24.724  24.773  1.00  0.00    -0.356 N 
ATOM     77  C   UNL A   1      35.098  23.491  24.186  1.00  0.00     0.223 C 
ATOM     78  H   UNL A   1      36.040  25.255  24.550  1.00  0.00     0.163 HD
ATOM     79  O   UNL A   1      35.923  23.174  23.327  1.00  0.00    -0.275 OA
BRANCH  77  80
ATOM     80  C   UNL A   1      34.048  22.495  24.751  1.00  0.00     0.091 C 
ATOM     81  C   UNL A   1      34.555  21.053  24.523  1.00  0.00     0.014 C 
ATOM     82  C   UNL A   1      32.514  22.596  24.424  1.00  0.00     0.091 C 
ATOM     83  C   UNL A   1      33.815  20.062  25.410  1.00  0.00     0.001 C 
ATOM     84  C   UNL A   1      31.753  21.495  25.208  1.00  0.00     0.014 C 
ATOM     85  C   UNL A   1      32.323  20.092  25.129  1.00  0.00     0.001 C 
BRANCH  82  86
ATOM     86  C   UNL A   1      32.124  22.733  22.921  1.00  0.00     0.228 C 
ATOM     87  O   UNL A   1      31.848  21.698  22.297  1.00  0.00    -0.274 OA
ATOM     88  N   UNL A   1      32.016  23.912  22.191  1.00  0.00    -0.326 N 
ATOM     89  H   UNL A   1      31.863  23.747  21.232  1.00  0.00     0.169 HD
BRANCH  88  90
ATOM     90  C   UNL A   1      32.074  25.303  22.502  1.00  0.00     0.041 A 
ATOM     91  C   UNL A   1      33.576  26.219  22.176  1.00  0.00     0.026 A 
ATOM     92  C   UNL A   1      30.609  26.180  23.099  1.00  0.00     0.039 A 
ATOM     93  C   UNL A   1      33.595  28.026  22.290  1.00  0.00     0.003 A 
ATOM     94  C   UNL A   1      30.583  28.001  23.158  1.00  0.00     0.058 A 
ATOM     95  C   UNL A   1      32.119  28.922  22.832  1.00  0.00     0.013 A 
BRANCH  94  96
ATOM     96  C   UNL A   1      29.275  28.739  23.065  1.00  0.00     0.416 C 
ATOM     97  F   UNL A   1      28.194  28.016  23.435  1.00  0.00    -0.166 F 
ATOM     98  F   UNL A   1      29.283  29.857  23.847  1.00  0.00    -0.166 F 
ATOM     99  F   UNL A   1      29.033  29.192  21.803  1.00  0.00    -0.166 F 
ENDBRANCH  94  96
ENDBRANCH  88  90
ENDBRANCH  82  86
ENDBRANCH  77  80
ENDBRANCH  75  76
ENDBRANCH  74  75
ENDBRANCH  73  74
ENDBRANCH   1  73
TORSDOF 19
ENDMDL
