MODEL 1
REMARK VINA RESULT:     -11.5      0.000      0.000
REMARK SMILES CCCC1CN(c2cc(C(=O)NCCCCCCNC(=O)c3ccc(-c4c5nc(c(-c6cccc(S(=O)(=O)[O-])c6F)c6ccc([nH]6)c(-c6cccc(S(=O)(=O)[O-])c6F)c6nc(c(-c7cccc(S(=O)(=O)[O-])c7F)c7ccc4[nH]7)C=C6)C=C5)cc3)ccc2C)C1
REMARK SMILES IDX 15 1 14 2 13 3 12 4 10 5 11 6 9 8 7 9 8 10 87 11 86 12 88 13
REMARK SMILES IDX 85 14 6 15 4 16 5 17 89 18 3 19 2 20 1 21 16 22 17 23 18 24
REMARK SMILES IDX 19 25 20 26 21 28 22 29 23 30 84 31 24 32 83 33 25 34 26 35
REMARK SMILES IDX 27 36 77 37 28 38 82 39 76 40 78 41 29 42 81 43 75 44 74 45
REMARK SMILES IDX 30 47 62 48 42 49 61 50 43 51 46 52 60 53 79 54 44 55 45 56
REMARK SMILES IDX 59 58 80 59 47 60 31 61 32 62 40 63 33 64 35 65 41 66 34 67
REMARK SMILES IDX 36 68 37 69 38 70 39 71 63 72 64 73 72 74 65 75 67 76 73 77
REMARK SMILES IDX 66 78 68 79 69 80 70 81 71 82 48 83 49 84 57 85 50 86 52 87
REMARK SMILES IDX 58 88 51 89 53 90 54 91 55 92 56 93
REMARK H PARENT 12 7 19 27 78 46 46 57
REMARK Flexibility Score: inf
ROOT
ATOM      1  C   UNL A   1      33.016  28.988  23.518  1.00  0.00     0.002 C 
ENDROOT
BRANCH   1   2
ATOM      2  C   UNL A   1      31.561  28.707  23.141  1.00  0.00     0.021 C 
BRANCH   2   3
ATOM      3  C   UNL A   1      30.977  27.332  23.440  1.00  0.00     0.116 C 
BRANCH   3   4
ATOM      4  N   UNL A   1      30.628  27.077  24.825  1.00  0.00    -0.352 N 
ATOM      5  C   UNL A   1      31.145  26.163  25.719  1.00  0.00     0.251 C 
ATOM      6  O   UNL A   1      30.713  26.163  26.873  1.00  0.00    -0.269 OA
ATOM      7  H   UNL A   1      29.909  27.647  25.182  1.00  0.00     0.163 HD
BRANCH   5   8
ATOM      8  C   UNL A   1      32.161  25.138  25.333  1.00  0.00     0.041 A 
ATOM      9  C   UNL A   1      32.810  22.854  24.727  1.00  0.00     0.040 A 
ATOM     10  C   UNL A   1      31.835  23.853  24.891  1.00  0.00     0.040 A 
ATOM     11  C   UNL A   1      34.168  23.228  24.798  1.00  0.00    -0.028 A 
ATOM     12  C   UNL A   1      34.501  24.552  25.135  1.00  0.00     0.006 A 
ATOM     13  C   UNL A   1      35.303  22.298  24.466  1.00  0.00     0.046 C 
ATOM     14  C   UNL A   1      33.510  25.490  25.428  1.00  0.00     0.014 A 
BRANCH   9  15
ATOM     15  N   UNL A   1      32.416  21.502  24.566  1.00  0.00    -0.371 N 
ATOM     16  C   UNL A   1      33.083  19.630  23.937  1.00  0.00     0.028 C 
ATOM     17  C   UNL A   1      32.358  20.819  23.297  1.00  0.00     0.122 C 
ATOM     18  C   UNL A   1      32.826  20.329  25.279  1.00  0.00     0.122 C 
BRANCH  16  19
ATOM     19  C   UNL A   1      32.439  18.268  23.705  1.00  0.00     0.007 C 
BRANCH  19  20
ATOM     20  C   UNL A   1      33.461  17.202  23.306  1.00  0.00    -0.003 C 
ATOM     21  C   UNL A   1      33.814  16.230  24.420  1.00  0.00     0.004 C 
ENDBRANCH  19  20
ENDBRANCH  16  19
ENDBRANCH   9  15
ENDBRANCH   5   8
ENDBRANCH   3   4
ENDBRANCH   2   3
ENDBRANCH   1   2
BRANCH   1  22
ATOM     22  C   UNL A   1      33.410  29.095  24.996  1.00  0.00     0.002 C 
BRANCH  22  23
ATOM     23  C   UNL A   1      32.717  30.132  25.880  1.00  0.00     0.021 C 
BRANCH  23  24
ATOM     24  C   UNL A   1      33.165  30.169  27.335  1.00  0.00     0.116 C 
BRANCH  24  25
ATOM     25  N   UNL A   1      33.879  31.386  27.711  1.00  0.00    -0.352 N 
ATOM     26  C   UNL A   1      35.144  31.515  28.259  1.00  0.00     0.251 C 
ATOM     27  H   UNL A   1      33.394  32.228  27.554  1.00  0.00     0.163 HD
ATOM     28  O   UNL A   1      35.550  32.624  28.597  1.00  0.00    -0.269 OA
BRANCH  26  29
ATOM     29  C   UNL A   1      36.024  30.324  28.324  1.00  0.00     0.039 A 
ATOM     30  C   UNL A   1      36.236  29.726  29.569  1.00  0.00     0.014 A 
ATOM     31  C   UNL A   1      36.824  29.983  27.235  1.00  0.00     0.014 A 
ATOM     32  C   UNL A   1      37.411  29.011  29.791  1.00  0.00     0.010 A 
ATOM     33  C   UNL A   1      38.030  29.360  27.472  1.00  0.00     0.010 A 
ATOM     34  C   UNL A   1      38.352  28.945  28.767  1.00  0.00    -0.014 A 
BRANCH  34  35
ATOM     35  C   UNL A   1      39.723  28.500  28.951  1.00  0.00     0.031 A 
ATOM     36  C   UNL A   1      40.107  27.126  28.609  1.00  0.00     0.074 A 
ATOM     37  C   UNL A   1      40.664  29.396  29.324  1.00  0.00     0.049 A 
ATOM     38  N   UNL A   1      41.154  26.540  29.078  1.00  0.00    -0.248 NA
ATOM     39  C   UNL A   1      39.314  26.299  27.712  1.00  0.00     0.031 C 
ATOM     40  C   UNL A   1      42.112  29.258  29.233  1.00  0.00     0.029 A 
ATOM     41  N   UNL A   1      40.478  30.560  30.072  1.00  0.00    -0.354 N 
ATOM     42  C   UNL A   1      41.330  25.386  28.350  1.00  0.00     0.074 A 
ATOM     43  C   UNL A   1      40.120  25.242  27.570  1.00  0.00     0.031 C 
ATOM     44  C   UNL A   1      42.680  30.104  30.106  1.00  0.00     0.029 A 
ATOM     45  C   UNL A   1      41.612  30.685  30.900  1.00  0.00     0.049 A 
ATOM     46  H   UNL A   1      39.708  31.171  30.031  1.00  0.00     0.167 HD
ATOM     47  C   UNL A   1      42.547  24.773  28.365  1.00  0.00     0.034 A 
ATOM     48  C   UNL A   1      41.548  30.722  32.265  1.00  0.00     0.034 A 
ATOM     49  C   UNL A   1      43.490  25.474  29.251  1.00  0.00     0.049 A 
ATOM     50  C   UNL A   1      42.337  29.597  32.927  1.00  0.00     0.074 A 
ATOM     51  C   UNL A   1      44.503  26.396  29.038  1.00  0.00     0.029 A 
ATOM     52  N   UNL A   1      43.256  25.479  30.616  1.00  0.00    -0.354 N 
ATOM     53  N   UNL A   1      43.065  28.719  32.292  1.00  0.00    -0.248 NA
ATOM     54  C   UNL A   1      42.247  29.306  34.357  1.00  0.00     0.031 C 
ATOM     55  C   UNL A   1      44.871  26.958  30.296  1.00  0.00     0.029 A 
ATOM     56  C   UNL A   1      44.096  26.365  31.276  1.00  0.00     0.049 A 
ATOM     57  H   UNL A   1      42.578  24.922  31.063  1.00  0.00     0.167 HD
ATOM     58  C   UNL A   1      43.373  27.682  33.141  1.00  0.00     0.074 A 
ATOM     59  C   UNL A   1      42.853  28.110  34.427  1.00  0.00     0.031 C 
ATOM     60  C   UNL A   1      43.958  26.515  32.719  1.00  0.00     0.034 A 
BRANCH  47  61
ATOM     61  C   UNL A   1      42.975  23.749  27.331  1.00  0.00     0.023 A 
ATOM     62  C   UNL A   1      43.662  24.223  26.192  1.00  0.00     0.012 A 
ATOM     63  C   UNL A   1      42.694  22.364  27.356  1.00  0.00     0.148 A 
ATOM     64  C   UNL A   1      43.939  23.410  25.089  1.00  0.00     0.002 A 
ATOM     65  C   UNL A   1      42.894  21.569  26.223  1.00  0.00     0.091 A 
ATOM     66  F   UNL A   1      42.306  21.788  28.500  1.00  0.00    -0.205 F 
ATOM     67  C   UNL A   1      43.513  22.092  25.085  1.00  0.00     0.022 A 
BRANCH  65  68
ATOM     68  S   UNL A   1      42.263  19.885  26.098  1.00  0.00     0.127 S 
ATOM     69  O   UNL A   1      42.762  19.276  27.334  1.00  0.00    -0.237 OA
ATOM     70  O   UNL A   1      40.818  20.090  26.065  1.00  0.00    -0.237 OA
ATOM     71  O   UNL A   1      42.854  19.327  24.887  1.00  0.00    -0.744 OA
ENDBRANCH  65  68
ENDBRANCH  47  61
BRANCH  48  72
ATOM     72  C   UNL A   1      40.247  31.266  32.769  1.00  0.00     0.023 A 
ATOM     73  C   UNL A   1      39.190  30.339  32.955  1.00  0.00     0.012 A 
ATOM     74  C   UNL A   1      40.192  32.493  33.447  1.00  0.00     0.148 A 
ATOM     75  C   UNL A   1      38.229  30.547  33.946  1.00  0.00     0.002 A 
ATOM     76  C   UNL A   1      39.212  32.704  34.412  1.00  0.00     0.091 A 
ATOM     77  F   UNL A   1      41.140  33.410  33.221  1.00  0.00    -0.205 F 
ATOM     78  C   UNL A   1      38.267  31.712  34.706  1.00  0.00     0.022 A 
BRANCH  76  79
ATOM     79  S   UNL A   1      39.239  34.215  35.382  1.00  0.00     0.127 S 
ATOM     80  O   UNL A   1      38.871  35.212  34.381  1.00  0.00    -0.237 OA
ATOM     81  O   UNL A   1      38.224  33.963  36.402  1.00  0.00    -0.237 OA
ATOM     82  O   UNL A   1      40.599  34.277  35.897  1.00  0.00    -0.744 OA
ENDBRANCH  76  79
ENDBRANCH  48  72
BRANCH  60  83
ATOM     83  C   UNL A   1      44.406  25.395  33.652  1.00  0.00     0.023 A 
ATOM     84  C   UNL A   1      43.468  24.535  34.258  1.00  0.00     0.012 A 
ATOM     85  C   UNL A   1      45.759  25.227  34.054  1.00  0.00     0.148 A 
ATOM     86  C   UNL A   1      43.853  23.485  35.101  1.00  0.00     0.002 A 
ATOM     87  C   UNL A   1      46.134  24.221  34.941  1.00  0.00     0.091 A 
ATOM     88  F   UNL A   1      46.700  26.057  33.596  1.00  0.00    -0.205 F 
ATOM     89  C   UNL A   1      45.187  23.323  35.436  1.00  0.00     0.022 A 
BRANCH  87  90
ATOM     90  S   UNL A   1      47.814  24.046  35.562  1.00  0.00     0.127 S 
ATOM     91  O   UNL A   1      47.665  22.929  36.496  1.00  0.00    -0.237 OA
ATOM     92  O   UNL A   1      48.552  23.723  34.341  1.00  0.00    -0.237 OA
ATOM     93  O   UNL A   1      48.162  25.317  36.180  1.00  0.00    -0.744 OA
ENDBRANCH  87  90
ENDBRANCH  60  83
ENDBRANCH  34  35
ENDBRANCH  26  29
ENDBRANCH  24  25
ENDBRANCH  23  24
ENDBRANCH  22  23
ENDBRANCH   1  22
TORSDOF 19
ENDMDL
MODEL 2
REMARK VINA RESULT:     -11.4      4.274     10.038
REMARK SMILES CCCC1CN(c2cc(C(=O)NCCCCCCNC(=O)c3ccc(-c4c5nc(c(-c6cccc(S(=O)(=O)[O-])c6F)c6ccc([nH]6)c(-c6cccc(S(=O)(=O)[O-])c6F)c6nc(c(-c7cccc(S(=O)(=O)[O-])c7F)c7ccc4[nH]7)C=C6)C=C5)cc3)ccc2C)C1
REMARK SMILES IDX 15 1 14 2 13 3 12 4 10 5 11 6 9 8 7 9 8 10 87 11 86 12 88 13
REMARK SMILES IDX 85 14 6 15 4 16 5 17 89 18 3 19 2 20 1 21 16 22 17 23 18 24
REMARK SMILES IDX 19 25 20 26 21 28 22 29 23 30 84 31 24 32 83 33 25 34 26 35
REMARK SMILES IDX 27 36 77 37 28 38 82 39 76 40 78 41 29 42 81 43 75 44 74 45
REMARK SMILES IDX 30 47 62 48 42 49 61 50 43 51 46 52 60 53 79 54 44 55 45 56
REMARK SMILES IDX 59 58 80 59 47 60 31 61 32 62 40 63 33 64 35 65 41 66 34 67
REMARK SMILES IDX 36 68 37 69 38 70 39 71 63 72 64 73 72 74 65 75 67 76 73 77
REMARK SMILES IDX 66 78 68 79 69 80 70 81 71 82 48 83 49 84 57 85 50 86 52 87
REMARK SMILES IDX 58 88 51 89 53 90 54 91 55 92 56 93
REMARK H PARENT 12 7 19 27 78 46 46 57
REMARK Flexibility Score: inf
ROOT
ATOM      1  C   UNL A   1      36.569  22.293  23.960  1.00  0.00     0.002 C 
ENDROOT
BRANCH   1   2
ATOM      2  C   UNL A   1      35.420  23.133  24.521  1.00  0.00     0.021 C 
BRANCH   2   3
ATOM      3  C   UNL A   1      34.065  23.084  23.826  1.00  0.00     0.116 C 
BRANCH   3   4
ATOM      4  N   UNL A   1      33.961  23.823  22.582  1.00  0.00    -0.352 N 
ATOM      5  C   UNL A   1      33.552  25.119  22.349  1.00  0.00     0.251 C 
ATOM      6  O   UNL A   1      33.592  25.548  21.195  1.00  0.00    -0.269 OA
ATOM      7  H   UNL A   1      34.225  23.319  21.779  1.00  0.00     0.163 HD
BRANCH   5   8
ATOM      8  C   UNL A   1      33.008  26.001  23.425  1.00  0.00     0.041 A 
ATOM      9  C   UNL A   1      31.310  27.522  24.326  1.00  0.00     0.040 A 
ATOM     10  C   UNL A   1      31.718  26.542  23.405  1.00  0.00     0.040 A 
ATOM     11  C   UNL A   1      32.150  27.798  25.424  1.00  0.00    -0.028 A 
ATOM     12  C   UNL A   1      33.407  27.172  25.506  1.00  0.00     0.006 A 
ATOM     13  C   UNL A   1      31.752  28.689  26.569  1.00  0.00     0.046 C 
ATOM     14  C   UNL A   1      33.843  26.306  24.503  1.00  0.00     0.014 A 
BRANCH   9  15
ATOM     15  N   UNL A   1      30.115  28.249  24.099  1.00  0.00    -0.371 N 
ATOM     16  C   UNL A   1      29.121  29.435  22.702  1.00  0.00     0.028 C 
ATOM     17  C   UNL A   1      30.060  29.674  23.889  1.00  0.00     0.122 C 
ATOM     18  C   UNL A   1      29.030  27.986  23.200  1.00  0.00     0.122 C 
BRANCH  16  19
ATOM     19  C   UNL A   1      27.845  30.271  22.696  1.00  0.00     0.007 C 
BRANCH  19  20
ATOM     20  C   UNL A   1      27.907  31.419  21.687  1.00  0.00    -0.003 C 
ATOM     21  C   UNL A   1      28.733  32.608  22.148  1.00  0.00     0.004 C 
ENDBRANCH  19  20
ENDBRANCH  16  19
ENDBRANCH   9  15
ENDBRANCH   5   8
ENDBRANCH   3   4
ENDBRANCH   2   3
ENDBRANCH   1   2
BRANCH   1  22
ATOM     22  C   UNL A   1      36.928  20.959  24.627  1.00  0.00     0.002 C 
BRANCH  22  23
ATOM     23  C   UNL A   1      38.273  20.820  25.339  1.00  0.00     0.021 C 
BRANCH  23  24
ATOM     24  C   UNL A   1      38.803  22.080  26.010  1.00  0.00     0.116 C 
BRANCH  24  25
ATOM     25  N   UNL A   1      40.259  22.154  26.082  1.00  0.00    -0.352 N 
ATOM     26  C   UNL A   1      41.061  23.254  26.336  1.00  0.00     0.251 C 
ATOM     27  H   UNL A   1      40.735  21.306  25.928  1.00  0.00     0.163 HD
ATOM     28  O   UNL A   1      42.283  23.144  26.269  1.00  0.00    -0.269 OA
BRANCH  26  29
ATOM     29  C   UNL A   1      40.428  24.514  26.794  1.00  0.00     0.039 A 
ATOM     30  C   UNL A   1      40.817  25.709  26.181  1.00  0.00     0.014 A 
ATOM     31  C   UNL A   1      39.682  24.538  27.970  1.00  0.00     0.014 A 
ATOM     32  C   UNL A   1      40.706  26.905  26.887  1.00  0.00     0.010 A 
ATOM     33  C   UNL A   1      39.657  25.699  28.711  1.00  0.00     0.010 A 
ATOM     34  C   UNL A   1      40.238  26.861  28.198  1.00  0.00    -0.014 A 
BRANCH  34  35
ATOM     35  C   UNL A   1      40.351  27.964  29.137  1.00  0.00     0.031 A 
ATOM     36  C   UNL A   1      39.447  29.116  29.036  1.00  0.00     0.074 A 
ATOM     37  C   UNL A   1      41.211  27.863  30.174  1.00  0.00     0.049 A 
ATOM     38  N   UNL A   1      39.703  30.270  29.548  1.00  0.00    -0.248 NA
ATOM     39  C   UNL A   1      38.179  29.048  28.326  1.00  0.00     0.031 C 
ATOM     40  C   UNL A   1      41.238  28.665  31.391  1.00  0.00     0.029 A 
ATOM     41  N   UNL A   1      42.394  27.123  30.227  1.00  0.00    -0.354 N 
ATOM     42  C   UNL A   1      38.542  31.006  29.484  1.00  0.00     0.074 A 
ATOM     43  C   UNL A   1      37.650  30.233  28.647  1.00  0.00     0.031 C 
ATOM     44  C   UNL A   1      42.468  28.597  31.924  1.00  0.00     0.029 A 
ATOM     45  C   UNL A   1      43.309  27.889  30.975  1.00  0.00     0.049 A 
ATOM     46  H   UNL A   1      42.556  26.241  29.822  1.00  0.00     0.167 HD
ATOM     47  C   UNL A   1      38.409  32.103  30.281  1.00  0.00     0.034 A 
ATOM     48  C   UNL A   1      44.511  28.318  30.485  1.00  0.00     0.034 A 
ATOM     49  C   UNL A   1      39.626  32.341  31.074  1.00  0.00     0.049 A 
ATOM     50  C   UNL A   1      44.650  29.837  30.499  1.00  0.00     0.074 A 
ATOM     51  C   UNL A   1      39.997  32.046  32.376  1.00  0.00     0.029 A 
ATOM     52  N   UNL A   1      40.793  32.710  30.424  1.00  0.00    -0.354 N 
ATOM     53  N   UNL A   1      43.766  30.666  30.986  1.00  0.00    -0.248 NA
ATOM     54  C   UNL A   1      45.750  30.535  29.834  1.00  0.00     0.031 C 
ATOM     55  C   UNL A   1      41.404  32.239  32.498  1.00  0.00     0.029 A 
ATOM     56  C   UNL A   1      41.887  32.670  31.276  1.00  0.00     0.049 A 
ATOM     57  H   UNL A   1      40.839  32.970  29.475  1.00  0.00     0.167 HD
ATOM     58  C   UNL A   1      44.052  31.941  30.560  1.00  0.00     0.074 A 
ATOM     59  C   UNL A   1      45.317  31.805  29.858  1.00  0.00     0.031 C 
ATOM     60  C   UNL A   1      43.202  33.002  30.740  1.00  0.00     0.034 A 
BRANCH  47  61
ATOM     61  C   UNL A   1      37.072  32.753  30.585  1.00  0.00     0.023 A 
ATOM     62  C   UNL A   1      36.525  32.542  31.869  1.00  0.00     0.012 A 
ATOM     63  C   UNL A   1      36.277  33.496  29.683  1.00  0.00     0.148 A 
ATOM     64  C   UNL A   1      35.223  32.928  32.204  1.00  0.00     0.002 A 
ATOM     65  C   UNL A   1      34.948  33.808  29.986  1.00  0.00     0.091 A 
ATOM     66  F   UNL A   1      36.823  33.977  28.561  1.00  0.00    -0.205 F 
ATOM     67  C   UNL A   1      34.417  33.520  31.246  1.00  0.00     0.022 A 
BRANCH  65  68
ATOM     68  S   UNL A   1      33.805  34.469  28.759  1.00  0.00     0.127 S 
ATOM     69  O   UNL A   1      34.511  35.664  28.291  1.00  0.00    -0.237 OA
ATOM     70  O   UNL A   1      33.731  33.387  27.780  1.00  0.00    -0.237 OA
ATOM     71  O   UNL A   1      32.571  34.758  29.480  1.00  0.00    -0.744 OA
ENDBRANCH  65  68
ENDBRANCH  47  61
BRANCH  48  72
ATOM     72  C   UNL A   1      45.055  27.419  29.418  1.00  0.00     0.023 A 
ATOM     73  C   UNL A   1      45.351  26.084  29.791  1.00  0.00     0.012 A 
ATOM     74  C   UNL A   1      44.858  27.709  28.059  1.00  0.00     0.148 A 
ATOM     75  C   UNL A   1      45.242  25.046  28.863  1.00  0.00     0.002 A 
ATOM     76  C   UNL A   1      44.780  26.671  27.137  1.00  0.00     0.091 A 
ATOM     77  F   UNL A   1      44.656  28.977  27.682  1.00  0.00    -0.205 F 
ATOM     78  C   UNL A   1      44.912  25.336  27.543  1.00  0.00     0.022 A 
BRANCH  76  79
ATOM     79  S   UNL A   1      44.379  27.038  25.425  1.00  0.00     0.127 S 
ATOM     80  O   UNL A   1      43.487  28.184  25.574  1.00  0.00    -0.237 OA
ATOM     81  O   UNL A   1      45.684  27.345  24.845  1.00  0.00    -0.237 OA
ATOM     82  O   UNL A   1      43.782  25.805  24.933  1.00  0.00    -0.744 OA
ENDBRANCH  76  79
ENDBRANCH  48  72
BRANCH  60  83
ATOM     83  C   UNL A   1      43.539  34.443  30.375  1.00  0.00     0.023 A 
ATOM     84  C   UNL A   1      43.709  35.426  31.371  1.00  0.00     0.012 A 
ATOM     85  C   UNL A   1      43.582  34.902  29.030  1.00  0.00     0.148 A 
ATOM     86  C   UNL A   1      44.040  36.751  31.064  1.00  0.00     0.002 A 
ATOM     87  C   UNL A   1      43.851  36.235  28.725  1.00  0.00     0.091 A 
ATOM     88  F   UNL A   1      43.343  34.054  28.026  1.00  0.00    -0.205 F 
ATOM     89  C   UNL A   1      44.119  37.154  29.741  1.00  0.00     0.022 A 
BRANCH  87  90
ATOM     90  S   UNL A   1      43.804  36.879  27.046  1.00  0.00     0.127 S 
ATOM     91  O   UNL A   1      42.383  36.745  26.722  1.00  0.00    -0.237 OA
ATOM     92  O   UNL A   1      44.256  38.255  27.241  1.00  0.00    -0.237 OA
ATOM     93  O   UNL A   1      44.692  36.039  26.256  1.00  0.00    -0.744 OA
ENDBRANCH  87  90
ENDBRANCH  60  83
ENDBRANCH  34  35
ENDBRANCH  26  29
ENDBRANCH  24  25
ENDBRANCH  23  24
ENDBRANCH  22  23
ENDBRANCH   1  22
TORSDOF 19
ENDMDL
MODEL 3
REMARK VINA RESULT:     -11.4      2.031      2.522
REMARK SMILES CCCC1CN(c2cc(C(=O)NCCCCCCNC(=O)c3ccc(-c4c5nc(c(-c6cccc(S(=O)(=O)[O-])c6F)c6ccc([nH]6)c(-c6cccc(S(=O)(=O)[O-])c6F)c6nc(c(-c7cccc(S(=O)(=O)[O-])c7F)c7ccc4[nH]7)C=C6)C=C5)cc3)ccc2C)C1
REMARK SMILES IDX 15 1 14 2 13 3 12 4 10 5 11 6 9 8 7 9 8 10 87 11 86 12 88 13
REMARK SMILES IDX 85 14 6 15 4 16 5 17 89 18 3 19 2 20 1 21 16 22 17 23 18 24
REMARK SMILES IDX 19 25 20 26 21 28 22 29 23 30 84 31 24 32 83 33 25 34 26 35
REMARK SMILES IDX 27 36 77 37 28 38 82 39 76 40 78 41 29 42 81 43 75 44 74 45
REMARK SMILES IDX 30 47 62 48 42 49 61 50 43 51 46 52 60 53 79 54 44 55 45 56
REMARK SMILES IDX 59 58 80 59 47 60 31 61 32 62 40 63 33 64 35 65 41 66 34 67
REMARK SMILES IDX 36 68 37 69 38 70 39 71 63 72 64 73 72 74 65 75 67 76 73 77
REMARK SMILES IDX 66 78 68 79 69 80 70 81 71 82 48 83 49 84 57 85 50 86 52 87
REMARK SMILES IDX 58 88 51 89 53 90 54 91 55 92 56 93
REMARK H PARENT 12 7 19 27 78 46 46 57
REMARK Flexibility Score: inf
ROOT
ATOM      1  C   UNL A   1      31.616  29.308  26.383  1.00  0.00     0.002 C 
ENDROOT
BRANCH   1   2
ATOM      2  C   UNL A   1      31.666  28.767  24.954  1.00  0.00     0.021 C 
BRANCH   2   3
ATOM      3  C   UNL A   1      31.023  27.419  24.655  1.00  0.00     0.116 C 
BRANCH   3   4
ATOM      4  N   UNL A   1      31.240  26.892  23.321  1.00  0.00    -0.352 N 
ATOM      5  C   UNL A   1      32.008  25.827  22.899  1.00  0.00     0.251 C 
ATOM      6  O   UNL A   1      32.000  25.537  21.701  1.00  0.00    -0.269 OA
ATOM      7  H   UNL A   1      30.763  27.371  22.605  1.00  0.00     0.163 HD
BRANCH   5   8
ATOM      8  C   UNL A   1      32.891  25.051  23.820  1.00  0.00     0.041 A 
ATOM      9  C   UNL A   1      33.615  22.962  24.877  1.00  0.00     0.040 A 
ATOM     10  C   UNL A   1      32.924  23.655  23.868  1.00  0.00     0.040 A 
ATOM     11  C   UNL A   1      34.471  23.696  25.724  1.00  0.00    -0.028 A 
ATOM     12  C   UNL A   1      34.525  25.096  25.606  1.00  0.00     0.006 A 
ATOM     13  C   UNL A   1      35.398  23.056  26.722  1.00  0.00     0.046 C 
ATOM     14  C   UNL A   1      33.722  25.769  24.685  1.00  0.00     0.014 A 
BRANCH   9  15
ATOM     15  N   UNL A   1      33.387  21.576  25.065  1.00  0.00    -0.371 N 
ATOM     16  C   UNL A   1      32.853  19.821  24.075  1.00  0.00     0.028 C 
ATOM     17  C   UNL A   1      32.120  20.925  24.845  1.00  0.00     0.122 C 
ATOM     18  C   UNL A   1      34.147  20.446  24.616  1.00  0.00     0.122 C 
BRANCH  16  19
ATOM     19  C   UNL A   1      32.518  18.394  24.495  1.00  0.00     0.007 C 
BRANCH  19  20
ATOM     20  C   UNL A   1      33.702  17.442  24.316  1.00  0.00    -0.003 C 
ATOM     21  C   UNL A   1      33.700  16.260  25.270  1.00  0.00     0.004 C 
ENDBRANCH  19  20
ENDBRANCH  16  19
ENDBRANCH   9  15
ENDBRANCH   5   8
ENDBRANCH   3   4
ENDBRANCH   2   3
ENDBRANCH   1   2
BRANCH   1  22
ATOM     22  C   UNL A   1      32.261  30.663  26.704  1.00  0.00     0.002 C 
BRANCH  22  23
ATOM     23  C   UNL A   1      33.385  30.728  27.737  1.00  0.00     0.021 C 
BRANCH  23  24
ATOM     24  C   UNL A   1      34.791  30.906  27.178  1.00  0.00     0.116 C 
BRANCH  24  25
ATOM     25  N   UNL A   1      35.643  31.787  27.969  1.00  0.00    -0.352 N 
ATOM     26  C   UNL A   1      36.813  31.485  28.646  1.00  0.00     0.251 C 
ATOM     27  H   UNL A   1      35.345  32.724  28.030  1.00  0.00     0.163 HD
ATOM     28  O   UNL A   1      37.353  32.343  29.340  1.00  0.00    -0.269 OA
BRANCH  26  29
ATOM     29  C   UNL A   1      37.448  30.163  28.428  1.00  0.00     0.039 A 
ATOM     30  C   UNL A   1      37.439  29.244  29.481  1.00  0.00     0.014 A 
ATOM     31  C   UNL A   1      38.260  29.950  27.316  1.00  0.00     0.014 A 
ATOM     32  C   UNL A   1      38.437  28.275  29.550  1.00  0.00     0.010 A 
ATOM     33  C   UNL A   1      39.305  29.058  27.424  1.00  0.00     0.010 A 
ATOM     34  C   UNL A   1      39.433  28.278  28.577  1.00  0.00    -0.014 A 
BRANCH  34  35
ATOM     35  C   UNL A   1      40.676  27.534  28.686  1.00  0.00     0.031 A 
ATOM     36  C   UNL A   1      40.691  26.082  28.472  1.00  0.00     0.074 A 
ATOM     37  C   UNL A   1      41.835  28.207  28.864  1.00  0.00     0.049 A 
ATOM     38  N   UNL A   1      41.622  25.307  28.908  1.00  0.00    -0.248 NA
ATOM     39  C   UNL A   1      39.631  25.393  27.753  1.00  0.00     0.031 C 
ATOM     40  C   UNL A   1      43.191  27.716  28.659  1.00  0.00     0.029 A 
ATOM     41  N   UNL A   1      42.010  29.444  29.486  1.00  0.00    -0.354 N 
ATOM     42  C   UNL A   1      41.442  24.083  28.307  1.00  0.00     0.074 A 
ATOM     43  C   UNL A   1      40.150  24.164  27.662  1.00  0.00     0.031 C 
ATOM     44  C   UNL A   1      44.037  28.476  29.372  1.00  0.00     0.029 A 
ATOM     45  C   UNL A   1      43.230  29.367  30.187  1.00  0.00     0.049 A 
ATOM     46  H   UNL A   1      41.402  30.217  29.445  1.00  0.00     0.167 HD
ATOM     47  C   UNL A   1      42.479  23.199  28.282  1.00  0.00     0.034 A 
ATOM     48  C   UNL A   1      43.336  29.544  31.538  1.00  0.00     0.034 A 
ATOM     49  C   UNL A   1      43.655  23.730  28.991  1.00  0.00     0.049 A 
ATOM     50  C   UNL A   1      43.916  28.327  32.252  1.00  0.00     0.074 A 
ATOM     51  C   UNL A   1      44.821  24.357  28.581  1.00  0.00     0.029 A 
ATOM     52  N   UNL A   1      43.588  23.916  30.362  1.00  0.00    -0.354 N 
ATOM     53  N   UNL A   1      44.344  27.245  31.660  1.00  0.00    -0.248 NA
ATOM     54  C   UNL A   1      43.928  28.198  33.709  1.00  0.00     0.031 C 
ATOM     55  C   UNL A   1      45.451  24.926  29.726  1.00  0.00     0.029 A 
ATOM     56  C   UNL A   1      44.680  24.630  30.835  1.00  0.00     0.049 A 
ATOM     57  H   UNL A   1      42.856  23.582  30.930  1.00  0.00     0.167 HD
ATOM     58  C   UNL A   1      44.501  26.246  32.592  1.00  0.00     0.074 A 
ATOM     59  C   UNL A   1      44.246  26.904  33.862  1.00  0.00     0.031 C 
ATOM     60  C   UNL A   1      44.749  24.939  32.258  1.00  0.00     0.034 A 
BRANCH  47  61
ATOM     61  C   UNL A   1      42.537  22.011  27.339  1.00  0.00     0.023 A 
ATOM     62  C   UNL A   1      41.597  20.977  27.539  1.00  0.00     0.012 A 
ATOM     63  C   UNL A   1      43.489  21.799  26.316  1.00  0.00     0.148 A 
ATOM     64  C   UNL A   1      41.669  19.756  26.862  1.00  0.00     0.002 A 
ATOM     65  C   UNL A   1      43.615  20.550  25.699  1.00  0.00     0.091 A 
ATOM     66  F   UNL A   1      44.227  22.824  25.875  1.00  0.00    -0.205 F 
ATOM     67  C   UNL A   1      42.707  19.524  25.975  1.00  0.00     0.022 A 
BRANCH  65  68
ATOM     68  S   UNL A   1      45.003  20.135  24.627  1.00  0.00     0.127 S 
ATOM     69  O   UNL A   1      44.927  18.673  24.576  1.00  0.00    -0.237 OA
ATOM     70  O   UNL A   1      44.649  20.804  23.378  1.00  0.00    -0.237 OA
ATOM     71  O   UNL A   1      46.193  20.639  25.303  1.00  0.00    -0.744 OA
ENDBRANCH  65  68
ENDBRANCH  47  61
BRANCH  48  72
ATOM     72  C   UNL A   1      42.262  30.429  32.092  1.00  0.00     0.023 A 
ATOM     73  C   UNL A   1      42.204  31.756  31.596  1.00  0.00     0.012 A 
ATOM     74  C   UNL A   1      41.119  29.887  32.697  1.00  0.00     0.148 A 
ATOM     75  C   UNL A   1      40.984  32.432  31.518  1.00  0.00     0.002 A 
ATOM     76  C   UNL A   1      39.914  30.580  32.640  1.00  0.00     0.091 A 
ATOM     77  F   UNL A   1      41.181  28.666  33.241  1.00  0.00    -0.205 F 
ATOM     78  C   UNL A   1      39.830  31.824  32.001  1.00  0.00     0.022 A 
BRANCH  76  79
ATOM     79  S   UNL A   1      38.423  29.814  33.283  1.00  0.00     0.127 S 
ATOM     80  O   UNL A   1      37.384  30.555  32.573  1.00  0.00    -0.237 OA
ATOM     81  O   UNL A   1      38.573  28.419  32.873  1.00  0.00    -0.237 OA
ATOM     82  O   UNL A   1      38.511  30.026  34.720  1.00  0.00    -0.744 OA
ENDBRANCH  76  79
ENDBRANCH  48  72
BRANCH  60  83
ATOM     83  C   UNL A   1      45.032  23.835  33.269  1.00  0.00     0.023 A 
ATOM     84  C   UNL A   1      44.002  22.991  33.732  1.00  0.00     0.012 A 
ATOM     85  C   UNL A   1      46.302  23.667  33.886  1.00  0.00     0.148 A 
ATOM     86  C   UNL A   1      44.238  21.955  34.644  1.00  0.00     0.002 A 
ATOM     87  C   UNL A   1      46.522  22.676  34.840  1.00  0.00     0.091 A 
ATOM     88  F   UNL A   1      47.311  24.483  33.571  1.00  0.00    -0.205 F 
ATOM     89  C   UNL A   1      45.500  21.792  35.192  1.00  0.00     0.022 A 
BRANCH  87  90
ATOM     90  S   UNL A   1      48.078  22.503  35.725  1.00  0.00     0.127 S 
ATOM     91  O   UNL A   1      48.296  23.871  36.200  1.00  0.00    -0.237 OA
ATOM     92  O   UNL A   1      47.723  21.546  36.771  1.00  0.00    -0.237 OA
ATOM     93  O   UNL A   1      49.055  22.030  34.756  1.00  0.00    -0.744 OA
ENDBRANCH  87  90
ENDBRANCH  60  83
ENDBRANCH  34  35
ENDBRANCH  26  29
ENDBRANCH  24  25
ENDBRANCH  23  24
ENDBRANCH  22  23
ENDBRANCH   1  22
TORSDOF 19
ENDMDL
