MODEL 1
REMARK VINA RESULT:     -11.6      0.000      0.000
REMARK SMILES CC(C)[C@@H](NC(=O)[C@@H]1CC[C@@H]2CCCC[C@@H]2[NH2+]1)C(=O)NCCCCCCNC(=O)c1ccc(-c2c3nc(c(-c4cccc(S(=O)(=O)[O-])c4F)c4ccc([nH]4)c(-c4cccc(S(=O)(=O)[O-])c4F)c4nc(c(-c5cccc(S(=O)(=O)[O-])c5F)c5ccc2[nH]5)C=C4)C=C3)cc1
REMARK SMILES IDX 24 1 23 2 22 3 21 4 20 5 18 6 19 7 4 9 2 10 1 11 3 12 5 13
REMARK SMILES IDX 6 14 7 16 8 17 9 18 17 19 10 20 16 21 11 24 15 25 12 26
REMARK SMILES IDX 14 27 13 28 25 29 26 30 27 31 28 32 29 34 30 35 31 36 92 37
REMARK SMILES IDX 32 38 91 39 33 40 34 41 35 42 85 43 36 44 90 45 84 46 86 47
REMARK SMILES IDX 37 48 89 49 83 50 82 51 38 53 70 54 50 55 69 56 51 57 54 58
REMARK SMILES IDX 68 59 87 60 52 61 53 62 67 64 88 65 55 66 39 67 40 68 48 69
REMARK SMILES IDX 41 70 43 71 49 72 42 73 44 74 45 75 46 76 47 77 71 78 72 79
REMARK SMILES IDX 80 80 73 81 75 82 81 83 74 84 76 85 77 86 78 87 79 88 56 89
REMARK SMILES IDX 57 90 65 91 58 92 60 93 66 94 59 95 61 96 62 97 63 98 64 99
REMARK H PARENT 20 8 5 15 17 22 17 23 27 33 86 52 54 63
REMARK Flexibility Score: inf
ROOT
ATOM      1  C   UNL A   1      40.790  21.690  27.846  1.00  0.00     0.002 C 
ENDROOT
BRANCH   1   2
ATOM      2  C   UNL A   1      40.471  22.728  26.749  1.00  0.00     0.002 C 
BRANCH   2   3
ATOM      3  C   UNL A   1      38.838  23.169  26.500  1.00  0.00     0.021 C 
BRANCH   3   4
ATOM      4  C   UNL A   1      37.079  22.267  25.765  1.00  0.00     0.116 C 
BRANCH   4   5
ATOM      5  N   UNL A   1      35.810  21.598  26.546  1.00  0.00    -0.354 N 
ATOM      6  C   UNL A   1      34.469  21.530  26.433  1.00  0.00     0.242 C 
ATOM      7  O   UNL A   1      33.847  20.839  27.242  1.00  0.00    -0.273 OA
ATOM      8  H   UNL A   1      36.115  21.095  27.336  1.00  0.00     0.163 HD
BRANCH   6   9
ATOM      9  C   UNL A   1      33.780  22.341  25.415  1.00  0.00     0.174 C 
BRANCH   9  10
ATOM     10  C   UNL A   1      32.864  21.322  24.648  1.00  0.00     0.015 C 
ATOM     11  C   UNL A   1      32.508  21.727  23.222  1.00  0.00     0.010 C 
ATOM     12  C   UNL A   1      33.519  19.909  24.564  1.00  0.00     0.010 C 
ENDBRANCH   9  10
BRANCH   9  13
ATOM     13  N   UNL A   1      33.202  23.417  26.236  1.00  0.00    -0.339 N 
ATOM     14  C   UNL A   1      31.867  23.818  26.224  1.00  0.00     0.278 C 
ATOM     15  H   UNL A   1      33.810  23.895  26.844  1.00  0.00     0.164 HD
ATOM     16  O   UNL A   1      31.334  23.787  27.350  1.00  0.00    -0.268 OA
BRANCH  14  17
ATOM     17  C   UNL A   1      31.024  24.562  24.995  1.00  0.00     0.272 C 
ATOM     18  C   UNL A   1      31.222  24.812  23.471  1.00  0.00     0.076 C 
ATOM     19  N   UNL A   1      30.322  25.706  25.561  1.00  0.00    -0.333 N 
ATOM     20  C   UNL A   1      31.363  26.267  22.877  1.00  0.00     0.016 C 
ATOM     21  C   UNL A   1      30.919  27.013  25.295  1.00  0.00     0.186 C 
ATOM     22  H   UNL A   1      30.281  25.578  26.572  1.00  0.00     0.347 HD
ATOM     23  H   UNL A   1      29.408  25.721  25.108  1.00  0.00     0.347 HD
ATOM     24  C   UNL A   1      32.049  27.426  23.770  1.00  0.00     0.048 C 
ATOM     25  C   UNL A   1      31.307  27.713  27.028  1.00  0.00     0.065 C 
ATOM     26  C   UNL A   1      33.801  28.292  24.153  1.00  0.00     0.010 C 
ATOM     27  C   UNL A   1      32.985  28.538  27.370  1.00  0.00     0.006 C 
ATOM     28  C   UNL A   1      34.198  28.934  25.949  1.00  0.00     0.001 C 
ENDBRANCH  14  17
ENDBRANCH   9  13
ENDBRANCH   6   9
ENDBRANCH   4   5
ENDBRANCH   3   4
ENDBRANCH   2   3
ENDBRANCH   1   2
BRANCH   1  29
ATOM     29  C   UNL A   1      41.183  20.296  27.382  1.00  0.00     0.021 C 
BRANCH  29  30
ATOM     30  C   UNL A   1      41.195  20.147  25.874  1.00  0.00     0.116 C 
BRANCH  30  31
ATOM     31  N   UNL A   1      42.422  19.505  25.436  1.00  0.00    -0.352 N 
ATOM     32  C   UNL A   1      43.604  20.113  25.083  1.00  0.00     0.251 C 
ATOM     33  H   UNL A   1      42.407  18.521  25.387  1.00  0.00     0.163 HD
ATOM     34  O   UNL A   1      44.427  19.523  24.396  1.00  0.00    -0.269 OA
BRANCH  32  35
ATOM     35  C   UNL A   1      43.854  21.495  25.547  1.00  0.00     0.039 A 
ATOM     36  C   UNL A   1      43.576  22.570  24.701  1.00  0.00     0.014 A 
ATOM     37  C   UNL A   1      44.354  21.719  26.833  1.00  0.00     0.014 A 
ATOM     38  C   UNL A   1      43.782  23.871  25.164  1.00  0.00     0.010 A 
ATOM     39  C   UNL A   1      44.429  23.011  27.332  1.00  0.00     0.010 A 
ATOM     40  C   UNL A   1      44.197  24.102  26.487  1.00  0.00    -0.014 A 
BRANCH  40  41
ATOM     41  C   UNL A   1      44.457  25.476  26.982  1.00  0.00     0.031 A 
ATOM     42  C   UNL A   1      45.856  26.037  26.939  1.00  0.00     0.074 A 
ATOM     43  C   UNL A   1      43.451  26.199  27.510  1.00  0.00     0.049 A 
ATOM     44  N   UNL A   1      46.281  27.219  27.302  1.00  0.00    -0.248 NA
ATOM     45  C   UNL A   1      46.928  25.145  26.458  1.00  0.00     0.031 C 
ATOM     46  C   UNL A   1      42.077  25.729  27.703  1.00  0.00     0.029 A 
ATOM     47  N   UNL A   1      43.431  27.484  27.991  1.00  0.00    -0.354 N 
ATOM     48  C   UNL A   1      47.661  27.197  27.130  1.00  0.00     0.074 A 
ATOM     49  C   UNL A   1      48.013  25.871  26.683  1.00  0.00     0.031 C 
ATOM     50  C   UNL A   1      41.342  26.718  28.236  1.00  0.00     0.029 A 
ATOM     51  C   UNL A   1      42.196  27.883  28.445  1.00  0.00     0.049 A 
ATOM     52  H   UNL A   1      44.224  28.065  28.009  1.00  0.00     0.167 HD
ATOM     53  C   UNL A   1      48.553  28.202  27.287  1.00  0.00     0.034 A 
ATOM     54  C   UNL A   1      41.797  29.060  28.967  1.00  0.00     0.034 A 
ATOM     55  C   UNL A   1      48.189  29.536  27.675  1.00  0.00     0.049 A 
ATOM     56  C   UNL A   1      42.794  30.184  29.062  1.00  0.00     0.074 A 
ATOM     57  C   UNL A   1      48.994  30.656  27.766  1.00  0.00     0.029 A 
ATOM     58  N   UNL A   1      46.911  29.928  28.041  1.00  0.00    -0.354 N 
ATOM     59  N   UNL A   1      44.061  30.193  28.726  1.00  0.00    -0.248 NA
ATOM     60  C   UNL A   1      42.296  31.470  29.568  1.00  0.00     0.031 C 
ATOM     61  C   UNL A   1      48.208  31.720  28.217  1.00  0.00     0.029 A 
ATOM     62  C   UNL A   1      46.906  31.272  28.371  1.00  0.00     0.049 A 
ATOM     63  H   UNL A   1      46.123  29.338  28.063  1.00  0.00     0.167 HD
ATOM     64  C   UNL A   1      44.505  31.492  28.950  1.00  0.00     0.074 A 
ATOM     65  C   UNL A   1      43.360  32.246  29.420  1.00  0.00     0.031 C 
ATOM     66  C   UNL A   1      45.747  32.013  28.796  1.00  0.00     0.034 A 
BRANCH  53  67
ATOM     67  C   UNL A   1      50.001  27.911  26.986  1.00  0.00     0.023 A 
ATOM     68  C   UNL A   1      50.864  27.504  28.025  1.00  0.00     0.012 A 
ATOM     69  C   UNL A   1      50.494  27.985  25.669  1.00  0.00     0.148 A 
ATOM     70  C   UNL A   1      52.202  27.213  27.766  1.00  0.00     0.002 A 
ATOM     71  C   UNL A   1      51.816  27.644  25.411  1.00  0.00     0.091 A 
ATOM     72  F   UNL A   1      49.666  28.396  24.699  1.00  0.00    -0.205 F 
ATOM     73  C   UNL A   1      52.675  27.270  26.458  1.00  0.00     0.022 A 
BRANCH  71  74
ATOM     74  S   UNL A   1      52.502  27.607  23.751  1.00  0.00     0.127 S 
ATOM     75  O   UNL A   1      52.538  29.029  23.414  1.00  0.00    -0.237 OA
ATOM     76  O   UNL A   1      53.814  26.999  23.976  1.00  0.00    -0.237 OA
ATOM     77  O   UNL A   1      51.587  26.801  22.954  1.00  0.00    -0.744 OA
ENDBRANCH  71  74
ENDBRANCH  53  67
BRANCH  54  78
ATOM     78  C   UNL A   1      40.376  29.255  29.368  1.00  0.00     0.023 A 
ATOM     79  C   UNL A   1      39.418  29.609  28.398  1.00  0.00     0.012 A 
ATOM     80  C   UNL A   1      39.964  29.070  30.702  1.00  0.00     0.148 A 
ATOM     81  C   UNL A   1      38.084  29.812  28.754  1.00  0.00     0.002 A 
ATOM     82  C   UNL A   1      38.624  29.216  31.039  1.00  0.00     0.091 A 
ATOM     83  F   UNL A   1      40.892  28.744  31.613  1.00  0.00    -0.205 F 
ATOM     84  C   UNL A   1      37.686  29.606  30.072  1.00  0.00     0.022 A 
BRANCH  82  85
ATOM     85  S   UNL A   1      38.000  28.840  32.681  1.00  0.00     0.127 S 
ATOM     86  O   UNL A   1      36.626  29.323  32.597  1.00  0.00    -0.237 OA
ATOM     87  O   UNL A   1      38.143  27.385  32.733  1.00  0.00    -0.237 OA
ATOM     88  O   UNL A   1      38.870  29.559  33.604  1.00  0.00    -0.744 OA
ENDBRANCH  82  85
ENDBRANCH  54  78
BRANCH  66  89
ATOM     89  C   UNL A   1      45.931  33.474  29.109  1.00  0.00     0.023 A 
ATOM     90  C   UNL A   1      46.289  33.874  30.412  1.00  0.00     0.012 A 
ATOM     91  C   UNL A   1      45.808  34.444  28.096  1.00  0.00     0.148 A 
ATOM     92  C   UNL A   1      46.478  35.222  30.711  1.00  0.00     0.002 A 
ATOM     93  C   UNL A   1      46.050  35.780  28.389  1.00  0.00     0.091 A 
ATOM     94  F   UNL A   1      45.450  34.045  26.866  1.00  0.00    -0.205 F 
ATOM     95  C   UNL A   1      46.371  36.172  29.699  1.00  0.00     0.022 A 
BRANCH  93  96
ATOM     96  S   UNL A   1      46.034  37.058  27.127  1.00  0.00     0.127 S 
ATOM     97  O   UNL A   1      44.604  37.322  26.989  1.00  0.00    -0.237 OA
ATOM     98  O   UNL A   1      46.795  38.133  27.765  1.00  0.00    -0.237 OA
ATOM     99  O   UNL A   1      46.680  36.474  25.959  1.00  0.00    -0.744 OA
ENDBRANCH  93  96
ENDBRANCH  66  89
ENDBRANCH  40  41
ENDBRANCH  32  35
ENDBRANCH  30  31
ENDBRANCH  29  30
ENDBRANCH   1  29
TORSDOF 19
ENDMDL
MODEL 2
REMARK VINA RESULT:     -11.3      5.239     12.351
REMARK SMILES CC(C)[C@@H](NC(=O)[C@@H]1CC[C@@H]2CCCC[C@@H]2[NH2+]1)C(=O)NCCCCCCNC(=O)c1ccc(-c2c3nc(c(-c4cccc(S(=O)(=O)[O-])c4F)c4ccc([nH]4)c(-c4cccc(S(=O)(=O)[O-])c4F)c4nc(c(-c5cccc(S(=O)(=O)[O-])c5F)c5ccc2[nH]5)C=C4)C=C3)cc1
REMARK SMILES IDX 24 1 23 2 22 3 21 4 20 5 18 6 19 7 4 9 2 10 1 11 3 12 5 13
REMARK SMILES IDX 6 14 7 16 8 17 9 18 17 19 10 20 16 21 11 24 15 25 12 26
REMARK SMILES IDX 14 27 13 28 25 29 26 30 27 31 28 32 29 34 30 35 31 36 92 37
REMARK SMILES IDX 32 38 91 39 33 40 34 41 35 42 85 43 36 44 90 45 84 46 86 47
REMARK SMILES IDX 37 48 89 49 83 50 82 51 38 53 70 54 50 55 69 56 51 57 54 58
REMARK SMILES IDX 68 59 87 60 52 61 53 62 67 64 88 65 55 66 39 67 40 68 48 69
REMARK SMILES IDX 41 70 43 71 49 72 42 73 44 74 45 75 46 76 47 77 71 78 72 79
REMARK SMILES IDX 80 80 73 81 75 82 81 83 74 84 76 85 77 86 78 87 79 88 56 89
REMARK SMILES IDX 57 90 65 91 58 92 60 93 66 94 59 95 61 96 62 97 63 98 64 99
REMARK H PARENT 20 8 5 15 17 22 17 23 27 33 86 52 54 63
REMARK Flexibility Score: inf
ROOT
ATOM      1  C   UNL A   1      37.178  33.319  28.889  1.00  0.00     0.002 C 
ENDROOT
BRANCH   1   2
ATOM      2  C   UNL A   1      37.383  33.840  30.327  1.00  0.00     0.002 C 
BRANCH   2   3
ATOM      3  C   UNL A   1      38.982  34.065  30.888  1.00  0.00     0.021 C 
BRANCH   3   4
ATOM      4  C   UNL A   1      40.939  33.863  30.127  1.00  0.00     0.116 C 
BRANCH   4   5
ATOM      5  N   UNL A   1      42.218  34.878  30.172  1.00  0.00    -0.354 N 
ATOM      6  C   UNL A   1      43.247  35.252  29.386  1.00  0.00     0.242 C 
ATOM      7  O   UNL A   1      44.002  36.138  29.791  1.00  0.00    -0.273 OA
ATOM      8  H   UNL A   1      42.246  35.362  31.030  1.00  0.00     0.163 HD
BRANCH   6   9
ATOM      9  C   UNL A   1      43.494  34.541  28.121  1.00  0.00     0.174 C 
BRANCH   9  10
ATOM     10  C   UNL A   1      43.038  35.547  27.004  1.00  0.00     0.015 C 
ATOM     11  C   UNL A   1      43.037  34.978  25.590  1.00  0.00     0.010 C 
ATOM     12  C   UNL A   1      41.601  36.090  27.272  1.00  0.00     0.010 C 
ENDBRANCH   9  10
BRANCH   9  13
ATOM     13  N   UNL A   1      44.906  34.156  28.268  1.00  0.00    -0.339 N 
ATOM     14  C   UNL A   1      45.369  32.892  28.627  1.00  0.00     0.278 C 
ATOM     15  H   UNL A   1      45.582  34.851  28.100  1.00  0.00     0.164 HD
ATOM     16  O   UNL A   1      46.172  32.409  27.806  1.00  0.00    -0.268 OA
BRANCH  14  17
ATOM     17  C   UNL A   1      45.201  32.108  30.089  1.00  0.00     0.272 C 
ATOM     18  C   UNL A   1      46.140  31.433  31.131  1.00  0.00     0.076 C 
ATOM     19  N   UNL A   1      43.942  31.375  30.062  1.00  0.00    -0.333 N 
ATOM     20  C   UNL A   1      46.055  29.892  31.454  1.00  0.00     0.016 C 
ATOM     21  C   UNL A   1      44.052  29.933  29.846  1.00  0.00     0.186 C 
ATOM     22  H   UNL A   1      43.371  31.762  29.311  1.00  0.00     0.347 HD
ATOM     23  H   UNL A   1      43.537  31.486  30.991  1.00  0.00     0.347 HD
ATOM     24  C   UNL A   1      45.608  28.860  30.293  1.00  0.00     0.048 C 
ATOM     25  C   UNL A   1      43.068  29.622  28.240  1.00  0.00     0.065 C 
ATOM     26  C   UNL A   1      46.340  27.690  28.856  1.00  0.00     0.010 C 
ATOM     27  C   UNL A   1      43.784  28.499  26.885  1.00  0.00     0.006 C 
ATOM     28  C   UNL A   1      45.347  27.447  27.198  1.00  0.00     0.001 C 
ENDBRANCH  14  17
ENDBRANCH   9  13
ENDBRANCH   6   9
ENDBRANCH   4   5
ENDBRANCH   3   4
ENDBRANCH   2   3
ENDBRANCH   1   2
BRANCH   1  29
ATOM     29  C   UNL A   1      35.792  33.486  28.287  1.00  0.00     0.021 C 
BRANCH  29  30
ATOM     30  C   UNL A   1      34.712  32.751  29.055  1.00  0.00     0.116 C 
BRANCH  30  31
ATOM     31  N   UNL A   1      34.024  31.808  28.190  1.00  0.00    -0.352 N 
ATOM     32  C   UNL A   1      34.560  30.713  27.554  1.00  0.00     0.251 C 
ATOM     33  H   UNL A   1      33.063  31.971  28.044  1.00  0.00     0.163 HD
ATOM     34  O   UNL A   1      33.997  30.219  26.586  1.00  0.00    -0.269 OA
BRANCH  32  35
ATOM     35  C   UNL A   1      35.830  30.152  28.062  1.00  0.00     0.039 A 
ATOM     36  C   UNL A   1      36.966  30.168  27.253  1.00  0.00     0.014 A 
ATOM     37  C   UNL A   1      35.891  29.621  29.354  1.00  0.00     0.014 A 
ATOM     38  C   UNL A   1      38.169  29.668  27.757  1.00  0.00     0.010 A 
ATOM     39  C   UNL A   1      37.113  29.250  29.894  1.00  0.00     0.010 A 
ATOM     40  C   UNL A   1      38.254  29.219  29.086  1.00  0.00    -0.014 A 
BRANCH  40  41
ATOM     41  C   UNL A   1      39.514  28.649  29.625  1.00  0.00     0.031 A 
ATOM     42  C   UNL A   1      40.131  29.235  30.870  1.00  0.00     0.074 A 
ATOM     43  C   UNL A   1      40.125  27.641  28.973  1.00  0.00     0.049 A 
ATOM     44  N   UNL A   1      41.211  28.865  31.506  1.00  0.00    -0.248 NA
ATOM     45  C   UNL A   1      39.469  30.413  31.463  1.00  0.00     0.031 C 
ATOM     46  C   UNL A   1      39.683  27.059  27.703  1.00  0.00     0.029 A 
ATOM     47  N   UNL A   1      41.257  26.932  29.285  1.00  0.00    -0.354 N 
ATOM     48  C   UNL A   1      41.376  29.779  32.541  1.00  0.00     0.074 A 
ATOM     49  C   UNL A   1      40.320  30.755  32.418  1.00  0.00     0.031 C 
ATOM     50  C   UNL A   1      40.519  26.067  27.358  1.00  0.00     0.029 A 
ATOM     51  C   UNL A   1      41.567  25.957  28.367  1.00  0.00     0.049 A 
ATOM     52  H   UNL A   1      41.797  27.105  30.089  1.00  0.00     0.167 HD
ATOM     53  C   UNL A   1      42.298  29.785  33.531  1.00  0.00     0.034 A 
ATOM     54  C   UNL A   1      42.582  25.069  28.347  1.00  0.00     0.034 A 
ATOM     55  C   UNL A   1      43.310  28.778  33.682  1.00  0.00     0.049 A 
ATOM     56  C   UNL A   1      43.550  25.051  29.498  1.00  0.00     0.074 A 
ATOM     57  C   UNL A   1      44.230  28.628  34.703  1.00  0.00     0.029 A 
ATOM     58  N   UNL A   1      43.538  27.750  32.780  1.00  0.00    -0.354 N 
ATOM     59  N   UNL A   1      43.583  25.817  30.562  1.00  0.00    -0.248 NA
ATOM     60  C   UNL A   1      44.594  24.018  29.469  1.00  0.00     0.031 C 
ATOM     61  C   UNL A   1      45.035  27.525  34.404  1.00  0.00     0.029 A 
ATOM     62  C   UNL A   1      44.593  26.967  33.215  1.00  0.00     0.049 A 
ATOM     63  H   UNL A   1      43.026  27.599  31.953  1.00  0.00     0.167 HD
ATOM     64  C   UNL A   1      44.629  25.341  31.343  1.00  0.00     0.074 A 
ATOM     65  C   UNL A   1      45.183  24.200  30.642  1.00  0.00     0.031 C 
ATOM     66  C   UNL A   1      45.102  25.811  32.524  1.00  0.00     0.034 A 
BRANCH  53  67
ATOM     67  C   UNL A   1      42.218  30.884  34.559  1.00  0.00     0.023 A 
ATOM     68  C   UNL A   1      41.498  30.675  35.754  1.00  0.00     0.012 A 
ATOM     69  C   UNL A   1      42.901  32.102  34.370  1.00  0.00     0.148 A 
ATOM     70  C   UNL A   1      41.427  31.671  36.727  1.00  0.00     0.002 A 
ATOM     71  C   UNL A   1      42.867  33.070  35.366  1.00  0.00     0.091 A 
ATOM     72  F   UNL A   1      43.560  32.293  33.219  1.00  0.00    -0.205 F 
ATOM     73  C   UNL A   1      42.121  32.862  36.539  1.00  0.00     0.022 A 
BRANCH  71  74
ATOM     74  S   UNL A   1      43.792  34.606  35.257  1.00  0.00     0.127 S 
ATOM     75  O   UNL A   1      43.594  34.972  33.856  1.00  0.00    -0.237 OA
ATOM     76  O   UNL A   1      43.085  35.457  36.216  1.00  0.00    -0.237 OA
ATOM     77  O   UNL A   1      45.162  34.279  35.629  1.00  0.00    -0.744 OA
ENDBRANCH  71  74
ENDBRANCH  53  67
BRANCH  54  78
ATOM     78  C   UNL A   1      42.687  24.082  27.236  1.00  0.00     0.023 A 
ATOM     79  C   UNL A   1      43.405  24.415  26.071  1.00  0.00     0.012 A 
ATOM     80  C   UNL A   1      42.097  22.807  27.336  1.00  0.00     0.148 A 
ATOM     81  C   UNL A   1      43.504  23.512  25.012  1.00  0.00     0.002 A 
ATOM     82  C   UNL A   1      42.249  21.892  26.302  1.00  0.00     0.091 A 
ATOM     83  F   UNL A   1      41.409  22.512  28.447  1.00  0.00    -0.205 F 
ATOM     84  C   UNL A   1      42.935  22.248  25.131  1.00  0.00     0.022 A 
BRANCH  82  85
ATOM     85  S   UNL A   1      41.665  20.198  26.426  1.00  0.00     0.127 S 
ATOM     86  O   UNL A   1      42.191  19.795  27.727  1.00  0.00    -0.237 OA
ATOM     87  O   UNL A   1      40.214  20.372  26.372  1.00  0.00    -0.237 OA
ATOM     88  O   UNL A   1      42.228  19.505  25.273  1.00  0.00    -0.744 OA
ENDBRANCH  82  85
ENDBRANCH  54  78
BRANCH  66  89
ATOM     89  C   UNL A   1      46.255  25.075  33.152  1.00  0.00     0.023 A 
ATOM     90  C   UNL A   1      47.572  25.540  32.961  1.00  0.00     0.012 A 
ATOM     91  C   UNL A   1      46.028  23.960  33.981  1.00  0.00     0.148 A 
ATOM     92  C   UNL A   1      48.649  24.879  33.550  1.00  0.00     0.002 A 
ATOM     93  C   UNL A   1      47.101  23.339  34.608  1.00  0.00     0.091 A 
ATOM     94  F   UNL A   1      44.770  23.523  34.137  1.00  0.00    -0.205 F 
ATOM     95  C   UNL A   1      48.412  23.787  34.382  1.00  0.00     0.022 A 
BRANCH  93  96
ATOM     96  S   UNL A   1      46.881  21.991  35.775  1.00  0.00     0.127 S 
ATOM     97  O   UNL A   1      45.934  22.572  36.725  1.00  0.00    -0.237 OA
ATOM     98  O   UNL A   1      46.326  20.935  34.928  1.00  0.00    -0.237 OA
ATOM     99  O   UNL A   1      48.206  21.703  36.307  1.00  0.00    -0.744 OA
ENDBRANCH  93  96
ENDBRANCH  66  89
ENDBRANCH  40  41
ENDBRANCH  32  35
ENDBRANCH  30  31
ENDBRANCH  29  30
ENDBRANCH   1  29
TORSDOF 19
ENDMDL
MODEL 3
REMARK VINA RESULT:     -11.2      6.031     11.511
REMARK SMILES CC(C)[C@@H](NC(=O)[C@@H]1CC[C@@H]2CCCC[C@@H]2[NH2+]1)C(=O)NCCCCCCNC(=O)c1ccc(-c2c3nc(c(-c4cccc(S(=O)(=O)[O-])c4F)c4ccc([nH]4)c(-c4cccc(S(=O)(=O)[O-])c4F)c4nc(c(-c5cccc(S(=O)(=O)[O-])c5F)c5ccc2[nH]5)C=C4)C=C3)cc1
REMARK SMILES IDX 24 1 23 2 22 3 21 4 20 5 18 6 19 7 4 9 2 10 1 11 3 12 5 13
REMARK SMILES IDX 6 14 7 16 8 17 9 18 17 19 10 20 16 21 11 24 15 25 12 26
REMARK SMILES IDX 14 27 13 28 25 29 26 30 27 31 28 32 29 34 30 35 31 36 92 37
REMARK SMILES IDX 32 38 91 39 33 40 34 41 35 42 85 43 36 44 90 45 84 46 86 47
REMARK SMILES IDX 37 48 89 49 83 50 82 51 38 53 70 54 50 55 69 56 51 57 54 58
REMARK SMILES IDX 68 59 87 60 52 61 53 62 67 64 88 65 55 66 39 67 40 68 48 69
REMARK SMILES IDX 41 70 43 71 49 72 42 73 44 74 45 75 46 76 47 77 71 78 72 79
REMARK SMILES IDX 80 80 73 81 75 82 81 83 74 84 76 85 77 86 78 87 79 88 56 89
REMARK SMILES IDX 57 90 65 91 58 92 60 93 66 94 59 95 61 96 62 97 63 98 64 99
REMARK H PARENT 20 8 5 15 17 22 17 23 27 33 86 52 54 63
REMARK Flexibility Score: inf
ROOT
ATOM      1  C   UNL A   1      35.429  33.432  28.001  1.00  0.00     0.002 C 
ENDROOT
BRANCH   1   2
ATOM      2  C   UNL A   1      35.156  32.100  28.732  1.00  0.00     0.002 C 
BRANCH   2   3
ATOM      3  C   UNL A   1      34.162  30.942  27.963  1.00  0.00     0.021 C 
BRANCH   3   4
ATOM      4  C   UNL A   1      34.417  29.223  26.767  1.00  0.00     0.116 C 
BRANCH   4   5
ATOM      5  N   UNL A   1      34.323  29.019  25.149  1.00  0.00    -0.354 N 
ATOM      6  C   UNL A   1      33.490  28.474  24.241  1.00  0.00     0.242 C 
ATOM      7  O   UNL A   1      33.773  28.585  23.046  1.00  0.00    -0.273 OA
ATOM      8  H   UNL A   1      35.110  29.409  24.704  1.00  0.00     0.163 HD
BRANCH   6   9
ATOM      9  C   UNL A   1      32.327  27.693  24.693  1.00  0.00     0.174 C 
BRANCH   9  10
ATOM     10  C   UNL A   1      31.124  28.703  24.638  1.00  0.00     0.015 C 
ATOM     11  C   UNL A   1      31.403  30.065  25.261  1.00  0.00     0.010 C 
ATOM     12  C   UNL A   1      30.660  28.964  23.172  1.00  0.00     0.010 C 
ENDBRANCH   9  10
BRANCH   9  13
ATOM     13  N   UNL A   1      32.385  26.528  23.797  1.00  0.00    -0.339 N 
ATOM     14  C   UNL A   1      31.490  25.460  23.795  1.00  0.00     0.278 C 
ATOM     15  H   UNL A   1      33.120  26.501  23.143  1.00  0.00     0.164 HD
ATOM     16  O   UNL A   1      30.964  25.260  22.684  1.00  0.00    -0.268 OA
BRANCH  14  17
ATOM     17  C   UNL A   1      31.263  24.302  24.972  1.00  0.00     0.272 C 
ATOM     18  C   UNL A   1      31.374  24.223  26.522  1.00  0.00     0.076 C 
ATOM     19  N   UNL A   1      31.655  23.015  24.416  1.00  0.00    -0.333 N 
ATOM     20  C   UNL A   1      32.417  23.279  27.236  1.00  0.00     0.016 C 
ATOM     21  C   UNL A   1      32.956  22.507  24.845  1.00  0.00     0.186 C 
ATOM     22  H   UNL A   1      31.672  23.105  23.400  1.00  0.00     0.347 HD
ATOM     23  H   UNL A   1      30.968  22.343  24.761  1.00  0.00     0.347 HD
ATOM     24  C   UNL A   1      33.831  22.972  26.516  1.00  0.00     0.048 C 
ATOM     25  C   UNL A   1      33.952  22.338  23.226  1.00  0.00     0.065 C 
ATOM     26  C   UNL A   1      35.714  23.612  26.402  1.00  0.00     0.010 C 
ATOM     27  C   UNL A   1      35.748  22.953  23.140  1.00  0.00     0.006 C 
ATOM     28  C   UNL A   1      36.683  23.492  24.716  1.00  0.00     0.001 C 
ENDBRANCH  14  17
ENDBRANCH   9  13
ENDBRANCH   6   9
ENDBRANCH   4   5
ENDBRANCH   3   4
ENDBRANCH   2   3
ENDBRANCH   1   2
BRANCH   1  29
ATOM     29  C   UNL A   1      34.543  34.613  28.366  1.00  0.00     0.021 C 
BRANCH  29  30
ATOM     30  C   UNL A   1      33.249  34.205  29.043  1.00  0.00     0.116 C 
BRANCH  30  31
ATOM     31  N   UNL A   1      32.902  35.150  30.090  1.00  0.00    -0.352 N 
ATOM     32  C   UNL A   1      33.322  35.139  31.399  1.00  0.00     0.251 C 
ATOM     33  H   UNL A   1      32.298  35.884  29.832  1.00  0.00     0.163 HD
ATOM     34  O   UNL A   1      32.697  35.745  32.259  1.00  0.00    -0.269 OA
BRANCH  32  35
ATOM     35  C   UNL A   1      34.540  34.374  31.744  1.00  0.00     0.039 A 
ATOM     36  C   UNL A   1      34.425  33.075  32.238  1.00  0.00     0.014 A 
ATOM     37  C   UNL A   1      35.800  34.952  31.562  1.00  0.00     0.014 A 
ATOM     38  C   UNL A   1      35.584  32.351  32.526  1.00  0.00     0.010 A 
ATOM     39  C   UNL A   1      36.944  34.184  31.722  1.00  0.00     0.010 A 
ATOM     40  C   UNL A   1      36.852  32.895  32.257  1.00  0.00    -0.014 A 
BRANCH  40  41
ATOM     41  C   UNL A   1      38.092  32.154  32.593  1.00  0.00     0.031 A 
ATOM     42  C   UNL A   1      38.836  32.473  33.865  1.00  0.00     0.074 A 
ATOM     43  C   UNL A   1      38.573  31.231  31.738  1.00  0.00     0.049 A 
ATOM     44  N   UNL A   1      39.922  31.924  34.345  1.00  0.00    -0.248 NA
ATOM     45  C   UNL A   1      38.316  33.576  34.695  1.00  0.00     0.031 C 
ATOM     46  C   UNL A   1      38.002  30.908  30.428  1.00  0.00     0.029 A 
ATOM     47  N   UNL A   1      39.661  30.401  31.838  1.00  0.00    -0.354 N 
ATOM     48  C   UNL A   1      40.230  32.634  35.500  1.00  0.00     0.074 A 
ATOM     49  C   UNL A   1      39.252  33.689  35.624  1.00  0.00     0.031 C 
ATOM     50  C   UNL A   1      38.728  29.932  29.859  1.00  0.00     0.029 A 
ATOM     51  C   UNL A   1      39.828  29.578  30.749  1.00  0.00     0.049 A 
ATOM     52  H   UNL A   1      40.265  30.396  32.614  1.00  0.00     0.167 HD
ATOM     53  C   UNL A   1      41.212  32.406  36.401  1.00  0.00     0.034 A 
ATOM     54  C   UNL A   1      40.761  28.637  30.503  1.00  0.00     0.034 A 
ATOM     55  C   UNL A   1      42.145  31.318  36.303  1.00  0.00     0.049 A 
ATOM     56  C   UNL A   1      41.798  28.353  31.556  1.00  0.00     0.074 A 
ATOM     57  C   UNL A   1      43.114  30.931  37.210  1.00  0.00     0.029 A 
ATOM     58  N   UNL A   1      42.227  30.446  35.229  1.00  0.00    -0.354 N 
ATOM     59  N   UNL A   1      41.964  28.922  32.725  1.00  0.00    -0.248 NA
ATOM     60  C   UNL A   1      42.749  27.270  31.274  1.00  0.00     0.031 C 
ATOM     61  C   UNL A   1      43.803  29.842  36.670  1.00  0.00     0.029 A 
ATOM     62  C   UNL A   1      43.239  29.528  35.443  1.00  0.00     0.049 A 
ATOM     63  H   UNL A   1      41.651  30.475  34.431  1.00  0.00     0.167 HD
ATOM     64  C   UNL A   1      43.017  28.247  33.332  1.00  0.00     0.074 A 
ATOM     65  C   UNL A   1      43.427  27.206  32.411  1.00  0.00     0.031 C 
ATOM     66  C   UNL A   1      43.604  28.473  34.533  1.00  0.00     0.034 A 
BRANCH  53  67
ATOM     67  C   UNL A   1      41.292  33.315  37.600  1.00  0.00     0.023 A 
ATOM     68  C   UNL A   1      40.503  33.046  38.738  1.00  0.00     0.012 A 
ATOM     69  C   UNL A   1      42.187  34.403  37.623  1.00  0.00     0.148 A 
ATOM     70  C   UNL A   1      40.575  33.863  39.865  1.00  0.00     0.002 A 
ATOM     71  C   UNL A   1      42.290  35.183  38.769  1.00  0.00     0.091 A 
ATOM     72  F   UNL A   1      42.910  34.659  36.525  1.00  0.00    -0.205 F 
ATOM     73  C   UNL A   1      41.477  34.924  39.885  1.00  0.00     0.022 A 
BRANCH  71  74
ATOM     74  S   UNL A   1      43.476  36.522  38.927  1.00  0.00     0.127 S 
ATOM     75  O   UNL A   1      44.692  35.905  38.398  1.00  0.00    -0.237 OA
ATOM     76  O   UNL A   1      42.891  37.552  38.067  1.00  0.00    -0.237 OA
ATOM     77  O   UNL A   1      43.515  36.862  40.343  1.00  0.00    -0.744 OA
ENDBRANCH  71  74
ENDBRANCH  53  67
BRANCH  54  78
ATOM     78  C   UNL A   1      40.711  27.849  29.239  1.00  0.00     0.023 A 
ATOM     79  C   UNL A   1      39.749  26.832  29.088  1.00  0.00     0.012 A 
ATOM     80  C   UNL A   1      41.597  28.118  28.178  1.00  0.00     0.148 A 
ATOM     81  C   UNL A   1      39.694  26.071  27.919  1.00  0.00     0.002 A 
ATOM     82  C   UNL A   1      41.498  27.397  26.995  1.00  0.00     0.091 A 
ATOM     83  F   UNL A   1      42.512  29.083  28.344  1.00  0.00    -0.205 F 
ATOM     84  C   UNL A   1      40.561  26.360  26.869  1.00  0.00     0.022 A 
BRANCH  82  85
ATOM     85  S   UNL A   1      42.483  27.791  25.545  1.00  0.00     0.127 S 
ATOM     86  O   UNL A   1      43.819  27.919  26.117  1.00  0.00    -0.237 OA
ATOM     87  O   UNL A   1      42.278  26.608  24.709  1.00  0.00    -0.237 OA
ATOM     88  O   UNL A   1      41.906  29.014  25.001  1.00  0.00    -0.744 OA
ENDBRANCH  82  85
ENDBRANCH  54  78
BRANCH  66  89
ATOM     89  C   UNL A   1      44.731  27.562  34.938  1.00  0.00     0.023 A 
ATOM     90  C   UNL A   1      46.066  27.960  34.729  1.00  0.00     0.012 A 
ATOM     91  C   UNL A   1      44.466  26.337  35.581  1.00  0.00     0.148 A 
ATOM     92  C   UNL A   1      47.121  27.133  35.114  1.00  0.00     0.002 A 
ATOM     93  C   UNL A   1      45.523  25.543  36.011  1.00  0.00     0.091 A 
ATOM     94  F   UNL A   1      43.189  25.968  35.757  1.00  0.00    -0.205 F 
ATOM     95  C   UNL A   1      46.849  25.932  35.764  1.00  0.00     0.022 A 
BRANCH  93  96
ATOM     96  S   UNL A   1      45.268  24.032  36.946  1.00  0.00     0.127 S 
ATOM     97  O   UNL A   1      46.642  23.616  37.221  1.00  0.00    -0.237 OA
ATOM     98  O   UNL A   1      44.529  24.510  38.115  1.00  0.00    -0.237 OA
ATOM     99  O   UNL A   1      44.508  23.145  36.074  1.00  0.00    -0.744 OA
ENDBRANCH  93  96
ENDBRANCH  66  89
ENDBRANCH  40  41
ENDBRANCH  32  35
ENDBRANCH  30  31
ENDBRANCH  29  30
ENDBRANCH   1  29
TORSDOF 19
ENDMDL
