MODEL 1
REMARK VINA RESULT:     -12.0      0.000      0.000
REMARK SMILES NS(=O)(=O)c1ccc(C(=O)N2CC[C@H](c3ccccc3C(=O)NCCCCCCNC(=O)c3ccc(-c4c5nc(c(-c6cccc(S(=O)(=O)[O-])c6F)c6ccc([nH]6)c(-c6cccc(S(=O)(=O)[O-])c6F)c6nc(c(-c7cccc(S(=O)(=O)[O-])c7F)c7ccc4[nH]7)C=C6)C=C5)cc3)C2)cc1
REMARK SMILES IDX 25 1 24 2 23 3 21 4 22 5 20 7 15 8 16 9 17 10 19 11 18 12
REMARK SMILES IDX 14 13 11 14 12 15 96 16 13 17 9 18 10 19 8 20 5 21 6 22
REMARK SMILES IDX 98 23 7 24 97 25 2 26 3 27 4 28 1 29 26 32 27 33 28 34 29 35
REMARK SMILES IDX 30 36 31 37 32 39 33 40 34 41 95 42 35 43 94 44 36 45 37 46
REMARK SMILES IDX 38 47 88 48 39 49 93 50 87 51 89 52 40 53 92 54 86 55 85 56
REMARK SMILES IDX 41 58 73 59 53 60 72 61 54 62 57 63 71 64 90 65 55 66 56 67
REMARK SMILES IDX 70 69 91 70 58 71 42 72 43 73 51 74 44 75 46 76 52 77 45 78
REMARK SMILES IDX 47 79 48 80 49 81 50 82 74 83 75 84 83 85 76 86 78 87 84 88
REMARK SMILES IDX 77 89 79 90 80 91 81 92 82 93 59 94 60 95 68 96 61 97 63 98
REMARK SMILES IDX 69 99 62 100 64 101 65 102 66 103 67 104
REMARK H PARENT 23 6 1 30 1 31 30 38 89 57 57 68
REMARK Flexibility Score: inf
ROOT
ATOM      1  C   UNL A   1      32.942  26.408  25.808  1.00  0.00     0.021 C 
ENDROOT
BRANCH   1   2
ATOM      2  C   UNL A   1      33.389  25.685  24.537  1.00  0.00     0.116 C 
BRANCH   2   3
ATOM      3  N   UNL A   1      34.369  24.652  24.839  1.00  0.00    -0.352 N 
ATOM      4  C   UNL A   1      34.800  23.780  23.865  1.00  0.00     0.251 C 
ATOM      5  O   UNL A   1      35.294  24.167  22.812  1.00  0.00    -0.269 OA
ATOM      6  H   UNL A   1      34.727  24.575  25.754  1.00  0.00     0.163 HD
BRANCH   4   7
ATOM      7  C   UNL A   1      34.740  22.323  24.202  1.00  0.00     0.043 A 
ATOM      8  C   UNL A   1      35.859  21.557  24.625  1.00  0.00    -0.030 A 
ATOM      9  C   UNL A   1      35.646  20.201  24.933  1.00  0.00     0.005 A 
ATOM     10  C   UNL A   1      34.372  19.633  24.869  1.00  0.00     0.000 A 
ATOM     11  C   UNL A   1      33.461  21.744  24.159  1.00  0.00     0.014 A 
ATOM     12  C   UNL A   1      33.279  20.404  24.492  1.00  0.00     0.001 A 
BRANCH   8  13
ATOM     13  C   UNL A   1      37.211  22.198  24.845  1.00  0.00     0.041 C 
ATOM     14  N   UNL A   1      39.256  22.211  26.066  1.00  0.00    -0.338 N 
ATOM     15  C   UNL A   1      38.635  23.513  26.182  1.00  0.00     0.120 C 
ATOM     16  C   UNL A   1      38.476  21.359  25.170  1.00  0.00     0.128 C 
ATOM     17  C   UNL A   1      37.170  23.164  26.048  1.00  0.00     0.032 C 
BRANCH  14  18
ATOM     18  C   UNL A   1      40.225  21.624  26.869  1.00  0.00     0.253 C 
ATOM     19  O   UNL A   1      40.156  21.702  28.093  1.00  0.00    -0.269 OA
BRANCH  18  20
ATOM     20  C   UNL A   1      41.452  21.044  26.235  1.00  0.00     0.040 A 
ATOM     21  C   UNL A   1      43.875  19.951  25.325  1.00  0.00     0.082 A 
ATOM     22  C   UNL A   1      42.836  19.112  25.723  1.00  0.00     0.022 A 
ATOM     23  C   UNL A   1      43.721  21.330  25.387  1.00  0.00     0.022 A 
ATOM     24  C   UNL A   1      41.617  19.656  26.164  1.00  0.00     0.015 A 
ATOM     25  C   UNL A   1      42.537  21.861  25.882  1.00  0.00     0.015 A 
BRANCH  21  26
ATOM     26  S   UNL A   1      45.458  19.328  24.857  1.00  0.00     0.238 S 
ATOM     27  O   UNL A   1      46.522  20.218  25.242  1.00  0.00    -0.207 OA
ATOM     28  O   UNL A   1      45.362  18.811  23.507  1.00  0.00    -0.207 OA
BRANCH  26  29
ATOM     29  N   UNL A   1      45.588  17.963  25.830  1.00  0.00    -0.225 NA
ATOM     30  H   UNL A   1      44.676  17.740  26.229  1.00  0.00     0.137 HD
ATOM     31  H   UNL A   1      46.253  18.143  26.583  1.00  0.00     0.137 HD
ENDBRANCH  26  29
ENDBRANCH  21  26
ENDBRANCH  18  20
ENDBRANCH  14  18
ENDBRANCH   8  13
ENDBRANCH   4   7
ENDBRANCH   2   3
ENDBRANCH   1   2
BRANCH   1  32
ATOM     32  C   UNL A   1      32.591  27.877  25.567  1.00  0.00     0.002 C 
BRANCH  32  33
ATOM     33  C   UNL A   1      32.200  28.680  26.812  1.00  0.00     0.002 C 
BRANCH  33  34
ATOM     34  C   UNL A   1      32.069  30.192  26.617  1.00  0.00     0.021 C 
BRANCH  34  35
ATOM     35  C   UNL A   1      33.274  31.036  27.007  1.00  0.00     0.116 C 
BRANCH  35  36
ATOM     36  N   UNL A   1      32.945  32.433  27.226  1.00  0.00    -0.352 N 
ATOM     37  C   UNL A   1      33.474  33.335  28.117  1.00  0.00     0.251 C 
ATOM     38  H   UNL A   1      32.234  32.790  26.646  1.00  0.00     0.163 HD
ATOM     39  O   UNL A   1      32.950  34.439  28.240  1.00  0.00    -0.269 OA
BRANCH  37  40
ATOM     40  C   UNL A   1      34.648  32.976  28.945  1.00  0.00     0.039 A 
ATOM     41  C   UNL A   1      34.457  32.152  30.058  1.00  0.00     0.014 A 
ATOM     42  C   UNL A   1      35.927  33.451  28.643  1.00  0.00     0.014 A 
ATOM     43  C   UNL A   1      35.554  31.753  30.825  1.00  0.00     0.010 A 
ATOM     44  C   UNL A   1      37.029  32.986  29.358  1.00  0.00     0.010 A 
ATOM     45  C   UNL A   1      36.855  32.138  30.461  1.00  0.00    -0.014 A 
BRANCH  45  46
ATOM     46  C   UNL A   1      38.043  31.654  31.214  1.00  0.00     0.031 A 
ATOM     47  C   UNL A   1      38.927  30.581  30.637  1.00  0.00     0.074 A 
ATOM     48  C   UNL A   1      38.280  32.122  32.455  1.00  0.00     0.049 A 
ATOM     49  N   UNL A   1      39.970  29.997  31.170  1.00  0.00    -0.248 NA
ATOM     50  C   UNL A   1      38.583  30.079  29.296  1.00  0.00     0.031 C 
ATOM     51  C   UNL A   1      37.454  33.102  33.164  1.00  0.00     0.029 A 
ATOM     52  N   UNL A   1      39.273  31.816  33.352  1.00  0.00    -0.354 N 
ATOM     53  C   UNL A   1      40.381  29.038  30.253  1.00  0.00     0.074 A 
ATOM     54  C   UNL A   1      39.459  29.097  29.140  1.00  0.00     0.031 C 
ATOM     55  C   UNL A   1      37.978  33.322  34.381  1.00  0.00     0.029 A 
ATOM     56  C   UNL A   1      39.156  32.476  34.552  1.00  0.00     0.049 A 
ATOM     57  H   UNL A   1      40.001  31.183  33.154  1.00  0.00     0.167 HD
ATOM     58  C   UNL A   1      41.449  28.205  30.313  1.00  0.00     0.034 A 
ATOM     59  C   UNL A   1      39.904  32.400  35.670  1.00  0.00     0.034 A 
ATOM     60  C   UNL A   1      42.396  28.183  31.394  1.00  0.00     0.049 A 
ATOM     61  C   UNL A   1      41.094  31.483  35.700  1.00  0.00     0.074 A 
ATOM     62  C   UNL A   1      43.566  27.450  31.496  1.00  0.00     0.029 A 
ATOM     63  N   UNL A   1      42.281  28.917  32.564  1.00  0.00    -0.354 N 
ATOM     64  N   UNL A   1      41.563  30.709  34.754  1.00  0.00    -0.248 NA
ATOM     65  C   UNL A   1      41.876  31.452  36.946  1.00  0.00     0.031 C 
ATOM     66  C   UNL A   1      44.147  27.725  32.738  1.00  0.00     0.029 A 
ATOM     67  C   UNL A   1      43.351  28.645  33.400  1.00  0.00     0.049 A 
ATOM     68  H   UNL A   1      41.547  29.539  32.771  1.00  0.00     0.167 HD
ATOM     69  C   UNL A   1      42.711  30.124  35.277  1.00  0.00     0.074 A 
ATOM     70  C   UNL A   1      42.880  30.654  36.613  1.00  0.00     0.031 C 
ATOM     71  C   UNL A   1      43.540  29.217  34.707  1.00  0.00     0.034 A 
BRANCH  58  72
ATOM     72  C   UNL A   1      41.690  27.287  29.145  1.00  0.00     0.023 A 
ATOM     73  C   UNL A   1      41.131  25.992  29.157  1.00  0.00     0.012 A 
ATOM     74  C   UNL A   1      42.399  27.724  28.010  1.00  0.00     0.148 A 
ATOM     75  C   UNL A   1      41.300  25.136  28.070  1.00  0.00     0.002 A 
ATOM     76  C   UNL A   1      42.526  26.880  26.912  1.00  0.00     0.091 A 
ATOM     77  F   UNL A   1      42.939  28.951  28.025  1.00  0.00    -0.205 F 
ATOM     78  C   UNL A   1      41.986  25.583  26.944  1.00  0.00     0.022 A 
BRANCH  76  79
ATOM     79  S   UNL A   1      43.324  27.387  25.384  1.00  0.00     0.127 S 
ATOM     80  O   UNL A   1      44.456  28.165  25.886  1.00  0.00    -0.237 OA
ATOM     81  O   UNL A   1      43.686  26.102  24.785  1.00  0.00    -0.237 OA
ATOM     82  O   UNL A   1      42.326  28.144  24.642  1.00  0.00    -0.744 OA
ENDBRANCH  76  79
ENDBRANCH  58  72
BRANCH  59  83
ATOM     83  C   UNL A   1      39.578  33.246  36.850  1.00  0.00     0.023 A 
ATOM     84  C   UNL A   1      40.113  34.547  36.937  1.00  0.00     0.012 A 
ATOM     85  C   UNL A   1      38.749  32.771  37.880  1.00  0.00     0.148 A 
ATOM     86  C   UNL A   1      39.859  35.347  38.052  1.00  0.00     0.002 A 
ATOM     87  C   UNL A   1      38.460  33.592  38.960  1.00  0.00     0.091 A 
ATOM     88  F   UNL A   1      38.235  31.538  37.764  1.00  0.00    -0.205 F 
ATOM     89  C   UNL A   1      39.030  34.870  39.061  1.00  0.00     0.022 A 
BRANCH  87  90
ATOM     90  S   UNL A   1      37.295  33.130  40.235  1.00  0.00     0.127 S 
ATOM     91  O   UNL A   1      37.252  34.332  41.063  1.00  0.00    -0.237 OA
ATOM     92  O   UNL A   1      36.097  32.875  39.434  1.00  0.00    -0.237 OA
ATOM     93  O   UNL A   1      37.860  31.954  40.883  1.00  0.00    -0.744 OA
ENDBRANCH  87  90
ENDBRANCH  59  83
BRANCH  71  94
ATOM     94  C   UNL A   1      44.729  28.762  35.509  1.00  0.00     0.023 A 
ATOM     95  C   UNL A   1      45.959  29.437  35.381  1.00  0.00     0.012 A 
ATOM     96  C   UNL A   1      44.612  27.705  36.432  1.00  0.00     0.148 A 
ATOM     97  C   UNL A   1      47.063  29.046  36.137  1.00  0.00     0.002 A 
ATOM     98  C   UNL A   1      45.704  27.351  37.216  1.00  0.00     0.091 A 
ATOM     99  F   UNL A   1      43.440  27.060  36.522  1.00  0.00    -0.205 F 
ATOM    100  C   UNL A   1      46.933  28.013  37.062  1.00  0.00     0.022 A 
BRANCH  98 101
ATOM    101  S   UNL A   1      45.601  26.096  38.497  1.00  0.00     0.127 S 
ATOM    102  O   UNL A   1      46.951  26.131  39.057  1.00  0.00    -0.237 OA
ATOM    103  O   UNL A   1      44.561  26.632  39.376  1.00  0.00    -0.237 OA
ATOM    104  O   UNL A   1      45.239  24.859  37.817  1.00  0.00    -0.744 OA
ENDBRANCH  98 101
ENDBRANCH  71  94
ENDBRANCH  45  46
ENDBRANCH  37  40
ENDBRANCH  35  36
ENDBRANCH  34  35
ENDBRANCH  33  34
ENDBRANCH  32  33
ENDBRANCH   1  32
TORSDOF 21
ENDMDL
MODEL 2
REMARK VINA RESULT:     -11.5      5.020     12.278
REMARK SMILES NS(=O)(=O)c1ccc(C(=O)N2CC[C@H](c3ccccc3C(=O)NCCCCCCNC(=O)c3ccc(-c4c5nc(c(-c6cccc(S(=O)(=O)[O-])c6F)c6ccc([nH]6)c(-c6cccc(S(=O)(=O)[O-])c6F)c6nc(c(-c7cccc(S(=O)(=O)[O-])c7F)c7ccc4[nH]7)C=C6)C=C5)cc3)C2)cc1
REMARK SMILES IDX 25 1 24 2 23 3 21 4 22 5 20 7 15 8 16 9 17 10 19 11 18 12
REMARK SMILES IDX 14 13 11 14 12 15 96 16 13 17 9 18 10 19 8 20 5 21 6 22
REMARK SMILES IDX 98 23 7 24 97 25 2 26 3 27 4 28 1 29 26 32 27 33 28 34 29 35
REMARK SMILES IDX 30 36 31 37 32 39 33 40 34 41 95 42 35 43 94 44 36 45 37 46
REMARK SMILES IDX 38 47 88 48 39 49 93 50 87 51 89 52 40 53 92 54 86 55 85 56
REMARK SMILES IDX 41 58 73 59 53 60 72 61 54 62 57 63 71 64 90 65 55 66 56 67
REMARK SMILES IDX 70 69 91 70 58 71 42 72 43 73 51 74 44 75 46 76 52 77 45 78
REMARK SMILES IDX 47 79 48 80 49 81 50 82 74 83 75 84 83 85 76 86 78 87 84 88
REMARK SMILES IDX 77 89 79 90 80 91 81 92 82 93 59 94 60 95 68 96 61 97 63 98
REMARK SMILES IDX 69 99 62 100 64 101 65 102 66 103 67 104
REMARK H PARENT 23 6 1 30 1 31 30 38 89 57 57 68
REMARK Flexibility Score: inf
ROOT
ATOM      1  C   UNL A   1      36.287  23.143  24.456  1.00  0.00     0.021 C 
ENDROOT
BRANCH   1   2
ATOM      2  C   UNL A   1      35.173  23.562  25.415  1.00  0.00     0.116 C 
BRANCH   2   3
ATOM      3  N   UNL A   1      35.011  25.008  25.429  1.00  0.00    -0.352 N 
ATOM      4  C   UNL A   1      33.757  25.579  25.400  1.00  0.00     0.251 C 
ATOM      5  O   UNL A   1      32.897  25.313  26.231  1.00  0.00    -0.269 OA
ATOM      6  H   UNL A   1      35.808  25.586  25.458  1.00  0.00     0.163 HD
BRANCH   4   7
ATOM      7  C   UNL A   1      33.531  26.635  24.363  1.00  0.00     0.043 A 
ATOM      8  C   UNL A   1      33.307  28.006  24.658  1.00  0.00    -0.030 A 
ATOM      9  C   UNL A   1      33.135  28.889  23.578  1.00  0.00     0.005 A 
ATOM     10  C   UNL A   1      33.225  28.446  22.256  1.00  0.00     0.000 A 
ATOM     11  C   UNL A   1      33.637  26.206  23.030  1.00  0.00     0.014 A 
ATOM     12  C   UNL A   1      33.486  27.109  21.981  1.00  0.00     0.001 A 
BRANCH   8  13
ATOM     13  C   UNL A   1      33.359  28.522  26.079  1.00  0.00     0.041 C 
ATOM     14  N   UNL A   1      33.537  30.402  27.530  1.00  0.00    -0.338 N 
ATOM     15  C   UNL A   1      34.597  29.468  27.845  1.00  0.00     0.120 C 
ATOM     16  C   UNL A   1      32.663  29.843  26.501  1.00  0.00     0.128 C 
ATOM     17  C   UNL A   1      34.816  28.796  26.508  1.00  0.00     0.032 C 
BRANCH  14  18
ATOM     18  C   UNL A   1      33.442  31.755  27.825  1.00  0.00     0.253 C 
ATOM     19  O   UNL A   1      32.507  32.426  27.391  1.00  0.00    -0.269 OA
BRANCH  18  20
ATOM     20  C   UNL A   1      34.574  32.437  28.529  1.00  0.00     0.040 A 
ATOM     21  C   UNL A   1      36.807  33.438  29.911  1.00  0.00     0.082 A 
ATOM     22  C   UNL A   1      36.874  33.224  28.535  1.00  0.00     0.022 A 
ATOM     23  C   UNL A   1      35.639  33.147  30.606  1.00  0.00     0.022 A 
ATOM     24  C   UNL A   1      35.753  32.738  27.839  1.00  0.00     0.015 A 
ATOM     25  C   UNL A   1      34.557  32.609  29.922  1.00  0.00     0.015 A 
BRANCH  21  26
ATOM     26  S   UNL A   1      38.208  33.951  30.851  1.00  0.00     0.238 S 
ATOM     27  O   UNL A   1      38.977  34.957  30.166  1.00  0.00    -0.207 OA
ATOM     28  O   UNL A   1      38.839  32.772  31.408  1.00  0.00    -0.207 OA
BRANCH  26  29
ATOM     29  N   UNL A   1      37.479  34.707  32.165  1.00  0.00    -0.225 NA
ATOM     30  H   UNL A   1      37.956  34.432  33.024  1.00  0.00     0.137 HD
ATOM     31  H   UNL A   1      36.499  34.428  32.217  1.00  0.00     0.137 HD
ENDBRANCH  26  29
ENDBRANCH  21  26
ENDBRANCH  18  20
ENDBRANCH  14  18
ENDBRANCH   8  13
ENDBRANCH   4   7
ENDBRANCH   2   3
ENDBRANCH   1   2
BRANCH   1  32
ATOM     32  C   UNL A   1      37.380  22.317  25.134  1.00  0.00     0.002 C 
BRANCH  32  33
ATOM     33  C   UNL A   1      37.261  20.798  24.976  1.00  0.00     0.002 C 
BRANCH  33  34
ATOM     34  C   UNL A   1      38.582  20.030  24.886  1.00  0.00     0.021 C 
BRANCH  34  35
ATOM     35  C   UNL A   1      39.335  19.815  26.191  1.00  0.00     0.116 C 
BRANCH  35  36
ATOM     36  N   UNL A   1      40.544  19.028  26.028  1.00  0.00    -0.352 N 
ATOM     37  C   UNL A   1      41.859  19.424  26.007  1.00  0.00     0.251 C 
ATOM     38  H   UNL A   1      40.400  18.060  25.916  1.00  0.00     0.163 HD
ATOM     39  O   UNL A   1      42.730  18.611  25.711  1.00  0.00    -0.269 OA
BRANCH  37  40
ATOM     40  C   UNL A   1      42.228  20.826  26.312  1.00  0.00     0.039 A 
ATOM     41  C   UNL A   1      42.499  21.175  27.638  1.00  0.00     0.014 A 
ATOM     42  C   UNL A   1      42.299  21.797  25.309  1.00  0.00     0.014 A 
ATOM     43  C   UNL A   1      42.902  22.477  27.946  1.00  0.00     0.010 A 
ATOM     44  C   UNL A   1      42.781  23.070  25.605  1.00  0.00     0.010 A 
ATOM     45  C   UNL A   1      43.081  23.427  26.928  1.00  0.00    -0.014 A 
BRANCH  45  46
ATOM     46  C   UNL A   1      43.592  24.791  27.226  1.00  0.00     0.031 A 
ATOM     47  C   UNL A   1      42.676  25.843  27.794  1.00  0.00     0.074 A 
ATOM     48  C   UNL A   1      44.863  25.110  26.909  1.00  0.00     0.049 A 
ATOM     49  N   UNL A   1      42.930  27.097  28.065  1.00  0.00    -0.248 NA
ATOM     50  C   UNL A   1      41.287  25.440  28.071  1.00  0.00     0.031 C 
ATOM     51  C   UNL A   1      45.831  24.209  26.279  1.00  0.00     0.029 A 
ATOM     52  N   UNL A   1      45.552  26.289  27.052  1.00  0.00    -0.354 N 
ATOM     53  C   UNL A   1      41.730  27.642  28.506  1.00  0.00     0.074 A 
ATOM     54  C   UNL A   1      40.740  26.591  28.439  1.00  0.00     0.031 C 
ATOM     55  C   UNL A   1      46.988  24.866  26.097  1.00  0.00     0.029 A 
ATOM     56  C   UNL A   1      46.836  26.240  26.565  1.00  0.00     0.049 A 
ATOM     57  H   UNL A   1      45.161  27.094  27.464  1.00  0.00     0.167 HD
ATOM     58  C   UNL A   1      41.479  28.895  28.956  1.00  0.00     0.034 A 
ATOM     59  C   UNL A   1      47.781  27.197  26.492  1.00  0.00     0.034 A 
ATOM     60  C   UNL A   1      42.475  29.926  29.073  1.00  0.00     0.049 A 
ATOM     61  C   UNL A   1      47.482  28.572  27.019  1.00  0.00     0.074 A 
ATOM     62  C   UNL A   1      42.341  31.193  29.616  1.00  0.00     0.029 A 
ATOM     63  N   UNL A   1      43.784  29.818  28.632  1.00  0.00    -0.354 N 
ATOM     64  N   UNL A   1      46.390  29.018  27.589  1.00  0.00    -0.248 NA
ATOM     65  C   UNL A   1      48.558  29.570  26.918  1.00  0.00     0.031 C 
ATOM     66  C   UNL A   1      43.564  31.857  29.484  1.00  0.00     0.029 A 
ATOM     67  C   UNL A   1      44.465  30.997  28.878  1.00  0.00     0.049 A 
ATOM     68  H   UNL A   1      44.172  29.020  28.206  1.00  0.00     0.167 HD
ATOM     69  C   UNL A   1      46.658  30.334  27.944  1.00  0.00     0.074 A 
ATOM     70  C   UNL A   1      48.024  30.606  27.548  1.00  0.00     0.031 C 
ATOM     71  C   UNL A   1      45.840  31.242  28.529  1.00  0.00     0.034 A 
BRANCH  58  72
ATOM     72  C   UNL A   1      40.082  29.208  29.421  1.00  0.00     0.023 A 
ATOM     73  C   UNL A   1      39.065  29.411  28.465  1.00  0.00     0.012 A 
ATOM     74  C   UNL A   1      39.757  29.229  30.791  1.00  0.00     0.148 A 
ATOM     75  C   UNL A   1      37.753  29.658  28.865  1.00  0.00     0.002 A 
ATOM     76  C   UNL A   1      38.439  29.433  31.182  1.00  0.00     0.091 A 
ATOM     77  F   UNL A   1      40.741  29.053  31.684  1.00  0.00    -0.205 F 
ATOM     78  C   UNL A   1      37.438  29.656  30.221  1.00  0.00     0.022 A 
BRANCH  76  79
ATOM     79  S   UNL A   1      37.914  29.373  32.899  1.00  0.00     0.127 S 
ATOM     80  O   UNL A   1      36.802  30.322  32.901  1.00  0.00    -0.237 OA
ATOM     81  O   UNL A   1      37.520  27.972  33.052  1.00  0.00    -0.237 OA
ATOM     82  O   UNL A   1      39.074  29.768  33.687  1.00  0.00    -0.744 OA
ENDBRANCH  76  79
ENDBRANCH  58  72
BRANCH  59  83
ATOM     83  C   UNL A   1      49.123  26.885  25.930  1.00  0.00     0.023 A 
ATOM     84  C   UNL A   1      50.049  26.163  26.710  1.00  0.00     0.012 A 
ATOM     85  C   UNL A   1      49.486  27.298  24.637  1.00  0.00     0.148 A 
ATOM     86  C   UNL A   1      51.329  25.893  26.225  1.00  0.00     0.002 A 
ATOM     87  C   UNL A   1      50.742  26.980  24.143  1.00  0.00     0.091 A 
ATOM     88  F   UNL A   1      48.581  27.964  23.905  1.00  0.00    -0.205 F 
ATOM     89  C   UNL A   1      51.674  26.299  24.941  1.00  0.00     0.022 A 
BRANCH  87  90
ATOM     90  S   UNL A   1      51.231  27.328  22.459  1.00  0.00     0.127 S 
ATOM     91  O   UNL A   1      51.186  28.788  22.422  1.00  0.00    -0.237 OA
ATOM     92  O   UNL A   1      52.571  26.741  22.434  1.00  0.00    -0.237 OA
ATOM     93  O   UNL A   1      50.252  26.658  21.614  1.00  0.00    -0.744 OA
ENDBRANCH  87  90
ENDBRANCH  59  83
BRANCH  71  94
ATOM     94  C   UNL A   1      46.406  32.607  28.813  1.00  0.00     0.023 A 
ATOM     95  C   UNL A   1      47.049  32.856  30.041  1.00  0.00     0.012 A 
ATOM     96  C   UNL A   1      46.354  33.624  27.840  1.00  0.00     0.148 A 
ATOM     97  C   UNL A   1      47.604  34.106  30.310  1.00  0.00     0.002 A 
ATOM     98  C   UNL A   1      46.950  34.853  28.097  1.00  0.00     0.091 A 
ATOM     99  F   UNL A   1      45.718  33.374  26.687  1.00  0.00    -0.205 F 
ATOM    100  C   UNL A   1      47.565  35.099  29.335  1.00  0.00     0.022 A 
BRANCH  98 101
ATOM    101  S   UNL A   1      47.030  36.158  26.865  1.00  0.00     0.127 S 
ATOM    102  O   UNL A   1      45.634  36.584  26.792  1.00  0.00    -0.237 OA
ATOM    103  O   UNL A   1      47.931  37.125  27.493  1.00  0.00    -0.237 OA
ATOM    104  O   UNL A   1      47.558  35.537  25.657  1.00  0.00    -0.744 OA
ENDBRANCH  98 101
ENDBRANCH  71  94
ENDBRANCH  45  46
ENDBRANCH  37  40
ENDBRANCH  35  36
ENDBRANCH  34  35
ENDBRANCH  33  34
ENDBRANCH  32  33
ENDBRANCH   1  32
TORSDOF 21
ENDMDL
MODEL 3
REMARK VINA RESULT:     -11.4      4.907     12.294
REMARK SMILES NS(=O)(=O)c1ccc(C(=O)N2CC[C@H](c3ccccc3C(=O)NCCCCCCNC(=O)c3ccc(-c4c5nc(c(-c6cccc(S(=O)(=O)[O-])c6F)c6ccc([nH]6)c(-c6cccc(S(=O)(=O)[O-])c6F)c6nc(c(-c7cccc(S(=O)(=O)[O-])c7F)c7ccc4[nH]7)C=C6)C=C5)cc3)C2)cc1
REMARK SMILES IDX 25 1 24 2 23 3 21 4 22 5 20 7 15 8 16 9 17 10 19 11 18 12
REMARK SMILES IDX 14 13 11 14 12 15 96 16 13 17 9 18 10 19 8 20 5 21 6 22
REMARK SMILES IDX 98 23 7 24 97 25 2 26 3 27 4 28 1 29 26 32 27 33 28 34 29 35
REMARK SMILES IDX 30 36 31 37 32 39 33 40 34 41 95 42 35 43 94 44 36 45 37 46
REMARK SMILES IDX 38 47 88 48 39 49 93 50 87 51 89 52 40 53 92 54 86 55 85 56
REMARK SMILES IDX 41 58 73 59 53 60 72 61 54 62 57 63 71 64 90 65 55 66 56 67
REMARK SMILES IDX 70 69 91 70 58 71 42 72 43 73 51 74 44 75 46 76 52 77 45 78
REMARK SMILES IDX 47 79 48 80 49 81 50 82 74 83 75 84 83 85 76 86 78 87 84 88
REMARK SMILES IDX 77 89 79 90 80 91 81 92 82 93 59 94 60 95 68 96 61 97 63 98
REMARK SMILES IDX 69 99 62 100 64 101 65 102 66 103 67 104
REMARK H PARENT 23 6 1 30 1 31 30 38 89 57 57 68
REMARK Flexibility Score: inf
ROOT
ATOM      1  C   UNL A   1      33.780  24.413  23.728  1.00  0.00     0.021 C 
ENDROOT
BRANCH   1   2
ATOM      2  C   UNL A   1      33.041  24.556  25.059  1.00  0.00     0.116 C 
BRANCH   2   3
ATOM      3  N   UNL A   1      32.974  25.949  25.474  1.00  0.00    -0.352 N 
ATOM      4  C   UNL A   1      31.809  26.480  25.980  1.00  0.00     0.251 C 
ATOM      5  O   UNL A   1      31.235  25.996  26.948  1.00  0.00    -0.269 OA
ATOM      6  H   UNL A   1      33.773  26.520  25.390  1.00  0.00     0.163 HD
BRANCH   4   7
ATOM      7  C   UNL A   1      31.332  27.755  25.356  1.00  0.00     0.043 A 
ATOM      8  C   UNL A   1      31.741  29.048  25.776  1.00  0.00    -0.030 A 
ATOM      9  C   UNL A   1      31.229  30.157  25.077  1.00  0.00     0.005 A 
ATOM     10  C   UNL A   1      30.382  29.995  23.978  1.00  0.00     0.000 A 
ATOM     11  C   UNL A   1      30.495  27.605  24.238  1.00  0.00     0.014 A 
ATOM     12  C   UNL A   1      30.023  28.722  23.552  1.00  0.00     0.001 A 
BRANCH   8  13
ATOM     13  C   UNL A   1      32.775  29.230  26.864  1.00  0.00     0.041 C 
ATOM     14  N   UNL A   1      34.486  30.594  27.806  1.00  0.00    -0.338 N 
ATOM     15  C   UNL A   1      35.036  29.287  27.520  1.00  0.00     0.120 C 
ATOM     16  C   UNL A   1      33.053  30.613  27.512  1.00  0.00     0.128 C 
ATOM     17  C   UNL A   1      34.180  28.845  26.355  1.00  0.00     0.032 C 
BRANCH  14  18
ATOM     18  C   UNL A   1      35.143  31.802  28.001  1.00  0.00     0.253 C 
ATOM     19  O   UNL A   1      36.316  31.938  27.660  1.00  0.00    -0.269 OA
BRANCH  18  20
ATOM     20  C   UNL A   1      34.472  32.885  28.787  1.00  0.00     0.040 A 
ATOM     21  C   UNL A   1      33.462  35.088  30.211  1.00  0.00     0.082 A 
ATOM     22  C   UNL A   1      33.208  34.961  28.846  1.00  0.00     0.022 A 
ATOM     23  C   UNL A   1      34.225  34.131  30.870  1.00  0.00     0.022 A 
ATOM     24  C   UNL A   1      33.699  33.852  28.135  1.00  0.00     0.015 A 
ATOM     25  C   UNL A   1      34.758  33.071  30.149  1.00  0.00     0.015 A 
BRANCH  21  26
ATOM     26  S   UNL A   1      32.957  36.504  31.133  1.00  0.00     0.238 S 
ATOM     27  O   UNL A   1      31.815  36.226  31.964  1.00  0.00    -0.207 OA
ATOM     28  O   UNL A   1      32.983  37.653  30.252  1.00  0.00    -0.207 OA
BRANCH  26  29
ATOM     29  N   UNL A   1      34.267  36.725  32.164  1.00  0.00    -0.225 NA
ATOM     30  H   UNL A   1      34.264  35.998  32.880  1.00  0.00     0.137 HD
ATOM     31  H   UNL A   1      34.200  37.640  32.609  1.00  0.00     0.137 HD
ENDBRANCH  26  29
ENDBRANCH  21  26
ENDBRANCH  18  20
ENDBRANCH  14  18
ENDBRANCH   8  13
ENDBRANCH   4   7
ENDBRANCH   2   3
ENDBRANCH   1   2
BRANCH   1  32
ATOM     32  C   UNL A   1      34.357  23.013  23.512  1.00  0.00     0.002 C 
BRANCH  32  33
ATOM     33  C   UNL A   1      35.416  22.566  24.524  1.00  0.00     0.002 C 
BRANCH  33  34
ATOM     34  C   UNL A   1      36.586  23.529  24.736  1.00  0.00     0.021 C 
BRANCH  34  35
ATOM     35  C   UNL A   1      37.313  23.435  26.070  1.00  0.00     0.116 C 
BRANCH  35  36
ATOM     36  N   UNL A   1      38.028  22.183  26.242  1.00  0.00    -0.352 N 
ATOM     37  C   UNL A   1      39.359  21.955  26.495  1.00  0.00     0.251 C 
ATOM     38  H   UNL A   1      37.474  21.372  26.168  1.00  0.00     0.163 HD
ATOM     39  O   UNL A   1      39.791  20.806  26.462  1.00  0.00    -0.269 OA
BRANCH  37  40
ATOM     40  C   UNL A   1      40.276  23.082  26.778  1.00  0.00     0.039 A 
ATOM     41  C   UNL A   1      40.227  24.210  25.954  1.00  0.00     0.014 A 
ATOM     42  C   UNL A   1      41.189  23.034  27.836  1.00  0.00     0.014 A 
ATOM     43  C   UNL A   1      41.042  25.311  26.230  1.00  0.00     0.010 A 
ATOM     44  C   UNL A   1      41.939  24.162  28.160  1.00  0.00     0.010 A 
ATOM     45  C   UNL A   1      41.880  25.310  27.357  1.00  0.00    -0.014 A 
BRANCH  45  46
ATOM     46  C   UNL A   1      42.691  26.504  27.716  1.00  0.00     0.031 A 
ATOM     47  C   UNL A   1      42.077  27.638  28.494  1.00  0.00     0.074 A 
ATOM     48  C   UNL A   1      43.959  26.606  27.271  1.00  0.00     0.049 A 
ATOM     49  N   UNL A   1      42.612  28.778  28.849  1.00  0.00    -0.248 NA
ATOM     50  C   UNL A   1      40.673  27.483  28.907  1.00  0.00     0.031 C 
ATOM     51  C   UNL A   1      44.648  25.617  26.438  1.00  0.00     0.029 A 
ATOM     52  N   UNL A   1      44.888  27.603  27.436  1.00  0.00    -0.354 N 
ATOM     53  C   UNL A   1      41.605  29.489  29.490  1.00  0.00     0.074 A 
ATOM     54  C   UNL A   1      40.418  28.665  29.451  1.00  0.00     0.031 C 
ATOM     55  C   UNL A   1      45.890  26.053  26.173  1.00  0.00     0.029 A 
ATOM     56  C   UNL A   1      46.076  27.365  26.786  1.00  0.00     0.049 A 
ATOM     57  H   UNL A   1      44.719  28.414  27.970  1.00  0.00     0.167 HD
ATOM     58  C   UNL A   1      41.668  30.704  30.086  1.00  0.00     0.034 A 
ATOM     59  C   UNL A   1      47.185  28.123  26.684  1.00  0.00     0.034 A 
ATOM     60  C   UNL A   1      42.862  31.501  30.172  1.00  0.00     0.049 A 
ATOM     61  C   UNL A   1      47.234  29.457  27.373  1.00  0.00     0.074 A 
ATOM     62  C   UNL A   1      43.051  32.696  30.846  1.00  0.00     0.029 A 
ATOM     63  N   UNL A   1      44.065  31.194  29.558  1.00  0.00    -0.354 N 
ATOM     64  N   UNL A   1      46.324  30.034  28.118  1.00  0.00    -0.248 NA
ATOM     65  C   UNL A   1      48.476  30.231  27.231  1.00  0.00     0.031 C 
ATOM     66  C   UNL A   1      44.364  33.121  30.622  1.00  0.00     0.029 A 
ATOM     67  C   UNL A   1      44.999  32.181  29.827  1.00  0.00     0.049 A 
ATOM     68  H   UNL A   1      44.233  30.393  29.013  1.00  0.00     0.167 HD
ATOM     69  C   UNL A   1      46.895  31.222  28.560  1.00  0.00     0.074 A 
ATOM     70  C   UNL A   1      48.237  31.269  28.020  1.00  0.00     0.031 C 
ATOM     71  C   UNL A   1      46.349  32.194  29.329  1.00  0.00     0.034 A 
BRANCH  58  72
ATOM     72  C   UNL A   1      40.423  31.224  30.754  1.00  0.00     0.023 A 
ATOM     73  C   UNL A   1      39.488  31.958  29.996  1.00  0.00     0.012 A 
ATOM     74  C   UNL A   1      40.141  30.927  32.101  1.00  0.00     0.148 A 
ATOM     75  C   UNL A   1      38.305  32.414  30.575  1.00  0.00     0.002 A 
ATOM     76  C   UNL A   1      38.940  31.348  32.660  1.00  0.00     0.091 A 
ATOM     77  F   UNL A   1      41.051  30.245  32.810  1.00  0.00    -0.205 F 
ATOM     78  C   UNL A   1      38.025  32.099  31.902  1.00  0.00     0.022 A 
BRANCH  76  79
ATOM     79  S   UNL A   1      38.449  30.929  34.337  1.00  0.00     0.127 S 
ATOM     80  O   UNL A   1      37.956  29.563  34.167  1.00  0.00    -0.237 OA
ATOM     81  O   UNL A   1      39.715  31.034  35.063  1.00  0.00    -0.237 OA
ATOM     82  O   UNL A   1      37.446  31.913  34.720  1.00  0.00    -0.744 OA
ENDBRANCH  76  79
ENDBRANCH  58  72
BRANCH  59  83
ATOM     83  C   UNL A   1      48.366  27.625  25.927  1.00  0.00     0.023 A 
ATOM     84  C   UNL A   1      49.427  27.015  26.625  1.00  0.00     0.012 A 
ATOM     85  C   UNL A   1      48.443  27.755  24.530  1.00  0.00     0.148 A 
ATOM     86  C   UNL A   1      50.565  26.577  25.946  1.00  0.00     0.002 A 
ATOM     87  C   UNL A   1      49.556  27.271  23.858  1.00  0.00     0.091 A 
ATOM     88  F   UNL A   1      47.412  28.320  23.886  1.00  0.00    -0.205 F 
ATOM     89  C   UNL A   1      50.628  26.703  24.563  1.00  0.00     0.022 A 
BRANCH  87  90
ATOM     90  S   UNL A   1      49.670  27.253  22.074  1.00  0.00     0.127 S 
ATOM     91  O   UNL A   1      51.040  26.795  21.858  1.00  0.00    -0.237 OA
ATOM     92  O   UNL A   1      48.624  26.286  21.740  1.00  0.00    -0.237 OA
ATOM     93  O   UNL A   1      49.400  28.618  21.645  1.00  0.00    -0.744 OA
ENDBRANCH  87  90
ENDBRANCH  59  83
BRANCH  71  94
ATOM     94  C   UNL A   1      47.212  33.380  29.667  1.00  0.00     0.023 A 
ATOM     95  C   UNL A   1      48.016  33.353  30.824  1.00  0.00     0.012 A 
ATOM     96  C   UNL A   1      47.271  34.495  28.808  1.00  0.00     0.148 A 
ATOM     97  C   UNL A   1      48.842  34.431  31.137  1.00  0.00     0.002 A 
ATOM     98  C   UNL A   1      48.132  35.545  29.103  1.00  0.00     0.091 A 
ATOM     99  F   UNL A   1      46.481  34.511  27.725  1.00  0.00    -0.205 F 
ATOM    100  C   UNL A   1      48.910  35.520  30.272  1.00  0.00     0.022 A 
BRANCH  98 101
ATOM    101  S   UNL A   1      48.353  36.945  27.999  1.00  0.00     0.127 S 
ATOM    102  O   UNL A   1      49.380  37.715  28.696  1.00  0.00    -0.237 OA
ATOM    103  O   UNL A   1      48.805  36.301  26.765  1.00  0.00    -0.237 OA
ATOM    104  O   UNL A   1      47.048  37.587  27.901  1.00  0.00    -0.744 OA
ENDBRANCH  98 101
ENDBRANCH  71  94
ENDBRANCH  45  46
ENDBRANCH  37  40
ENDBRANCH  35  36
ENDBRANCH  34  35
ENDBRANCH  33  34
ENDBRANCH  32  33
ENDBRANCH   1  32
TORSDOF 21
ENDMDL
