MODEL 1
REMARK VINA RESULT:     -11.9      0.000      0.000
REMARK SMILES CC(=O)NS(=O)(=O)c1cc(-c2ccn(C(F)F)c(=O)c2)ccc1C(=O)NCCCCCCNC(=O)c1ccc(-c2c3nc(c(-c4cccc(S(=O)(=O)[O-])c4F)c4ccc([nH]4)c(-c4cccc(S(=O)(=O)[O-])c4F)c4nc(c(-c5cccc(S(=O)(=O)[O-])c5F)c5ccc2[nH]5)C=C4)C=C3)cc1
REMARK SMILES IDX 30 1 29 2 28 3 27 4 26 5 24 6 25 7 23 9 8 10 9 11 10 12
REMARK SMILES IDX 22 13 21 14 5 15 6 16 7 17 4 18 1 19 2 20 3 21 11 23 12 24
REMARK SMILES IDX 20 25 13 26 18 27 14 28 19 29 15 30 16 31 17 32 31 33 32 34
REMARK SMILES IDX 33 35 34 36 35 38 36 39 37 40 98 41 38 42 97 43 39 44 40 45
REMARK SMILES IDX 41 46 91 47 42 48 96 49 90 50 92 51 43 52 95 53 89 54 88 55
REMARK SMILES IDX 44 57 76 58 56 59 75 60 57 61 60 62 74 63 93 64 58 65 59 66
REMARK SMILES IDX 73 68 94 69 61 70 45 71 46 72 54 73 47 74 49 75 55 76 48 77
REMARK SMILES IDX 50 78 51 79 52 80 53 81 77 82 78 83 86 84 79 85 81 86 87 87
REMARK SMILES IDX 80 88 82 89 83 90 84 91 85 92 62 93 63 94 71 95 64 96 66 97
REMARK SMILES IDX 72 98 65 99 67 100 68 101 69 102 70 103
REMARK H PARENT 26 8 4 22 33 37 92 56 60 67
REMARK Flexibility Score: inf
ROOT
ATOM      1  C   UNL A   1      37.895  21.558  25.030  1.00  0.00     0.002 C 
ENDROOT
BRANCH   1   2
ATOM      2  C   UNL A   1      36.499  21.705  24.415  1.00  0.00     0.002 C 
BRANCH   2   3
ATOM      3  C   UNL A   1      36.238  22.851  23.426  1.00  0.00     0.021 C 
BRANCH   3   4
ATOM      4  C   UNL A   1      34.785  23.229  23.162  1.00  0.00     0.116 C 
BRANCH   4   5
ATOM      5  N   UNL A   1      33.841  22.150  23.361  1.00  0.00    -0.352 N 
ATOM      6  C   UNL A   1      32.481  22.191  23.504  1.00  0.00     0.252 C 
ATOM      7  O   UNL A   1      31.851  21.143  23.623  1.00  0.00    -0.269 OA
ATOM      8  H   UNL A   1      34.238  21.250  23.399  1.00  0.00     0.163 HD
BRANCH   6   9
ATOM      9  C   UNL A   1      31.732  23.460  23.599  1.00  0.00     0.060 A 
ATOM     10  C   UNL A   1      31.033  23.941  24.705  1.00  0.00     0.101 A 
ATOM     11  C   UNL A   1      30.409  25.206  24.648  1.00  0.00     0.031 A 
ATOM     12  C   UNL A   1      30.547  26.047  23.535  1.00  0.00    -0.017 A 
ATOM     13  C   UNL A   1      31.884  24.310  22.486  1.00  0.00     0.016 A 
ATOM     14  C   UNL A   1      31.310  25.587  22.458  1.00  0.00     0.009 A 
BRANCH  10  15
ATOM     15  S   UNL A   1      30.990  23.174  26.299  1.00  0.00     0.264 S 
ATOM     16  O   UNL A   1      30.065  22.073  26.189  1.00  0.00    -0.201 OA
ATOM     17  O   UNL A   1      30.771  24.230  27.267  1.00  0.00    -0.201 OA
BRANCH  15  18
ATOM     18  N   UNL A   1      32.481  22.539  26.586  1.00  0.00    -0.249 N 
ATOM     19  C   UNL A   1      33.911  24.576  26.251  1.00  0.00     0.115 C 
ATOM     20  C   UNL A   1      33.699  23.195  26.805  1.00  0.00     0.230 C 
ATOM     21  O   UNL A   1      34.604  22.571  27.345  1.00  0.00    -0.274 OA
ATOM     22  H   UNL A   1      32.524  21.555  26.606  1.00  0.00     0.183 HD
ENDBRANCH  15  18
ENDBRANCH  10  15
BRANCH  12  23
ATOM     23  C   UNL A   1      29.924  27.393  23.507  1.00  0.00    -0.011 A 
ATOM     24  C   UNL A   1      30.688  28.616  23.698  1.00  0.00     0.027 A 
ATOM     25  C   UNL A   1      28.598  27.497  23.295  1.00  0.00     0.080 A 
ATOM     26  C   UNL A   1      30.093  29.813  23.639  1.00  0.00     0.095 A 
ATOM     27  C   UNL A   1      27.920  28.823  23.234  1.00  0.00     0.255 A 
ATOM     28  N   UNL A   1      28.738  29.927  23.402  1.00  0.00    -0.258 N 
ATOM     29  O   UNL A   1      26.708  28.854  23.049  1.00  0.00    -0.269 OA
BRANCH  28  30
ATOM     30  C   UNL A   1      28.111  31.222  23.320  1.00  0.00     0.451 C 
ATOM     31  F   UNL A   1      27.079  31.327  24.190  1.00  0.00    -0.185 F 
ATOM     32  F   UNL A   1      28.998  32.210  23.596  1.00  0.00    -0.185 F 
ENDBRANCH  28  30
ENDBRANCH  12  23
ENDBRANCH   6   9
ENDBRANCH   4   5
ENDBRANCH   3   4
ENDBRANCH   2   3
ENDBRANCH   1   2
BRANCH   1  33
ATOM     33  C   UNL A   1      38.584  20.194  24.966  1.00  0.00     0.021 C 
BRANCH  33  34
ATOM     34  C   UNL A   1      39.199  19.657  26.251  1.00  0.00     0.116 C 
BRANCH  34  35
ATOM     35  N   UNL A   1      40.413  18.894  26.044  1.00  0.00    -0.352 N 
ATOM     36  C   UNL A   1      41.727  19.297  26.071  1.00  0.00     0.251 C 
ATOM     37  H   UNL A   1      40.274  17.938  25.855  1.00  0.00     0.163 HD
ATOM     38  O   UNL A   1      42.599  18.470  25.809  1.00  0.00    -0.269 OA
BRANCH  36  39
ATOM     39  C   UNL A   1      42.115  20.698  26.380  1.00  0.00     0.039 A 
ATOM     40  C   UNL A   1      42.134  21.621  25.327  1.00  0.00     0.014 A 
ATOM     41  C   UNL A   1      42.509  21.111  27.656  1.00  0.00     0.014 A 
ATOM     42  C   UNL A   1      42.512  22.948  25.556  1.00  0.00     0.010 A 
ATOM     43  C   UNL A   1      42.824  22.452  27.898  1.00  0.00     0.010 A 
ATOM     44  C   UNL A   1      42.848  23.380  26.848  1.00  0.00    -0.014 A 
BRANCH  44  45
ATOM     45  C   UNL A   1      43.251  24.789  27.100  1.00  0.00     0.031 A 
ATOM     46  C   UNL A   1      42.287  25.756  27.737  1.00  0.00     0.074 A 
ATOM     47  C   UNL A   1      44.467  25.220  26.712  1.00  0.00     0.049 A 
ATOM     48  N   UNL A   1      42.462  27.017  28.042  1.00  0.00    -0.248 NA
ATOM     49  C   UNL A   1      40.940  25.248  28.049  1.00  0.00     0.031 C 
ATOM     50  C   UNL A   1      45.465  24.412  26.008  1.00  0.00     0.029 A 
ATOM     51  N   UNL A   1      45.066  26.449  26.839  1.00  0.00    -0.354 N 
ATOM     52  C   UNL A   1      41.247  27.460  28.549  1.00  0.00     0.074 A 
ATOM     53  C   UNL A   1      40.330  26.343  28.483  1.00  0.00     0.031 C 
ATOM     54  C   UNL A   1      46.552  25.165  25.771  1.00  0.00     0.029 A 
ATOM     55  C   UNL A   1      46.330  26.508  26.300  1.00  0.00     0.049 A 
ATOM     56  H   UNL A   1      44.630  27.217  27.274  1.00  0.00     0.167 HD
ATOM     57  C   UNL A   1      40.928  28.674  29.058  1.00  0.00     0.034 A 
ATOM     58  C   UNL A   1      47.216  27.522  26.253  1.00  0.00     0.034 A 
ATOM     59  C   UNL A   1      41.856  29.767  29.187  1.00  0.00     0.049 A 
ATOM     60  C   UNL A   1      46.870  28.831  26.912  1.00  0.00     0.074 A 
ATOM     61  C   UNL A   1      41.651  31.007  29.766  1.00  0.00     0.029 A 
ATOM     62  N   UNL A   1      43.166  29.747  28.739  1.00  0.00    -0.354 N 
ATOM     63  N   UNL A   1      45.772  29.175  27.539  1.00  0.00    -0.248 NA
ATOM     64  C   UNL A   1      47.906  29.875  26.899  1.00  0.00     0.031 C 
ATOM     65  C   UNL A   1      42.843  31.736  29.673  1.00  0.00     0.029 A 
ATOM     66  C   UNL A   1      43.787  30.948  29.035  1.00  0.00     0.049 A 
ATOM     67  H   UNL A   1      43.593  28.988  28.278  1.00  0.00     0.167 HD
ATOM     68  C   UNL A   1      45.994  30.459  28.024  1.00  0.00     0.074 A 
ATOM     69  C   UNL A   1      47.342  30.823  27.638  1.00  0.00     0.031 C 
ATOM     70  C   UNL A   1      45.152  31.272  28.706  1.00  0.00     0.034 A 
BRANCH  57  71
ATOM     71  C   UNL A   1      39.534  28.857  29.594  1.00  0.00     0.023 A 
ATOM     72  C   UNL A   1      39.243  28.435  30.907  1.00  0.00     0.012 A 
ATOM     73  C   UNL A   1      38.528  29.481  28.830  1.00  0.00     0.148 A 
ATOM     74  C   UNL A   1      37.967  28.599  31.441  1.00  0.00     0.002 A 
ATOM     75  C   UNL A   1      37.266  29.674  29.383  1.00  0.00     0.091 A 
ATOM     76  F   UNL A   1      38.812  29.853  27.574  1.00  0.00    -0.205 F 
ATOM     77  C   UNL A   1      36.981  29.227  30.684  1.00  0.00     0.022 A 
BRANCH  75  78
ATOM     78  S   UNL A   1      35.953  30.531  28.504  1.00  0.00     0.127 S 
ATOM     79  O   UNL A   1      35.408  29.460  27.671  1.00  0.00    -0.237 OA
ATOM     80  O   UNL A   1      35.074  30.962  29.591  1.00  0.00    -0.237 OA
ATOM     81  O   UNL A   1      36.605  31.619  27.789  1.00  0.00    -0.744 OA
ENDBRANCH  75  78
ENDBRANCH  57  71
BRANCH  58  82
ATOM     82  C   UNL A   1      48.562  27.301  25.656  1.00  0.00     0.023 A 
ATOM     83  C   UNL A   1      49.587  26.761  26.458  1.00  0.00     0.012 A 
ATOM     84  C   UNL A   1      48.826  27.582  24.302  1.00  0.00     0.148 A 
ATOM     85  C   UNL A   1      50.857  26.530  25.930  1.00  0.00     0.002 A 
ATOM     86  C   UNL A   1      50.081  27.304  23.771  1.00  0.00     0.091 A 
ATOM     87  F   UNL A   1      47.846  28.114  23.559  1.00  0.00    -0.205 F 
ATOM     88  C   UNL A   1      51.101  26.790  24.585  1.00  0.00     0.022 A 
BRANCH  86  89
ATOM     89  S   UNL A   1      50.433  27.494  22.019  1.00  0.00     0.127 S 
ATOM     90  O   UNL A   1      51.878  27.289  21.979  1.00  0.00    -0.237 OA
ATOM     91  O   UNL A   1      49.641  26.416  21.424  1.00  0.00    -0.237 OA
ATOM     92  O   UNL A   1      49.965  28.831  21.679  1.00  0.00    -0.744 OA
ENDBRANCH  86  89
ENDBRANCH  58  82
BRANCH  70  93
ATOM     93  C   UNL A   1      45.663  32.630  29.104  1.00  0.00     0.023 A 
ATOM     94  C   UNL A   1      46.432  32.763  30.277  1.00  0.00     0.012 A 
ATOM     95  C   UNL A   1      45.441  33.759  28.291  1.00  0.00     0.148 A 
ATOM     96  C   UNL A   1      46.949  34.004  30.649  1.00  0.00     0.002 A 
ATOM     97  C   UNL A   1      45.993  34.984  28.649  1.00  0.00     0.091 A 
ATOM     98  F   UNL A   1      44.687  33.622  27.191  1.00  0.00    -0.205 F 
ATOM     99  C   UNL A   1      46.739  35.111  29.830  1.00  0.00     0.022 A 
BRANCH  97 100
ATOM    100  S   UNL A   1      45.828  36.428  27.590  1.00  0.00     0.127 S 
ATOM    101  O   UNL A   1      46.384  37.484  28.431  1.00  0.00    -0.237 OA
ATOM    102  O   UNL A   1      46.650  36.074  26.432  1.00  0.00    -0.237 OA
ATOM    103  O   UNL A   1      44.403  36.526  27.299  1.00  0.00    -0.744 OA
ENDBRANCH  97 100
ENDBRANCH  70  93
ENDBRANCH  44  45
ENDBRANCH  36  39
ENDBRANCH  34  35
ENDBRANCH  33  34
ENDBRANCH   1  33
TORSDOF 20
ENDMDL
MODEL 2
REMARK VINA RESULT:     -11.8      3.215      8.311
REMARK SMILES CC(=O)NS(=O)(=O)c1cc(-c2ccn(C(F)F)c(=O)c2)ccc1C(=O)NCCCCCCNC(=O)c1ccc(-c2c3nc(c(-c4cccc(S(=O)(=O)[O-])c4F)c4ccc([nH]4)c(-c4cccc(S(=O)(=O)[O-])c4F)c4nc(c(-c5cccc(S(=O)(=O)[O-])c5F)c5ccc2[nH]5)C=C4)C=C3)cc1
REMARK SMILES IDX 30 1 29 2 28 3 27 4 26 5 24 6 25 7 23 9 8 10 9 11 10 12
REMARK SMILES IDX 22 13 21 14 5 15 6 16 7 17 4 18 1 19 2 20 3 21 11 23 12 24
REMARK SMILES IDX 20 25 13 26 18 27 14 28 19 29 15 30 16 31 17 32 31 33 32 34
REMARK SMILES IDX 33 35 34 36 35 38 36 39 37 40 98 41 38 42 97 43 39 44 40 45
REMARK SMILES IDX 41 46 91 47 42 48 96 49 90 50 92 51 43 52 95 53 89 54 88 55
REMARK SMILES IDX 44 57 76 58 56 59 75 60 57 61 60 62 74 63 93 64 58 65 59 66
REMARK SMILES IDX 73 68 94 69 61 70 45 71 46 72 54 73 47 74 49 75 55 76 48 77
REMARK SMILES IDX 50 78 51 79 52 80 53 81 77 82 78 83 86 84 79 85 81 86 87 87
REMARK SMILES IDX 80 88 82 89 83 90 84 91 85 92 62 93 63 94 71 95 64 96 66 97
REMARK SMILES IDX 72 98 65 99 67 100 68 101 69 102 70 103
REMARK H PARENT 26 8 4 22 33 37 92 56 60 67
REMARK Flexibility Score: inf
ROOT
ATOM      1  C   UNL A   1      35.488  23.882  24.123  1.00  0.00     0.002 C 
ENDROOT
BRANCH   1   2
ATOM      2  C   UNL A   1      34.554  24.208  25.293  1.00  0.00     0.002 C 
BRANCH   2   3
ATOM      3  C   UNL A   1      33.074  23.804  25.199  1.00  0.00     0.021 C 
BRANCH   3   4
ATOM      4  C   UNL A   1      32.210  24.546  24.186  1.00  0.00     0.116 C 
BRANCH   4   5
ATOM      5  N   UNL A   1      30.836  24.736  24.599  1.00  0.00    -0.352 N 
ATOM      6  C   UNL A   1      30.218  25.849  25.101  1.00  0.00     0.252 C 
ATOM      7  O   UNL A   1      29.016  25.814  25.354  1.00  0.00    -0.269 OA
ATOM      8  H   UNL A   1      30.258  23.945  24.504  1.00  0.00     0.163 HD
BRANCH   6   9
ATOM      9  C   UNL A   1      30.956  27.085  25.429  1.00  0.00     0.060 A 
ATOM     10  C   UNL A   1      31.289  28.119  24.555  1.00  0.00     0.101 A 
ATOM     11  C   UNL A   1      31.957  29.264  25.043  1.00  0.00     0.031 A 
ATOM     12  C   UNL A   1      32.218  29.440  26.408  1.00  0.00    -0.017 A 
ATOM     13  C   UNL A   1      31.205  27.267  26.803  1.00  0.00     0.016 A 
ATOM     14  C   UNL A   1      31.817  28.431  27.287  1.00  0.00     0.009 A 
BRANCH  10  15
ATOM     15  S   UNL A   1      30.788  28.228  22.862  1.00  0.00     0.264 S 
ATOM     16  O   UNL A   1      31.059  29.583  22.450  1.00  0.00    -0.201 OA
ATOM     17  O   UNL A   1      29.446  27.686  22.786  1.00  0.00    -0.201 OA
BRANCH  15  18
ATOM     18  N   UNL A   1      31.773  27.240  21.987  1.00  0.00    -0.249 N 
ATOM     19  C   UNL A   1      33.989  28.358  22.370  1.00  0.00     0.115 C 
ATOM     20  C   UNL A   1      33.171  27.158  21.982  1.00  0.00     0.230 C 
ATOM     21  O   UNL A   1      33.689  26.139  21.543  1.00  0.00    -0.274 OA
ATOM     22  H   UNL A   1      31.312  26.617  21.380  1.00  0.00     0.183 HD
ENDBRANCH  15  18
ENDBRANCH  10  15
BRANCH  12  23
ATOM     23  C   UNL A   1      32.879  30.669  26.912  1.00  0.00    -0.011 A 
ATOM     24  C   UNL A   1      32.167  31.922  27.103  1.00  0.00     0.027 A 
ATOM     25  C   UNL A   1      34.193  30.631  27.208  1.00  0.00     0.080 A 
ATOM     26  C   UNL A   1      32.793  33.002  27.586  1.00  0.00     0.095 A 
ATOM     27  C   UNL A   1      34.907  31.828  27.739  1.00  0.00     0.255 A 
ATOM     28  N   UNL A   1      34.135  32.964  27.910  1.00  0.00    -0.258 N 
ATOM     29  O   UNL A   1      36.106  31.737  27.980  1.00  0.00    -0.269 OA
BRANCH  28  30
ATOM     30  C   UNL A   1      34.795  34.126  28.448  1.00  0.00     0.451 C 
ATOM     31  F   UNL A   1      34.100  35.258  28.177  1.00  0.00    -0.185 F 
ATOM     32  F   UNL A   1      34.934  34.029  29.793  1.00  0.00    -0.185 F 
ENDBRANCH  28  30
ENDBRANCH  12  23
ENDBRANCH   6   9
ENDBRANCH   4   5
ENDBRANCH   3   4
ENDBRANCH   2   3
ENDBRANCH   1   2
BRANCH   1  33
ATOM     33  C   UNL A   1      36.712  23.003  24.386  1.00  0.00     0.021 C 
BRANCH  33  34
ATOM     34  C   UNL A   1      37.176  22.861  25.830  1.00  0.00     0.116 C 
BRANCH  34  35
ATOM     35  N   UNL A   1      38.075  21.746  26.047  1.00  0.00    -0.352 N 
ATOM     36  C   UNL A   1      39.381  21.734  26.479  1.00  0.00     0.251 C 
ATOM     37  H   UNL A   1      37.692  20.860  25.857  1.00  0.00     0.163 HD
ATOM     38  O   UNL A   1      39.969  20.655  26.538  1.00  0.00    -0.269 OA
BRANCH  36  39
ATOM     39  C   UNL A   1      40.100  22.981  26.848  1.00  0.00     0.039 A 
ATOM     40  C   UNL A   1      39.873  24.123  26.070  1.00  0.00     0.014 A 
ATOM     41  C   UNL A   1      41.024  23.042  27.895  1.00  0.00     0.014 A 
ATOM     42  C   UNL A   1      40.539  25.320  26.359  1.00  0.00     0.010 A 
ATOM     43  C   UNL A   1      41.640  24.253  28.224  1.00  0.00     0.010 A 
ATOM     44  C   UNL A   1      41.420  25.399  27.448  1.00  0.00    -0.014 A 
BRANCH  44  45
ATOM     45  C   UNL A   1      42.133  26.667  27.761  1.00  0.00     0.031 A 
ATOM     46  C   UNL A   1      43.566  26.860  27.339  1.00  0.00     0.074 A 
ATOM     47  C   UNL A   1      41.513  27.629  28.472  1.00  0.00     0.049 A 
ATOM     48  N   UNL A   1      44.346  27.896  27.514  1.00  0.00    -0.248 NA
ATOM     49  C   UNL A   1      44.217  25.732  26.651  1.00  0.00     0.031 C 
ATOM     50  C   UNL A   1      40.156  27.536  29.016  1.00  0.00     0.029 A 
ATOM     51  N   UNL A   1      41.947  28.868  28.873  1.00  0.00    -0.354 N 
ATOM     52  C   UNL A   1      45.583  27.537  26.991  1.00  0.00     0.074 A 
ATOM     53  C   UNL A   1      45.460  26.175  26.519  1.00  0.00     0.031 C 
ATOM     54  C   UNL A   1      39.869  28.672  29.674  1.00  0.00     0.029 A 
ATOM     55  C   UNL A   1      41.018  29.571  29.604  1.00  0.00     0.049 A 
ATOM     56  H   UNL A   1      42.841  29.220  28.657  1.00  0.00     0.167 HD
ATOM     57  C   UNL A   1      46.709  28.281  26.880  1.00  0.00     0.034 A 
ATOM     58  C   UNL A   1      41.077  30.805  30.141  1.00  0.00     0.034 A 
ATOM     59  C   UNL A   1      46.815  29.656  27.288  1.00  0.00     0.049 A 
ATOM     60  C   UNL A   1      42.306  31.645  29.918  1.00  0.00     0.074 A 
ATOM     61  C   UNL A   1      47.886  30.520  27.139  1.00  0.00     0.029 A 
ATOM     62  N   UNL A   1      45.809  30.372  27.916  1.00  0.00    -0.354 N 
ATOM     63  N   UNL A   1      43.405  31.345  29.270  1.00  0.00    -0.248 NA
ATOM     64  C   UNL A   1      42.284  33.013  30.459  1.00  0.00     0.031 C 
ATOM     65  C   UNL A   1      47.524  31.763  27.673  1.00  0.00     0.029 A 
ATOM     66  C   UNL A   1      46.229  31.670  28.155  1.00  0.00     0.049 A 
ATOM     67  H   UNL A   1      44.925  30.011  28.157  1.00  0.00     0.167 HD
ATOM     68  C   UNL A   1      44.190  32.492  29.295  1.00  0.00     0.074 A 
ATOM     69  C   UNL A   1      43.430  33.502  30.003  1.00  0.00     0.031 C 
ATOM     70  C   UNL A   1      45.436  32.686  28.799  1.00  0.00     0.034 A 
BRANCH  57  71
ATOM     71  C   UNL A   1      47.898  27.643  26.212  1.00  0.00     0.023 A 
ATOM     72  C   UNL A   1      48.136  27.901  24.846  1.00  0.00     0.012 A 
ATOM     73  C   UNL A   1      48.799  26.834  26.930  1.00  0.00     0.148 A 
ATOM     74  C   UNL A   1      49.234  27.339  24.197  1.00  0.00     0.002 A 
ATOM     75  C   UNL A   1      49.912  26.305  26.284  1.00  0.00     0.091 A 
ATOM     76  F   UNL A   1      48.545  26.577  28.221  1.00  0.00    -0.205 F 
ATOM     77  C   UNL A   1      50.127  26.550  24.917  1.00  0.00     0.022 A 
BRANCH  75  78
ATOM     78  S   UNL A   1      51.150  25.330  27.147  1.00  0.00     0.127 S 
ATOM     79  O   UNL A   1      50.326  24.304  27.784  1.00  0.00    -0.237 OA
ATOM     80  O   UNL A   1      51.989  24.843  26.052  1.00  0.00    -0.237 OA
ATOM     81  O   UNL A   1      51.819  26.255  28.052  1.00  0.00    -0.744 OA
ENDBRANCH  75  78
ENDBRANCH  57  71
BRANCH  58  82
ATOM     82  C   UNL A   1      39.889  31.363  30.845  1.00  0.00     0.023 A 
ATOM     83  C   UNL A   1      38.861  31.959  30.087  1.00  0.00     0.012 A 
ATOM     84  C   UNL A   1      39.750  31.277  32.243  1.00  0.00     0.148 A 
ATOM     85  C   UNL A   1      37.729  32.482  30.710  1.00  0.00     0.002 A 
ATOM     86  C   UNL A   1      38.596  31.758  32.853  1.00  0.00     0.091 A 
ATOM     87  F   UNL A   1      40.746  30.726  32.950  1.00  0.00    -0.205 F 
ATOM     88  C   UNL A   1      37.590  32.372  32.091  1.00  0.00     0.022 A 
BRANCH  86  89
ATOM     89  S   UNL A   1      38.289  31.539  34.610  1.00  0.00     0.127 S 
ATOM     90  O   UNL A   1      36.965  32.134  34.760  1.00  0.00    -0.237 OA
ATOM     91  O   UNL A   1      38.331  30.083  34.753  1.00  0.00    -0.237 OA
ATOM     92  O   UNL A   1      39.384  32.232  35.276  1.00  0.00    -0.744 OA
ENDBRANCH  86  89
ENDBRANCH  58  82
BRANCH  70  93
ATOM     93  C   UNL A   1      46.055  34.046  28.979  1.00  0.00     0.023 A 
ATOM     94  C   UNL A   1      46.885  34.285  30.092  1.00  0.00     0.012 A 
ATOM     95  C   UNL A   1      45.871  35.062  28.022  1.00  0.00     0.148 A 
ATOM     96  C   UNL A   1      47.501  35.525  30.263  1.00  0.00     0.002 A 
ATOM     97  C   UNL A   1      46.519  36.283  28.181  1.00  0.00     0.091 A 
ATOM     98  F   UNL A   1      45.058  34.828  26.981  1.00  0.00    -0.205 F 
ATOM     99  C   UNL A   1      47.327  36.519  29.303  1.00  0.00     0.022 A 
BRANCH  97 100
ATOM    100  S   UNL A   1      46.401  37.572  26.934  1.00  0.00     0.127 S 
ATOM    101  O   UNL A   1      46.956  36.907  25.758  1.00  0.00    -0.237 OA
ATOM    102  O   UNL A   1      44.961  37.826  26.868  1.00  0.00    -0.237 OA
ATOM    103  O   UNL A   1      47.177  38.687  27.464  1.00  0.00    -0.744 OA
ENDBRANCH  97 100
ENDBRANCH  70  93
ENDBRANCH  44  45
ENDBRANCH  36  39
ENDBRANCH  34  35
ENDBRANCH  33  34
ENDBRANCH   1  33
TORSDOF 20
ENDMDL
MODEL 3
REMARK VINA RESULT:     -11.6      2.969      8.301
REMARK SMILES CC(=O)NS(=O)(=O)c1cc(-c2ccn(C(F)F)c(=O)c2)ccc1C(=O)NCCCCCCNC(=O)c1ccc(-c2c3nc(c(-c4cccc(S(=O)(=O)[O-])c4F)c4ccc([nH]4)c(-c4cccc(S(=O)(=O)[O-])c4F)c4nc(c(-c5cccc(S(=O)(=O)[O-])c5F)c5ccc2[nH]5)C=C4)C=C3)cc1
REMARK SMILES IDX 30 1 29 2 28 3 27 4 26 5 24 6 25 7 23 9 8 10 9 11 10 12
REMARK SMILES IDX 22 13 21 14 5 15 6 16 7 17 4 18 1 19 2 20 3 21 11 23 12 24
REMARK SMILES IDX 20 25 13 26 18 27 14 28 19 29 15 30 16 31 17 32 31 33 32 34
REMARK SMILES IDX 33 35 34 36 35 38 36 39 37 40 98 41 38 42 97 43 39 44 40 45
REMARK SMILES IDX 41 46 91 47 42 48 96 49 90 50 92 51 43 52 95 53 89 54 88 55
REMARK SMILES IDX 44 57 76 58 56 59 75 60 57 61 60 62 74 63 93 64 58 65 59 66
REMARK SMILES IDX 73 68 94 69 61 70 45 71 46 72 54 73 47 74 49 75 55 76 48 77
REMARK SMILES IDX 50 78 51 79 52 80 53 81 77 82 78 83 86 84 79 85 81 86 87 87
REMARK SMILES IDX 80 88 82 89 83 90 84 91 85 92 62 93 63 94 71 95 64 96 66 97
REMARK SMILES IDX 72 98 65 99 67 100 68 101 69 102 70 103
REMARK H PARENT 26 8 4 22 33 37 92 56 60 67
REMARK Flexibility Score: inf
ROOT
ATOM      1  C   UNL A   1      34.604  24.144  25.711  1.00  0.00     0.002 C 
ENDROOT
BRANCH   1   2
ATOM      2  C   UNL A   1      33.868  23.479  24.544  1.00  0.00     0.002 C 
BRANCH   2   3
ATOM      3  C   UNL A   1      33.876  24.167  23.170  1.00  0.00     0.021 C 
BRANCH   3   4
ATOM      4  C   UNL A   1      32.735  25.131  22.864  1.00  0.00     0.116 C 
BRANCH   4   5
ATOM      5  N   UNL A   1      31.525  24.882  23.618  1.00  0.00    -0.352 N 
ATOM      6  C   UNL A   1      30.888  25.672  24.536  1.00  0.00     0.252 C 
ATOM      7  O   UNL A   1      29.834  25.289  25.040  1.00  0.00    -0.269 OA
ATOM      8  H   UNL A   1      31.095  24.014  23.444  1.00  0.00     0.163 HD
BRANCH   6   9
ATOM      9  C   UNL A   1      31.455  26.949  25.013  1.00  0.00     0.060 A 
ATOM     10  C   UNL A   1      31.221  28.219  24.486  1.00  0.00     0.101 A 
ATOM     11  C   UNL A   1      31.805  29.351  25.095  1.00  0.00     0.031 A 
ATOM     12  C   UNL A   1      32.547  29.251  26.280  1.00  0.00    -0.017 A 
ATOM     13  C   UNL A   1      32.188  26.849  26.211  1.00  0.00     0.016 A 
ATOM     14  C   UNL A   1      32.716  27.983  26.841  1.00  0.00     0.009 A 
BRANCH  10  15
ATOM     15  S   UNL A   1      30.083  28.592  23.184  1.00  0.00     0.264 S 
ATOM     16  O   UNL A   1      28.799  28.103  23.623  1.00  0.00    -0.201 OA
ATOM     17  O   UNL A   1      30.678  28.107  21.955  1.00  0.00    -0.201 OA
BRANCH  15  18
ATOM     18  N   UNL A   1      29.975  30.230  23.072  1.00  0.00    -0.249 N 
ATOM     19  C   UNL A   1      27.534  30.487  22.539  1.00  0.00     0.115 C 
ATOM     20  C   UNL A   1      28.836  31.046  23.040  1.00  0.00     0.230 C 
ATOM     21  O   UNL A   1      28.967  32.233  23.311  1.00  0.00    -0.274 OA
ATOM     22  H   UNL A   1      30.835  30.706  23.019  1.00  0.00     0.183 HD
ENDBRANCH  15  18
ENDBRANCH  10  15
BRANCH  12  23
ATOM     23  C   UNL A   1      33.116  30.456  26.934  1.00  0.00    -0.011 A 
ATOM     24  C   UNL A   1      34.452  30.481  27.505  1.00  0.00     0.027 A 
ATOM     25  C   UNL A   1      32.371  31.576  27.004  1.00  0.00     0.080 A 
ATOM     26  C   UNL A   1      34.940  31.596  28.063  1.00  0.00     0.095 A 
ATOM     27  C   UNL A   1      32.897  32.823  27.629  1.00  0.00     0.255 A 
ATOM     28  N   UNL A   1      34.189  32.753  28.120  1.00  0.00    -0.258 N 
ATOM     29  O   UNL A   1      32.169  33.809  27.674  1.00  0.00    -0.269 OA
BRANCH  28  30
ATOM     30  C   UNL A   1      34.731  33.954  28.705  1.00  0.00     0.451 C 
ATOM     31  F   UNL A   1      34.663  34.997  27.843  1.00  0.00    -0.185 F 
ATOM     32  F   UNL A   1      34.058  34.294  29.832  1.00  0.00    -0.185 F 
ENDBRANCH  28  30
ENDBRANCH  12  23
ENDBRANCH   6   9
ENDBRANCH   4   5
ENDBRANCH   3   4
ENDBRANCH   2   3
ENDBRANCH   1   2
BRANCH   1  33
ATOM     33  C   UNL A   1      35.844  23.454  26.283  1.00  0.00     0.021 C 
BRANCH  33  34
ATOM     34  C   UNL A   1      36.887  22.954  25.293  1.00  0.00     0.116 C 
BRANCH  34  35
ATOM     35  N   UNL A   1      37.696  21.863  25.798  1.00  0.00    -0.352 N 
ATOM     36  C   UNL A   1      38.926  21.883  26.412  1.00  0.00     0.251 C 
ATOM     37  H   UNL A   1      37.302  20.967  25.685  1.00  0.00     0.163 HD
ATOM     38  O   UNL A   1      39.450  20.811  26.711  1.00  0.00    -0.269 OA
BRANCH  36  39
ATOM     39  C   UNL A   1      39.643  23.154  26.695  1.00  0.00     0.039 A 
ATOM     40  C   UNL A   1      40.546  23.173  27.766  1.00  0.00     0.014 A 
ATOM     41  C   UNL A   1      39.413  24.331  25.977  1.00  0.00     0.014 A 
ATOM     42  C   UNL A   1      41.233  24.347  28.092  1.00  0.00     0.010 A 
ATOM     43  C   UNL A   1      40.147  25.487  26.261  1.00  0.00     0.010 A 
ATOM     44  C   UNL A   1      41.050  25.513  27.333  1.00  0.00    -0.014 A 
BRANCH  44  45
ATOM     45  C   UNL A   1      41.776  26.766  27.672  1.00  0.00     0.031 A 
ATOM     46  C   UNL A   1      43.190  26.980  27.199  1.00  0.00     0.074 A 
ATOM     47  C   UNL A   1      41.186  27.695  28.450  1.00  0.00     0.049 A 
ATOM     48  N   UNL A   1      43.977  28.008  27.388  1.00  0.00    -0.248 NA
ATOM     49  C   UNL A   1      43.812  25.885  26.435  1.00  0.00     0.031 C 
ATOM     50  C   UNL A   1      39.853  27.576  29.045  1.00  0.00     0.029 A 
ATOM     51  N   UNL A   1      41.637  28.916  28.887  1.00  0.00    -0.354 N 
ATOM     52  C   UNL A   1      45.191  27.675  26.798  1.00  0.00     0.074 A 
ATOM     53  C   UNL A   1      45.048  26.335  26.271  1.00  0.00     0.031 C 
ATOM     54  C   UNL A   1      39.594  28.681  29.765  1.00  0.00     0.029 A 
ATOM     55  C   UNL A   1      40.739  29.584  29.686  1.00  0.00     0.049 A 
ATOM     56  H   UNL A   1      42.521  29.278  28.650  1.00  0.00     0.167 HD
ATOM     57  C   UNL A   1      46.312  28.425  26.673  1.00  0.00     0.034 A 
ATOM     58  C   UNL A   1      40.821  30.793  30.275  1.00  0.00     0.034 A 
ATOM     59  C   UNL A   1      46.435  29.781  27.137  1.00  0.00     0.049 A 
ATOM     60  C   UNL A   1      42.040  31.644  30.038  1.00  0.00     0.074 A 
ATOM     61  C   UNL A   1      47.499  30.652  26.983  1.00  0.00     0.029 A 
ATOM     62  N   UNL A   1      45.456  30.467  27.838  1.00  0.00    -0.354 N 
ATOM     63  N   UNL A   1      43.111  31.375  29.333  1.00  0.00    -0.248 NA
ATOM     64  C   UNL A   1      42.041  32.986  30.640  1.00  0.00     0.031 C 
ATOM     65  C   UNL A   1      47.161  31.869  27.586  1.00  0.00     0.029 A 
ATOM     66  C   UNL A   1      45.886  31.753  28.116  1.00  0.00     0.049 A 
ATOM     67  H   UNL A   1      44.583  30.094  28.099  1.00  0.00     0.167 HD
ATOM     68  C   UNL A   1      43.897  32.521  29.376  1.00  0.00     0.074 A 
ATOM     69  C   UNL A   1      43.167  33.497  30.159  1.00  0.00     0.031 C 
ATOM     70  C   UNL A   1      45.121  32.738  28.837  1.00  0.00     0.034 A 
BRANCH  57  71
ATOM     71  C   UNL A   1      47.471  27.819  25.928  1.00  0.00     0.023 A 
ATOM     72  C   UNL A   1      48.452  27.107  26.649  1.00  0.00     0.012 A 
ATOM     73  C   UNL A   1      47.574  27.910  24.526  1.00  0.00     0.148 A 
ATOM     74  C   UNL A   1      49.533  26.522  25.993  1.00  0.00     0.002 A 
ATOM     75  C   UNL A   1      48.637  27.293  23.875  1.00  0.00     0.091 A 
ATOM     76  F   UNL A   1      46.649  28.612  23.858  1.00  0.00    -0.205 F 
ATOM     77  C   UNL A   1      49.620  26.606  24.606  1.00  0.00     0.022 A 
BRANCH  75  78
ATOM     78  S   UNL A   1      48.797  27.294  22.085  1.00  0.00     0.127 S 
ATOM     79  O   UNL A   1      50.111  27.911  21.907  1.00  0.00    -0.237 OA
ATOM     80  O   UNL A   1      48.746  25.868  21.762  1.00  0.00    -0.237 OA
ATOM     81  O   UNL A   1      47.664  28.064  21.590  1.00  0.00    -0.744 OA
ENDBRANCH  75  78
ENDBRANCH  57  71
BRANCH  58  82
ATOM     82  C   UNL A   1      39.664  31.318  31.052  1.00  0.00     0.023 A 
ATOM     83  C   UNL A   1      38.529  31.783  30.359  1.00  0.00     0.012 A 
ATOM     84  C   UNL A   1      39.660  31.324  32.459  1.00  0.00     0.148 A 
ATOM     85  C   UNL A   1      37.422  32.271  31.053  1.00  0.00     0.002 A 
ATOM     86  C   UNL A   1      38.534  31.768  33.145  1.00  0.00     0.091 A 
ATOM     87  F   UNL A   1      40.756  30.897  33.102  1.00  0.00    -0.205 F 
ATOM     88  C   UNL A   1      37.419  32.253  32.445  1.00  0.00     0.022 A 
BRANCH  86  89
ATOM     89  S   UNL A   1      38.408  31.657  34.934  1.00  0.00     0.127 S 
ATOM     90  O   UNL A   1      38.435  30.214  35.148  1.00  0.00    -0.237 OA
ATOM     91  O   UNL A   1      39.608  32.369  35.375  1.00  0.00    -0.237 OA
ATOM     92  O   UNL A   1      37.161  32.333  35.270  1.00  0.00    -0.744 OA
ENDBRANCH  86  89
ENDBRANCH  58  82
BRANCH  70  93
ATOM     93  C   UNL A   1      45.748  34.090  29.052  1.00  0.00     0.023 A 
ATOM     94  C   UNL A   1      46.466  34.338  30.239  1.00  0.00     0.012 A 
ATOM     95  C   UNL A   1      45.684  35.088  28.061  1.00  0.00     0.148 A 
ATOM     96  C   UNL A   1      47.087  35.570  30.446  1.00  0.00     0.002 A 
ATOM     97  C   UNL A   1      46.338  36.299  28.259  1.00  0.00     0.091 A 
ATOM     98  F   UNL A   1      44.976  34.846  26.947  1.00  0.00    -0.205 F 
ATOM     99  C   UNL A   1      47.033  36.545  29.453  1.00  0.00     0.022 A 
BRANCH  97 100
ATOM    100  S   UNL A   1      46.375  37.562  26.981  1.00  0.00     0.127 S 
ATOM    101  O   UNL A   1      44.982  37.999  26.947  1.00  0.00    -0.237 OA
ATOM    102  O   UNL A   1      47.310  38.547  27.528  1.00  0.00    -0.237 OA
ATOM    103  O   UNL A   1      46.861  36.882  25.787  1.00  0.00    -0.744 OA
ENDBRANCH  97 100
ENDBRANCH  70  93
ENDBRANCH  44  45
ENDBRANCH  36  39
ENDBRANCH  34  35
ENDBRANCH  33  34
ENDBRANCH   1  33
TORSDOF 20
ENDMDL
