MODEL 1
REMARK VINA RESULT:     -12.6      0.000      0.000
REMARK SMILES Cc1ccc(-c2cc([C@@H](C)C(=O)NCCCCCCNC(=O)c3ccc(-c4c5nc(c(-c6cccc(S(=O)(=O)[O-])c6F)c6ccc([nH]6)c(-c6cccc(S(=O)(=O)[O-])c6F)c6nc(c(-c7cccc(S(=O)(=O)[O-])c7F)c7ccc4[nH]7)C=C6)C=C5)cc3)ccc2C[C@H]2CCCC2=O)cc1
REMARK SMILES IDX 16 1 15 2 14 3 13 4 11 5 12 6 9 8 10 9 8 10 6 11 7 12 88 13
REMARK SMILES IDX 87 14 86 15 5 16 1 17 2 18 3 19 97 20 4 21 96 22 89 23 90 24
REMARK SMILES IDX 91 25 94 26 92 27 93 28 95 29 17 30 18 31 19 32 20 33 21 34
REMARK SMILES IDX 22 36 23 37 24 38 85 39 25 40 84 41 26 42 27 43 28 44 78 45
REMARK SMILES IDX 29 46 83 47 77 48 79 49 30 50 82 51 76 52 75 53 31 55 63 56
REMARK SMILES IDX 43 57 62 58 44 59 47 60 61 61 80 62 45 63 46 64 60 66 81 67
REMARK SMILES IDX 48 68 32 69 33 70 41 71 34 72 36 73 42 74 35 75 37 76 38 77
REMARK SMILES IDX 39 78 40 79 64 80 65 81 73 82 66 83 68 84 74 85 67 86 69 87
REMARK SMILES IDX 70 88 71 89 72 90 49 91 50 92 58 93 51 94 53 95 59 96 52 97
REMARK SMILES IDX 54 98 55 99 56 100 57 101
REMARK H PARENT 13 7 20 35 79 54 47 65
REMARK Flexibility Score: inf
ROOT
ATOM      1  C   UNL A   1      39.017  23.510  26.491  1.00  0.00     0.002 C 
ENDROOT
BRANCH   1   2
ATOM      2  C   UNL A   1      37.631  23.297  25.870  1.00  0.00     0.021 C 
BRANCH   2   3
ATOM      3  C   UNL A   1      37.341  21.859  25.437  1.00  0.00     0.116 C 
BRANCH   3   4
ATOM      4  N   UNL A   1      36.179  21.771  24.580  1.00  0.00    -0.356 N 
ATOM      5  C   UNL A   1      34.853  21.925  24.841  1.00  0.00     0.227 C 
ATOM      6  O   UNL A   1      34.081  21.722  23.895  1.00  0.00    -0.274 OA
ATOM      7  H   UNL A   1      36.385  21.563  23.641  1.00  0.00     0.163 HD
BRANCH   5   8
ATOM      8  C   UNL A   1      34.292  22.363  26.204  1.00  0.00     0.105 C 
ATOM      9  C   UNL A   1      34.131  21.218  27.206  1.00  0.00     0.023 C 
BRANCH   8  10
ATOM     10  C   UNL A   1      33.125  23.332  26.114  1.00  0.00    -0.035 A 
ATOM     11  C   UNL A   1      32.325  25.670  26.073  1.00  0.00    -0.015 A 
ATOM     12  C   UNL A   1      33.363  24.717  26.185  1.00  0.00     0.013 A 
ATOM     13  C   UNL A   1      31.031  25.215  25.738  1.00  0.00    -0.039 A 
ATOM     14  C   UNL A   1      30.780  23.836  25.761  1.00  0.00     0.004 A 
ATOM     15  C   UNL A   1      31.801  22.915  25.983  1.00  0.00     0.005 A 
BRANCH  11  16
ATOM     16  C   UNL A   1      32.600  27.069  26.451  1.00  0.00    -0.018 A 
ATOM     17  C   UNL A   1      33.557  31.177  27.432  1.00  0.00     0.044 C 
ATOM     18  C   UNL A   1      33.203  29.765  27.077  1.00  0.00    -0.051 A 
ATOM     19  C   UNL A   1      34.135  28.973  26.404  1.00  0.00     0.004 A 
ATOM     20  C   UNL A   1      31.965  29.210  27.422  1.00  0.00     0.004 A 
ATOM     21  C   UNL A   1      33.830  27.650  26.086  1.00  0.00     0.009 A 
ATOM     22  C   UNL A   1      31.665  27.876  27.110  1.00  0.00     0.009 A 
ENDBRANCH  11  16
BRANCH  13  23
ATOM     23  C   UNL A   1      29.890  26.136  25.342  1.00  0.00     0.047 C 
BRANCH  23  24
ATOM     24  C   UNL A   1      29.918  26.668  23.899  1.00  0.00     0.060 C 
ATOM     25  C   UNL A   1      30.282  28.149  23.731  1.00  0.00     0.012 C 
ATOM     26  C   UNL A   1      30.935  25.982  23.009  1.00  0.00     0.136 C 
ATOM     27  C   UNL A   1      31.723  28.178  23.234  1.00  0.00     0.009 C 
ATOM     28  C   UNL A   1      31.850  26.964  22.330  1.00  0.00     0.076 C 
ATOM     29  O   UNL A   1      31.008  24.769  22.851  1.00  0.00    -0.299 OA
ENDBRANCH  23  24
ENDBRANCH  13  23
ENDBRANCH   8  10
ENDBRANCH   5   8
ENDBRANCH   3   4
ENDBRANCH   2   3
ENDBRANCH   1   2
BRANCH   1  30
ATOM     30  C   UNL A   1      39.794  22.238  26.870  1.00  0.00     0.002 C 
BRANCH  30  31
ATOM     31  C   UNL A   1      41.068  21.967  26.068  1.00  0.00     0.021 C 
BRANCH  31  32
ATOM     32  C   UNL A   1      42.018  20.982  26.732  1.00  0.00     0.116 C 
BRANCH  32  33
ATOM     33  N   UNL A   1      42.898  20.337  25.771  1.00  0.00    -0.352 N 
ATOM     34  C   UNL A   1      43.842  20.896  24.935  1.00  0.00     0.251 C 
ATOM     35  H   UNL A   1      42.807  19.359  25.708  1.00  0.00     0.163 HD
ATOM     36  O   UNL A   1      44.234  20.252  23.963  1.00  0.00    -0.269 OA
BRANCH  34  37
ATOM     37  C   UNL A   1      44.491  22.169  25.321  1.00  0.00     0.039 A 
ATOM     38  C   UNL A   1      45.070  22.214  26.597  1.00  0.00     0.014 A 
ATOM     39  C   UNL A   1      44.277  23.342  24.603  1.00  0.00     0.014 A 
ATOM     40  C   UNL A   1      45.184  23.432  27.259  1.00  0.00     0.010 A 
ATOM     41  C   UNL A   1      44.314  24.540  25.279  1.00  0.00     0.010 A 
ATOM     42  C   UNL A   1      44.694  24.567  26.627  1.00  0.00    -0.014 A 
BRANCH  42  43
ATOM     43  C   UNL A   1      44.499  25.849  27.276  1.00  0.00     0.031 A 
ATOM     44  C   UNL A   1      43.166  26.472  27.267  1.00  0.00     0.074 A 
ATOM     45  C   UNL A   1      45.485  26.306  28.078  1.00  0.00     0.049 A 
ATOM     46  N   UNL A   1      42.923  27.684  27.626  1.00  0.00    -0.248 NA
ATOM     47  C   UNL A   1      41.991  25.756  26.788  1.00  0.00     0.031 C 
ATOM     48  C   UNL A   1      45.352  27.245  29.181  1.00  0.00     0.029 A 
ATOM     49  N   UNL A   1      46.867  26.142  27.923  1.00  0.00    -0.354 N 
ATOM     50  C   UNL A   1      41.551  27.825  27.695  1.00  0.00     0.074 A 
ATOM     51  C   UNL A   1      41.027  26.635  27.069  1.00  0.00     0.031 C 
ATOM     52  C   UNL A   1      46.557  27.771  29.444  1.00  0.00     0.029 A 
ATOM     53  C   UNL A   1      47.455  27.330  28.389  1.00  0.00     0.049 A 
ATOM     54  H   UNL A   1      47.333  25.355  27.560  1.00  0.00     0.167 HD
ATOM     55  C   UNL A   1      41.032  28.864  28.409  1.00  0.00     0.034 A 
ATOM     56  C   UNL A   1      48.227  28.154  27.622  1.00  0.00     0.034 A 
ATOM     57  C   UNL A   1      42.108  29.753  28.880  1.00  0.00     0.049 A 
ATOM     58  C   UNL A   1      47.666  29.562  27.513  1.00  0.00     0.074 A 
ATOM     59  C   UNL A   1      42.795  29.843  30.080  1.00  0.00     0.029 A 
ATOM     60  N   UNL A   1      42.821  30.513  27.962  1.00  0.00    -0.354 N 
ATOM     61  N   UNL A   1      46.509  29.927  27.994  1.00  0.00    -0.248 NA
ATOM     62  C   UNL A   1      48.341  30.658  26.820  1.00  0.00     0.031 C 
ATOM     63  C   UNL A   1      43.990  30.577  29.845  1.00  0.00     0.029 A 
ATOM     64  C   UNL A   1      44.011  30.964  28.516  1.00  0.00     0.049 A 
ATOM     65  H   UNL A   1      42.523  30.706  27.043  1.00  0.00     0.167 HD
ATOM     66  C   UNL A   1      46.205  31.189  27.560  1.00  0.00     0.074 A 
ATOM     67  C   UNL A   1      47.423  31.638  26.909  1.00  0.00     0.031 C 
ATOM     68  C   UNL A   1      44.954  31.726  27.703  1.00  0.00     0.034 A 
BRANCH  55  69
ATOM     69  C   UNL A   1      39.610  28.940  28.959  1.00  0.00     0.023 A 
ATOM     70  C   UNL A   1      38.565  29.086  28.017  1.00  0.00     0.012 A 
ATOM     71  C   UNL A   1      39.212  28.963  30.316  1.00  0.00     0.148 A 
ATOM     72  C   UNL A   1      37.240  29.348  28.390  1.00  0.00     0.002 A 
ATOM     73  C   UNL A   1      37.904  29.284  30.693  1.00  0.00     0.091 A 
ATOM     74  F   UNL A   1      40.065  28.590  31.269  1.00  0.00    -0.205 F 
ATOM     75  C   UNL A   1      36.915  29.483  29.730  1.00  0.00     0.022 A 
BRANCH  73  76
ATOM     76  S   UNL A   1      37.420  29.521  32.416  1.00  0.00     0.127 S 
ATOM     77  O   UNL A   1      38.458  30.433  32.903  1.00  0.00    -0.237 OA
ATOM     78  O   UNL A   1      36.095  30.122  32.290  1.00  0.00    -0.237 OA
ATOM     79  O   UNL A   1      37.449  28.200  33.035  1.00  0.00    -0.744 OA
ENDBRANCH  73  76
ENDBRANCH  55  69
BRANCH  56  80
ATOM     80  C   UNL A   1      49.002  27.445  26.566  1.00  0.00     0.023 A 
ATOM     81  C   UNL A   1      48.484  27.498  25.250  1.00  0.00     0.012 A 
ATOM     82  C   UNL A   1      50.355  27.109  26.751  1.00  0.00     0.148 A 
ATOM     83  C   UNL A   1      49.318  27.339  24.143  1.00  0.00     0.002 A 
ATOM     84  C   UNL A   1      51.186  26.972  25.640  1.00  0.00     0.091 A 
ATOM     85  F   UNL A   1      50.825  27.024  28.002  1.00  0.00    -0.205 F 
ATOM     86  C   UNL A   1      50.675  27.114  24.339  1.00  0.00     0.022 A 
BRANCH  84  87
ATOM     87  S   UNL A   1      52.968  26.785  25.799  1.00  0.00     0.127 S 
ATOM     88  O   UNL A   1      53.380  26.715  24.401  1.00  0.00    -0.237 OA
ATOM     89  O   UNL A   1      53.344  28.017  26.491  1.00  0.00    -0.237 OA
ATOM     90  O   UNL A   1      53.154  25.576  26.587  1.00  0.00    -0.744 OA
ENDBRANCH  84  87
ENDBRANCH  56  80
BRANCH  68  91
ATOM     91  C   UNL A   1      44.483  33.006  27.047  1.00  0.00     0.023 A 
ATOM     92  C   UNL A   1      44.262  33.101  25.659  1.00  0.00     0.012 A 
ATOM     93  C   UNL A   1      44.077  34.109  27.840  1.00  0.00     0.148 A 
ATOM     94  C   UNL A   1      43.713  34.250  25.079  1.00  0.00     0.002 A 
ATOM     95  C   UNL A   1      43.430  35.203  27.269  1.00  0.00     0.091 A 
ATOM     96  F   UNL A   1      44.324  34.109  29.158  1.00  0.00    -0.205 F 
ATOM     97  C   UNL A   1      43.273  35.290  25.885  1.00  0.00     0.022 A 
BRANCH  95  98
ATOM     98  S   UNL A   1      42.639  36.437  28.310  1.00  0.00     0.127 S 
ATOM     99  O   UNL A   1      41.903  37.237  27.335  1.00  0.00    -0.237 OA
ATOM    100  O   UNL A   1      41.795  35.624  29.188  1.00  0.00    -0.237 OA
ATOM    101  O   UNL A   1      43.740  37.102  28.994  1.00  0.00    -0.744 OA
ENDBRANCH  95  98
ENDBRANCH  68  91
ENDBRANCH  42  43
ENDBRANCH  34  37
ENDBRANCH  32  33
ENDBRANCH  31  32
ENDBRANCH  30  31
ENDBRANCH   1  30
TORSDOF 20
ENDMDL
MODEL 2
REMARK VINA RESULT:     -12.5      5.156     10.877
REMARK SMILES Cc1ccc(-c2cc([C@@H](C)C(=O)NCCCCCCNC(=O)c3ccc(-c4c5nc(c(-c6cccc(S(=O)(=O)[O-])c6F)c6ccc([nH]6)c(-c6cccc(S(=O)(=O)[O-])c6F)c6nc(c(-c7cccc(S(=O)(=O)[O-])c7F)c7ccc4[nH]7)C=C6)C=C5)cc3)ccc2C[C@H]2CCCC2=O)cc1
REMARK SMILES IDX 16 1 15 2 14 3 13 4 11 5 12 6 9 8 10 9 8 10 6 11 7 12 88 13
REMARK SMILES IDX 87 14 86 15 5 16 1 17 2 18 3 19 97 20 4 21 96 22 89 23 90 24
REMARK SMILES IDX 91 25 94 26 92 27 93 28 95 29 17 30 18 31 19 32 20 33 21 34
REMARK SMILES IDX 22 36 23 37 24 38 85 39 25 40 84 41 26 42 27 43 28 44 78 45
REMARK SMILES IDX 29 46 83 47 77 48 79 49 30 50 82 51 76 52 75 53 31 55 63 56
REMARK SMILES IDX 43 57 62 58 44 59 47 60 61 61 80 62 45 63 46 64 60 66 81 67
REMARK SMILES IDX 48 68 32 69 33 70 41 71 34 72 36 73 42 74 35 75 37 76 38 77
REMARK SMILES IDX 39 78 40 79 64 80 65 81 73 82 66 83 68 84 74 85 67 86 69 87
REMARK SMILES IDX 70 88 71 89 72 90 49 91 50 92 58 93 51 94 53 95 59 96 52 97
REMARK SMILES IDX 54 98 55 99 56 100 57 101
REMARK H PARENT 13 7 20 35 79 54 47 65
REMARK Flexibility Score: inf
ROOT
ATOM      1  C   UNL A   1      34.231  29.062  26.805  1.00  0.00     0.002 C 
ENDROOT
BRANCH   1   2
ATOM      2  C   UNL A   1      33.648  29.570  25.481  1.00  0.00     0.021 C 
BRANCH   2   3
ATOM      3  C   UNL A   1      32.122  29.504  25.391  1.00  0.00     0.116 C 
BRANCH   3   4
ATOM      4  N   UNL A   1      31.559  28.565  26.336  1.00  0.00    -0.356 N 
ATOM      5  C   UNL A   1      31.126  27.284  26.184  1.00  0.00     0.227 C 
ATOM      6  O   UNL A   1      30.628  26.752  27.185  1.00  0.00    -0.274 OA
ATOM      7  H   UNL A   1      31.475  28.914  27.252  1.00  0.00     0.163 HD
BRANCH   5   8
ATOM      8  C   UNL A   1      31.258  26.483  24.879  1.00  0.00     0.105 C 
ATOM      9  C   UNL A   1      29.938  25.899  24.373  1.00  0.00     0.023 C 
BRANCH   8  10
ATOM     10  C   UNL A   1      32.453  25.544  24.844  1.00  0.00    -0.035 A 
ATOM     11  C   UNL A   1      33.331  23.261  24.486  1.00  0.00    -0.015 A 
ATOM     12  C   UNL A   1      32.258  24.178  24.567  1.00  0.00     0.013 A 
ATOM     13  C   UNL A   1      34.648  23.766  24.547  1.00  0.00    -0.039 A 
ATOM     14  C   UNL A   1      34.836  25.105  24.916  1.00  0.00     0.004 A 
ATOM     15  C   UNL A   1      33.758  25.966  25.097  1.00  0.00     0.005 A 
BRANCH  11  16
ATOM     16  C   UNL A   1      33.033  21.817  24.490  1.00  0.00    -0.018 A 
ATOM     17  C   UNL A   1      32.181  17.574  24.309  1.00  0.00     0.044 C 
ATOM     18  C   UNL A   1      32.503  19.036  24.382  1.00  0.00    -0.051 A 
ATOM     19  C   UNL A   1      32.439  19.811  23.223  1.00  0.00     0.004 A 
ATOM     20  C   UNL A   1      32.846  19.652  25.591  1.00  0.00     0.004 A 
ATOM     21  C   UNL A   1      32.713  21.178  23.277  1.00  0.00     0.009 A 
ATOM     22  C   UNL A   1      33.111  21.029  25.645  1.00  0.00     0.009 A 
ENDBRANCH  11  16
BRANCH  13  23
ATOM     23  C   UNL A   1      35.882  22.939  24.225  1.00  0.00     0.047 C 
BRANCH  23  24
ATOM     24  C   UNL A   1      36.500  22.159  25.397  1.00  0.00     0.060 C 
ATOM     25  C   UNL A   1      36.657  20.646  25.194  1.00  0.00     0.012 C 
ATOM     26  C   UNL A   1      37.911  22.587  25.746  1.00  0.00     0.136 C 
ATOM     27  C   UNL A   1      38.137  20.407  24.914  1.00  0.00     0.009 C 
ATOM     28  C   UNL A   1      38.867  21.427  25.773  1.00  0.00     0.076 C 
ATOM     29  O   UNL A   1      38.243  23.742  25.986  1.00  0.00    -0.299 OA
ENDBRANCH  23  24
ENDBRANCH  13  23
ENDBRANCH   8  10
ENDBRANCH   5   8
ENDBRANCH   3   4
ENDBRANCH   2   3
ENDBRANCH   1   2
BRANCH   1  30
ATOM     30  C   UNL A   1      35.588  29.655  27.221  1.00  0.00     0.002 C 
BRANCH  30  31
ATOM     31  C   UNL A   1      35.578  31.129  27.629  1.00  0.00     0.021 C 
BRANCH  31  32
ATOM     32  C   UNL A   1      34.514  31.478  28.659  1.00  0.00     0.116 C 
BRANCH  32  33
ATOM     33  N   UNL A   1      34.159  32.887  28.623  1.00  0.00    -0.352 N 
ATOM     34  C   UNL A   1      34.591  33.921  29.427  1.00  0.00     0.251 C 
ATOM     35  H   UNL A   1      33.517  33.140  27.921  1.00  0.00     0.163 HD
ATOM     36  O   UNL A   1      33.931  34.958  29.471  1.00  0.00    -0.269 OA
BRANCH  34  37
ATOM     37  C   UNL A   1      35.921  33.832  30.072  1.00  0.00     0.039 A 
ATOM     38  C   UNL A   1      37.026  34.156  29.273  1.00  0.00     0.014 A 
ATOM     39  C   UNL A   1      36.097  33.177  31.287  1.00  0.00     0.014 A 
ATOM     40  C   UNL A   1      38.267  33.594  29.553  1.00  0.00     0.010 A 
ATOM     41  C   UNL A   1      37.301  32.555  31.527  1.00  0.00     0.010 A 
ATOM     42  C   UNL A   1      38.355  32.705  30.617  1.00  0.00    -0.014 A 
BRANCH  42  43
ATOM     43  C   UNL A   1      39.494  31.845  30.876  1.00  0.00     0.031 A 
ATOM     44  C   UNL A   1      39.575  30.532  30.216  1.00  0.00     0.074 A 
ATOM     45  C   UNL A   1      40.556  32.381  31.514  1.00  0.00     0.049 A 
ATOM     46  N   UNL A   1      40.421  29.611  30.523  1.00  0.00    -0.248 NA
ATOM     47  C   UNL A   1      38.642  30.143  29.168  1.00  0.00     0.031 C 
ATOM     48  C   UNL A   1      41.937  31.925  31.448  1.00  0.00     0.029 A 
ATOM     49  N   UNL A   1      40.557  33.356  32.519  1.00  0.00    -0.354 N 
ATOM     50  C   UNL A   1      40.337  28.635  29.550  1.00  0.00     0.074 A 
ATOM     51  C   UNL A   1      39.152  28.968  28.796  1.00  0.00     0.031 C 
ATOM     52  C   UNL A   1      42.598  32.409  32.510  1.00  0.00     0.029 A 
ATOM     53  C   UNL A   1      41.612  33.023  33.385  1.00  0.00     0.049 A 
ATOM     54  H   UNL A   1      39.942  34.120  32.602  1.00  0.00     0.167 HD
ATOM     55  C   UNL A   1      41.367  27.753  29.413  1.00  0.00     0.034 A 
ATOM     56  C   UNL A   1      41.452  32.736  34.710  1.00  0.00     0.034 A 
ATOM     57  C   UNL A   1      42.360  27.952  30.482  1.00  0.00     0.049 A 
ATOM     58  C   UNL A   1      41.935  31.343  35.078  1.00  0.00     0.074 A 
ATOM     59  C   UNL A   1      43.550  28.659  30.540  1.00  0.00     0.029 A 
ATOM     60  N   UNL A   1      42.031  27.630  31.793  1.00  0.00    -0.354 N 
ATOM     61  N   UNL A   1      42.348  30.459  34.210  1.00  0.00    -0.248 NA
ATOM     62  C   UNL A   1      41.954  30.819  36.443  1.00  0.00     0.031 C 
ATOM     63  C   UNL A   1      43.876  28.856  31.911  1.00  0.00     0.029 A 
ATOM     64  C   UNL A   1      42.907  28.236  32.682  1.00  0.00     0.049 A 
ATOM     65  H   UNL A   1      41.278  27.052  32.055  1.00  0.00     0.167 HD
ATOM     66  C   UNL A   1      42.520  29.250  34.827  1.00  0.00     0.074 A 
ATOM     67  C   UNL A   1      42.353  29.550  36.239  1.00  0.00     0.031 C 
ATOM     68  C   UNL A   1      42.705  28.092  34.121  1.00  0.00     0.034 A 
BRANCH  55  69
ATOM     69  C   UNL A   1      41.663  26.920  28.168  1.00  0.00     0.023 A 
ATOM     70  C   UNL A   1      41.344  27.500  26.918  1.00  0.00     0.012 A 
ATOM     71  C   UNL A   1      42.148  25.592  28.116  1.00  0.00     0.148 A 
ATOM     72  C   UNL A   1      41.394  26.783  25.715  1.00  0.00     0.002 A 
ATOM     73  C   UNL A   1      42.142  24.854  26.927  1.00  0.00     0.091 A 
ATOM     74  F   UNL A   1      42.706  25.041  29.192  1.00  0.00    -0.205 F 
ATOM     75  C   UNL A   1      41.759  25.447  25.724  1.00  0.00     0.022 A 
BRANCH  73  76
ATOM     76  S   UNL A   1      42.561  23.099  26.873  1.00  0.00     0.127 S 
ATOM     77  O   UNL A   1      42.324  22.771  25.465  1.00  0.00    -0.237 OA
ATOM     78  O   UNL A   1      43.968  23.100  27.267  1.00  0.00    -0.237 OA
ATOM     79  O   UNL A   1      41.655  22.432  27.801  1.00  0.00    -0.744 OA
ENDBRANCH  73  76
ENDBRANCH  55  69
BRANCH  56  80
ATOM     80  C   UNL A   1      40.320  33.459  35.353  1.00  0.00     0.023 A 
ATOM     81  C   UNL A   1      39.042  32.859  35.254  1.00  0.00     0.012 A 
ATOM     82  C   UNL A   1      40.540  34.433  36.343  1.00  0.00     0.148 A 
ATOM     83  C   UNL A   1      38.046  33.132  36.193  1.00  0.00     0.002 A 
ATOM     84  C   UNL A   1      39.548  34.686  37.288  1.00  0.00     0.091 A 
ATOM     85  F   UNL A   1      41.741  35.022  36.401  1.00  0.00    -0.205 F 
ATOM     86  C   UNL A   1      38.314  34.017  37.231  1.00  0.00     0.022 A 
BRANCH  84  87
ATOM     87  S   UNL A   1      39.841  35.731  38.722  1.00  0.00     0.127 S 
ATOM     88  O   UNL A   1      39.647  37.063  38.158  1.00  0.00    -0.237 OA
ATOM     89  O   UNL A   1      38.790  35.293  39.640  1.00  0.00    -0.237 OA
ATOM     90  O   UNL A   1      41.190  35.407  39.159  1.00  0.00    -0.744 OA
ENDBRANCH  84  87
ENDBRANCH  56  80
BRANCH  68  91
ATOM     91  C   UNL A   1      42.667  26.701  34.717  1.00  0.00     0.023 A 
ATOM     92  C   UNL A   1      41.496  26.159  35.280  1.00  0.00     0.012 A 
ATOM     93  C   UNL A   1      43.772  25.827  34.564  1.00  0.00     0.148 A 
ATOM     94  C   UNL A   1      41.438  24.831  35.719  1.00  0.00     0.002 A 
ATOM     95  C   UNL A   1      43.672  24.479  34.900  1.00  0.00     0.091 A 
ATOM     96  F   UNL A   1      44.938  26.301  34.098  1.00  0.00    -0.205 F 
ATOM     97  C   UNL A   1      42.516  23.984  35.506  1.00  0.00     0.022 A 
BRANCH  95  98
ATOM     98  S   UNL A   1      44.957  23.321  34.410  1.00  0.00     0.127 S 
ATOM     99  O   UNL A   1      46.140  23.880  35.060  1.00  0.00    -0.237 OA
ATOM    100  O   UNL A   1      44.489  22.059  34.985  1.00  0.00    -0.237 OA
ATOM    101  O   UNL A   1      44.945  23.352  32.953  1.00  0.00    -0.744 OA
ENDBRANCH  95  98
ENDBRANCH  68  91
ENDBRANCH  42  43
ENDBRANCH  34  37
ENDBRANCH  32  33
ENDBRANCH  31  32
ENDBRANCH  30  31
ENDBRANCH   1  30
TORSDOF 20
ENDMDL
MODEL 3
REMARK VINA RESULT:     -12.1      4.551      9.687
REMARK SMILES Cc1ccc(-c2cc([C@@H](C)C(=O)NCCCCCCNC(=O)c3ccc(-c4c5nc(c(-c6cccc(S(=O)(=O)[O-])c6F)c6ccc([nH]6)c(-c6cccc(S(=O)(=O)[O-])c6F)c6nc(c(-c7cccc(S(=O)(=O)[O-])c7F)c7ccc4[nH]7)C=C6)C=C5)cc3)ccc2C[C@H]2CCCC2=O)cc1
REMARK SMILES IDX 16 1 15 2 14 3 13 4 11 5 12 6 9 8 10 9 8 10 6 11 7 12 88 13
REMARK SMILES IDX 87 14 86 15 5 16 1 17 2 18 3 19 97 20 4 21 96 22 89 23 90 24
REMARK SMILES IDX 91 25 94 26 92 27 93 28 95 29 17 30 18 31 19 32 20 33 21 34
REMARK SMILES IDX 22 36 23 37 24 38 85 39 25 40 84 41 26 42 27 43 28 44 78 45
REMARK SMILES IDX 29 46 83 47 77 48 79 49 30 50 82 51 76 52 75 53 31 55 63 56
REMARK SMILES IDX 43 57 62 58 44 59 47 60 61 61 80 62 45 63 46 64 60 66 81 67
REMARK SMILES IDX 48 68 32 69 33 70 41 71 34 72 36 73 42 74 35 75 37 76 38 77
REMARK SMILES IDX 39 78 40 79 64 80 65 81 73 82 66 83 68 84 74 85 67 86 69 87
REMARK SMILES IDX 70 88 71 89 72 90 49 91 50 92 58 93 51 94 53 95 59 96 52 97
REMARK SMILES IDX 54 98 55 99 56 100 57 101
REMARK H PARENT 13 7 20 35 79 54 47 65
REMARK Flexibility Score: inf
ROOT
ATOM      1  C   UNL A   1      36.906  22.901  24.378  1.00  0.00     0.002 C 
ENDROOT
BRANCH   1   2
ATOM      2  C   UNL A   1      36.428  21.523  23.906  1.00  0.00     0.021 C 
BRANCH   2   3
ATOM      3  C   UNL A   1      36.288  20.482  25.018  1.00  0.00     0.116 C 
BRANCH   3   4
ATOM      4  N   UNL A   1      34.924  20.026  25.172  1.00  0.00    -0.356 N 
ATOM      5  C   UNL A   1      33.856  20.578  25.808  1.00  0.00     0.227 C 
ATOM      6  O   UNL A   1      32.817  19.906  25.818  1.00  0.00    -0.274 OA
ATOM      7  H   UNL A   1      34.735  19.163  24.739  1.00  0.00     0.163 HD
BRANCH   5   8
ATOM      8  C   UNL A   1      33.871  21.970  26.459  1.00  0.00     0.105 C 
ATOM      9  C   UNL A   1      33.188  22.024  27.826  1.00  0.00     0.023 C 
BRANCH   8  10
ATOM     10  C   UNL A   1      33.534  23.107  25.507  1.00  0.00    -0.035 A 
ATOM     11  C   UNL A   1      33.325  25.538  25.118  1.00  0.00    -0.015 A 
ATOM     12  C   UNL A   1      33.593  24.437  25.962  1.00  0.00     0.013 A 
ATOM     13  C   UNL A   1      33.131  25.294  23.741  1.00  0.00    -0.039 A 
ATOM     14  C   UNL A   1      32.980  23.969  23.310  1.00  0.00     0.004 A 
ATOM     15  C   UNL A   1      33.142  22.898  24.186  1.00  0.00     0.005 A 
BRANCH  11  16
ATOM     16  C   UNL A   1      33.114  26.866  25.726  1.00  0.00    -0.018 A 
ATOM     17  C   UNL A   1      32.609  30.840  27.371  1.00  0.00     0.044 C 
ATOM     18  C   UNL A   1      32.757  29.466  26.789  1.00  0.00    -0.051 A 
ATOM     19  C   UNL A   1      33.794  29.209  25.892  1.00  0.00     0.004 A 
ATOM     20  C   UNL A   1      31.891  28.424  27.142  1.00  0.00     0.004 A 
ATOM     21  C   UNL A   1      33.959  27.931  25.359  1.00  0.00     0.009 A 
ATOM     22  C   UNL A   1      32.067  27.136  26.614  1.00  0.00     0.009 A 
ENDBRANCH  11  16
BRANCH  13  23
ATOM     23  C   UNL A   1      33.086  26.390  22.689  1.00  0.00     0.047 C 
BRANCH  23  24
ATOM     24  C   UNL A   1      31.687  26.896  22.298  1.00  0.00     0.060 C 
ATOM     25  C   UNL A   1      30.500  26.123  22.886  1.00  0.00     0.012 C 
ATOM     26  C   UNL A   1      31.400  28.317  22.742  1.00  0.00     0.136 C 
ATOM     27  C   UNL A   1      29.945  26.988  24.012  1.00  0.00     0.009 C 
ATOM     28  C   UNL A   1      30.124  28.419  23.531  1.00  0.00     0.076 C 
ATOM     29  O   UNL A   1      32.117  29.278  22.487  1.00  0.00    -0.299 OA
ENDBRANCH  23  24
ENDBRANCH  13  23
ENDBRANCH   8  10
ENDBRANCH   5   8
ENDBRANCH   3   4
ENDBRANCH   2   3
ENDBRANCH   1   2
BRANCH   1  30
ATOM     30  C   UNL A   1      37.210  23.037  25.880  1.00  0.00     0.002 C 
BRANCH  30  31
ATOM     31  C   UNL A   1      37.640  24.427  26.352  1.00  0.00     0.021 C 
BRANCH  31  32
ATOM     32  C   UNL A   1      38.988  24.449  27.059  1.00  0.00     0.116 C 
BRANCH  32  33
ATOM     33  N   UNL A   1      39.856  23.371  26.614  1.00  0.00    -0.352 N 
ATOM     34  C   UNL A   1      41.234  23.312  26.584  1.00  0.00     0.251 C 
ATOM     35  H   UNL A   1      39.394  22.566  26.288  1.00  0.00     0.163 HD
ATOM     36  O   UNL A   1      41.780  22.476  25.865  1.00  0.00    -0.269 OA
BRANCH  34  37
ATOM     37  C   UNL A   1      42.017  24.124  27.543  1.00  0.00     0.039 A 
ATOM     38  C   UNL A   1      42.389  25.407  27.120  1.00  0.00     0.014 A 
ATOM     39  C   UNL A   1      42.613  23.552  28.663  1.00  0.00     0.014 A 
ATOM     40  C   UNL A   1      43.532  26.002  27.644  1.00  0.00     0.010 A 
ATOM     41  C   UNL A   1      43.787  24.096  29.131  1.00  0.00     0.010 A 
ATOM     42  C   UNL A   1      44.279  25.279  28.565  1.00  0.00    -0.014 A 
BRANCH  42  43
ATOM     43  C   UNL A   1      45.614  25.639  29.002  1.00  0.00     0.031 A 
ATOM     44  C   UNL A   1      46.776  25.235  28.194  1.00  0.00     0.074 A 
ATOM     45  C   UNL A   1      45.729  26.544  29.998  1.00  0.00     0.049 A 
ATOM     46  N   UNL A   1      48.000  25.317  28.582  1.00  0.00    -0.248 NA
ATOM     47  C   UNL A   1      46.619  24.644  26.872  1.00  0.00     0.031 C 
ATOM     48  C   UNL A   1      46.865  27.413  30.264  1.00  0.00     0.029 A 
ATOM     49  N   UNL A   1      44.886  26.722  31.102  1.00  0.00    -0.354 N 
ATOM     50  C   UNL A   1      48.797  25.063  27.483  1.00  0.00     0.074 A 
ATOM     51  C   UNL A   1      47.892  24.554  26.481  1.00  0.00     0.031 C 
ATOM     52  C   UNL A   1      46.793  27.835  31.535  1.00  0.00     0.029 A 
ATOM     53  C   UNL A   1      45.718  27.092  32.172  1.00  0.00     0.049 A 
ATOM     54  H   UNL A   1      43.909  26.611  31.124  1.00  0.00     0.167 HD
ATOM     55  C   UNL A   1      50.102  25.456  27.512  1.00  0.00     0.034 A 
ATOM     56  C   UNL A   1      45.837  26.379  33.330  1.00  0.00     0.034 A 
ATOM     57  C   UNL A   1      50.450  25.988  28.842  1.00  0.00     0.049 A 
ATOM     58  C   UNL A   1      47.256  25.909  33.595  1.00  0.00     0.074 A 
ATOM     59  C   UNL A   1      50.505  27.274  29.354  1.00  0.00     0.029 A 
ATOM     60  N   UNL A   1      50.505  25.129  29.931  1.00  0.00    -0.354 N 
ATOM     61  N   UNL A   1      48.245  26.058  32.756  1.00  0.00    -0.248 NA
ATOM     62  C   UNL A   1      47.670  25.199  34.805  1.00  0.00     0.031 C 
ATOM     63  C   UNL A   1      50.482  27.180  30.773  1.00  0.00     0.029 A 
ATOM     64  C   UNL A   1      50.453  25.840  31.122  1.00  0.00     0.049 A 
ATOM     65  H   UNL A   1      50.572  24.148  29.868  1.00  0.00     0.167 HD
ATOM     66  C   UNL A   1      49.336  25.358  33.195  1.00  0.00     0.074 A 
ATOM     67  C   UNL A   1      48.956  24.917  34.526  1.00  0.00     0.031 C 
ATOM     68  C   UNL A   1      50.425  25.131  32.398  1.00  0.00     0.034 A 
BRANCH  55  69
ATOM     69  C   UNL A   1      50.993  25.665  26.291  1.00  0.00     0.023 A 
ATOM     70  C   UNL A   1      52.230  24.977  26.274  1.00  0.00     0.012 A 
ATOM     71  C   UNL A   1      50.767  26.534  25.198  1.00  0.00     0.148 A 
ATOM     72  C   UNL A   1      53.216  25.215  25.309  1.00  0.00     0.002 A 
ATOM     73  C   UNL A   1      51.771  26.820  24.266  1.00  0.00     0.091 A 
ATOM     74  F   UNL A   1      49.552  27.036  24.984  1.00  0.00    -0.205 F 
ATOM     75  C   UNL A   1      53.002  26.165  24.323  1.00  0.00     0.022 A 
BRANCH  73  76
ATOM     76  S   UNL A   1      51.577  28.077  22.986  1.00  0.00     0.127 S 
ATOM     77  O   UNL A   1      51.346  29.288  23.777  1.00  0.00    -0.237 OA
ATOM     78  O   UNL A   1      52.870  28.034  22.306  1.00  0.00    -0.237 OA
ATOM     79  O   UNL A   1      50.435  27.666  22.178  1.00  0.00    -0.744 OA
ENDBRANCH  73  76
ENDBRANCH  55  69
BRANCH  56  80
ATOM     80  C   UNL A   1      44.596  25.654  33.724  1.00  0.00     0.023 A 
ATOM     81  C   UNL A   1      44.566  24.261  33.478  1.00  0.00     0.012 A 
ATOM     82  C   UNL A   1      43.690  26.202  34.650  1.00  0.00     0.148 A 
ATOM     83  C   UNL A   1      43.740  23.418  34.222  1.00  0.00     0.002 A 
ATOM     84  C   UNL A   1      42.883  25.351  35.403  1.00  0.00     0.091 A 
ATOM     85  F   UNL A   1      43.701  27.526  34.846  1.00  0.00    -0.205 F 
ATOM     86  C   UNL A   1      42.926  23.960  35.210  1.00  0.00     0.022 A 
BRANCH  84  87
ATOM     87  S   UNL A   1      41.881  25.951  36.771  1.00  0.00     0.127 S 
ATOM     88  O   UNL A   1      42.904  26.423  37.698  1.00  0.00    -0.237 OA
ATOM     89  O   UNL A   1      41.093  27.006  36.134  1.00  0.00    -0.237 OA
ATOM     90  O   UNL A   1      41.101  24.801  37.203  1.00  0.00    -0.744 OA
ENDBRANCH  84  87
ENDBRANCH  56  80
BRANCH  68  91
ATOM     91  C   UNL A   1      51.553  24.178  32.727  1.00  0.00     0.023 A 
ATOM     92  C   UNL A   1      51.385  22.780  32.703  1.00  0.00     0.012 A 
ATOM     93  C   UNL A   1      52.874  24.664  32.897  1.00  0.00     0.148 A 
ATOM     94  C   UNL A   1      52.462  21.906  32.891  1.00  0.00     0.002 A 
ATOM     95  C   UNL A   1      53.956  23.790  32.972  1.00  0.00     0.091 A 
ATOM     96  F   UNL A   1      53.090  25.984  32.998  1.00  0.00    -0.205 F 
ATOM     97  C   UNL A   1      53.750  22.409  32.999  1.00  0.00     0.022 A 
BRANCH  95  98
ATOM     98  S   UNL A   1      55.639  24.414  32.866  1.00  0.00     0.127 S 
ATOM     99  O   UNL A   1      55.630  25.106  31.579  1.00  0.00    -0.237 OA
ATOM    100  O   UNL A   1      55.728  25.298  34.029  1.00  0.00    -0.237 OA
ATOM    101  O   UNL A   1      56.478  23.226  32.955  1.00  0.00    -0.744 OA
ENDBRANCH  95  98
ENDBRANCH  68  91
ENDBRANCH  42  43
ENDBRANCH  34  37
ENDBRANCH  32  33
ENDBRANCH  31  32
ENDBRANCH  30  31
ENDBRANCH   1  30
TORSDOF 20
ENDMDL
