MODEL 1
REMARK VINA RESULT:     -11.4      0.000      0.000
REMARK SMILES O=C(NCCCCCCNC(=O)c1cc2nn[nH]n2n1)c1ccc(-c2c3nc(c(-c4cccc(S(=O)(=O)[O-])c4F)c4ccc([nH]4)c(-c4cccc(S(=O)(=O)[O-])c4F)c4nc(c(-c5cccc(S(=O)(=O)[O-])c5F)c5ccc2[nH]5)C=C4)C=C3)cc1
REMARK SMILES IDX 5 1 4 2 3 3 1 4 2 5 21 7 22 8 83 9 23 10 82 11 24 12 25 13
REMARK SMILES IDX 26 14 76 15 27 16 81 17 75 18 77 19 28 20 80 21 74 22 73 23
REMARK SMILES IDX 29 25 61 26 41 27 60 28 42 29 45 30 59 31 78 32 43 33 44 34
REMARK SMILES IDX 58 36 79 37 46 38 30 39 31 40 39 41 32 42 34 43 40 44 33 45
REMARK SMILES IDX 35 46 36 47 37 48 38 49 62 50 63 51 71 52 64 53 66 54 72 55
REMARK SMILES IDX 65 56 67 57 68 58 69 59 70 60 47 61 48 62 56 63 49 64 51 65
REMARK SMILES IDX 57 66 50 67 52 68 53 69 54 70 55 71 6 72 7 73 8 74 9 75
REMARK SMILES IDX 10 76 11 77 12 79 13 80 14 81 20 82 15 83 19 84 16 85 18 86
REMARK SMILES IDX 17 87
REMARK H PARENT 3 6 77 24 45 35 10 78 18 88
REMARK Flexibility Score: inf
ROOT
ATOM      1  C   UNL A   1      38.397  20.491  24.958  1.00  0.00     0.021 C 
ENDROOT
BRANCH   1   2
ATOM      2  C   UNL A   1      38.820  19.288  25.801  1.00  0.00     0.116 C 
BRANCH   2   3
ATOM      3  N   UNL A   1      40.165  18.818  25.552  1.00  0.00    -0.352 N 
ATOM      4  O   UNL A   1      42.359  18.559  25.541  1.00  0.00    -0.269 OA
ATOM      5  C   UNL A   1      41.414  19.287  25.857  1.00  0.00     0.251 C 
ATOM      6  H   UNL A   1      40.187  17.971  25.051  1.00  0.00     0.163 HD
BRANCH   5   7
ATOM      7  C   UNL A   1      41.693  20.608  26.481  1.00  0.00     0.039 A 
ATOM      8  C   UNL A   1      42.275  21.697  25.829  1.00  0.00     0.014 A 
ATOM      9  C   UNL A   1      41.306  20.758  27.825  1.00  0.00     0.014 A 
ATOM     10  C   UNL A   1      42.526  22.881  26.514  1.00  0.00     0.010 A 
ATOM     11  C   UNL A   1      41.528  21.950  28.509  1.00  0.00     0.010 A 
ATOM     12  C   UNL A   1      42.155  23.008  27.854  1.00  0.00    -0.014 A 
BRANCH  12  13
ATOM     13  C   UNL A   1      42.275  24.331  28.465  1.00  0.00     0.031 A 
ATOM     14  C   UNL A   1      41.154  25.271  28.169  1.00  0.00     0.074 A 
ATOM     15  C   UNL A   1      43.210  24.661  29.376  1.00  0.00     0.049 A 
ATOM     16  N   UNL A   1      41.210  26.443  27.620  1.00  0.00    -0.248 NA
ATOM     17  C   UNL A   1      39.788  24.807  28.455  1.00  0.00     0.031 C 
ATOM     18  C   UNL A   1      44.163  23.760  30.024  1.00  0.00     0.029 A 
ATOM     19  N   UNL A   1      43.399  25.849  30.027  1.00  0.00    -0.354 N 
ATOM     20  C   UNL A   1      39.913  26.954  27.699  1.00  0.00     0.074 A 
ATOM     21  C   UNL A   1      39.062  25.855  28.069  1.00  0.00     0.031 C 
ATOM     22  C   UNL A   1      44.646  24.360  31.133  1.00  0.00     0.029 A 
ATOM     23  C   UNL A   1      44.132  25.717  31.202  1.00  0.00     0.049 A 
ATOM     24  H   UNL A   1      43.053  26.710  29.698  1.00  0.00     0.167 HD
ATOM     25  C   UNL A   1      39.661  28.291  27.687  1.00  0.00     0.034 A 
ATOM     26  C   UNL A   1      44.238  26.623  32.202  1.00  0.00     0.034 A 
ATOM     27  C   UNL A   1      40.770  29.049  27.169  1.00  0.00     0.049 A 
ATOM     28  C   UNL A   1      43.850  27.948  31.673  1.00  0.00     0.074 A 
ATOM     29  C   UNL A   1      41.496  29.073  25.998  1.00  0.00     0.029 A 
ATOM     30  N   UNL A   1      41.480  29.803  28.069  1.00  0.00    -0.354 N 
ATOM     31  N   UNL A   1      44.560  28.639  30.827  1.00  0.00    -0.248 NA
ATOM     32  C   UNL A   1      42.485  28.409  31.869  1.00  0.00     0.031 C 
ATOM     33  C   UNL A   1      42.811  29.470  26.380  1.00  0.00     0.029 A 
ATOM     34  C   UNL A   1      42.804  29.677  27.761  1.00  0.00     0.049 A 
ATOM     35  H   UNL A   1      41.102  30.339  28.804  1.00  0.00     0.167 HD
ATOM     36  C   UNL A   1      43.623  29.331  30.073  1.00  0.00     0.074 A 
ATOM     37  C   UNL A   1      42.396  29.276  30.858  1.00  0.00     0.031 C 
ATOM     38  C   UNL A   1      43.852  29.614  28.756  1.00  0.00     0.034 A 
BRANCH  25  39
ATOM     39  C   UNL A   1      38.562  28.969  28.485  1.00  0.00     0.023 A 
ATOM     40  C   UNL A   1      37.707  29.856  27.788  1.00  0.00     0.012 A 
ATOM     41  C   UNL A   1      38.517  29.022  29.897  1.00  0.00     0.148 A 
ATOM     42  C   UNL A   1      36.915  30.797  28.456  1.00  0.00     0.002 A 
ATOM     43  C   UNL A   1      37.660  29.898  30.556  1.00  0.00     0.091 A 
ATOM     44  F   UNL A   1      39.397  28.330  30.627  1.00  0.00    -0.205 F 
ATOM     45  C   UNL A   1      36.887  30.814  29.843  1.00  0.00     0.022 A 
BRANCH  43  46
ATOM     46  S   UNL A   1      37.539  29.901  32.349  1.00  0.00     0.127 S 
ATOM     47  O   UNL A   1      37.232  28.500  32.624  1.00  0.00    -0.237 OA
ATOM     48  O   UNL A   1      38.883  30.329  32.743  1.00  0.00    -0.237 OA
ATOM     49  O   UNL A   1      36.496  30.869  32.658  1.00  0.00    -0.744 OA
ENDBRANCH  43  46
ENDBRANCH  25  39
BRANCH  26  50
ATOM     50  C   UNL A   1      44.490  26.414  33.647  1.00  0.00     0.023 A 
ATOM     51  C   UNL A   1      45.796  26.565  34.153  1.00  0.00     0.012 A 
ATOM     52  C   UNL A   1      43.426  26.311  34.570  1.00  0.00     0.148 A 
ATOM     53  C   UNL A   1      46.032  26.639  35.530  1.00  0.00     0.002 A 
ATOM     54  C   UNL A   1      43.668  26.364  35.939  1.00  0.00     0.091 A 
ATOM     55  F   UNL A   1      42.169  26.254  34.108  1.00  0.00    -0.205 F 
ATOM     56  C   UNL A   1      44.969  26.542  36.424  1.00  0.00     0.022 A 
BRANCH  54  57
ATOM     57  S   UNL A   1      42.340  26.237  37.144  1.00  0.00     0.127 S 
ATOM     58  O   UNL A   1      43.058  26.396  38.410  1.00  0.00    -0.237 OA
ATOM     59  O   UNL A   1      41.488  27.364  36.779  1.00  0.00    -0.237 OA
ATOM     60  O   UNL A   1      41.763  24.912  36.953  1.00  0.00    -0.744 OA
ENDBRANCH  54  57
ENDBRANCH  26  50
BRANCH  38  61
ATOM     61  C   UNL A   1      45.263  29.528  28.235  1.00  0.00     0.023 A 
ATOM     62  C   UNL A   1      45.803  28.327  27.733  1.00  0.00     0.012 A 
ATOM     63  C   UNL A   1      46.003  30.716  28.094  1.00  0.00     0.148 A 
ATOM     64  C   UNL A   1      47.067  28.304  27.139  1.00  0.00     0.002 A 
ATOM     65  C   UNL A   1      47.236  30.698  27.454  1.00  0.00     0.091 A 
ATOM     66  F   UNL A   1      45.477  31.855  28.570  1.00  0.00    -0.205 F 
ATOM     67  C   UNL A   1      47.778  29.491  26.987  1.00  0.00     0.022 A 
BRANCH  65  68
ATOM     68  S   UNL A   1      48.126  32.217  27.100  1.00  0.00     0.127 S 
ATOM     69  O   UNL A   1      48.271  32.806  28.429  1.00  0.00    -0.237 OA
ATOM     70  O   UNL A   1      49.373  31.725  26.510  1.00  0.00    -0.237 OA
ATOM     71  O   UNL A   1      47.285  32.956  26.167  1.00  0.00    -0.744 OA
ENDBRANCH  65  68
ENDBRANCH  38  61
ENDBRANCH  12  13
ENDBRANCH   5   7
ENDBRANCH   2   3
ENDBRANCH   1   2
BRANCH   1  72
ATOM     72  C   UNL A   1      38.254  21.806  25.731  1.00  0.00     0.002 C 
BRANCH  72  73
ATOM     73  C   UNL A   1      36.879  22.477  25.655  1.00  0.00     0.002 C 
BRANCH  73  74
ATOM     74  C   UNL A   1      35.674  21.540  25.796  1.00  0.00     0.021 C 
BRANCH  74  75
ATOM     75  C   UNL A   1      34.712  21.541  24.610  1.00  0.00     0.116 C 
BRANCH  75  76
ATOM     76  N   UNL A   1      33.336  21.743  25.032  1.00  0.00    -0.351 N 
ATOM     77  C   UNL A   1      32.313  20.831  25.115  1.00  0.00     0.271 C 
ATOM     78  H   UNL A   1      33.105  22.664  25.294  1.00  0.00     0.163 HD
ATOM     79  O   UNL A   1      31.162  21.243  25.301  1.00  0.00    -0.267 OA
BRANCH  77  80
ATOM     80  C   UNL A   1      32.625  19.402  24.998  1.00  0.00     0.154 A 
ATOM     81  C   UNL A   1      32.984  18.685  23.795  1.00  0.00     0.089 A 
ATOM     82  N   UNL A   1      32.626  18.580  26.080  1.00  0.00    -0.143 NA
ATOM     83  C   UNL A   1      33.156  17.399  24.220  1.00  0.00     0.199 A 
ATOM     84  N   UNL A   1      32.943  17.424  25.536  1.00  0.00    -0.135 N 
ATOM     85  N   UNL A   1      33.455  16.136  23.840  1.00  0.00    -0.109 NA
ATOM     86  N   UNL A   1      33.073  16.184  25.961  1.00  0.00    -0.177 N 
ATOM     87  N   UNL A   1      33.458  15.399  24.889  1.00  0.00    -0.050 NA
ATOM     88  H   UNL A   1      32.922  15.870  26.882  1.00  0.00     0.216 HD
ENDBRANCH  77  80
ENDBRANCH  75  76
ENDBRANCH  74  75
ENDBRANCH  73  74
ENDBRANCH  72  73
ENDBRANCH   1  72
TORSDOF 16
ENDMDL
MODEL 2
REMARK VINA RESULT:     -11.4      4.916      9.301
REMARK SMILES O=C(NCCCCCCNC(=O)c1cc2nn[nH]n2n1)c1ccc(-c2c3nc(c(-c4cccc(S(=O)(=O)[O-])c4F)c4ccc([nH]4)c(-c4cccc(S(=O)(=O)[O-])c4F)c4nc(c(-c5cccc(S(=O)(=O)[O-])c5F)c5ccc2[nH]5)C=C4)C=C3)cc1
REMARK SMILES IDX 5 1 4 2 3 3 1 4 2 5 21 7 22 8 83 9 23 10 82 11 24 12 25 13
REMARK SMILES IDX 26 14 76 15 27 16 81 17 75 18 77 19 28 20 80 21 74 22 73 23
REMARK SMILES IDX 29 25 61 26 41 27 60 28 42 29 45 30 59 31 78 32 43 33 44 34
REMARK SMILES IDX 58 36 79 37 46 38 30 39 31 40 39 41 32 42 34 43 40 44 33 45
REMARK SMILES IDX 35 46 36 47 37 48 38 49 62 50 63 51 71 52 64 53 66 54 72 55
REMARK SMILES IDX 65 56 67 57 68 58 69 59 70 60 47 61 48 62 56 63 49 64 51 65
REMARK SMILES IDX 57 66 50 67 52 68 53 69 54 70 55 71 6 72 7 73 8 74 9 75
REMARK SMILES IDX 10 76 11 77 12 79 13 80 14 81 20 82 15 83 19 84 16 85 18 86
REMARK SMILES IDX 17 87
REMARK H PARENT 3 6 77 24 45 35 10 78 18 88
REMARK Flexibility Score: inf
ROOT
ATOM      1  C   UNL A   1      33.125  30.378  27.066  1.00  0.00     0.021 C 
ENDROOT
BRANCH   1   2
ATOM      2  C   UNL A   1      34.492  30.901  27.508  1.00  0.00     0.116 C 
BRANCH   2   3
ATOM      3  N   UNL A   1      34.492  31.586  28.783  1.00  0.00    -0.352 N 
ATOM      4  O   UNL A   1      35.083  32.497  30.707  1.00  0.00    -0.269 OA
ATOM      5  C   UNL A   1      35.422  31.768  29.770  1.00  0.00     0.251 C 
ATOM      6  H   UNL A   1      33.631  32.018  28.985  1.00  0.00     0.163 HD
BRANCH   5   7
ATOM      7  C   UNL A   1      36.758  31.117  29.805  1.00  0.00     0.039 A 
ATOM      8  C   UNL A   1      37.980  31.791  29.859  1.00  0.00     0.014 A 
ATOM      9  C   UNL A   1      36.767  29.710  29.813  1.00  0.00     0.014 A 
ATOM     10  C   UNL A   1      39.179  31.086  29.853  1.00  0.00     0.010 A 
ATOM     11  C   UNL A   1      37.964  28.997  29.836  1.00  0.00     0.010 A 
ATOM     12  C   UNL A   1      39.172  29.690  29.840  1.00  0.00    -0.014 A 
BRANCH  12  13
ATOM     13  C   UNL A   1      40.452  29.007  30.021  1.00  0.00     0.031 A 
ATOM     14  C   UNL A   1      40.931  28.919  31.432  1.00  0.00     0.074 A 
ATOM     15  C   UNL A   1      41.095  28.336  29.047  1.00  0.00     0.049 A 
ATOM     16  N   UNL A   1      42.045  29.351  31.933  1.00  0.00    -0.248 NA
ATOM     17  C   UNL A   1      40.011  28.343  32.424  1.00  0.00     0.031 C 
ATOM     18  C   UNL A   1      40.593  28.039  27.705  1.00  0.00     0.029 A 
ATOM     19  N   UNL A   1      42.274  27.644  29.109  1.00  0.00    -0.354 N 
ATOM     20  C   UNL A   1      42.061  28.899  33.253  1.00  0.00     0.074 A 
ATOM     21  C   UNL A   1      40.731  28.431  33.542  1.00  0.00     0.031 C 
ATOM     22  C   UNL A   1      41.328  27.035  27.177  1.00  0.00     0.029 A 
ATOM     23  C   UNL A   1      42.413  26.711  28.087  1.00  0.00     0.049 A 
ATOM     24  H   UNL A   1      42.954  27.792  29.804  1.00  0.00     0.167 HD
ATOM     25  C   UNL A   1      43.220  28.720  33.942  1.00  0.00     0.034 A 
ATOM     26  C   UNL A   1      43.300  25.689  28.033  1.00  0.00     0.034 A 
ATOM     27  C   UNL A   1      44.323  29.427  33.345  1.00  0.00     0.049 A 
ATOM     28  C   UNL A   1      44.399  25.975  28.979  1.00  0.00     0.074 A 
ATOM     29  C   UNL A   1      44.601  30.737  33.016  1.00  0.00     0.029 A 
ATOM     30  N   UNL A   1      45.282  28.670  32.722  1.00  0.00    -0.354 N 
ATOM     31  N   UNL A   1      45.296  26.904  28.806  1.00  0.00    -0.248 NA
ATOM     32  C   UNL A   1      44.343  25.397  30.312  1.00  0.00     0.031 C 
ATOM     33  C   UNL A   1      45.442  30.664  31.866  1.00  0.00     0.029 A 
ATOM     34  C   UNL A   1      45.635  29.313  31.571  1.00  0.00     0.049 A 
ATOM     35  H   UNL A   1      45.649  27.816  33.047  1.00  0.00     0.167 HD
ATOM     36  C   UNL A   1      45.607  27.327  30.090  1.00  0.00     0.074 A 
ATOM     37  C   UNL A   1      45.120  26.266  30.963  1.00  0.00     0.031 C 
ATOM     38  C   UNL A   1      45.951  28.626  30.337  1.00  0.00     0.034 A 
BRANCH  25  39
ATOM     39  C   UNL A   1      43.464  27.609  34.947  1.00  0.00     0.023 A 
ATOM     40  C   UNL A   1      43.895  27.989  36.241  1.00  0.00     0.012 A 
ATOM     41  C   UNL A   1      43.590  26.242  34.613  1.00  0.00     0.148 A 
ATOM     42  C   UNL A   1      44.491  27.076  37.119  1.00  0.00     0.002 A 
ATOM     43  C   UNL A   1      44.101  25.322  35.523  1.00  0.00     0.091 A 
ATOM     44  F   UNL A   1      43.350  25.828  33.364  1.00  0.00    -0.205 F 
ATOM     45  C   UNL A   1      44.589  25.739  36.761  1.00  0.00     0.022 A 
BRANCH  43  46
ATOM     46  S   UNL A   1      44.177  23.571  35.128  1.00  0.00     0.127 S 
ATOM     47  O   UNL A   1      45.093  23.568  33.990  1.00  0.00    -0.237 OA
ATOM     48  O   UNL A   1      44.724  23.005  36.363  1.00  0.00    -0.237 OA
ATOM     49  O   UNL A   1      42.801  23.183  34.857  1.00  0.00    -0.744 OA
ENDBRANCH  43  46
ENDBRANCH  25  39
BRANCH  26  50
ATOM     50  C   UNL A   1      43.196  24.382  27.344  1.00  0.00     0.023 A 
ATOM     51  C   UNL A   1      41.965  23.695  27.340  1.00  0.00     0.012 A 
ATOM     52  C   UNL A   1      44.217  23.922  26.483  1.00  0.00     0.148 A 
ATOM     53  C   UNL A   1      41.751  22.604  26.490  1.00  0.00     0.002 A 
ATOM     54  C   UNL A   1      44.006  22.824  25.655  1.00  0.00     0.091 A 
ATOM     55  F   UNL A   1      45.363  24.614  26.409  1.00  0.00    -0.205 F 
ATOM     56  C   UNL A   1      42.769  22.170  25.646  1.00  0.00     0.022 A 
BRANCH  54  57
ATOM     57  S   UNL A   1      45.282  22.210  24.548  1.00  0.00     0.127 S 
ATOM     58  O   UNL A   1      45.528  23.370  23.689  1.00  0.00    -0.237 OA
ATOM     59  O   UNL A   1      46.365  21.896  25.476  1.00  0.00    -0.237 OA
ATOM     60  O   UNL A   1      44.686  21.075  23.855  1.00  0.00    -0.744 OA
ENDBRANCH  54  57
ENDBRANCH  26  50
BRANCH  38  61
ATOM     61  C   UNL A   1      46.372  29.493  29.179  1.00  0.00     0.023 A 
ATOM     62  C   UNL A   1      47.661  29.414  28.614  1.00  0.00     0.012 A 
ATOM     63  C   UNL A   1      45.400  30.283  28.542  1.00  0.00     0.148 A 
ATOM     64  C   UNL A   1      47.984  30.136  27.463  1.00  0.00     0.002 A 
ATOM     65  C   UNL A   1      45.709  30.958  27.366  1.00  0.00     0.091 A 
ATOM     66  F   UNL A   1      44.173  30.348  29.085  1.00  0.00    -0.205 F 
ATOM     67  C   UNL A   1      47.005  30.896  26.831  1.00  0.00     0.022 A 
BRANCH  65  68
ATOM     68  S   UNL A   1      44.449  31.831  26.431  1.00  0.00     0.127 S 
ATOM     69  O   UNL A   1      45.193  32.280  25.257  1.00  0.00    -0.237 OA
ATOM     70  O   UNL A   1      43.464  30.780  26.166  1.00  0.00    -0.237 OA
ATOM     71  O   UNL A   1      43.964  32.883  27.316  1.00  0.00    -0.744 OA
ENDBRANCH  65  68
ENDBRANCH  38  61
ENDBRANCH  12  13
ENDBRANCH   5   7
ENDBRANCH   2   3
ENDBRANCH   1   2
BRANCH   1  72
ATOM     72  C   UNL A   1      33.116  28.926  26.575  1.00  0.00     0.002 C 
BRANCH  72  73
ATOM     73  C   UNL A   1      33.032  28.735  25.058  1.00  0.00     0.002 C 
BRANCH  73  74
ATOM     74  C   UNL A   1      31.884  29.474  24.359  1.00  0.00     0.021 C 
BRANCH  74  75
ATOM     75  C   UNL A   1      31.449  28.876  23.023  1.00  0.00     0.116 C 
BRANCH  75  76
ATOM     76  N   UNL A   1      30.249  28.069  23.157  1.00  0.00    -0.351 N 
ATOM     77  C   UNL A   1      28.933  28.448  23.050  1.00  0.00     0.271 C 
ATOM     78  H   UNL A   1      30.400  27.116  23.354  1.00  0.00     0.163 HD
ATOM     79  O   UNL A   1      28.054  27.653  23.400  1.00  0.00    -0.267 OA
BRANCH  77  80
ATOM     80  C   UNL A   1      28.620  29.774  22.505  1.00  0.00     0.154 A 
ATOM     81  C   UNL A   1      28.591  31.026  23.227  1.00  0.00     0.089 A 
ATOM     82  N   UNL A   1      28.331  29.957  21.190  1.00  0.00    -0.143 NA
ATOM     83  C   UNL A   1      28.235  31.942  22.279  1.00  0.00     0.199 A 
ATOM     84  N   UNL A   1      28.115  31.255  21.143  1.00  0.00    -0.135 N 
ATOM     85  N   UNL A   1      27.966  33.247  22.042  1.00  0.00    -0.109 NA
ATOM     86  N   UNL A   1      27.740  32.117  20.220  1.00  0.00    -0.177 N 
ATOM     87  N   UNL A   1      27.714  33.376  20.792  1.00  0.00    -0.050 NA
ATOM     88  H   UNL A   1      27.517  31.903  19.285  1.00  0.00     0.216 HD
ENDBRANCH  77  80
ENDBRANCH  75  76
ENDBRANCH  74  75
ENDBRANCH  73  74
ENDBRANCH  72  73
ENDBRANCH   1  72
TORSDOF 16
ENDMDL
MODEL 3
REMARK VINA RESULT:     -11.4      3.059      7.248
REMARK SMILES O=C(NCCCCCCNC(=O)c1cc2nn[nH]n2n1)c1ccc(-c2c3nc(c(-c4cccc(S(=O)(=O)[O-])c4F)c4ccc([nH]4)c(-c4cccc(S(=O)(=O)[O-])c4F)c4nc(c(-c5cccc(S(=O)(=O)[O-])c5F)c5ccc2[nH]5)C=C4)C=C3)cc1
REMARK SMILES IDX 5 1 4 2 3 3 1 4 2 5 21 7 22 8 83 9 23 10 82 11 24 12 25 13
REMARK SMILES IDX 26 14 76 15 27 16 81 17 75 18 77 19 28 20 80 21 74 22 73 23
REMARK SMILES IDX 29 25 61 26 41 27 60 28 42 29 45 30 59 31 78 32 43 33 44 34
REMARK SMILES IDX 58 36 79 37 46 38 30 39 31 40 39 41 32 42 34 43 40 44 33 45
REMARK SMILES IDX 35 46 36 47 37 48 38 49 62 50 63 51 71 52 64 53 66 54 72 55
REMARK SMILES IDX 65 56 67 57 68 58 69 59 70 60 47 61 48 62 56 63 49 64 51 65
REMARK SMILES IDX 57 66 50 67 52 68 53 69 54 70 55 71 6 72 7 73 8 74 9 75
REMARK SMILES IDX 10 76 11 77 12 79 13 80 14 81 20 82 15 83 19 84 16 85 18 86
REMARK SMILES IDX 17 87
REMARK H PARENT 3 6 77 24 45 35 10 78 18 88
REMARK Flexibility Score: inf
ROOT
ATOM      1  C   UNL A   1      37.431  21.652  24.609  1.00  0.00     0.021 C 
ENDROOT
BRANCH   1   2
ATOM      2  C   UNL A   1      38.124  22.561  25.625  1.00  0.00     0.116 C 
BRANCH   2   3
ATOM      3  N   UNL A   1      39.230  21.948  26.328  1.00  0.00    -0.352 N 
ATOM      4  O   UNL A   1      40.910  21.538  27.703  1.00  0.00    -0.269 OA
ATOM      5  C   UNL A   1      40.134  22.387  27.257  1.00  0.00     0.251 C 
ATOM      6  H   UNL A   1      39.362  21.004  26.083  1.00  0.00     0.163 HD
BRANCH   5   7
ATOM      7  C   UNL A   1      40.265  23.798  27.709  1.00  0.00     0.039 A 
ATOM      8  C   UNL A   1      39.229  24.734  27.733  1.00  0.00     0.014 A 
ATOM      9  C   UNL A   1      41.535  24.190  28.170  1.00  0.00     0.014 A 
ATOM     10  C   UNL A   1      39.465  26.042  28.143  1.00  0.00     0.010 A 
ATOM     11  C   UNL A   1      41.772  25.491  28.609  1.00  0.00     0.010 A 
ATOM     12  C   UNL A   1      40.736  26.422  28.578  1.00  0.00    -0.014 A 
BRANCH  12  13
ATOM     13  C   UNL A   1      40.878  27.752  29.167  1.00  0.00     0.031 A 
ATOM     14  C   UNL A   1      41.885  28.635  28.507  1.00  0.00     0.074 A 
ATOM     15  C   UNL A   1      40.063  28.251  30.116  1.00  0.00     0.049 A 
ATOM     16  N   UNL A   1      42.921  29.209  29.032  1.00  0.00    -0.248 NA
ATOM     17  C   UNL A   1      41.758  28.838  27.056  1.00  0.00     0.031 C 
ATOM     18  C   UNL A   1      38.830  27.648  30.621  1.00  0.00     0.029 A 
ATOM     19  N   UNL A   1      40.087  29.480  30.716  1.00  0.00    -0.354 N 
ATOM     20  C   UNL A   1      43.444  30.024  28.028  1.00  0.00     0.074 A 
ATOM     21  C   UNL A   1      42.794  29.637  26.804  1.00  0.00     0.031 C 
ATOM     22  C   UNL A   1      38.102  28.599  31.245  1.00  0.00     0.029 A 
ATOM     23  C   UNL A   1      38.870  29.833  31.288  1.00  0.00     0.049 A 
ATOM     24  H   UNL A   1      40.885  30.057  30.740  1.00  0.00     0.167 HD
ATOM     25  C   UNL A   1      44.201  31.120  28.307  1.00  0.00     0.034 A 
ATOM     26  C   UNL A   1      38.484  31.067  31.687  1.00  0.00     0.034 A 
ATOM     27  C   UNL A   1      44.734  31.087  29.644  1.00  0.00     0.049 A 
ATOM     28  C   UNL A   1      39.693  31.900  31.860  1.00  0.00     0.074 A 
ATOM     29  C   UNL A   1      45.526  30.228  30.376  1.00  0.00     0.029 A 
ATOM     30  N   UNL A   1      44.201  31.971  30.547  1.00  0.00    -0.354 N 
ATOM     31  N   UNL A   1      40.563  31.744  32.818  1.00  0.00    -0.248 NA
ATOM     32  C   UNL A   1      40.112  32.763  30.768  1.00  0.00     0.031 C 
ATOM     33  C   UNL A   1      45.082  30.367  31.725  1.00  0.00     0.029 A 
ATOM     34  C   UNL A   1      44.055  31.313  31.734  1.00  0.00     0.049 A 
ATOM     35  H   UNL A   1      43.966  32.911  30.371  1.00  0.00     0.167 HD
ATOM     36  C   UNL A   1      41.771  32.121  32.253  1.00  0.00     0.074 A 
ATOM     37  C   UNL A   1      41.408  32.883  31.064  1.00  0.00     0.031 C 
ATOM     38  C   UNL A   1      42.941  31.525  32.633  1.00  0.00     0.034 A 
BRANCH  25  39
ATOM     39  C   UNL A   1      44.169  32.416  27.517  1.00  0.00     0.023 A 
ATOM     40  C   UNL A   1      45.142  32.581  26.502  1.00  0.00     0.012 A 
ATOM     41  C   UNL A   1      43.457  33.573  27.908  1.00  0.00     0.148 A 
ATOM     42  C   UNL A   1      45.446  33.838  25.967  1.00  0.00     0.002 A 
ATOM     43  C   UNL A   1      43.701  34.804  27.308  1.00  0.00     0.091 A 
ATOM     44  F   UNL A   1      42.633  33.534  28.959  1.00  0.00    -0.205 F 
ATOM     45  C   UNL A   1      44.720  34.951  26.367  1.00  0.00     0.022 A 
BRANCH  43  46
ATOM     46  S   UNL A   1      42.734  36.255  27.744  1.00  0.00     0.127 S 
ATOM     47  O   UNL A   1      43.172  37.212  26.732  1.00  0.00    -0.237 OA
ATOM     48  O   UNL A   1      41.363  35.765  27.580  1.00  0.00    -0.237 OA
ATOM     49  O   UNL A   1      43.096  36.553  29.122  1.00  0.00    -0.744 OA
ENDBRANCH  43  46
ENDBRANCH  25  39
BRANCH  26  50
ATOM     50  C   UNL A   1      37.126  31.653  31.774  1.00  0.00     0.023 A 
ATOM     51  C   UNL A   1      36.574  31.942  33.037  1.00  0.00     0.012 A 
ATOM     52  C   UNL A   1      36.470  32.159  30.629  1.00  0.00     0.148 A 
ATOM     53  C   UNL A   1      35.423  32.730  33.159  1.00  0.00     0.002 A 
ATOM     54  C   UNL A   1      35.315  32.924  30.755  1.00  0.00     0.091 A 
ATOM     55  F   UNL A   1      37.027  31.969  29.425  1.00  0.00    -0.205 F 
ATOM     56  C   UNL A   1      34.795  33.223  32.019  1.00  0.00     0.022 A 
BRANCH  54  57
ATOM     57  S   UNL A   1      34.453  33.584  29.321  1.00  0.00     0.127 S 
ATOM     58  O   UNL A   1      35.476  34.437  28.713  1.00  0.00    -0.237 OA
ATOM     59  O   UNL A   1      34.141  32.373  28.570  1.00  0.00    -0.237 OA
ATOM     60  O   UNL A   1      33.311  34.317  29.854  1.00  0.00    -0.744 OA
ENDBRANCH  54  57
ENDBRANCH  26  50
BRANCH  38  61
ATOM     61  C   UNL A   1      42.969  30.751  33.925  1.00  0.00     0.023 A 
ATOM     62  C   UNL A   1      43.248  31.368  35.161  1.00  0.00     0.012 A 
ATOM     63  C   UNL A   1      42.543  29.411  33.917  1.00  0.00     0.148 A 
ATOM     64  C   UNL A   1      43.143  30.655  36.357  1.00  0.00     0.002 A 
ATOM     65  C   UNL A   1      42.387  28.721  35.113  1.00  0.00     0.091 A 
ATOM     66  F   UNL A   1      42.274  28.834  32.735  1.00  0.00    -0.205 F 
ATOM     67  C   UNL A   1      42.699  29.336  36.335  1.00  0.00     0.022 A 
BRANCH  65  68
ATOM     68  S   UNL A   1      41.679  27.071  35.154  1.00  0.00     0.127 S 
ATOM     69  O   UNL A   1      40.584  27.182  34.194  1.00  0.00    -0.237 OA
ATOM     70  O   UNL A   1      42.797  26.234  34.713  1.00  0.00    -0.237 OA
ATOM     71  O   UNL A   1      41.287  26.848  36.541  1.00  0.00    -0.744 OA
ENDBRANCH  65  68
ENDBRANCH  38  61
ENDBRANCH  12  13
ENDBRANCH   5   7
ENDBRANCH   2   3
ENDBRANCH   1   2
BRANCH   1  72
ATOM     72  C   UNL A   1      36.112  22.194  24.049  1.00  0.00     0.002 C 
BRANCH  72  73
ATOM     73  C   UNL A   1      35.026  22.505  25.084  1.00  0.00     0.002 C 
BRANCH  73  74
ATOM     74  C   UNL A   1      34.816  21.439  26.166  1.00  0.00     0.021 C 
BRANCH  74  75
ATOM     75  C   UNL A   1      33.403  20.864  26.240  1.00  0.00     0.116 C 
BRANCH  75  76
ATOM     76  N   UNL A   1      32.723  20.939  24.958  1.00  0.00    -0.351 N 
ATOM     77  C   UNL A   1      32.566  19.965  24.002  1.00  0.00     0.271 C 
ATOM     78  H   UNL A   1      32.317  21.810  24.745  1.00  0.00     0.163 HD
ATOM     79  O   UNL A   1      32.131  20.287  22.891  1.00  0.00    -0.267 OA
BRANCH  77  80
ATOM     80  C   UNL A   1      32.904  18.578  24.341  1.00  0.00     0.154 A 
ATOM     81  C   UNL A   1      34.201  17.948  24.237  1.00  0.00     0.089 A 
ATOM     82  N   UNL A   1      31.976  17.716  24.832  1.00  0.00    -0.143 NA
ATOM     83  C   UNL A   1      33.977  16.667  24.654  1.00  0.00     0.199 A 
ATOM     84  N   UNL A   1      32.686  16.618  24.985  1.00  0.00    -0.135 N 
ATOM     85  N   UNL A   1      34.538  15.455  24.864  1.00  0.00    -0.109 NA
ATOM     86  N   UNL A   1      32.441  15.380  25.361  1.00  0.00    -0.177 N 
ATOM     87  N   UNL A   1      33.633  14.679  25.338  1.00  0.00    -0.050 NA
ATOM     88  H   UNL A   1      31.562  15.015  25.614  1.00  0.00     0.216 HD
ENDBRANCH  77  80
ENDBRANCH  75  76
ENDBRANCH  74  75
ENDBRANCH  73  74
ENDBRANCH  72  73
ENDBRANCH   1  72
TORSDOF 16
ENDMDL
