MODEL 1
REMARK VINA RESULT:     -12.0      0.000      0.000
REMARK SMILES O=C(NCCCCCCNC(=O)c1sccc1S(=O)(=O)N1CCO[C@@H]2CCCC[C@@H]21)c1ccc(-c2c3nc(c(-c4cccc(S(=O)(=O)[O-])c4F)c4ccc([nH]4)c(-c4cccc(S(=O)(=O)[O-])c4F)c4nc(c(-c5cccc(S(=O)(=O)[O-])c5F)c5ccc2[nH]5)C=C4)C=C3)cc1
REMARK SMILES IDX 6 1 5 2 4 3 3 4 1 5 2 6 31 8 32 9 93 10 33 11 92 12 34 13
REMARK SMILES IDX 35 14 36 15 86 16 37 17 91 18 85 19 87 20 38 21 90 22 84 23
REMARK SMILES IDX 83 24 39 26 71 27 51 28 70 29 52 30 55 31 69 32 88 33 53 34
REMARK SMILES IDX 54 35 68 37 89 38 56 39 40 40 41 41 49 42 42 43 44 44 50 45
REMARK SMILES IDX 43 46 45 47 46 48 47 49 48 50 72 51 73 52 81 53 74 54 76 55
REMARK SMILES IDX 82 56 75 57 77 58 78 59 79 60 80 61 57 62 58 63 66 64 59 65
REMARK SMILES IDX 61 66 67 67 60 68 62 69 63 70 64 71 65 72 7 73 8 74 9 75
REMARK SMILES IDX 10 76 11 77 12 79 13 80 14 81 17 82 15 83 16 84 18 85 19 86
REMARK SMILES IDX 20 87 21 88 22 89 30 90 23 91 25 92 29 93 24 94 26 95 28 96
REMARK SMILES IDX 27 97
REMARK H PARENT 3 7 87 25 55 36 10 78
REMARK Flexibility Score: inf
ROOT
ATOM      1  C   UNL A   1      32.071  30.430  26.850  1.00  0.00     0.002 C 
ENDROOT
BRANCH   1   2
ATOM      2  C   UNL A   1      31.557  31.860  26.843  1.00  0.00     0.021 C 
BRANCH   2   3
ATOM      3  C   UNL A   1      32.635  32.923  26.805  1.00  0.00     0.116 C 
BRANCH   3   4
ATOM      4  N   UNL A   1      32.345  34.129  27.570  1.00  0.00    -0.352 N 
ATOM      5  O   UNL A   1      32.735  35.574  29.289  1.00  0.00    -0.269 OA
ATOM      6  C   UNL A   1      33.082  34.593  28.645  1.00  0.00     0.251 C 
ATOM      7  H   UNL A   1      31.559  34.658  27.298  1.00  0.00     0.163 HD
BRANCH   6   8
ATOM      8  C   UNL A   1      34.290  33.817  29.005  1.00  0.00     0.039 A 
ATOM      9  C   UNL A   1      34.145  32.715  29.851  1.00  0.00     0.014 A 
ATOM     10  C   UNL A   1      35.556  34.304  28.673  1.00  0.00     0.014 A 
ATOM     11  C   UNL A   1      35.257  32.215  30.509  1.00  0.00     0.010 A 
ATOM     12  C   UNL A   1      36.686  33.714  29.247  1.00  0.00     0.010 A 
ATOM     13  C   UNL A   1      36.544  32.686  30.194  1.00  0.00    -0.014 A 
BRANCH  13  14
ATOM     14  C   UNL A   1      37.718  31.980  30.766  1.00  0.00     0.031 A 
ATOM     15  C   UNL A   1      38.494  30.949  29.996  1.00  0.00     0.074 A 
ATOM     16  C   UNL A   1      38.068  32.299  32.029  1.00  0.00     0.049 A 
ATOM     17  N   UNL A   1      39.531  30.251  30.385  1.00  0.00    -0.248 NA
ATOM     18  C   UNL A   1      38.058  30.650  28.622  1.00  0.00     0.031 C 
ATOM     19  C   UNL A   1      37.348  33.253  32.880  1.00  0.00     0.029 A 
ATOM     20  N   UNL A   1      39.098  31.866  32.820  1.00  0.00    -0.354 N 
ATOM     21  C   UNL A   1      39.838  29.394  29.334  1.00  0.00     0.074 A 
ATOM     22  C   UNL A   1      38.889  29.672  28.277  1.00  0.00     0.031 C 
ATOM     23  C   UNL A   1      37.971  33.354  34.059  1.00  0.00     0.029 A 
ATOM     24  C   UNL A   1      39.083  32.416  34.081  1.00  0.00     0.049 A 
ATOM     25  H   UNL A   1      39.781  31.226  32.517  1.00  0.00     0.167 HD
ATOM     26  C   UNL A   1      40.823  28.466  29.267  1.00  0.00     0.034 A 
ATOM     27  C   UNL A   1      39.847  32.164  35.158  1.00  0.00     0.034 A 
ATOM     28  C   UNL A   1      41.788  28.238  30.312  1.00  0.00     0.049 A 
ATOM     29  C   UNL A   1      40.944  31.151  35.034  1.00  0.00     0.074 A 
ATOM     30  C   UNL A   1      42.883  27.391  30.300  1.00  0.00     0.029 A 
ATOM     31  N   UNL A   1      41.767  28.843  31.560  1.00  0.00    -0.354 N 
ATOM     32  N   UNL A   1      41.305  30.457  33.982  1.00  0.00    -0.248 NA
ATOM     33  C   UNL A   1      41.746  30.896  36.235  1.00  0.00     0.031 C 
ATOM     34  C   UNL A   1      43.508  27.462  31.550  1.00  0.00     0.029 A 
ATOM     35  C   UNL A   1      42.814  28.369  32.334  1.00  0.00     0.049 A 
ATOM     36  H   UNL A   1      41.106  29.511  31.853  1.00  0.00     0.167 HD
ATOM     37  C   UNL A   1      42.381  29.684  34.393  1.00  0.00     0.074 A 
ATOM     38  C   UNL A   1      42.640  30.031  35.776  1.00  0.00     0.031 C 
ATOM     39  C   UNL A   1      43.074  28.751  33.697  1.00  0.00     0.034 A 
BRANCH  26  40
ATOM     40  C   UNL A   1      40.949  27.632  28.017  1.00  0.00     0.023 A 
ATOM     41  C   UNL A   1      41.490  28.204  26.848  1.00  0.00     0.012 A 
ATOM     42  C   UNL A   1      40.663  26.252  28.042  1.00  0.00     0.148 A 
ATOM     43  C   UNL A   1      41.733  27.418  25.721  1.00  0.00     0.002 A 
ATOM     44  C   UNL A   1      40.940  25.468  26.927  1.00  0.00     0.091 A 
ATOM     45  F   UNL A   1      40.138  25.730  29.160  1.00  0.00    -0.205 F 
ATOM     46  C   UNL A   1      41.470  26.050  25.764  1.00  0.00     0.022 A 
BRANCH  44  47
ATOM     47  S   UNL A   1      40.707  23.686  26.905  1.00  0.00     0.127 S 
ATOM     48  O   UNL A   1      41.225  23.305  28.218  1.00  0.00    -0.237 OA
ATOM     49  O   UNL A   1      39.255  23.568  26.764  1.00  0.00    -0.237 OA
ATOM     50  O   UNL A   1      41.473  23.193  25.768  1.00  0.00    -0.744 OA
ENDBRANCH  44  47
ENDBRANCH  26  40
BRANCH  27  51
ATOM     51  C   UNL A   1      39.587  32.889  36.431  1.00  0.00     0.023 A 
ATOM     52  C   UNL A   1      40.175  34.149  36.649  1.00  0.00     0.012 A 
ATOM     53  C   UNL A   1      38.709  32.363  37.400  1.00  0.00     0.148 A 
ATOM     54  C   UNL A   1      39.908  34.861  37.819  1.00  0.00     0.002 A 
ATOM     55  C   UNL A   1      38.395  33.109  38.529  1.00  0.00     0.091 A 
ATOM     56  F   UNL A   1      38.173  31.152  37.187  1.00  0.00    -0.205 F 
ATOM     57  C   UNL A   1      39.007  34.351  38.750  1.00  0.00     0.022 A 
BRANCH  55  58
ATOM     58  S   UNL A   1      37.113  32.581  39.672  1.00  0.00     0.127 S 
ATOM     59  O   UNL A   1      37.172  33.624  40.691  1.00  0.00    -0.237 OA
ATOM     60  O   UNL A   1      35.916  32.605  38.832  1.00  0.00    -0.237 OA
ATOM     61  O   UNL A   1      37.513  31.244  40.093  1.00  0.00    -0.744 OA
ENDBRANCH  55  58
ENDBRANCH  27  51
BRANCH  39  62
ATOM     62  C   UNL A   1      44.177  28.039  34.430  1.00  0.00     0.023 A 
ATOM     63  C   UNL A   1      45.466  28.608  34.459  1.00  0.00     0.012 A 
ATOM     64  C   UNL A   1      43.931  26.837  35.120  1.00  0.00     0.148 A 
ATOM     65  C   UNL A   1      46.504  27.973  35.137  1.00  0.00     0.002 A 
ATOM     66  C   UNL A   1      44.960  26.234  35.833  1.00  0.00     0.091 A 
ATOM     67  F   UNL A   1      42.703  26.303  35.058  1.00  0.00    -0.205 F 
ATOM     68  C   UNL A   1      46.249  26.794  35.833  1.00  0.00     0.022 A 
BRANCH  66  69
ATOM     69  S   UNL A   1      44.702  24.761  36.826  1.00  0.00     0.127 S 
ATOM     70  O   UNL A   1      44.323  23.780  35.811  1.00  0.00    -0.237 OA
ATOM     71  O   UNL A   1      46.024  24.549  37.417  1.00  0.00    -0.237 OA
ATOM     72  O   UNL A   1      43.662  25.103  37.786  1.00  0.00    -0.744 OA
ENDBRANCH  66  69
ENDBRANCH  39  62
ENDBRANCH  13  14
ENDBRANCH   6   8
ENDBRANCH   3   4
ENDBRANCH   2   3
ENDBRANCH   1   2
BRANCH   1  73
ATOM     73  C   UNL A   1      33.455  30.186  27.466  1.00  0.00     0.002 C 
BRANCH  73  74
ATOM     74  C   UNL A   1      34.421  29.303  26.663  1.00  0.00     0.021 C 
BRANCH  74  75
ATOM     75  C   UNL A   1      33.762  28.279  25.740  1.00  0.00     0.116 C 
BRANCH  75  76
ATOM     76  N   UNL A   1      34.069  28.541  24.343  1.00  0.00    -0.351 N 
ATOM     77  C   UNL A   1      33.442  28.059  23.223  1.00  0.00     0.262 C 
ATOM     78  H   UNL A   1      34.828  29.145  24.179  1.00  0.00     0.163 HD
ATOM     79  O   UNL A   1      34.014  28.172  22.139  1.00  0.00    -0.268 OA
BRANCH  77  80
ATOM     80  C   UNL A   1      32.194  27.379  23.390  1.00  0.00     0.112 A 
ATOM     81  S   UNL A   1      30.900  28.340  24.000  1.00  0.00    -0.137 S 
ATOM     82  C   UNL A   1      31.812  26.073  23.162  1.00  0.00     0.106 A 
ATOM     83  C   UNL A   1      29.772  27.087  23.772  1.00  0.00     0.067 A 
ATOM     84  C   UNL A   1      30.380  25.937  23.320  1.00  0.00     0.034 A 
BRANCH  82  85
ATOM     85  S   UNL A   1      32.802  24.710  22.670  1.00  0.00     0.245 S 
ATOM     86  O   UNL A   1      31.819  23.642  22.716  1.00  0.00    -0.207 OA
ATOM     87  O   UNL A   1      33.358  25.117  21.403  1.00  0.00    -0.207 OA
BRANCH  85  88
ATOM     88  N   UNL A   1      34.078  24.286  23.730  1.00  0.00    -0.190 NA
ATOM     89  C   UNL A   1      33.987  24.853  25.118  1.00  0.00     0.131 C 
ATOM     90  C   UNL A   1      34.724  22.909  23.647  1.00  0.00     0.102 C 
ATOM     91  C   UNL A   1      33.791  23.811  26.218  1.00  0.00     0.177 C 
ATOM     92  C   UNL A   1      34.479  22.024  24.896  1.00  0.00     0.136 C 
ATOM     93  C   UNL A   1      36.221  23.008  23.309  1.00  0.00     0.023 C 
ATOM     94  O   UNL A   1      34.728  22.748  26.108  1.00  0.00    -0.375 OA
ATOM     95  C   UNL A   1      35.383  20.788  24.932  1.00  0.00     0.034 C 
ATOM     96  C   UNL A   1      37.200  22.500  24.357  1.00  0.00     0.002 C 
ATOM     97  C   UNL A   1      36.876  21.100  24.861  1.00  0.00     0.003 C 
ENDBRANCH  85  88
ENDBRANCH  82  85
ENDBRANCH  77  80
ENDBRANCH  75  76
ENDBRANCH  74  75
ENDBRANCH  73  74
ENDBRANCH   1  73
TORSDOF 18
ENDMDL
MODEL 2
REMARK VINA RESULT:     -11.9      5.637     11.099
REMARK SMILES O=C(NCCCCCCNC(=O)c1sccc1S(=O)(=O)N1CCO[C@@H]2CCCC[C@@H]21)c1ccc(-c2c3nc(c(-c4cccc(S(=O)(=O)[O-])c4F)c4ccc([nH]4)c(-c4cccc(S(=O)(=O)[O-])c4F)c4nc(c(-c5cccc(S(=O)(=O)[O-])c5F)c5ccc2[nH]5)C=C4)C=C3)cc1
REMARK SMILES IDX 6 1 5 2 4 3 3 4 1 5 2 6 31 8 32 9 93 10 33 11 92 12 34 13
REMARK SMILES IDX 35 14 36 15 86 16 37 17 91 18 85 19 87 20 38 21 90 22 84 23
REMARK SMILES IDX 83 24 39 26 71 27 51 28 70 29 52 30 55 31 69 32 88 33 53 34
REMARK SMILES IDX 54 35 68 37 89 38 56 39 40 40 41 41 49 42 42 43 44 44 50 45
REMARK SMILES IDX 43 46 45 47 46 48 47 49 48 50 72 51 73 52 81 53 74 54 76 55
REMARK SMILES IDX 82 56 75 57 77 58 78 59 79 60 80 61 57 62 58 63 66 64 59 65
REMARK SMILES IDX 61 66 67 67 60 68 62 69 63 70 64 71 65 72 7 73 8 74 9 75
REMARK SMILES IDX 10 76 11 77 12 79 13 80 14 81 17 82 15 83 16 84 18 85 19 86
REMARK SMILES IDX 20 87 21 88 22 89 30 90 23 91 25 92 29 93 24 94 26 95 28 96
REMARK SMILES IDX 27 97
REMARK H PARENT 3 7 87 25 55 36 10 78
REMARK Flexibility Score: inf
ROOT
ATOM      1  C   UNL A   1      37.405  21.638  24.777  1.00  0.00     0.002 C 
ENDROOT
BRANCH   1   2
ATOM      2  C   UNL A   1      38.085  20.300  25.024  1.00  0.00     0.021 C 
BRANCH   2   3
ATOM      3  C   UNL A   1      39.197  20.334  26.052  1.00  0.00     0.116 C 
BRANCH   3   4
ATOM      4  N   UNL A   1      40.135  19.220  25.987  1.00  0.00    -0.352 N 
ATOM      5  O   UNL A   1      42.242  18.352  25.966  1.00  0.00    -0.269 OA
ATOM      6  C   UNL A   1      41.509  19.322  26.107  1.00  0.00     0.251 C 
ATOM      7  H   UNL A   1      39.758  18.320  25.847  1.00  0.00     0.163 HD
BRANCH   6   8
ATOM      8  C   UNL A   1      42.054  20.672  26.373  1.00  0.00     0.039 A 
ATOM      9  C   UNL A   1      42.206  21.078  27.700  1.00  0.00     0.014 A 
ATOM     10  C   UNL A   1      42.211  21.580  25.324  1.00  0.00     0.014 A 
ATOM     11  C   UNL A   1      42.335  22.428  27.986  1.00  0.00     0.010 A 
ATOM     12  C   UNL A   1      42.463  22.924  25.615  1.00  0.00     0.010 A 
ATOM     13  C   UNL A   1      42.495  23.364  26.949  1.00  0.00    -0.014 A 
BRANCH  13  14
ATOM     14  C   UNL A   1      42.838  24.764  27.303  1.00  0.00     0.031 A 
ATOM     15  C   UNL A   1      41.861  25.690  27.970  1.00  0.00     0.074 A 
ATOM     16  C   UNL A   1      44.082  25.186  26.994  1.00  0.00     0.049 A 
ATOM     17  N   UNL A   1      42.032  26.940  28.321  1.00  0.00    -0.248 NA
ATOM     18  C   UNL A   1      40.522  25.163  28.280  1.00  0.00     0.031 C 
ATOM     19  C   UNL A   1      45.091  24.378  26.300  1.00  0.00     0.029 A 
ATOM     20  N   UNL A   1      44.712  26.382  27.211  1.00  0.00    -0.354 N 
ATOM     21  C   UNL A   1      40.815  27.367  28.838  1.00  0.00     0.074 A 
ATOM     22  C   UNL A   1      39.913  26.236  28.777  1.00  0.00     0.031 C 
ATOM     23  C   UNL A   1      46.217  25.087  26.173  1.00  0.00     0.029 A 
ATOM     24  C   UNL A   1      45.989  26.424  26.699  1.00  0.00     0.049 A 
ATOM     25  H   UNL A   1      44.294  27.136  27.685  1.00  0.00     0.167 HD
ATOM     26  C   UNL A   1      40.489  28.591  29.319  1.00  0.00     0.034 A 
ATOM     27  C   UNL A   1      46.868  27.437  26.618  1.00  0.00     0.034 A 
ATOM     28  C   UNL A   1      41.415  29.691  29.418  1.00  0.00     0.049 A 
ATOM     29  C   UNL A   1      46.481  28.767  27.187  1.00  0.00     0.074 A 
ATOM     30  C   UNL A   1      41.210  30.939  29.980  1.00  0.00     0.029 A 
ATOM     31  N   UNL A   1      42.713  29.685  28.928  1.00  0.00    -0.354 N 
ATOM     32  N   UNL A   1      45.374  29.106  27.802  1.00  0.00    -0.248 NA
ATOM     33  C   UNL A   1      47.464  29.849  27.066  1.00  0.00     0.031 C 
ATOM     34  C   UNL A   1      42.373  31.697  29.806  1.00  0.00     0.029 A 
ATOM     35  C   UNL A   1      43.311  30.914  29.153  1.00  0.00     0.049 A 
ATOM     36  H   UNL A   1      43.145  28.919  28.486  1.00  0.00     0.167 HD
ATOM     37  C   UNL A   1      45.528  30.441  28.146  1.00  0.00     0.074 A 
ATOM     38  C   UNL A   1      46.854  30.834  27.711  1.00  0.00     0.031 C 
ATOM     39  C   UNL A   1      44.642  31.275  28.742  1.00  0.00     0.034 A 
BRANCH  26  40
ATOM     40  C   UNL A   1      39.084  28.826  29.814  1.00  0.00     0.023 A 
ATOM     41  C   UNL A   1      38.729  28.435  31.120  1.00  0.00     0.012 A 
ATOM     42  C   UNL A   1      38.161  29.556  29.036  1.00  0.00     0.148 A 
ATOM     43  C   UNL A   1      37.475  28.757  31.642  1.00  0.00     0.002 A 
ATOM     44  C   UNL A   1      36.927  29.903  29.575  1.00  0.00     0.091 A 
ATOM     45  F   UNL A   1      38.514  29.907  27.792  1.00  0.00    -0.205 F 
ATOM     46  C   UNL A   1      36.580  29.500  30.875  1.00  0.00     0.022 A 
BRANCH  44  47
ATOM     47  S   UNL A   1      35.731  30.919  28.698  1.00  0.00     0.127 S 
ATOM     48  O   UNL A   1      34.824  29.907  28.159  1.00  0.00    -0.237 OA
ATOM     49  O   UNL A   1      35.167  31.730  29.779  1.00  0.00    -0.237 OA
ATOM     50  O   UNL A   1      36.489  31.668  27.705  1.00  0.00    -0.744 OA
ENDBRANCH  44  47
ENDBRANCH  26  40
BRANCH  27  51
ATOM     51  C   UNL A   1      48.191  27.213  25.971  1.00  0.00     0.023 A 
ATOM     52  C   UNL A   1      49.257  26.691  26.726  1.00  0.00     0.012 A 
ATOM     53  C   UNL A   1      48.376  27.457  24.596  1.00  0.00     0.148 A 
ATOM     54  C   UNL A   1      50.490  26.436  26.125  1.00  0.00     0.002 A 
ATOM     55  C   UNL A   1      49.585  27.135  23.991  1.00  0.00     0.091 A 
ATOM     56  F   UNL A   1      47.356  27.975  23.895  1.00  0.00    -0.205 F 
ATOM     57  C   UNL A   1      50.650  26.642  24.757  1.00  0.00     0.022 A 
BRANCH  55  58
ATOM     58  S   UNL A   1      49.790  27.216  22.208  1.00  0.00     0.127 S 
ATOM     59  O   UNL A   1      49.542  28.630  21.941  1.00  0.00    -0.237 OA
ATOM     60  O   UNL A   1      51.178  26.789  22.034  1.00  0.00    -0.237 OA
ATOM     61  O   UNL A   1      48.811  26.277  21.674  1.00  0.00    -0.744 OA
ENDBRANCH  55  58
ENDBRANCH  27  51
BRANCH  39  62
ATOM     62  C   UNL A   1      45.084  32.696  28.952  1.00  0.00     0.023 A 
ATOM     63  C   UNL A   1      45.651  33.067  30.188  1.00  0.00     0.012 A 
ATOM     64  C   UNL A   1      44.977  33.648  27.921  1.00  0.00     0.148 A 
ATOM     65  C   UNL A   1      46.076  34.376  30.406  1.00  0.00     0.002 A 
ATOM     66  C   UNL A   1      45.446  34.940  28.131  1.00  0.00     0.091 A 
ATOM     67  F   UNL A   1      44.412  33.278  26.763  1.00  0.00    -0.205 F 
ATOM     68  C   UNL A   1      45.984  35.308  29.375  1.00  0.00     0.022 A 
BRANCH  66  69
ATOM     69  S   UNL A   1      45.445  36.181  26.834  1.00  0.00     0.127 S 
ATOM     70  O   UNL A   1      46.145  35.485  25.755  1.00  0.00    -0.237 OA
ATOM     71  O   UNL A   1      44.015  36.387  26.601  1.00  0.00    -0.237 OA
ATOM     72  O   UNL A   1      46.138  37.337  27.386  1.00  0.00    -0.744 OA
ENDBRANCH  66  69
ENDBRANCH  39  62
ENDBRANCH  13  14
ENDBRANCH   6   8
ENDBRANCH   3   4
ENDBRANCH   2   3
ENDBRANCH   1   2
BRANCH   1  73
ATOM     73  C   UNL A   1      37.999  22.865  25.479  1.00  0.00     0.002 C 
BRANCH  73  74
ATOM     74  C   UNL A   1      37.010  23.792  26.201  1.00  0.00     0.021 C 
BRANCH  74  75
ATOM     75  C   UNL A   1      35.544  23.629  25.801  1.00  0.00     0.116 C 
BRANCH  75  76
ATOM     76  N   UNL A   1      34.718  23.247  26.935  1.00  0.00    -0.351 N 
ATOM     77  C   UNL A   1      33.550  22.528  26.941  1.00  0.00     0.262 C 
ATOM     78  H   UNL A   1      35.039  23.545  27.816  1.00  0.00     0.163 HD
ATOM     79  O   UNL A   1      32.859  22.545  27.959  1.00  0.00    -0.268 OA
BRANCH  77  80
ATOM     80  C   UNL A   1      33.162  21.864  25.735  1.00  0.00     0.112 A 
ATOM     81  S   UNL A   1      33.869  20.312  25.480  1.00  0.00    -0.137 S 
ATOM     82  C   UNL A   1      32.321  22.229  24.704  1.00  0.00     0.106 A 
ATOM     83  C   UNL A   1      32.908  20.026  24.106  1.00  0.00     0.067 A 
ATOM     84  C   UNL A   1      32.127  21.117  23.800  1.00  0.00     0.034 A 
BRANCH  82  85
ATOM     85  S   UNL A   1      31.485  23.753  24.458  1.00  0.00     0.245 S 
ATOM     86  O   UNL A   1      30.795  23.475  23.211  1.00  0.00    -0.207 OA
ATOM     87  O   UNL A   1      30.727  23.939  25.671  1.00  0.00    -0.207 OA
BRANCH  85  88
ATOM     88  N   UNL A   1      32.479  25.124  24.205  1.00  0.00    -0.190 NA
ATOM     89  C   UNL A   1      33.169  25.190  22.872  1.00  0.00     0.131 C 
ATOM     90  C   UNL A   1      32.093  26.476  24.788  1.00  0.00     0.102 C 
ATOM     91  C   UNL A   1      32.716  26.345  21.980  1.00  0.00     0.177 C 
ATOM     92  C   UNL A   1      31.743  27.544  23.719  1.00  0.00     0.136 C 
ATOM     93  C   UNL A   1      33.154  26.990  25.774  1.00  0.00     0.023 C 
ATOM     94  O   UNL A   1      32.726  27.583  22.677  1.00  0.00    -0.375 OA
ATOM     95  C   UNL A   1      31.665  28.959  24.301  1.00  0.00     0.034 C 
ATOM     96  C   UNL A   1      33.876  28.277  25.403  1.00  0.00     0.002 C 
ATOM     97  C   UNL A   1      32.934  29.411  25.021  1.00  0.00     0.003 C 
ENDBRANCH  85  88
ENDBRANCH  82  85
ENDBRANCH  77  80
ENDBRANCH  75  76
ENDBRANCH  74  75
ENDBRANCH  73  74
ENDBRANCH   1  73
TORSDOF 18
ENDMDL
MODEL 3
REMARK VINA RESULT:     -11.6      1.571      2.232
REMARK SMILES O=C(NCCCCCCNC(=O)c1sccc1S(=O)(=O)N1CCO[C@@H]2CCCC[C@@H]21)c1ccc(-c2c3nc(c(-c4cccc(S(=O)(=O)[O-])c4F)c4ccc([nH]4)c(-c4cccc(S(=O)(=O)[O-])c4F)c4nc(c(-c5cccc(S(=O)(=O)[O-])c5F)c5ccc2[nH]5)C=C4)C=C3)cc1
REMARK SMILES IDX 6 1 5 2 4 3 3 4 1 5 2 6 31 8 32 9 93 10 33 11 92 12 34 13
REMARK SMILES IDX 35 14 36 15 86 16 37 17 91 18 85 19 87 20 38 21 90 22 84 23
REMARK SMILES IDX 83 24 39 26 71 27 51 28 70 29 52 30 55 31 69 32 88 33 53 34
REMARK SMILES IDX 54 35 68 37 89 38 56 39 40 40 41 41 49 42 42 43 44 44 50 45
REMARK SMILES IDX 43 46 45 47 46 48 47 49 48 50 72 51 73 52 81 53 74 54 76 55
REMARK SMILES IDX 82 56 75 57 77 58 78 59 79 60 80 61 57 62 58 63 66 64 59 65
REMARK SMILES IDX 61 66 67 67 60 68 62 69 63 70 64 71 65 72 7 73 8 74 9 75
REMARK SMILES IDX 10 76 11 77 12 79 13 80 14 81 17 82 15 83 16 84 18 85 19 86
REMARK SMILES IDX 20 87 21 88 22 89 30 90 23 91 25 92 29 93 24 94 26 95 28 96
REMARK SMILES IDX 27 97
REMARK H PARENT 3 7 87 25 55 36 10 78
REMARK Flexibility Score: inf
ROOT
ATOM      1  C   UNL A   1      32.714  30.568  27.202  1.00  0.00     0.002 C 
ENDROOT
BRANCH   1   2
ATOM      2  C   UNL A   1      31.894  31.831  26.993  1.00  0.00     0.021 C 
BRANCH   2   3
ATOM      3  C   UNL A   1      32.708  33.081  26.731  1.00  0.00     0.116 C 
BRANCH   3   4
ATOM      4  N   UNL A   1      32.371  34.227  27.566  1.00  0.00    -0.352 N 
ATOM      5  O   UNL A   1      32.678  35.555  29.393  1.00  0.00    -0.269 OA
ATOM      6  C   UNL A   1      33.064  34.627  28.695  1.00  0.00     0.251 C 
ATOM      7  H   UNL A   1      31.586  34.760  27.305  1.00  0.00     0.163 HD
BRANCH   6   8
ATOM      8  C   UNL A   1      34.273  33.847  29.043  1.00  0.00     0.039 A 
ATOM      9  C   UNL A   1      34.124  32.704  29.831  1.00  0.00     0.014 A 
ATOM     10  C   UNL A   1      35.540  34.362  28.762  1.00  0.00     0.014 A 
ATOM     11  C   UNL A   1      35.228  32.183  30.487  1.00  0.00     0.010 A 
ATOM     12  C   UNL A   1      36.665  33.757  29.330  1.00  0.00     0.010 A 
ATOM     13  C   UNL A   1      36.515  32.682  30.222  1.00  0.00    -0.014 A 
BRANCH  13  14
ATOM     14  C   UNL A   1      37.685  31.962  30.784  1.00  0.00     0.031 A 
ATOM     15  C   UNL A   1      38.446  30.927  30.004  1.00  0.00     0.074 A 
ATOM     16  C   UNL A   1      38.045  32.271  32.046  1.00  0.00     0.049 A 
ATOM     17  N   UNL A   1      39.477  30.216  30.383  1.00  0.00    -0.248 NA
ATOM     18  C   UNL A   1      37.998  30.639  28.631  1.00  0.00     0.031 C 
ATOM     19  C   UNL A   1      37.340  33.228  32.906  1.00  0.00     0.029 A 
ATOM     20  N   UNL A   1      39.076  31.823  32.829  1.00  0.00    -0.354 N 
ATOM     21  C   UNL A   1      39.770  29.361  29.327  1.00  0.00     0.074 A 
ATOM     22  C   UNL A   1      38.817  29.654  28.277  1.00  0.00     0.031 C 
ATOM     23  C   UNL A   1      37.971  33.317  34.082  1.00  0.00     0.029 A 
ATOM     24  C   UNL A   1      39.073  32.367  34.093  1.00  0.00     0.049 A 
ATOM     25  H   UNL A   1      39.750  31.178  32.519  1.00  0.00     0.167 HD
ATOM     26  C   UNL A   1      40.744  28.424  29.250  1.00  0.00     0.034 A 
ATOM     27  C   UNL A   1      39.841  32.102  35.164  1.00  0.00     0.034 A 
ATOM     28  C   UNL A   1      41.714  28.180  30.288  1.00  0.00     0.049 A 
ATOM     29  C   UNL A   1      40.927  31.078  35.029  1.00  0.00     0.074 A 
ATOM     30  C   UNL A   1      42.799  27.322  30.265  1.00  0.00     0.029 A 
ATOM     31  N   UNL A   1      41.706  28.779  31.539  1.00  0.00    -0.354 N 
ATOM     32  N   UNL A   1      41.274  30.386  33.972  1.00  0.00    -0.248 NA
ATOM     33  C   UNL A   1      41.734  30.809  36.224  1.00  0.00     0.031 C 
ATOM     34  C   UNL A   1      43.432  27.381  31.512  1.00  0.00     0.029 A 
ATOM     35  C   UNL A   1      42.752  28.291  32.305  1.00  0.00     0.049 A 
ATOM     36  H   UNL A   1      41.053  29.452  31.839  1.00  0.00     0.167 HD
ATOM     37  C   UNL A   1      42.345  29.600  34.372  1.00  0.00     0.074 A 
ATOM     38  C   UNL A   1      42.616  29.937  35.756  1.00  0.00     0.031 C 
ATOM     39  C   UNL A   1      43.024  28.663  33.668  1.00  0.00     0.034 A 
BRANCH  26  40
ATOM     40  C   UNL A   1      40.855  27.595  27.994  1.00  0.00     0.023 A 
ATOM     41  C   UNL A   1      41.487  28.132  26.856  1.00  0.00     0.012 A 
ATOM     42  C   UNL A   1      40.457  26.241  27.990  1.00  0.00     0.148 A 
ATOM     43  C   UNL A   1      41.713  27.340  25.730  1.00  0.00     0.002 A 
ATOM     44  C   UNL A   1      40.717  25.449  26.877  1.00  0.00     0.091 A 
ATOM     45  F   UNL A   1      39.847  25.753  29.079  1.00  0.00    -0.205 F 
ATOM     46  C   UNL A   1      41.340  25.998  25.744  1.00  0.00     0.022 A 
BRANCH  44  47
ATOM     47  S   UNL A   1      40.343  23.692  26.821  1.00  0.00     0.127 S 
ATOM     48  O   UNL A   1      38.924  23.705  26.467  1.00  0.00    -0.237 OA
ATOM     49  O   UNL A   1      41.233  23.222  25.759  1.00  0.00    -0.237 OA
ATOM     50  O   UNL A   1      40.648  23.172  28.147  1.00  0.00    -0.744 OA
ENDBRANCH  44  47
ENDBRANCH  26  40
BRANCH  27  51
ATOM     51  C   UNL A   1      39.596  32.824  36.443  1.00  0.00     0.023 A 
ATOM     52  C   UNL A   1      40.224  34.061  36.676  1.00  0.00     0.012 A 
ATOM     53  C   UNL A   1      38.694  32.318  37.400  1.00  0.00     0.148 A 
ATOM     54  C   UNL A   1      39.972  34.771  37.851  1.00  0.00     0.002 A 
ATOM     55  C   UNL A   1      38.397  33.063  38.534  1.00  0.00     0.091 A 
ATOM     56  F   UNL A   1      38.121  31.127  37.172  1.00  0.00    -0.205 F 
ATOM     57  C   UNL A   1      39.048  34.282  38.771  1.00  0.00     0.022 A 
BRANCH  55  58
ATOM     58  S   UNL A   1      37.091  32.567  39.664  1.00  0.00     0.127 S 
ATOM     59  O   UNL A   1      35.915  32.612  38.801  1.00  0.00    -0.237 OA
ATOM     60  O   UNL A   1      37.515  31.223  40.060  1.00  0.00    -0.237 OA
ATOM     61  O   UNL A   1      37.138  33.543  40.745  1.00  0.00    -0.744 OA
ENDBRANCH  55  58
ENDBRANCH  27  51
BRANCH  39  62
ATOM     62  C   UNL A   1      44.124  27.936  34.390  1.00  0.00     0.023 A 
ATOM     63  C   UNL A   1      45.420  28.492  34.415  1.00  0.00     0.012 A 
ATOM     64  C   UNL A   1      43.870  26.734  35.076  1.00  0.00     0.148 A 
ATOM     65  C   UNL A   1      46.455  27.843  35.084  1.00  0.00     0.002 A 
ATOM     66  C   UNL A   1      44.897  26.116  35.780  1.00  0.00     0.091 A 
ATOM     67  F   UNL A   1      42.636  26.213  35.019  1.00  0.00    -0.205 F 
ATOM     68  C   UNL A   1      46.192  26.663  35.776  1.00  0.00     0.022 A 
BRANCH  66  69
ATOM     69  S   UNL A   1      44.630  24.641  36.767  1.00  0.00     0.127 S 
ATOM     70  O   UNL A   1      45.968  24.394  37.302  1.00  0.00    -0.237 OA
ATOM     71  O   UNL A   1      43.653  25.101  37.755  1.00  0.00    -0.237 OA
ATOM     72  O   UNL A   1      44.126  23.630  35.847  1.00  0.00    -0.744 OA
ENDBRANCH  66  69
ENDBRANCH  39  62
ENDBRANCH  13  14
ENDBRANCH   6   8
ENDBRANCH   3   4
ENDBRANCH   2   3
ENDBRANCH   1   2
BRANCH   1  73
ATOM     73  C   UNL A   1      32.002  29.227  26.986  1.00  0.00     0.002 C 
BRANCH  73  74
ATOM     74  C   UNL A   1      32.778  27.962  27.381  1.00  0.00     0.021 C 
BRANCH  74  75
ATOM     75  C   UNL A   1      32.493  26.724  26.530  1.00  0.00     0.116 C 
BRANCH  75  76
ATOM     76  N   UNL A   1      31.235  26.097  26.900  1.00  0.00    -0.351 N 
ATOM     77  C   UNL A   1      30.376  25.370  26.116  1.00  0.00     0.262 C 
ATOM     78  H   UNL A   1      30.964  26.208  27.840  1.00  0.00     0.163 HD
ATOM     79  O   UNL A   1      29.239  25.159  26.538  1.00  0.00    -0.268 OA
BRANCH  77  80
ATOM     80  C   UNL A   1      30.825  24.969  24.819  1.00  0.00     0.112 A 
ATOM     81  S   UNL A   1      30.451  26.055  23.534  1.00  0.00    -0.137 S 
ATOM     82  C   UNL A   1      31.508  23.854  24.378  1.00  0.00     0.106 A 
ATOM     83  C   UNL A   1      31.370  25.158  22.418  1.00  0.00     0.067 A 
ATOM     84  C   UNL A   1      31.882  24.015  22.990  1.00  0.00     0.034 A 
BRANCH  82  85
ATOM     85  S   UNL A   1      31.985  22.430  25.286  1.00  0.00     0.245 S 
ATOM     86  O   UNL A   1      32.877  23.029  26.263  1.00  0.00    -0.207 OA
ATOM     87  O   UNL A   1      30.736  21.851  25.715  1.00  0.00    -0.207 OA
BRANCH  85  88
ATOM     88  N   UNL A   1      32.880  21.252  24.423  1.00  0.00    -0.190 NA
ATOM     89  C   UNL A   1      34.353  21.517  24.297  1.00  0.00     0.131 C 
ATOM     90  C   UNL A   1      32.504  19.779  24.512  1.00  0.00     0.102 C 
ATOM     91  C   UNL A   1      35.243  20.508  25.022  1.00  0.00     0.177 C 
ATOM     92  C   UNL A   1      33.573  18.900  25.212  1.00  0.00     0.136 C 
ATOM     93  C   UNL A   1      32.117  19.211  23.137  1.00  0.00     0.023 C 
ATOM     94  O   UNL A   1      34.886  19.169  24.705  1.00  0.00    -0.375 OA
ATOM     95  C   UNL A   1      33.327  17.401  25.015  1.00  0.00     0.034 C 
ATOM     96  C   UNL A   1      32.999  18.107  22.573  1.00  0.00     0.002 C 
ATOM     97  C   UNL A   1      33.242  16.967  23.553  1.00  0.00     0.003 C 
ENDBRANCH  85  88
ENDBRANCH  82  85
ENDBRANCH  77  80
ENDBRANCH  75  76
ENDBRANCH  74  75
ENDBRANCH  73  74
ENDBRANCH   1  73
TORSDOF 18
ENDMDL
