MODEL 1
REMARK VINA RESULT:      -7.4      0.000      0.000
REMARK SMILES CC(=O)Nc1ccc(/N=C2\C(=O)N(c3ccc(NC(C)=O)cc3)[C@H](c3ccccc3)[C@H]2CC(=O)NCCCCCCNC(=O)c2ccc(-c3c4nc(c(-c5cccc(S(=O)(=O)[O-])c5F)c5ccc([nH]5)c(-c5cccc(S(=O)(=O)[O-])c5F)c5nc(c(-c6cccc(S(=O)(=O)[O-])c6F)c6ccc3[nH]6)C=C5)C=C4)cc2)cc1
REMARK SMILES IDX 38 1 37 2 36 3 35 4 33 5 34 6 32 8 31 9 9 10 10 11 11 12
REMARK SMILES IDX 12 13 13 14 24 15 8 16 5 17 6 18 109 19 7 20 108 21 4 22
REMARK SMILES IDX 1 23 2 24 3 25 14 27 15 28 23 29 16 30 22 31 17 32 18 33
REMARK SMILES IDX 19 34 20 36 21 37 25 38 26 39 30 40 27 41 29 42 28 43 39 44
REMARK SMILES IDX 40 45 41 46 42 47 43 48 44 50 45 51 46 52 107 53 47 54
REMARK SMILES IDX 106 55 48 56 49 57 50 58 100 59 51 60 105 61 99 62 101 63
REMARK SMILES IDX 52 64 104 65 98 66 97 67 53 69 85 70 65 71 84 72 66 73 69 74
REMARK SMILES IDX 83 75 102 76 67 77 68 78 82 80 103 81 70 82 54 83 55 84
REMARK SMILES IDX 63 85 56 86 58 87 64 88 57 89 59 90 60 91 61 92 62 93 86 94
REMARK SMILES IDX 87 95 95 96 88 97 90 98 96 99 89 100 91 101 92 102 93 103
REMARK SMILES IDX 94 104 71 105 72 106 80 107 73 108 75 109 81 110 74 111
REMARK SMILES IDX 76 112 77 113 78 114 79 115
REMARK H PARENT 35 7 4 26 18 35 42 49 101 68 69 79
REMARK Flexibility Score: inf
ROOT
ATOM      1  C   UNL A   1      50.892  28.233  31.863  1.00  0.00     0.002 C 
ENDROOT
BRANCH   1   2
ATOM      2  C   UNL A   1      50.637  26.853  32.473  1.00  0.00     0.021 C 
BRANCH   2   3
ATOM      3  C   UNL A   1      50.012  25.827  31.528  1.00  0.00     0.116 C 
BRANCH   3   4
ATOM      4  N   UNL A   1      50.029  26.313  30.154  1.00  0.00    -0.356 N 
ATOM      5  C   UNL A   1      49.006  26.585  29.299  1.00  0.00     0.220 C 
ATOM      6  O   UNL A   1      49.272  26.875  28.131  1.00  0.00    -0.275 OA
ATOM      7  H   UNL A   1      50.928  26.469  29.784  1.00  0.00     0.163 HD
BRANCH   5   8
ATOM      8  C   UNL A   1      47.566  26.558  29.770  1.00  0.00     0.112 C 
BRANCH   8   9
ATOM      9  C   UNL A   1      46.604  26.961  28.644  1.00  0.00     0.081 C 
ATOM     10  N   UNL A   1      46.051  25.246  26.973  1.00  0.00    -0.247 NA
ATOM     11  C   UNL A   1      45.865  25.757  28.152  1.00  0.00     0.112 C 
ATOM     12  C   UNL A   1      44.740  25.491  29.113  1.00  0.00     0.273 C 
ATOM     13  O   UNL A   1      44.345  24.393  29.427  1.00  0.00    -0.267 OA
ATOM     14  N   UNL A   1      44.302  26.764  29.434  1.00  0.00    -0.299 N 
ATOM     15  C   UNL A   1      45.356  27.755  29.174  1.00  0.00     0.131 C 
BRANCH  10  16
ATOM     16  C   UNL A   1      45.211  24.233  26.466  1.00  0.00     0.064 A 
ATOM     17  C   UNL A   1      43.576  22.077  25.616  1.00  0.00     0.041 A 
ATOM     18  C   UNL A   1      44.882  21.859  26.065  1.00  0.00     0.028 A 
ATOM     19  C   UNL A   1      43.132  23.387  25.495  1.00  0.00     0.028 A 
ATOM     20  C   UNL A   1      45.684  22.923  26.489  1.00  0.00     0.030 A 
ATOM     21  C   UNL A   1      43.960  24.453  25.880  1.00  0.00     0.030 A 
BRANCH  17  22
ATOM     22  N   UNL A   1      42.836  20.934  25.297  1.00  0.00    -0.326 N 
ATOM     23  C   UNL A   1      41.797  20.257  27.474  1.00  0.00     0.114 C 
ATOM     24  C   UNL A   1      42.023  20.101  26.000  1.00  0.00     0.221 C 
ATOM     25  O   UNL A   1      41.508  19.172  25.372  1.00  0.00    -0.275 OA
ATOM     26  H   UNL A   1      42.924  20.675  24.351  1.00  0.00     0.169 HD
ENDBRANCH  17  22
ENDBRANCH  10  16
BRANCH  14  27
ATOM     27  C   UNL A   1      42.906  26.974  29.518  1.00  0.00     0.045 A 
ATOM     28  C   UNL A   1      42.100  26.736  28.401  1.00  0.00     0.028 A 
ATOM     29  C   UNL A   1      42.361  27.696  30.586  1.00  0.00     0.028 A 
ATOM     30  C   UNL A   1      40.777  27.203  28.355  1.00  0.00     0.028 A 
ATOM     31  C   UNL A   1      41.053  28.188  30.528  1.00  0.00     0.028 A 
ATOM     32  C   UNL A   1      40.257  27.960  29.405  1.00  0.00     0.041 A 
BRANCH  32  33
ATOM     33  N   UNL A   1      39.005  28.604  29.372  1.00  0.00    -0.326 N 
ATOM     34  C   UNL A   1      38.757  29.958  29.494  1.00  0.00     0.221 C 
ATOM     35  H   UNL A   1      38.218  28.026  29.247  1.00  0.00     0.169 HD
ATOM     36  C   UNL A   1      37.292  30.258  29.699  1.00  0.00     0.114 C 
ATOM     37  O   UNL A   1      39.589  30.857  29.459  1.00  0.00    -0.275 OA
ENDBRANCH  32  33
ENDBRANCH  14  27
BRANCH  15  38
ATOM     38  C   UNL A   1      44.988  28.981  28.353  1.00  0.00    -0.024 A 
ATOM     39  C   UNL A   1      45.856  29.393  27.323  1.00  0.00     0.006 A 
ATOM     40  C   UNL A   1      43.833  29.742  28.592  1.00  0.00     0.006 A 
ATOM     41  C   UNL A   1      45.575  30.524  26.555  1.00  0.00     0.000 A 
ATOM     42  C   UNL A   1      43.551  30.871  27.817  1.00  0.00     0.000 A 
ATOM     43  C   UNL A   1      44.421  31.261  26.801  1.00  0.00     0.000 A 
ENDBRANCH  15  38
ENDBRANCH   8   9
ENDBRANCH   5   8
ENDBRANCH   3   4
ENDBRANCH   2   3
ENDBRANCH   1   2
BRANCH   1  44
ATOM     44  C   UNL A   1      52.128  28.971  32.390  1.00  0.00     0.002 C 
BRANCH  44  45
ATOM     45  C   UNL A   1      53.341  29.034  31.449  1.00  0.00     0.021 C 
BRANCH  45  46
ATOM     46  C   UNL A   1      53.122  28.529  30.020  1.00  0.00     0.116 C 
BRANCH  46  47
ATOM     47  N   UNL A   1      53.530  29.496  29.011  1.00  0.00    -0.352 N 
ATOM     48  C   UNL A   1      52.795  30.486  28.400  1.00  0.00     0.251 C 
ATOM     49  H   UNL A   1      54.469  29.431  28.722  1.00  0.00     0.163 HD
ATOM     50  O   UNL A   1      53.285  31.117  27.466  1.00  0.00    -0.269 OA
BRANCH  48  51
ATOM     51  C   UNL A   1      51.413  30.786  28.843  1.00  0.00     0.039 A 
ATOM     52  C   UNL A   1      50.341  30.189  28.168  1.00  0.00     0.014 A 
ATOM     53  C   UNL A   1      51.165  31.670  29.895  1.00  0.00     0.014 A 
ATOM     54  C   UNL A   1      49.029  30.415  28.600  1.00  0.00     0.010 A 
ATOM     55  C   UNL A   1      49.857  31.870  30.343  1.00  0.00     0.010 A 
ATOM     56  C   UNL A   1      48.778  31.230  29.716  1.00  0.00    -0.014 A 
BRANCH  56  57
ATOM     57  C   UNL A   1      47.417  31.345  30.305  1.00  0.00     0.031 A 
ATOM     58  C   UNL A   1      46.903  30.352  31.311  1.00  0.00     0.074 A 
ATOM     59  C   UNL A   1      46.590  32.305  29.842  1.00  0.00     0.049 A 
ATOM     60  N   UNL A   1      45.733  30.305  31.899  1.00  0.00    -0.248 NA
ATOM     61  C   UNL A   1      47.819  29.272  31.708  1.00  0.00     0.031 C 
ATOM     62  C   UNL A   1      46.921  33.275  28.796  1.00  0.00     0.029 A 
ATOM     63  N   UNL A   1      45.295  32.608  30.178  1.00  0.00    -0.354 N 
ATOM     64  C   UNL A   1      45.744  29.153  32.675  1.00  0.00     0.074 A 
ATOM     65  C   UNL A   1      47.054  28.553  32.521  1.00  0.00     0.031 C 
ATOM     66  C   UNL A   1      45.865  34.079  28.593  1.00  0.00     0.029 A 
ATOM     67  C   UNL A   1      44.780  33.675  29.483  1.00  0.00     0.049 A 
ATOM     68  H   UNL A   1      44.782  32.109  30.855  1.00  0.00     0.167 HD
ATOM     69  C   UNL A   1      44.762  28.646  33.458  1.00  0.00     0.034 A 
ATOM     70  C   UNL A   1      43.578  34.275  29.559  1.00  0.00     0.034 A 
ATOM     71  C   UNL A   1      43.485  29.272  33.680  1.00  0.00     0.049 A 
ATOM     72  C   UNL A   1      42.553  33.772  30.533  1.00  0.00     0.074 A 
ATOM     73  C   UNL A   1      42.468  28.881  34.535  1.00  0.00     0.029 A 
ATOM     74  N   UNL A   1      43.051  30.424  33.045  1.00  0.00    -0.354 N 
ATOM     75  N   UNL A   1      42.647  32.781  31.383  1.00  0.00    -0.248 NA
ATOM     76  C   UNL A   1      41.269  34.486  30.573  1.00  0.00     0.031 C 
ATOM     77  C   UNL A   1      41.430  29.816  34.440  1.00  0.00     0.029 A 
ATOM     78  C   UNL A   1      41.788  30.767  33.499  1.00  0.00     0.049 A 
ATOM     79  H   UNL A   1      43.564  30.924  32.370  1.00  0.00     0.167 HD
ATOM     80  C   UNL A   1      41.441  32.759  32.071  1.00  0.00     0.074 A 
ATOM     81  C   UNL A   1      40.638  33.847  31.551  1.00  0.00     0.031 C 
ATOM     82  C   UNL A   1      41.028  31.895  33.029  1.00  0.00     0.034 A 
BRANCH  69  83
ATOM     83  C   UNL A   1      45.067  27.383  34.210  1.00  0.00     0.023 A 
ATOM     84  C   UNL A   1      45.746  27.477  35.441  1.00  0.00     0.012 A 
ATOM     85  C   UNL A   1      44.669  26.120  33.736  1.00  0.00     0.148 A 
ATOM     86  C   UNL A   1      46.026  26.333  36.187  1.00  0.00     0.002 A 
ATOM     87  C   UNL A   1      44.958  24.983  34.485  1.00  0.00     0.091 A 
ATOM     88  F   UNL A   1      44.027  26.034  32.562  1.00  0.00    -0.205 F 
ATOM     89  C   UNL A   1      45.633  25.085  35.711  1.00  0.00     0.022 A 
BRANCH  87  90
ATOM     90  S   UNL A   1      44.480  23.366  33.867  1.00  0.00     0.127 S 
ATOM     91  O   UNL A   1      45.579  22.512  34.306  1.00  0.00    -0.237 OA
ATOM     92  O   UNL A   1      43.212  23.103  34.551  1.00  0.00    -0.237 OA
ATOM     93  O   UNL A   1      44.350  23.581  32.430  1.00  0.00    -0.744 OA
ENDBRANCH  87  90
ENDBRANCH  69  83
BRANCH  70  94
ATOM     94  C   UNL A   1      43.327  35.501  28.760  1.00  0.00     0.023 A 
ATOM     95  C   UNL A   1      42.664  35.376  27.525  1.00  0.00     0.012 A 
ATOM     96  C   UNL A   1      43.682  36.777  29.226  1.00  0.00     0.148 A 
ATOM     97  C   UNL A   1      42.364  36.505  26.763  1.00  0.00     0.002 A 
ATOM     98  C   UNL A   1      43.359  37.901  28.471  1.00  0.00     0.091 A 
ATOM     99  F   UNL A   1      44.304  36.886  30.409  1.00  0.00    -0.205 F 
ATOM    100  C   UNL A   1      42.708  37.770  27.237  1.00  0.00     0.022 A 
BRANCH  98 101
ATOM    101  S   UNL A   1      43.735  39.533  29.115  1.00  0.00     0.127 S 
ATOM    102  O   UNL A   1      45.084  39.369  29.645  1.00  0.00    -0.237 OA
ATOM    103  O   UNL A   1      43.648  40.389  27.932  1.00  0.00    -0.237 OA
ATOM    104  O   UNL A   1      42.667  39.748  30.087  1.00  0.00    -0.744 OA
ENDBRANCH  98 101
ENDBRANCH  70  94
BRANCH  82 105
ATOM    105  C   UNL A   1      39.646  32.091  33.578  1.00  0.00     0.023 A 
ATOM    106  C   UNL A   1      38.543  31.803  32.752  1.00  0.00     0.012 A 
ATOM    107  C   UNL A   1      39.429  32.521  34.897  1.00  0.00     0.148 A 
ATOM    108  C   UNL A   1      37.241  31.946  33.233  1.00  0.00     0.002 A 
ATOM    109  C   UNL A   1      38.127  32.657  35.371  1.00  0.00     0.091 A 
ATOM    110  F   UNL A   1      40.487  32.797  35.676  1.00  0.00    -0.205 F 
ATOM    111  C   UNL A   1      37.031  32.373  34.544  1.00  0.00     0.022 A 
BRANCH 109 112
ATOM    112  S   UNL A   1      37.853  33.204  37.058  1.00  0.00     0.127 S 
ATOM    113  O   UNL A   1      38.409  32.112  37.851  1.00  0.00    -0.237 OA
ATOM    114  O   UNL A   1      38.614  34.451  37.139  1.00  0.00    -0.237 OA
ATOM    115  O   UNL A   1      36.405  33.383  37.120  1.00  0.00    -0.744 OA
ENDBRANCH 109 112
ENDBRANCH  82 105
ENDBRANCH  56  57
ENDBRANCH  48  51
ENDBRANCH  46  47
ENDBRANCH  45  46
ENDBRANCH  44  45
ENDBRANCH   1  44
TORSDOF 22
ENDMDL
MODEL 2
REMARK VINA RESULT:      -6.9      3.474     11.403
REMARK SMILES CC(=O)Nc1ccc(/N=C2\C(=O)N(c3ccc(NC(C)=O)cc3)[C@H](c3ccccc3)[C@H]2CC(=O)NCCCCCCNC(=O)c2ccc(-c3c4nc(c(-c5cccc(S(=O)(=O)[O-])c5F)c5ccc([nH]5)c(-c5cccc(S(=O)(=O)[O-])c5F)c5nc(c(-c6cccc(S(=O)(=O)[O-])c6F)c6ccc3[nH]6)C=C5)C=C4)cc2)cc1
REMARK SMILES IDX 38 1 37 2 36 3 35 4 33 5 34 6 32 8 31 9 9 10 10 11 11 12
REMARK SMILES IDX 12 13 13 14 24 15 8 16 5 17 6 18 109 19 7 20 108 21 4 22
REMARK SMILES IDX 1 23 2 24 3 25 14 27 15 28 23 29 16 30 22 31 17 32 18 33
REMARK SMILES IDX 19 34 20 36 21 37 25 38 26 39 30 40 27 41 29 42 28 43 39 44
REMARK SMILES IDX 40 45 41 46 42 47 43 48 44 50 45 51 46 52 107 53 47 54
REMARK SMILES IDX 106 55 48 56 49 57 50 58 100 59 51 60 105 61 99 62 101 63
REMARK SMILES IDX 52 64 104 65 98 66 97 67 53 69 85 70 65 71 84 72 66 73 69 74
REMARK SMILES IDX 83 75 102 76 67 77 68 78 82 80 103 81 70 82 54 83 55 84
REMARK SMILES IDX 63 85 56 86 58 87 64 88 57 89 59 90 60 91 61 92 62 93 86 94
REMARK SMILES IDX 87 95 95 96 88 97 90 98 96 99 89 100 91 101 92 102 93 103
REMARK SMILES IDX 94 104 71 105 72 106 80 107 73 108 75 109 81 110 74 111
REMARK SMILES IDX 76 112 77 113 78 114 79 115
REMARK H PARENT 35 7 4 26 18 35 42 49 101 68 69 79
REMARK Flexibility Score: inf
ROOT
ATOM      1  C   UNL A   1      40.740  30.590  31.428  1.00  0.00     0.002 C 
ENDROOT
BRANCH   1   2
ATOM      2  C   UNL A   1      39.296  30.454  30.938  1.00  0.00     0.021 C 
BRANCH   2   3
ATOM      3  C   UNL A   1      39.018  29.232  30.063  1.00  0.00     0.116 C 
BRANCH   3   4
ATOM      4  N   UNL A   1      39.497  29.450  28.704  1.00  0.00    -0.356 N 
ATOM      5  C   UNL A   1      39.818  28.561  27.725  1.00  0.00     0.220 C 
ATOM      6  O   UNL A   1      40.321  28.984  26.682  1.00  0.00    -0.275 OA
ATOM      7  H   UNL A   1      39.607  30.396  28.453  1.00  0.00     0.163 HD
BRANCH   5   8
ATOM      8  C   UNL A   1      39.544  27.080  27.895  1.00  0.00     0.112 C 
BRANCH   8   9
ATOM      9  C   UNL A   1      40.729  26.366  28.559  1.00  0.00     0.081 C 
ATOM     10  N   UNL A   1      40.952  23.951  28.161  1.00  0.00    -0.247 NA
ATOM     11  C   UNL A   1      41.121  25.171  27.750  1.00  0.00     0.112 C 
ATOM     12  C   UNL A   1      41.964  25.656  26.603  1.00  0.00     0.273 C 
ATOM     13  O   UNL A   1      41.954  25.186  25.490  1.00  0.00    -0.267 OA
ATOM     14  N   UNL A   1      42.725  26.657  27.183  1.00  0.00    -0.299 N 
ATOM     15  C   UNL A   1      42.075  27.161  28.401  1.00  0.00     0.131 C 
BRANCH  10  16
ATOM     16  C   UNL A   1      41.500  22.854  27.465  1.00  0.00     0.064 A 
ATOM     17  C   UNL A   1      42.709  20.599  26.241  1.00  0.00     0.041 A 
ATOM     18  C   UNL A   1      43.462  21.497  27.004  1.00  0.00     0.028 A 
ATOM     19  C   UNL A   1      41.373  20.895  26.006  1.00  0.00     0.028 A 
ATOM     20  C   UNL A   1      42.863  22.605  27.611  1.00  0.00     0.030 A 
ATOM     21  C   UNL A   1      40.789  22.034  26.582  1.00  0.00     0.030 A 
BRANCH  17  22
ATOM     22  N   UNL A   1      43.394  19.483  25.751  1.00  0.00    -0.326 N 
ATOM     23  C   UNL A   1      45.065  20.451  24.155  1.00  0.00     0.114 C 
ATOM     24  C   UNL A   1      44.429  19.308  24.885  1.00  0.00     0.221 C 
ATOM     25  O   UNL A   1      44.796  18.145  24.693  1.00  0.00    -0.275 OA
ATOM     26  H   UNL A   1      43.051  18.635  26.114  1.00  0.00     0.169 HD
ENDBRANCH  17  22
ENDBRANCH  10  16
BRANCH  14  27
ATOM     27  C   UNL A   1      44.092  26.730  26.827  1.00  0.00     0.045 A 
ATOM     28  C   UNL A   1      44.569  27.846  26.133  1.00  0.00     0.028 A 
ATOM     29  C   UNL A   1      44.901  25.590  26.884  1.00  0.00     0.028 A 
ATOM     30  C   UNL A   1      45.830  27.825  25.516  1.00  0.00     0.028 A 
ATOM     31  C   UNL A   1      46.143  25.557  26.242  1.00  0.00     0.028 A 
ATOM     32  C   UNL A   1      46.610  26.669  25.539  1.00  0.00     0.041 A 
BRANCH  32  33
ATOM     33  N   UNL A   1      47.805  26.506  24.813  1.00  0.00    -0.326 N 
ATOM     34  C   UNL A   1      48.883  27.369  24.769  1.00  0.00     0.221 C 
ATOM     35  H   UNL A   1      47.882  25.684  24.276  1.00  0.00     0.169 HD
ATOM     36  C   UNL A   1      49.859  27.017  23.673  1.00  0.00     0.114 C 
ATOM     37  O   UNL A   1      49.074  28.333  25.502  1.00  0.00    -0.275 OA
ENDBRANCH  32  33
ENDBRANCH  14  27
BRANCH  15  38
ATOM     38  C   UNL A   1      42.914  27.249  29.666  1.00  0.00    -0.024 A 
ATOM     39  C   UNL A   1      43.475  26.068  30.191  1.00  0.00     0.006 A 
ATOM     40  C   UNL A   1      43.135  28.451  30.356  1.00  0.00     0.006 A 
ATOM     41  C   UNL A   1      44.234  26.090  31.362  1.00  0.00     0.000 A 
ATOM     42  C   UNL A   1      43.901  28.472  31.524  1.00  0.00     0.000 A 
ATOM     43  C   UNL A   1      44.449  27.293  32.027  1.00  0.00     0.000 A 
ENDBRANCH  15  38
ENDBRANCH   8   9
ENDBRANCH   5   8
ENDBRANCH   3   4
ENDBRANCH   2   3
ENDBRANCH   1   2
BRANCH   1  44
ATOM     44  C   UNL A   1      40.905  30.955  32.908  1.00  0.00     0.002 C 
BRANCH  44  45
ATOM     45  C   UNL A   1      39.624  30.966  33.757  1.00  0.00     0.021 C 
BRANCH  45  46
ATOM     46  C   UNL A   1      39.479  32.116  34.757  1.00  0.00     0.116 C 
BRANCH  46  47
ATOM     47  N   UNL A   1      38.493  33.103  34.344  1.00  0.00    -0.352 N 
ATOM     48  C   UNL A   1      38.643  34.205  33.533  1.00  0.00     0.251 C 
ATOM     49  H   UNL A   1      37.584  32.962  34.696  1.00  0.00     0.163 HD
ATOM     50  O   UNL A   1      37.715  35.001  33.411  1.00  0.00    -0.269 OA
BRANCH  48  51
ATOM     51  C   UNL A   1      39.921  34.453  32.823  1.00  0.00     0.039 A 
ATOM     52  C   UNL A   1      41.028  34.895  33.556  1.00  0.00     0.014 A 
ATOM     53  C   UNL A   1      40.026  34.284  31.441  1.00  0.00     0.014 A 
ATOM     54  C   UNL A   1      42.260  35.087  32.918  1.00  0.00     0.010 A 
ATOM     55  C   UNL A   1      41.263  34.447  30.812  1.00  0.00     0.010 A 
ATOM     56  C   UNL A   1      42.396  34.829  31.544  1.00  0.00    -0.014 A 
BRANCH  56  57
ATOM     57  C   UNL A   1      43.725  34.851  30.877  1.00  0.00     0.031 A 
ATOM     58  C   UNL A   1      44.295  36.114  30.290  1.00  0.00     0.074 A 
ATOM     59  C   UNL A   1      44.383  33.687  30.705  1.00  0.00     0.049 A 
ATOM     60  N   UNL A   1      45.429  36.290  29.658  1.00  0.00    -0.248 NA
ATOM     61  C   UNL A   1      43.487  37.336  30.428  1.00  0.00     0.031 C 
ATOM     62  C   UNL A   1      43.904  32.372  31.135  1.00  0.00     0.029 A 
ATOM     63  N   UNL A   1      45.588  33.420  30.104  1.00  0.00    -0.354 N 
ATOM     64  C   UNL A   1      45.438  37.620  29.258  1.00  0.00     0.074 A 
ATOM     65  C   UNL A   1      44.217  38.219  29.757  1.00  0.00     0.031 C 
ATOM     66  C   UNL A   1      44.814  31.442  30.805  1.00  0.00     0.029 A 
ATOM     67  C   UNL A   1      45.934  32.092  30.130  1.00  0.00     0.049 A 
ATOM     68  H   UNL A   1      46.152  34.116  29.694  1.00  0.00     0.167 HD
ATOM     69  C   UNL A   1      46.382  38.289  28.553  1.00  0.00     0.034 A 
ATOM     70  C   UNL A   1      47.035  31.463  29.677  1.00  0.00     0.034 A 
ATOM     71  C   UNL A   1      47.633  37.726  28.118  1.00  0.00     0.049 A 
ATOM     72  C   UNL A   1      48.126  32.251  29.016  1.00  0.00     0.074 A 
ATOM     73  C   UNL A   1      48.691  38.358  27.484  1.00  0.00     0.029 A 
ATOM     74  N   UNL A   1      47.997  36.399  28.274  1.00  0.00    -0.354 N 
ATOM     75  N   UNL A   1      48.190  33.541  28.798  1.00  0.00    -0.248 NA
ATOM     76  C   UNL A   1      49.306  31.501  28.560  1.00  0.00     0.031 C 
ATOM     77  C   UNL A   1      49.709  37.417  27.287  1.00  0.00     0.029 A 
ATOM     78  C   UNL A   1      49.268  36.194  27.764  1.00  0.00     0.049 A 
ATOM     79  H   UNL A   1      47.434  35.704  28.685  1.00  0.00     0.167 HD
ATOM     80  C   UNL A   1      49.421  33.761  28.194  1.00  0.00     0.074 A 
ATOM     81  C   UNL A   1      50.079  32.474  28.094  1.00  0.00     0.031 C 
ATOM     82  C   UNL A   1      49.944  34.924  27.737  1.00  0.00     0.034 A 
BRANCH  69  83
ATOM     83  C   UNL A   1      46.133  39.745  28.282  1.00  0.00     0.023 A 
ATOM     84  C   UNL A   1      46.633  40.696  29.193  1.00  0.00     0.012 A 
ATOM     85  C   UNL A   1      45.444  40.182  27.137  1.00  0.00     0.148 A 
ATOM     86  C   UNL A   1      46.449  42.059  28.968  1.00  0.00     0.002 A 
ATOM     87  C   UNL A   1      45.261  41.545  26.923  1.00  0.00     0.091 A 
ATOM     88  F   UNL A   1      44.965  39.272  26.275  1.00  0.00    -0.205 F 
ATOM     89  C   UNL A   1      45.763  42.486  27.834  1.00  0.00     0.022 A 
BRANCH  87  90
ATOM     90  S   UNL A   1      44.353  42.105  25.478  1.00  0.00     0.127 S 
ATOM     91  O   UNL A   1      44.480  43.556  25.557  1.00  0.00    -0.237 OA
ATOM     92  O   UNL A   1      45.087  41.502  24.363  1.00  0.00    -0.237 OA
ATOM     93  O   UNL A   1      43.019  41.551  25.684  1.00  0.00    -0.744 OA
ENDBRANCH  87  90
ENDBRANCH  69  83
BRANCH  70  94
ATOM     94  C   UNL A   1      47.203  30.012  29.945  1.00  0.00     0.023 A 
ATOM     95  C   UNL A   1      46.752  29.091  28.981  1.00  0.00     0.012 A 
ATOM     96  C   UNL A   1      47.846  29.541  31.101  1.00  0.00     0.148 A 
ATOM     97  C   UNL A   1      46.933  27.722  29.169  1.00  0.00     0.002 A 
ATOM     98  C   UNL A   1      48.043  28.173  31.271  1.00  0.00     0.091 A 
ATOM     99  F   UNL A   1      48.281  30.426  32.009  1.00  0.00    -0.205 F 
ATOM    100  C   UNL A   1      47.582  27.261  30.312  1.00  0.00     0.022 A 
BRANCH  98 101
ATOM    101  S   UNL A   1      48.944  27.584  32.705  1.00  0.00     0.127 S 
ATOM    102  O   UNL A   1      50.247  28.221  32.554  1.00  0.00    -0.237 OA
ATOM    103  O   UNL A   1      48.151  28.083  33.829  1.00  0.00    -0.237 OA
ATOM    104  O   UNL A   1      48.898  26.134  32.540  1.00  0.00    -0.744 OA
ENDBRANCH  98 101
ENDBRANCH  70  94
BRANCH  82 105
ATOM    105  C   UNL A   1      51.296  34.858  27.090  1.00  0.00     0.023 A 
ATOM    106  C   UNL A   1      52.438  35.057  27.888  1.00  0.00     0.012 A 
ATOM    107  C   UNL A   1      51.447  34.571  25.723  1.00  0.00     0.148 A 
ATOM    108  C   UNL A   1      53.714  34.978  27.330  1.00  0.00     0.002 A 
ATOM    109  C   UNL A   1      52.724  34.488  25.176  1.00  0.00     0.091 A 
ATOM    110  F   UNL A   1      50.352  34.385  24.970  1.00  0.00    -0.205 F 
ATOM    111  C   UNL A   1      53.859  34.693  25.973  1.00  0.00     0.022 A 
BRANCH 109 112
ATOM    112  S   UNL A   1      52.916  34.119  23.430  1.00  0.00     0.127 S 
ATOM    113  O   UNL A   1      52.055  32.954  23.245  1.00  0.00    -0.237 OA
ATOM    114  O   UNL A   1      52.430  35.333  22.771  1.00  0.00    -0.237 OA
ATOM    115  O   UNL A   1      54.352  33.898  23.291  1.00  0.00    -0.744 OA
ENDBRANCH 109 112
ENDBRANCH  82 105
ENDBRANCH  56  57
ENDBRANCH  48  51
ENDBRANCH  46  47
ENDBRANCH  45  46
ENDBRANCH  44  45
ENDBRANCH   1  44
TORSDOF 22
ENDMDL
MODEL 3
REMARK VINA RESULT:      -6.7      4.104     11.317
REMARK SMILES CC(=O)Nc1ccc(/N=C2\C(=O)N(c3ccc(NC(C)=O)cc3)[C@H](c3ccccc3)[C@H]2CC(=O)NCCCCCCNC(=O)c2ccc(-c3c4nc(c(-c5cccc(S(=O)(=O)[O-])c5F)c5ccc([nH]5)c(-c5cccc(S(=O)(=O)[O-])c5F)c5nc(c(-c6cccc(S(=O)(=O)[O-])c6F)c6ccc3[nH]6)C=C5)C=C4)cc2)cc1
REMARK SMILES IDX 38 1 37 2 36 3 35 4 33 5 34 6 32 8 31 9 9 10 10 11 11 12
REMARK SMILES IDX 12 13 13 14 24 15 8 16 5 17 6 18 109 19 7 20 108 21 4 22
REMARK SMILES IDX 1 23 2 24 3 25 14 27 15 28 23 29 16 30 22 31 17 32 18 33
REMARK SMILES IDX 19 34 20 36 21 37 25 38 26 39 30 40 27 41 29 42 28 43 39 44
REMARK SMILES IDX 40 45 41 46 42 47 43 48 44 50 45 51 46 52 107 53 47 54
REMARK SMILES IDX 106 55 48 56 49 57 50 58 100 59 51 60 105 61 99 62 101 63
REMARK SMILES IDX 52 64 104 65 98 66 97 67 53 69 85 70 65 71 84 72 66 73 69 74
REMARK SMILES IDX 83 75 102 76 67 77 68 78 82 80 103 81 70 82 54 83 55 84
REMARK SMILES IDX 63 85 56 86 58 87 64 88 57 89 59 90 60 91 61 92 62 93 86 94
REMARK SMILES IDX 87 95 95 96 88 97 90 98 96 99 89 100 91 101 92 102 93 103
REMARK SMILES IDX 94 104 71 105 72 106 80 107 73 108 75 109 81 110 74 111
REMARK SMILES IDX 76 112 77 113 78 114 79 115
REMARK H PARENT 35 7 4 26 18 35 42 49 101 68 69 79
REMARK Flexibility Score: inf
ROOT
ATOM      1  C   UNL A   1      40.382  26.049  28.150  1.00  0.00     0.002 C 
ENDROOT
BRANCH   1   2
ATOM      2  C   UNL A   1      41.473  27.111  28.313  1.00  0.00     0.021 C 
BRANCH   2   3
ATOM      3  C   UNL A   1      40.985  28.480  28.784  1.00  0.00     0.116 C 
BRANCH   3   4
ATOM      4  N   UNL A   1      39.611  28.402  29.265  1.00  0.00    -0.356 N 
ATOM      5  C   UNL A   1      39.068  28.772  30.456  1.00  0.00     0.220 C 
ATOM      6  O   UNL A   1      37.888  28.495  30.681  1.00  0.00    -0.275 OA
ATOM      7  H   UNL A   1      38.971  28.018  28.623  1.00  0.00     0.163 HD
BRANCH   5   8
ATOM      8  C   UNL A   1      39.883  29.531  31.484  1.00  0.00     0.112 C 
BRANCH   8   9
ATOM      9  C   UNL A   1      39.841  31.043  31.222  1.00  0.00     0.081 C 
ATOM     10  N   UNL A   1      37.625  32.091  31.045  1.00  0.00    -0.247 NA
ATOM     11  C   UNL A   1      38.583  31.622  31.786  1.00  0.00     0.112 C 
ATOM     12  C   UNL A   1      38.793  31.813  33.262  1.00  0.00     0.273 C 
ATOM     13  O   UNL A   1      37.941  31.660  34.106  1.00  0.00    -0.267 OA
ATOM     14  N   UNL A   1      40.107  32.240  33.333  1.00  0.00    -0.299 N 
ATOM     15  C   UNL A   1      40.848  31.839  32.128  1.00  0.00     0.131 C 
BRANCH  10  16
ATOM     16  C   UNL A   1      36.540  32.799  31.601  1.00  0.00     0.064 A 
ATOM     17  C   UNL A   1      34.408  34.385  32.592  1.00  0.00     0.041 A 
ATOM     18  C   UNL A   1      35.693  34.915  32.440  1.00  0.00     0.028 A 
ATOM     19  C   UNL A   1      34.222  33.031  32.347  1.00  0.00     0.028 A 
ATOM     20  C   UNL A   1      36.741  34.133  31.946  1.00  0.00     0.030 A 
ATOM     21  C   UNL A   1      35.290  32.241  31.894  1.00  0.00     0.030 A 
BRANCH  17  22
ATOM     22  N   UNL A   1      33.419  35.279  33.015  1.00  0.00    -0.326 N 
ATOM     23  C   UNL A   1      32.932  36.650  30.976  1.00  0.00     0.114 C 
ATOM     24  C   UNL A   1      32.703  36.262  32.405  1.00  0.00     0.221 C 
ATOM     25  O   UNL A   1      31.876  36.856  33.103  1.00  0.00    -0.275 OA
ATOM     26  H   UNL A   1      33.190  35.172  33.966  1.00  0.00     0.169 HD
ENDBRANCH  17  22
ENDBRANCH  10  16
BRANCH  14  27
ATOM     27  C   UNL A   1      40.407  33.287  34.236  1.00  0.00     0.045 A 
ATOM     28  C   UNL A   1      41.106  33.007  35.414  1.00  0.00     0.028 A 
ATOM     29  C   UNL A   1      39.764  34.525  34.126  1.00  0.00     0.028 A 
ATOM     30  C   UNL A   1      41.167  33.946  36.455  1.00  0.00     0.028 A 
ATOM     31  C   UNL A   1      39.797  35.448  35.176  1.00  0.00     0.028 A 
ATOM     32  C   UNL A   1      40.485  35.159  36.355  1.00  0.00     0.041 A 
BRANCH  32  33
ATOM     33  N   UNL A   1      40.355  36.084  37.410  1.00  0.00    -0.326 N 
ATOM     34  C   UNL A   1      39.475  36.022  38.473  1.00  0.00     0.221 C 
ATOM     35  H   UNL A   1      40.959  36.861  37.387  1.00  0.00     0.169 HD
ATOM     36  C   UNL A   1      39.417  37.317  39.247  1.00  0.00     0.114 C 
ATOM     37  O   UNL A   1      38.787  35.060  38.795  1.00  0.00    -0.275 OA
ENDBRANCH  32  33
ENDBRANCH  14  27
BRANCH  15  38
ATOM     38  C   UNL A   1      41.649  32.907  31.402  1.00  0.00    -0.024 A 
ATOM     39  C   UNL A   1      43.018  33.050  31.702  1.00  0.00     0.006 A 
ATOM     40  C   UNL A   1      41.082  33.781  30.460  1.00  0.00     0.006 A 
ATOM     41  C   UNL A   1      43.793  34.030  31.079  1.00  0.00     0.000 A 
ATOM     42  C   UNL A   1      41.862  34.756  29.833  1.00  0.00     0.000 A 
ATOM     43  C   UNL A   1      43.215  34.881  30.143  1.00  0.00     0.000 A 
ENDBRANCH  15  38
ENDBRANCH   8   9
ENDBRANCH   5   8
ENDBRANCH   3   4
ENDBRANCH   2   3
ENDBRANCH   1   2
BRANCH   1  44
ATOM     44  C   UNL A   1      40.866  24.595  28.175  1.00  0.00     0.002 C 
BRANCH  44  45
ATOM     45  C   UNL A   1      40.600  23.763  26.911  1.00  0.00     0.021 C 
BRANCH  45  46
ATOM     46  C   UNL A   1      41.425  22.482  26.752  1.00  0.00     0.116 C 
BRANCH  46  47
ATOM     47  N   UNL A   1      42.027  22.358  25.433  1.00  0.00    -0.352 N 
ATOM     48  C   UNL A   1      43.222  22.857  24.967  1.00  0.00     0.251 C 
ATOM     49  H   UNL A   1      41.503  21.843  24.779  1.00  0.00     0.163 HD
ATOM     50  O   UNL A   1      43.496  22.760  23.772  1.00  0.00    -0.269 OA
BRANCH  48  51
ATOM     51  C   UNL A   1      44.173  23.528  25.885  1.00  0.00     0.039 A 
ATOM     52  C   UNL A   1      44.009  24.892  26.151  1.00  0.00     0.014 A 
ATOM     53  C   UNL A   1      45.239  22.832  26.459  1.00  0.00     0.014 A 
ATOM     54  C   UNL A   1      44.862  25.537  27.055  1.00  0.00     0.010 A 
ATOM     55  C   UNL A   1      46.070  23.470  27.383  1.00  0.00     0.010 A 
ATOM     56  C   UNL A   1      45.879  24.821  27.708  1.00  0.00    -0.014 A 
BRANCH  56  57
ATOM     57  C   UNL A   1      46.682  25.432  28.800  1.00  0.00     0.031 A 
ATOM     58  C   UNL A   1      46.178  25.488  30.217  1.00  0.00     0.074 A 
ATOM     59  C   UNL A   1      47.843  26.042  28.487  1.00  0.00     0.049 A 
ATOM     60  N   UNL A   1      46.751  26.006  31.274  1.00  0.00    -0.248 NA
ATOM     61  C   UNL A   1      44.862  24.887  30.479  1.00  0.00     0.031 C 
ATOM     62  C   UNL A   1      48.405  26.151  27.139  1.00  0.00     0.029 A 
ATOM     63  N   UNL A   1      48.748  26.703  29.278  1.00  0.00    -0.354 N 
ATOM     64  C   UNL A   1      45.837  25.863  32.310  1.00  0.00     0.074 A 
ATOM     65  C   UNL A   1      44.689  25.167  31.766  1.00  0.00     0.031 C 
ATOM     66  C   UNL A   1      49.569  26.817  27.200  1.00  0.00     0.029 A 
ATOM     67  C   UNL A   1      49.829  27.193  28.587  1.00  0.00     0.049 A 
ATOM     68  H   UNL A   1      48.634  26.815  30.250  1.00  0.00     0.167 HD
ATOM     69  C   UNL A   1      45.946  26.258  33.602  1.00  0.00     0.034 A 
ATOM     70  C   UNL A   1      50.918  27.857  29.018  1.00  0.00     0.034 A 
ATOM     71  C   UNL A   1      47.111  26.881  34.173  1.00  0.00     0.049 A 
ATOM     72  C   UNL A   1      51.075  28.167  30.477  1.00  0.00     0.074 A 
ATOM     73  C   UNL A   1      47.347  27.225  35.494  1.00  0.00     0.029 A 
ATOM     74  N   UNL A   1      48.238  27.250  33.457  1.00  0.00    -0.354 N 
ATOM     75  N   UNL A   1      50.274  27.870  31.470  1.00  0.00    -0.248 NA
ATOM     76  C   UNL A   1      52.297  28.880  30.877  1.00  0.00     0.031 C 
ATOM     77  C   UNL A   1      48.633  27.773  35.582  1.00  0.00     0.029 A 
ATOM     78  C   UNL A   1      49.179  27.804  34.309  1.00  0.00     0.049 A 
ATOM     79  H   UNL A   1      48.352  27.137  32.486  1.00  0.00     0.167 HD
ATOM     80  C   UNL A   1      50.899  28.346  32.614  1.00  0.00     0.074 A 
ATOM     81  C   UNL A   1      52.155  28.937  32.196  1.00  0.00     0.031 C 
ATOM     82  C   UNL A   1      50.456  28.320  33.894  1.00  0.00     0.034 A 
BRANCH  69  83
ATOM     83  C   UNL A   1      44.796  25.945  34.515  1.00  0.00     0.023 A 
ATOM     84  C   UNL A   1      44.665  24.633  35.009  1.00  0.00     0.012 A 
ATOM     85  C   UNL A   1      43.870  26.927  34.909  1.00  0.00     0.148 A 
ATOM     86  C   UNL A   1      43.628  24.303  35.882  1.00  0.00     0.002 A 
ATOM     87  C   UNL A   1      42.835  26.588  35.776  1.00  0.00     0.091 A 
ATOM     88  F   UNL A   1      43.996  28.175  34.432  1.00  0.00    -0.205 F 
ATOM     89  C   UNL A   1      42.712  25.279  36.266  1.00  0.00     0.022 A 
BRANCH  87  90
ATOM     90  S   UNL A   1      41.633  27.832  36.256  1.00  0.00     0.127 S 
ATOM     91  O   UNL A   1      40.977  28.155  34.994  1.00  0.00    -0.237 OA
ATOM     92  O   UNL A   1      40.776  27.125  37.210  1.00  0.00    -0.237 OA
ATOM     93  O   UNL A   1      42.455  28.879  36.855  1.00  0.00    -0.744 OA
ENDBRANCH  87  90
ENDBRANCH  69  83
BRANCH  70  94
ATOM     94  C   UNL A   1      52.004  28.170  28.055  1.00  0.00     0.023 A 
ATOM     95  C   UNL A   1      52.035  29.448  27.466  1.00  0.00     0.012 A 
ATOM     96  C   UNL A   1      53.024  27.251  27.763  1.00  0.00     0.148 A 
ATOM     97  C   UNL A   1      53.064  29.802  26.593  1.00  0.00     0.002 A 
ATOM     98  C   UNL A   1      54.060  27.619  26.909  1.00  0.00     0.091 A 
ATOM     99  F   UNL A   1      52.991  26.039  28.337  1.00  0.00    -0.205 F 
ATOM    100  C   UNL A   1      54.080  28.890  26.316  1.00  0.00     0.022 A 
BRANCH  98 101
ATOM    101  S   UNL A   1      55.407  26.473  26.610  1.00  0.00     0.127 S 
ATOM    102  O   UNL A   1      54.735  25.342  25.978  1.00  0.00    -0.237 OA
ATOM    103  O   UNL A   1      56.297  27.222  25.722  1.00  0.00    -0.237 OA
ATOM    104  O   UNL A   1      55.944  26.253  27.949  1.00  0.00    -0.744 OA
ENDBRANCH  98 101
ENDBRANCH  70  94
BRANCH  82 105
ATOM    105  C   UNL A   1      51.336  28.947  34.935  1.00  0.00     0.023 A 
ATOM    106  C   UNL A   1      51.178  30.317  35.218  1.00  0.00     0.012 A 
ATOM    107  C   UNL A   1      52.282  28.197  35.653  1.00  0.00     0.148 A 
ATOM    108  C   UNL A   1      51.958  30.932  36.198  1.00  0.00     0.002 A 
ATOM    109  C   UNL A   1      53.051  28.817  36.633  1.00  0.00     0.091 A 
ATOM    110  F   UNL A   1      52.426  26.892  35.375  1.00  0.00    -0.205 F 
ATOM    111  C   UNL A   1      52.895  30.183  36.907  1.00  0.00     0.022 A 
BRANCH 109 112
ATOM    112  S   UNL A   1      54.258  27.855  37.550  1.00  0.00     0.127 S 
ATOM    113  O   UNL A   1      54.812  28.832  38.483  1.00  0.00    -0.237 OA
ATOM    114  O   UNL A   1      53.449  26.813  38.185  1.00  0.00    -0.237 OA
ATOM    115  O   UNL A   1      55.155  27.365  36.509  1.00  0.00    -0.744 OA
ENDBRANCH 109 112
ENDBRANCH  82 105
ENDBRANCH  56  57
ENDBRANCH  48  51
ENDBRANCH  46  47
ENDBRANCH  45  46
ENDBRANCH  44  45
ENDBRANCH   1  44
TORSDOF 22
ENDMDL
