MODEL 1
REMARK VINA RESULT:     -12.9      0.000      0.000
REMARK SMILES O=C(NCCCCCCNC(=O)[C@H]1[C@H]2CC[C@H](CC2)[C@H]1C(=O)Nc1ccc(C(=O)N2CCCC2)cc1)c1ccc(-c2c3nc(c(-c4cccc(S(=O)(=O)[O-])c4F)c4ccc([nH]4)c(-c4cccc(S(=O)(=O)[O-])c4F)c4nc(c(-c5cccc(S(=O)(=O)[O-])c5F)c5ccc2[nH]5)C=C4)C=C3)cc1
REMARK SMILES IDX 6 1 5 2 4 3 3 4 1 5 2 6 37 8 38 9 99 10 39 11 98 12 40 13
REMARK SMILES IDX 41 14 42 15 92 16 43 17 97 18 91 19 93 20 44 21 96 22 90 23
REMARK SMILES IDX 89 24 45 26 77 27 57 28 76 29 58 30 61 31 75 32 94 33 59 34
REMARK SMILES IDX 60 35 74 37 95 38 62 39 46 40 47 41 55 42 48 43 50 44 56 45
REMARK SMILES IDX 49 46 51 47 52 48 53 49 54 50 78 51 79 52 87 53 80 54 82 55
REMARK SMILES IDX 88 56 81 57 83 58 84 59 85 60 86 61 63 62 64 63 72 64 65 65
REMARK SMILES IDX 67 66 73 67 66 68 68 69 69 70 70 71 71 72 7 73 8 74 9 75
REMARK SMILES IDX 10 76 11 77 12 79 13 80 14 81 20 82 19 83 15 84 17 85 18 86
REMARK SMILES IDX 16 87 21 88 22 89 23 90 24 92 25 93 36 94 26 95 35 96 27 97
REMARK SMILES IDX 28 98 29 99 30 100 31 101 34 102 32 103 33 104
REMARK H PARENT 3 7 93 25 61 36 10 78 23 91
REMARK Flexibility Score: inf
ROOT
ATOM      1  C   UNL A   1      32.044  27.517  26.312  1.00  0.00     0.002 C 
ENDROOT
BRANCH   1   2
ATOM      2  C   UNL A   1      31.502  28.923  26.064  1.00  0.00     0.021 C 
BRANCH   2   3
ATOM      3  C   UNL A   1      32.424  30.021  25.549  1.00  0.00     0.116 C 
BRANCH   3   4
ATOM      4  N   UNL A   1      32.163  31.339  26.082  1.00  0.00    -0.352 N 
ATOM      5  O   UNL A   1      32.364  33.151  27.380  1.00  0.00    -0.269 OA
ATOM      6  C   UNL A   1      32.828  32.061  27.053  1.00  0.00     0.251 C 
ATOM      7  H   UNL A   1      31.384  31.795  25.689  1.00  0.00     0.163 HD
BRANCH   6   8
ATOM      8  C   UNL A   1      34.052  31.552  27.740  1.00  0.00     0.039 A 
ATOM      9  C   UNL A   1      34.273  30.197  28.000  1.00  0.00     0.014 A 
ATOM     10  C   UNL A   1      35.050  32.473  28.088  1.00  0.00     0.014 A 
ATOM     11  C   UNL A   1      35.400  29.789  28.729  1.00  0.00     0.010 A 
ATOM     12  C   UNL A   1      36.219  32.052  28.742  1.00  0.00     0.010 A 
ATOM     13  C   UNL A   1      36.392  30.710  29.107  1.00  0.00    -0.014 A 
BRANCH  13  14
ATOM     14  C   UNL A   1      37.615  30.253  29.836  1.00  0.00     0.031 A 
ATOM     15  C   UNL A   1      37.901  30.704  31.249  1.00  0.00     0.074 A 
ATOM     16  C   UNL A   1      38.500  29.444  29.215  1.00  0.00     0.049 A 
ATOM     17  N   UNL A   1      38.919  30.409  32.021  1.00  0.00    -0.248 NA
ATOM     18  C   UNL A   1      36.931  31.618  31.870  1.00  0.00     0.031 C 
ATOM     19  C   UNL A   1      38.383  28.970  27.835  1.00  0.00     0.029 A 
ATOM     20  N   UNL A   1      39.675  28.885  29.655  1.00  0.00    -0.354 N 
ATOM     21  C   UNL A   1      38.737  31.133  33.196  1.00  0.00     0.074 A 
ATOM     22  C   UNL A   1      37.517  31.894  33.028  1.00  0.00     0.031 C 
ATOM     23  C   UNL A   1      39.426  28.177  27.549  1.00  0.00     0.029 A 
ATOM     24  C   UNL A   1      40.315  28.123  28.705  1.00  0.00     0.049 A 
ATOM     25  H   UNL A   1      40.027  29.017  30.566  1.00  0.00     0.167 HD
ATOM     26  C   UNL A   1      39.501  31.152  34.317  1.00  0.00     0.034 A 
ATOM     27  C   UNL A   1      41.490  27.462  28.746  1.00  0.00     0.034 A 
ATOM     28  C   UNL A   1      40.691  30.363  34.503  1.00  0.00     0.049 A 
ATOM     29  C   UNL A   1      42.303  27.479  30.011  1.00  0.00     0.074 A 
ATOM     30  C   UNL A   1      41.483  30.254  35.635  1.00  0.00     0.029 A 
ATOM     31  N   UNL A   1      41.274  29.560  33.536  1.00  0.00    -0.354 N 
ATOM     32  N   UNL A   1      42.039  28.062  31.154  1.00  0.00    -0.248 NA
ATOM     33  C   UNL A   1      43.561  26.719  30.001  1.00  0.00     0.031 C 
ATOM     34  C   UNL A   1      42.563  29.416  35.338  1.00  0.00     0.029 A 
ATOM     35  C   UNL A   1      42.419  28.963  34.038  1.00  0.00     0.049 A 
ATOM     36  H   UNL A   1      40.924  29.432  32.624  1.00  0.00     0.167 HD
ATOM     37  C   UNL A   1      43.071  27.699  32.013  1.00  0.00     0.074 A 
ATOM     38  C   UNL A   1      43.956  26.835  31.261  1.00  0.00     0.031 C 
ATOM     39  C   UNL A   1      43.268  28.057  33.306  1.00  0.00     0.034 A 
BRANCH  26  40
ATOM     40  C   UNL A   1      39.065  32.044  35.456  1.00  0.00     0.023 A 
ATOM     41  C   UNL A   1      38.145  31.567  36.413  1.00  0.00     0.012 A 
ATOM     42  C   UNL A   1      39.620  33.330  35.619  1.00  0.00     0.148 A 
ATOM     43  C   UNL A   1      37.754  32.367  37.486  1.00  0.00     0.002 A 
ATOM     44  C   UNL A   1      39.264  34.103  36.719  1.00  0.00     0.091 A 
ATOM     45  F   UNL A   1      40.484  33.775  34.696  1.00  0.00    -0.205 F 
ATOM     46  C   UNL A   1      38.321  33.629  37.646  1.00  0.00     0.022 A 
BRANCH  44  47
ATOM     47  S   UNL A   1      40.001  35.705  37.061  1.00  0.00     0.127 S 
ATOM     48  O   UNL A   1      39.659  36.453  35.853  1.00  0.00    -0.237 OA
ATOM     49  O   UNL A   1      39.282  36.127  38.263  1.00  0.00    -0.237 OA
ATOM     50  O   UNL A   1      41.424  35.459  37.262  1.00  0.00    -0.744 OA
ENDBRANCH  44  47
ENDBRANCH  26  40
BRANCH  27  51
ATOM     51  C   UNL A   1      41.944  26.675  27.564  1.00  0.00     0.023 A 
ATOM     52  C   UNL A   1      42.606  27.332  26.506  1.00  0.00     0.012 A 
ATOM     53  C   UNL A   1      41.740  25.284  27.486  1.00  0.00     0.148 A 
ATOM     54  C   UNL A   1      43.023  26.624  25.379  1.00  0.00     0.002 A 
ATOM     55  C   UNL A   1      42.212  24.575  26.388  1.00  0.00     0.091 A 
ATOM     56  F   UNL A   1      41.100  24.679  28.497  1.00  0.00    -0.205 F 
ATOM     57  C   UNL A   1      42.835  25.246  25.324  1.00  0.00     0.022 A 
BRANCH  55  58
ATOM     58  S   UNL A   1      42.135  22.785  26.285  1.00  0.00     0.127 S 
ATOM     59  O   UNL A   1      42.838  22.385  27.500  1.00  0.00    -0.237 OA
ATOM     60  O   UNL A   1      40.693  22.545  26.297  1.00  0.00    -0.237 OA
ATOM     61  O   UNL A   1      42.793  22.433  25.031  1.00  0.00    -0.744 OA
ENDBRANCH  55  58
ENDBRANCH  27  51
BRANCH  39  62
ATOM     62  C   UNL A   1      44.451  27.462  34.025  1.00  0.00     0.023 A 
ATOM     63  C   UNL A   1      45.688  28.137  34.046  1.00  0.00     0.012 A 
ATOM     64  C   UNL A   1      44.318  26.247  34.728  1.00  0.00     0.148 A 
ATOM     65  C   UNL A   1      46.784  27.590  34.716  1.00  0.00     0.002 A 
ATOM     66  C   UNL A   1      45.397  25.737  35.438  1.00  0.00     0.091 A 
ATOM     67  F   UNL A   1      43.141  25.607  34.681  1.00  0.00    -0.205 F 
ATOM     68  C   UNL A   1      46.636  26.398  35.419  1.00  0.00     0.022 A 
BRANCH  66  69
ATOM     69  S   UNL A   1      45.267  24.261  36.454  1.00  0.00     0.127 S 
ATOM     70  O   UNL A   1      46.585  24.216  37.086  1.00  0.00    -0.237 OA
ATOM     71  O   UNL A   1      44.168  24.602  37.359  1.00  0.00    -0.237 OA
ATOM     72  O   UNL A   1      44.975  23.167  35.538  1.00  0.00    -0.744 OA
ENDBRANCH  66  69
ENDBRANCH  39  62
ENDBRANCH  13  14
ENDBRANCH   6   8
ENDBRANCH   3   4
ENDBRANCH   2   3
ENDBRANCH   1   2
BRANCH   1  73
ATOM     73  C   UNL A   1      31.080  26.320  26.444  1.00  0.00     0.002 C 
BRANCH  73  74
ATOM     74  C   UNL A   1      31.571  24.854  26.583  1.00  0.00     0.021 C 
BRANCH  74  75
ATOM     75  C   UNL A   1      30.546  23.731  26.417  1.00  0.00     0.116 C 
BRANCH  75  76
ATOM     76  N   UNL A   1      30.789  22.662  25.472  1.00  0.00    -0.356 N 
ATOM     77  C   UNL A   1      31.949  22.037  25.115  1.00  0.00     0.224 C 
ATOM     78  H   UNL A   1      29.985  22.330  25.012  1.00  0.00     0.163 HD
ATOM     79  O   UNL A   1      31.779  20.868  24.727  1.00  0.00    -0.275 OA
BRANCH  77  80
ATOM     80  C   UNL A   1      33.429  22.593  25.065  1.00  0.00     0.094 C 
ATOM     81  C   UNL A   1      34.818  21.968  25.524  1.00  0.00     0.002 C 
ATOM     82  C   UNL A   1      33.693  23.741  24.047  1.00  0.00     0.094 C 
ATOM     83  C   UNL A   1      36.009  21.905  24.496  1.00  0.00     0.005 C 
ATOM     84  C   UNL A   1      35.415  23.023  26.503  1.00  0.00     0.005 C 
ATOM     85  C   UNL A   1      35.177  24.217  24.214  1.00  0.00     0.002 C 
ATOM     86  C   UNL A   1      36.125  23.170  23.645  1.00  0.00     0.005 C 
ATOM     87  C   UNL A   1      35.567  24.363  25.728  1.00  0.00     0.005 C 
BRANCH  82  88
ATOM     88  C   UNL A   1      33.154  23.759  22.558  1.00  0.00     0.228 C 
ATOM     89  O   UNL A   1      33.703  22.977  21.760  1.00  0.00    -0.274 OA
ATOM     90  N   UNL A   1      32.057  24.412  22.034  1.00  0.00    -0.326 N 
ATOM     91  H   UNL A   1      31.762  24.044  21.169  1.00  0.00     0.169 HD
BRANCH  90  92
ATOM     92  C   UNL A   1      31.271  25.489  22.474  1.00  0.00     0.041 A 
ATOM     93  C   UNL A   1      31.546  26.841  22.280  1.00  0.00     0.027 A 
ATOM     94  C   UNL A   1      30.129  25.215  23.149  1.00  0.00     0.027 A 
ATOM     95  C   UNL A   1      30.562  27.831  22.608  1.00  0.00     0.016 A 
ATOM     96  C   UNL A   1      29.154  26.150  23.456  1.00  0.00     0.016 A 
ATOM     97  C   UNL A   1      29.318  27.474  23.161  1.00  0.00     0.040 A 
BRANCH  97  98
ATOM     98  C   UNL A   1      28.110  28.367  23.243  1.00  0.00     0.253 C 
ATOM     99  O   UNL A   1      27.147  27.954  23.876  1.00  0.00    -0.269 OA
ATOM    100  N   UNL A   1      28.209  29.699  22.808  1.00  0.00    -0.339 N 
ATOM    101  C   UNL A   1      28.626  30.240  21.521  1.00  0.00     0.120 C 
ATOM    102  C   UNL A   1      27.652  30.774  23.613  1.00  0.00     0.120 C 
ATOM    103  C   UNL A   1      29.056  31.658  21.840  1.00  0.00     0.023 C 
ATOM    104  C   UNL A   1      28.035  32.075  22.893  1.00  0.00     0.023 C 
ENDBRANCH  97  98
ENDBRANCH  90  92
ENDBRANCH  82  88
ENDBRANCH  77  80
ENDBRANCH  75  76
ENDBRANCH  74  75
ENDBRANCH  73  74
ENDBRANCH   1  73
TORSDOF 19
ENDMDL
MODEL 2
REMARK VINA RESULT:     -12.7      4.697     10.220
REMARK SMILES O=C(NCCCCCCNC(=O)[C@H]1[C@H]2CC[C@H](CC2)[C@H]1C(=O)Nc1ccc(C(=O)N2CCCC2)cc1)c1ccc(-c2c3nc(c(-c4cccc(S(=O)(=O)[O-])c4F)c4ccc([nH]4)c(-c4cccc(S(=O)(=O)[O-])c4F)c4nc(c(-c5cccc(S(=O)(=O)[O-])c5F)c5ccc2[nH]5)C=C4)C=C3)cc1
REMARK SMILES IDX 6 1 5 2 4 3 3 4 1 5 2 6 37 8 38 9 99 10 39 11 98 12 40 13
REMARK SMILES IDX 41 14 42 15 92 16 43 17 97 18 91 19 93 20 44 21 96 22 90 23
REMARK SMILES IDX 89 24 45 26 77 27 57 28 76 29 58 30 61 31 75 32 94 33 59 34
REMARK SMILES IDX 60 35 74 37 95 38 62 39 46 40 47 41 55 42 48 43 50 44 56 45
REMARK SMILES IDX 49 46 51 47 52 48 53 49 54 50 78 51 79 52 87 53 80 54 82 55
REMARK SMILES IDX 88 56 81 57 83 58 84 59 85 60 86 61 63 62 64 63 72 64 65 65
REMARK SMILES IDX 67 66 73 67 66 68 68 69 69 70 70 71 71 72 7 73 8 74 9 75
REMARK SMILES IDX 10 76 11 77 12 79 13 80 14 81 20 82 19 83 15 84 17 85 18 86
REMARK SMILES IDX 16 87 21 88 22 89 23 90 24 92 25 93 36 94 26 95 35 96 27 97
REMARK SMILES IDX 28 98 29 99 30 100 31 101 34 102 32 103 33 104
REMARK H PARENT 3 7 93 25 61 36 10 78 23 91
REMARK Flexibility Score: inf
ROOT
ATOM      1  C   UNL A   1      34.786  23.395  24.080  1.00  0.00     0.002 C 
ENDROOT
BRANCH   1   2
ATOM      2  C   UNL A   1      35.833  22.292  24.219  1.00  0.00     0.021 C 
BRANCH   2   3
ATOM      3  C   UNL A   1      36.161  21.714  25.589  1.00  0.00     0.116 C 
BRANCH   3   4
ATOM      4  N   UNL A   1      37.231  20.742  25.602  1.00  0.00    -0.352 N 
ATOM      5  O   UNL A   1      39.303  19.909  25.748  1.00  0.00    -0.269 OA
ATOM      6  C   UNL A   1      38.577  20.894  25.865  1.00  0.00     0.251 C 
ATOM      7  H   UNL A   1      36.954  19.822  25.389  1.00  0.00     0.163 HD
BRANCH   6   8
ATOM      8  C   UNL A   1      39.182  22.207  26.243  1.00  0.00     0.039 A 
ATOM      9  C   UNL A   1      38.648  23.435  25.848  1.00  0.00     0.014 A 
ATOM     10  C   UNL A   1      40.306  22.203  27.082  1.00  0.00     0.014 A 
ATOM     11  C   UNL A   1      39.310  24.631  26.159  1.00  0.00     0.010 A 
ATOM     12  C   UNL A   1      40.919  23.407  27.464  1.00  0.00     0.010 A 
ATOM     13  C   UNL A   1      40.454  24.636  26.975  1.00  0.00    -0.014 A 
BRANCH  13  14
ATOM     14  C   UNL A   1      41.120  25.922  27.344  1.00  0.00     0.031 A 
ATOM     15  C   UNL A   1      42.540  26.221  26.923  1.00  0.00     0.074 A 
ATOM     16  C   UNL A   1      40.454  26.829  28.092  1.00  0.00     0.049 A 
ATOM     17  N   UNL A   1      43.268  27.284  27.166  1.00  0.00    -0.248 NA
ATOM     18  C   UNL A   1      43.239  25.188  26.145  1.00  0.00     0.031 C 
ATOM     19  C   UNL A   1      39.099  26.655  28.616  1.00  0.00     0.029 A 
ATOM     20  N   UNL A   1      40.828  28.068  28.552  1.00  0.00    -0.354 N 
ATOM     21  C   UNL A   1      44.520  27.030  26.614  1.00  0.00     0.074 A 
ATOM     22  C   UNL A   1      44.456  25.705  26.036  1.00  0.00     0.031 C 
ATOM     23  C   UNL A   1      38.745  27.752  29.303  1.00  0.00     0.029 A 
ATOM     24  C   UNL A   1      39.865  28.689  29.314  1.00  0.00     0.049 A 
ATOM     25  H   UNL A   1      41.703  28.475  28.355  1.00  0.00     0.167 HD
ATOM     26  C   UNL A   1      45.616  27.827  26.575  1.00  0.00     0.034 A 
ATOM     27  C   UNL A   1      39.876  29.871  29.962  1.00  0.00     0.034 A 
ATOM     28  C   UNL A   1      45.670  29.163  27.111  1.00  0.00     0.049 A 
ATOM     29  C   UNL A   1      41.095  30.747  29.879  1.00  0.00     0.074 A 
ATOM     30  C   UNL A   1      46.709  30.077  27.044  1.00  0.00     0.029 A 
ATOM     31  N   UNL A   1      44.652  29.776  27.825  1.00  0.00    -0.354 N 
ATOM     32  N   UNL A   1      42.218  30.541  29.235  1.00  0.00    -0.248 NA
ATOM     33  C   UNL A   1      41.037  32.035  30.586  1.00  0.00     0.031 C 
ATOM     34  C   UNL A   1      46.333  31.225  27.749  1.00  0.00     0.029 A 
ATOM     35  C   UNL A   1      45.041  31.047  28.215  1.00  0.00     0.049 A 
ATOM     36  H   UNL A   1      43.779  29.367  28.025  1.00  0.00     0.167 HD
ATOM     37  C   UNL A   1      42.978  31.691  29.418  1.00  0.00     0.074 A 
ATOM     38  C   UNL A   1      42.181  32.595  30.220  1.00  0.00     0.031 C 
ATOM     39  C   UNL A   1      44.225  31.968  28.965  1.00  0.00     0.034 A 
BRANCH  26  40
ATOM     40  C   UNL A   1      46.860  27.290  25.906  1.00  0.00     0.023 A 
ATOM     41  C   UNL A   1      47.040  27.453  24.516  1.00  0.00     0.012 A 
ATOM     42  C   UNL A   1      47.885  26.688  26.664  1.00  0.00     0.148 A 
ATOM     43  C   UNL A   1      48.195  26.988  23.888  1.00  0.00     0.002 A 
ATOM     44  C   UNL A   1      49.056  26.272  26.039  1.00  0.00     0.091 A 
ATOM     45  F   UNL A   1      47.697  26.530  27.982  1.00  0.00    -0.205 F 
ATOM     46  C   UNL A   1      49.206  26.408  24.649  1.00  0.00     0.022 A 
BRANCH  44  47
ATOM     47  S   UNL A   1      50.452  25.593  26.943  1.00  0.00     0.127 S 
ATOM     48  O   UNL A   1      49.842  24.448  27.615  1.00  0.00    -0.237 OA
ATOM     49  O   UNL A   1      51.378  25.245  25.865  1.00  0.00    -0.237 OA
ATOM     50  O   UNL A   1      50.919  26.658  27.822  1.00  0.00    -0.744 OA
ENDBRANCH  44  47
ENDBRANCH  26  40
BRANCH  27  51
ATOM     51  C   UNL A   1      38.665  30.326  30.704  1.00  0.00     0.023 A 
ATOM     52  C   UNL A   1      38.532  30.012  32.072  1.00  0.00     0.012 A 
ATOM     53  C   UNL A   1      37.656  31.077  30.072  1.00  0.00     0.148 A 
ATOM     54  C   UNL A   1      37.400  30.407  32.786  1.00  0.00     0.002 A 
ATOM     55  C   UNL A   1      36.560  31.519  30.803  1.00  0.00     0.091 A 
ATOM     56  F   UNL A   1      37.796  31.357  28.768  1.00  0.00    -0.205 F 
ATOM     57  C   UNL A   1      36.420  31.167  32.155  1.00  0.00     0.022 A 
BRANCH  55  58
ATOM     58  S   UNL A   1      35.314  32.612  30.115  1.00  0.00     0.127 S 
ATOM     59  O   UNL A   1      34.399  32.771  31.240  1.00  0.00    -0.237 OA
ATOM     60  O   UNL A   1      36.103  33.798  29.787  1.00  0.00    -0.237 OA
ATOM     61  O   UNL A   1      34.772  31.911  28.955  1.00  0.00    -0.744 OA
ENDBRANCH  55  58
ENDBRANCH  27  51
BRANCH  39  62
ATOM     62  C   UNL A   1      44.792  33.333  29.263  1.00  0.00     0.023 A 
ATOM     63  C   UNL A   1      45.432  33.587  30.492  1.00  0.00     0.012 A 
ATOM     64  C   UNL A   1      44.731  34.354  28.293  1.00  0.00     0.148 A 
ATOM     65  C   UNL A   1      45.962  34.848  30.769  1.00  0.00     0.002 A 
ATOM     66  C   UNL A   1      45.311  35.590  28.554  1.00  0.00     0.091 A 
ATOM     67  F   UNL A   1      44.101  34.102  27.138  1.00  0.00    -0.205 F 
ATOM     68  C   UNL A   1      45.911  35.844  29.797  1.00  0.00     0.022 A 
BRANCH  66  69
ATOM     69  S   UNL A   1      45.380  36.896  27.323  1.00  0.00     0.127 S 
ATOM     70  O   UNL A   1      46.185  37.908  28.006  1.00  0.00    -0.237 OA
ATOM     71  O   UNL A   1      46.054  36.234  26.204  1.00  0.00    -0.237 OA
ATOM     72  O   UNL A   1      43.998  37.271  27.057  1.00  0.00    -0.744 OA
ENDBRANCH  66  69
ENDBRANCH  39  62
ENDBRANCH  13  14
ENDBRANCH   6   8
ENDBRANCH   3   4
ENDBRANCH   2   3
ENDBRANCH   1   2
BRANCH   1  73
ATOM     73  C   UNL A   1      34.329  23.868  22.685  1.00  0.00     0.002 C 
BRANCH  73  74
ATOM     74  C   UNL A   1      33.837  25.314  22.404  1.00  0.00     0.021 C 
BRANCH  74  75
ATOM     75  C   UNL A   1      32.684  25.505  21.418  1.00  0.00     0.116 C 
BRANCH  75  76
ATOM     76  N   UNL A   1      31.383  25.924  21.895  1.00  0.00    -0.356 N 
ATOM     77  C   UNL A   1      31.039  26.827  22.860  1.00  0.00     0.224 C 
ATOM     78  H   UNL A   1      30.622  25.488  21.451  1.00  0.00     0.163 HD
ATOM     79  O   UNL A   1      29.926  27.348  22.672  1.00  0.00    -0.275 OA
BRANCH  77  80
ATOM     80  C   UNL A   1      31.804  27.244  24.181  1.00  0.00     0.094 C 
ATOM     81  C   UNL A   1      32.194  28.664  24.783  1.00  0.00     0.002 C 
ATOM     82  C   UNL A   1      31.838  26.178  25.316  1.00  0.00     0.094 C 
ATOM     83  C   UNL A   1      31.778  29.013  26.260  1.00  0.00     0.005 C 
ATOM     84  C   UNL A   1      33.737  28.587  24.990  1.00  0.00     0.005 C 
ATOM     85  C   UNL A   1      32.713  26.735  26.489  1.00  0.00     0.002 C 
ATOM     86  C   UNL A   1      31.959  27.837  27.221  1.00  0.00     0.005 C 
ATOM     87  C   UNL A   1      34.030  27.405  25.958  1.00  0.00     0.005 C 
BRANCH  82  88
ATOM     88  C   UNL A   1      30.592  25.312  25.770  1.00  0.00     0.228 C 
ATOM     89  O   UNL A   1      29.685  25.917  26.371  1.00  0.00    -0.274 OA
ATOM     90  N   UNL A   1      30.284  24.001  25.470  1.00  0.00    -0.326 N 
ATOM     91  H   UNL A   1      29.335  23.781  25.620  1.00  0.00     0.169 HD
BRANCH  90  92
ATOM     92  C   UNL A   1      31.036  22.914  24.997  1.00  0.00     0.041 A 
ATOM     93  C   UNL A   1      31.713  21.980  25.778  1.00  0.00     0.027 A 
ATOM     94  C   UNL A   1      31.123  22.730  23.658  1.00  0.00     0.027 A 
ATOM     95  C   UNL A   1      32.278  20.809  25.173  1.00  0.00     0.016 A 
ATOM     96  C   UNL A   1      31.643  21.599  23.052  1.00  0.00     0.016 A 
ATOM     97  C   UNL A   1      32.197  20.588  23.786  1.00  0.00     0.040 A 
BRANCH  97  98
ATOM     98  C   UNL A   1      32.457  19.278  23.093  1.00  0.00     0.253 C 
ATOM     99  O   UNL A   1      32.526  19.291  21.871  1.00  0.00    -0.269 OA
ATOM    100  N   UNL A   1      32.836  18.161  23.856  1.00  0.00    -0.339 N 
ATOM    101  C   UNL A   1      32.176  17.526  24.989  1.00  0.00     0.120 C 
ATOM    102  C   UNL A   1      33.934  17.314  23.416  1.00  0.00     0.120 C 
ATOM    103  C   UNL A   1      33.292  16.784  25.697  1.00  0.00     0.023 C 
ATOM    104  C   UNL A   1      34.130  16.276  24.530  1.00  0.00     0.023 C 
ENDBRANCH  97  98
ENDBRANCH  90  92
ENDBRANCH  82  88
ENDBRANCH  77  80
ENDBRANCH  75  76
ENDBRANCH  74  75
ENDBRANCH  73  74
ENDBRANCH   1  73
TORSDOF 19
ENDMDL
MODEL 3
REMARK VINA RESULT:     -11.9      5.089      9.058
REMARK SMILES O=C(NCCCCCCNC(=O)[C@H]1[C@H]2CC[C@H](CC2)[C@H]1C(=O)Nc1ccc(C(=O)N2CCCC2)cc1)c1ccc(-c2c3nc(c(-c4cccc(S(=O)(=O)[O-])c4F)c4ccc([nH]4)c(-c4cccc(S(=O)(=O)[O-])c4F)c4nc(c(-c5cccc(S(=O)(=O)[O-])c5F)c5ccc2[nH]5)C=C4)C=C3)cc1
REMARK SMILES IDX 6 1 5 2 4 3 3 4 1 5 2 6 37 8 38 9 99 10 39 11 98 12 40 13
REMARK SMILES IDX 41 14 42 15 92 16 43 17 97 18 91 19 93 20 44 21 96 22 90 23
REMARK SMILES IDX 89 24 45 26 77 27 57 28 76 29 58 30 61 31 75 32 94 33 59 34
REMARK SMILES IDX 60 35 74 37 95 38 62 39 46 40 47 41 55 42 48 43 50 44 56 45
REMARK SMILES IDX 49 46 51 47 52 48 53 49 54 50 78 51 79 52 87 53 80 54 82 55
REMARK SMILES IDX 88 56 81 57 83 58 84 59 85 60 86 61 63 62 64 63 72 64 65 65
REMARK SMILES IDX 67 66 73 67 66 68 68 69 69 70 70 71 71 72 7 73 8 74 9 75
REMARK SMILES IDX 10 76 11 77 12 79 13 80 14 81 20 82 19 83 15 84 17 85 18 86
REMARK SMILES IDX 16 87 21 88 22 89 23 90 24 92 25 93 36 94 26 95 35 96 27 97
REMARK SMILES IDX 28 98 29 99 30 100 31 101 34 102 32 103 33 104
REMARK H PARENT 3 7 93 25 61 36 10 78 23 91
REMARK Flexibility Score: inf
ROOT
ATOM      1  C   UNL A   1      38.304  22.556  25.678  1.00  0.00     0.002 C 
ENDROOT
BRANCH   1   2
ATOM      2  C   UNL A   1      38.791  21.229  26.257  1.00  0.00     0.021 C 
BRANCH   2   3
ATOM      3  C   UNL A   1      38.904  19.999  25.365  1.00  0.00     0.116 C 
BRANCH   3   4
ATOM      4  N   UNL A   1      40.001  19.114  25.681  1.00  0.00    -0.352 N 
ATOM      5  O   UNL A   1      42.054  18.454  26.284  1.00  0.00    -0.269 OA
ATOM      6  C   UNL A   1      41.269  19.391  26.152  1.00  0.00     0.251 C 
ATOM      7  H   UNL A   1      39.815  18.158  25.537  1.00  0.00     0.163 HD
BRANCH   6   8
ATOM      8  C   UNL A   1      41.728  20.777  26.466  1.00  0.00     0.039 A 
ATOM      9  C   UNL A   1      41.935  21.235  27.769  1.00  0.00     0.014 A 
ATOM     10  C   UNL A   1      42.018  21.639  25.398  1.00  0.00     0.014 A 
ATOM     11  C   UNL A   1      42.280  22.574  28.005  1.00  0.00     0.010 A 
ATOM     12  C   UNL A   1      42.446  22.954  25.635  1.00  0.00     0.010 A 
ATOM     13  C   UNL A   1      42.545  23.453  26.941  1.00  0.00    -0.014 A 
BRANCH  13  14
ATOM     14  C   UNL A   1      42.964  24.863  27.206  1.00  0.00     0.031 A 
ATOM     15  C   UNL A   1      42.057  25.830  27.931  1.00  0.00     0.074 A 
ATOM     16  C   UNL A   1      44.166  25.297  26.768  1.00  0.00     0.049 A 
ATOM     17  N   UNL A   1      42.264  27.088  28.234  1.00  0.00    -0.248 NA
ATOM     18  C   UNL A   1      40.742  25.326  28.352  1.00  0.00     0.031 C 
ATOM     19  C   UNL A   1      45.125  24.492  26.009  1.00  0.00     0.029 A 
ATOM     20  N   UNL A   1      44.783  26.519  26.885  1.00  0.00    -0.354 N 
ATOM     21  C   UNL A   1      41.093  27.538  28.838  1.00  0.00     0.074 A 
ATOM     22  C   UNL A   1      40.174  26.420  28.845  1.00  0.00     0.031 C 
ATOM     23  C   UNL A   1      46.215  25.231  25.749  1.00  0.00     0.029 A 
ATOM     24  C   UNL A   1      46.016  26.577  26.278  1.00  0.00     0.049 A 
ATOM     25  H   UNL A   1      44.381  27.282  27.360  1.00  0.00     0.167 HD
ATOM     26  C   UNL A   1      40.811  28.760  29.356  1.00  0.00     0.034 A 
ATOM     27  C   UNL A   1      46.889  27.595  26.144  1.00  0.00     0.034 A 
ATOM     28  C   UNL A   1      41.738  29.862  29.389  1.00  0.00     0.049 A 
ATOM     29  C   UNL A   1      46.562  28.932  26.750  1.00  0.00     0.074 A 
ATOM     30  C   UNL A   1      41.571  31.110  29.967  1.00  0.00     0.029 A 
ATOM     31  N   UNL A   1      42.999  29.861  28.813  1.00  0.00    -0.354 N 
ATOM     32  N   UNL A   1      45.504  29.292  27.436  1.00  0.00    -0.248 NA
ATOM     33  C   UNL A   1      47.565  29.995  26.593  1.00  0.00     0.031 C 
ATOM     34  C   UNL A   1      42.714  31.874  29.707  1.00  0.00     0.029 A 
ATOM     35  C   UNL A   1      43.614  31.087  29.009  1.00  0.00     0.049 A 
ATOM     36  H   UNL A   1      43.398  29.099  28.334  1.00  0.00     0.167 HD
ATOM     37  C   UNL A   1      45.736  30.604  27.833  1.00  0.00     0.074 A 
ATOM     38  C   UNL A   1      47.041  30.970  27.323  1.00  0.00     0.031 C 
ATOM     39  C   UNL A   1      44.936  31.430  28.550  1.00  0.00     0.034 A 
BRANCH  26  40
ATOM     40  C   UNL A   1      39.442  28.977  29.956  1.00  0.00     0.023 A 
ATOM     41  C   UNL A   1      39.137  28.446  31.227  1.00  0.00     0.012 A 
ATOM     42  C   UNL A   1      38.480  29.767  29.294  1.00  0.00     0.148 A 
ATOM     43  C   UNL A   1      37.887  28.661  31.807  1.00  0.00     0.002 A 
ATOM     44  C   UNL A   1      37.254  30.019  29.901  1.00  0.00     0.091 A 
ATOM     45  F   UNL A   1      38.779  30.256  28.082  1.00  0.00    -0.205 F 
ATOM     46  C   UNL A   1      36.951  29.455  31.151  1.00  0.00     0.022 A 
BRANCH  44  47
ATOM     47  S   UNL A   1      36.015  31.100  29.177  1.00  0.00     0.127 S 
ATOM     48  O   UNL A   1      35.231  30.159  28.379  1.00  0.00    -0.237 OA
ATOM     49  O   UNL A   1      35.327  31.617  30.359  1.00  0.00    -0.237 OA
ATOM     50  O   UNL A   1      36.750  32.103  28.417  1.00  0.00    -0.744 OA
ENDBRANCH  44  47
ENDBRANCH  26  40
BRANCH  27  51
ATOM     51  C   UNL A   1      48.191  27.376  25.451  1.00  0.00     0.023 A 
ATOM     52  C   UNL A   1      49.313  26.964  26.198  1.00  0.00     0.012 A 
ATOM     53  C   UNL A   1      48.322  27.559  24.061  1.00  0.00     0.148 A 
ATOM     54  C   UNL A   1      50.548  26.773  25.580  1.00  0.00     0.002 A 
ATOM     55  C   UNL A   1      49.541  27.308  23.442  1.00  0.00     0.091 A 
ATOM     56  F   UNL A   1      47.246  27.961  23.369  1.00  0.00    -0.205 F 
ATOM     57  C   UNL A   1      50.660  26.935  24.202  1.00  0.00     0.022 A 
BRANCH  55  58
ATOM     58  S   UNL A   1      49.750  27.362  21.660  1.00  0.00     0.127 S 
ATOM     59  O   UNL A   1      49.507  28.771  21.371  1.00  0.00    -0.237 OA
ATOM     60  O   UNL A   1      51.138  26.929  21.507  1.00  0.00    -0.237 OA
ATOM     61  O   UNL A   1      48.766  26.429  21.119  1.00  0.00    -0.744 OA
ENDBRANCH  55  58
ENDBRANCH  27  51
BRANCH  39  62
ATOM     62  C   UNL A   1      45.469  32.798  28.894  1.00  0.00     0.023 A 
ATOM     63  C   UNL A   1      46.199  33.001  30.083  1.00  0.00     0.012 A 
ATOM     64  C   UNL A   1      45.286  33.876  28.005  1.00  0.00     0.148 A 
ATOM     65  C   UNL A   1      46.698  34.265  30.401  1.00  0.00     0.002 A 
ATOM     66  C   UNL A   1      45.834  35.118  28.302  1.00  0.00     0.091 A 
ATOM     67  F   UNL A   1      44.572  33.671  26.889  1.00  0.00    -0.205 F 
ATOM     68  C   UNL A   1      46.526  35.318  29.508  1.00  0.00     0.022 A 
BRANCH  66  69
ATOM     69  S   UNL A   1      45.747  36.504  27.163  1.00  0.00     0.127 S 
ATOM     70  O   UNL A   1      46.561  37.506  27.848  1.00  0.00    -0.237 OA
ATOM     71  O   UNL A   1      46.354  35.949  25.951  1.00  0.00    -0.237 OA
ATOM     72  O   UNL A   1      44.333  36.828  27.032  1.00  0.00    -0.744 OA
ENDBRANCH  66  69
ENDBRANCH  39  62
ENDBRANCH  13  14
ENDBRANCH   6   8
ENDBRANCH   3   4
ENDBRANCH   2   3
ENDBRANCH   1   2
BRANCH   1  73
ATOM     73  C   UNL A   1      37.286  22.577  24.520  1.00  0.00     0.002 C 
BRANCH  73  74
ATOM     74  C   UNL A   1      35.751  22.525  24.747  1.00  0.00     0.021 C 
BRANCH  74  75
ATOM     75  C   UNL A   1      34.979  23.845  24.762  1.00  0.00     0.116 C 
BRANCH  75  76
ATOM     76  N   UNL A   1      34.397  24.359  23.540  1.00  0.00    -0.356 N 
ATOM     77  C   UNL A   1      33.969  25.616  23.219  1.00  0.00     0.224 C 
ATOM     78  H   UNL A   1      34.294  23.694  22.823  1.00  0.00     0.163 HD
ATOM     79  O   UNL A   1      34.033  25.861  22.003  1.00  0.00    -0.275 OA
BRANCH  77  80
ATOM     80  C   UNL A   1      33.359  26.748  24.141  1.00  0.00     0.094 C 
ATOM     81  C   UNL A   1      33.724  28.286  24.321  1.00  0.00     0.002 C 
ATOM     82  C   UNL A   1      31.915  26.497  24.667  1.00  0.00     0.094 C 
ATOM     83  C   UNL A   1      32.589  29.366  24.173  1.00  0.00     0.005 C 
ATOM     84  C   UNL A   1      33.995  28.444  25.848  1.00  0.00     0.005 C 
ATOM     85  C   UNL A   1      31.530  27.672  25.629  1.00  0.00     0.002 C 
ATOM     86  C   UNL A   1      31.274  28.938  24.824  1.00  0.00     0.005 C 
ATOM     87  C   UNL A   1      32.706  28.023  26.609  1.00  0.00     0.005 C 
BRANCH  82  88
ATOM     88  C   UNL A   1      30.723  25.945  23.782  1.00  0.00     0.228 C 
ATOM     89  O   UNL A   1      29.936  26.792  23.322  1.00  0.00    -0.274 OA
ATOM     90  N   UNL A   1      30.502  24.665  23.315  1.00  0.00    -0.326 N 
ATOM     91  H   UNL A   1      29.870  24.631  22.560  1.00  0.00     0.169 HD
BRANCH  90  92
ATOM     92  C   UNL A   1      30.988  23.402  23.687  1.00  0.00     0.041 A 
ATOM     93  C   UNL A   1      31.623  22.486  22.852  1.00  0.00     0.027 A 
ATOM     94  C   UNL A   1      30.845  23.016  24.978  1.00  0.00     0.027 A 
ATOM     95  C   UNL A   1      32.245  21.318  23.404  1.00  0.00     0.016 A 
ATOM     96  C   UNL A   1      31.454  21.906  25.538  1.00  0.00     0.016 A 
ATOM     97  C   UNL A   1      32.204  21.048  24.784  1.00  0.00     0.040 A 
BRANCH  97  98
ATOM     98  C   UNL A   1      33.073  20.054  25.507  1.00  0.00     0.253 C 
ATOM     99  O   UNL A   1      33.464  20.356  26.626  1.00  0.00    -0.269 OA
ATOM    100  N   UNL A   1      33.206  18.754  24.990  1.00  0.00    -0.339 N 
ATOM    101  C   UNL A   1      33.641  18.305  23.673  1.00  0.00     0.120 C 
ATOM    102  C   UNL A   1      33.110  17.603  25.873  1.00  0.00     0.120 C 
ATOM    103  C   UNL A   1      33.048  16.916  23.544  1.00  0.00     0.023 C 
ATOM    104  C   UNL A   1      33.195  16.371  24.960  1.00  0.00     0.023 C 
ENDBRANCH  97  98
ENDBRANCH  90  92
ENDBRANCH  82  88
ENDBRANCH  77  80
ENDBRANCH  75  76
ENDBRANCH  74  75
ENDBRANCH  73  74
ENDBRANCH   1  73
TORSDOF 19
ENDMDL
