MODEL 1
REMARK VINA RESULT:     -11.2      0.000      0.000
REMARK SMILES CC(C)c1nc(N(C)CCc2ccccn2)sc1C(=O)NCCCCCCNC(=O)c1ccc(-c2c3nc(c(-c4cccc(S(=O)(=O)[O-])c4F)c4ccc([nH]4)c(-c4cccc(S(=O)(=O)[O-])c4F)c4nc(c(-c5cccc(S(=O)(=O)[O-])c5F)c5ccc2[nH]5)C=C4)C=C3)cc1
REMARK SMILES IDX 24 1 23 2 22 3 21 4 19 5 20 6 18 8 4 9 5 10 6 11 17 12 2 13
REMARK SMILES IDX 1 14 3 15 7 16 8 17 9 18 10 19 11 20 12 21 16 22 13 23 15 24
REMARK SMILES IDX 14 25 25 26 26 27 27 28 28 29 29 30 30 32 31 33 32 34 93 35
REMARK SMILES IDX 33 36 92 37 34 38 35 39 36 40 86 41 37 42 91 43 85 44 87 45
REMARK SMILES IDX 38 46 90 47 84 48 83 49 39 51 71 52 51 53 70 54 52 55 55 56
REMARK SMILES IDX 69 57 88 58 53 59 54 60 68 62 89 63 56 64 40 65 41 66 49 67
REMARK SMILES IDX 42 68 44 69 50 70 43 71 45 72 46 73 47 74 48 75 72 76 73 77
REMARK SMILES IDX 81 78 74 79 76 80 82 81 75 82 77 83 78 84 79 85 80 86 57 87
REMARK SMILES IDX 58 88 66 89 59 90 61 91 67 92 60 93 62 94 63 95 64 96 65 97
REMARK H PARENT 21 7 28 31 87 50 55 61
REMARK Flexibility Score: inf
ROOT
ATOM      1  C   UNL A   1      37.037  22.180  25.246  1.00  0.00     0.002 C 
ENDROOT
BRANCH   1   2
ATOM      2  C   UNL A   1      35.843  22.759  26.005  1.00  0.00     0.021 C 
BRANCH   2   3
ATOM      3  C   UNL A   1      34.771  21.729  26.385  1.00  0.00     0.116 C 
BRANCH   3   4
ATOM      4  N   UNL A   1      33.622  22.365  26.995  1.00  0.00    -0.351 N 
ATOM      5  C   UNL A   1      32.639  23.264  26.691  1.00  0.00     0.263 C 
ATOM      6  O   UNL A   1      31.823  23.325  27.627  1.00  0.00    -0.268 OA
ATOM      7  H   UNL A   1      33.515  22.050  27.921  1.00  0.00     0.163 HD
BRANCH   5   8
ATOM      8  C   UNL A   1      32.487  24.091  25.495  1.00  0.00     0.117 A 
ATOM      9  C   UNL A   1      32.735  24.049  24.125  1.00  0.00     0.069 A 
ATOM     10  N   UNL A   1      32.483  25.247  23.460  1.00  0.00    -0.224 NA
ATOM     11  C   UNL A   1      32.090  26.217  24.244  1.00  0.00     0.186 A 
ATOM     12  S   UNL A   1      31.833  25.683  25.844  1.00  0.00    -0.091 S 
BRANCH   9  13
ATOM     13  C   UNL A   1      33.288  22.963  23.239  1.00  0.00     0.034 C 
ATOM     14  C   UNL A   1      32.547  21.620  23.354  1.00  0.00     0.014 C 
ATOM     15  C   UNL A   1      33.271  23.396  21.777  1.00  0.00     0.014 C 
ENDBRANCH   9  13
BRANCH  11  16
ATOM     16  N   UNL A   1      31.929  27.501  23.806  1.00  0.00    -0.351 N 
ATOM     17  C   UNL A   1      32.569  28.652  24.413  1.00  0.00     0.146 C 
BRANCH  16  18
ATOM     18  C   UNL A   1      31.055  27.739  22.647  1.00  0.00     0.125 C 
BRANCH  18  19
ATOM     19  C   UNL A   1      29.610  28.068  23.040  1.00  0.00     0.077 C 
BRANCH  19  20
ATOM     20  C   UNL A   1      29.179  29.484  22.756  1.00  0.00     0.042 A 
ATOM     21  C   UNL A   1      29.287  30.471  23.734  1.00  0.00     0.024 A 
ATOM     22  N   UNL A   1      28.654  29.731  21.531  1.00  0.00    -0.261 NA
ATOM     23  C   UNL A   1      28.843  31.758  23.446  1.00  0.00     0.003 A 
ATOM     24  C   UNL A   1      28.245  30.992  21.273  1.00  0.00     0.111 A 
ATOM     25  C   UNL A   1      28.306  32.026  22.194  1.00  0.00     0.020 A 
ENDBRANCH  19  20
ENDBRANCH  18  19
ENDBRANCH  16  18
ENDBRANCH  11  16
ENDBRANCH   5   8
ENDBRANCH   3   4
ENDBRANCH   2   3
ENDBRANCH   1   2
BRANCH   1  26
ATOM     26  C   UNL A   1      36.821  20.786  24.651  1.00  0.00     0.002 C 
BRANCH  26  27
ATOM     27  C   UNL A   1      37.945  19.772  24.886  1.00  0.00     0.021 C 
BRANCH  27  28
ATOM     28  C   UNL A   1      38.846  20.047  26.091  1.00  0.00     0.116 C 
BRANCH  28  29
ATOM     29  N   UNL A   1      40.026  19.199  26.102  1.00  0.00    -0.352 N 
ATOM     30  C   UNL A   1      41.359  19.519  26.139  1.00  0.00     0.251 C 
ATOM     31  H   UNL A   1      39.837  18.233  26.081  1.00  0.00     0.163 HD
ATOM     32  O   UNL A   1      42.192  18.644  25.908  1.00  0.00    -0.269 OA
BRANCH  30  33
ATOM     33  C   UNL A   1      41.809  20.894  26.450  1.00  0.00     0.039 A 
ATOM     34  C   UNL A   1      41.881  21.829  25.413  1.00  0.00     0.014 A 
ATOM     35  C   UNL A   1      42.227  21.248  27.736  1.00  0.00     0.014 A 
ATOM     36  C   UNL A   1      42.327  23.128  25.673  1.00  0.00     0.010 A 
ATOM     37  C   UNL A   1      42.613  22.560  28.006  1.00  0.00     0.010 A 
ATOM     38  C   UNL A   1      42.676  23.512  26.977  1.00  0.00    -0.014 A 
BRANCH  38  39
ATOM     39  C   UNL A   1      43.105  24.901  27.285  1.00  0.00     0.031 A 
ATOM     40  C   UNL A   1      42.154  25.863  27.945  1.00  0.00     0.074 A 
ATOM     41  C   UNL A   1      44.323  25.323  26.890  1.00  0.00     0.049 A 
ATOM     42  N   UNL A   1      42.326  27.129  28.229  1.00  0.00    -0.248 NA
ATOM     43  C   UNL A   1      40.827  25.343  28.312  1.00  0.00     0.031 C 
ATOM     44  C   UNL A   1      45.307  24.508  26.175  1.00  0.00     0.029 A 
ATOM     45  N   UNL A   1      44.927  26.550  27.005  1.00  0.00    -0.354 N 
ATOM     46  C   UNL A   1      41.122  27.566  28.770  1.00  0.00     0.074 A 
ATOM     47  C   UNL A   1      40.218  26.436  28.752  1.00  0.00     0.031 C 
ATOM     48  C   UNL A   1      46.389  25.258  25.911  1.00  0.00     0.029 A 
ATOM     49  C   UNL A   1      46.168  26.610  26.413  1.00  0.00     0.049 A 
ATOM     50  H   UNL A   1      44.513  27.314  27.465  1.00  0.00     0.167 HD
ATOM     51  C   UNL A   1      40.807  28.787  29.262  1.00  0.00     0.034 A 
ATOM     52  C   UNL A   1      47.028  27.639  26.285  1.00  0.00     0.034 A 
ATOM     53  C   UNL A   1      41.725  29.894  29.327  1.00  0.00     0.049 A 
ATOM     54  C   UNL A   1      46.672  28.970  26.888  1.00  0.00     0.074 A 
ATOM     55  C   UNL A   1      41.529  31.142  29.891  1.00  0.00     0.029 A 
ATOM     56  N   UNL A   1      43.011  29.886  28.810  1.00  0.00    -0.354 N 
ATOM     57  N   UNL A   1      45.589  29.318  27.540  1.00  0.00    -0.248 NA
ATOM     58  C   UNL A   1      47.672  30.043  26.773  1.00  0.00     0.031 C 
ATOM     59  C   UNL A   1      42.693  31.894  29.703  1.00  0.00     0.029 A 
ATOM     60  C   UNL A   1      43.620  31.107  29.037  1.00  0.00     0.049 A 
ATOM     61  H   UNL A   1      43.429  29.123  28.349  1.00  0.00     0.167 HD
ATOM     62  C   UNL A   1      45.792  30.632  27.945  1.00  0.00     0.074 A 
ATOM     63  C   UNL A   1      47.110  31.013  27.481  1.00  0.00     0.031 C 
ATOM     64  C   UNL A   1      44.956  31.454  28.625  1.00  0.00     0.034 A 
BRANCH  51  65
ATOM     65  C   UNL A   1      39.426  28.980  29.833  1.00  0.00     0.023 A 
ATOM     66  C   UNL A   1      39.157  28.557  31.151  1.00  0.00     0.012 A 
ATOM     67  C   UNL A   1      38.418  29.635  29.099  1.00  0.00     0.148 A 
ATOM     68  C   UNL A   1      37.899  28.755  31.719  1.00  0.00     0.002 A 
ATOM     69  C   UNL A   1      37.178  29.865  29.687  1.00  0.00     0.091 A 
ATOM     70  F   UNL A   1      38.684  30.012  27.840  1.00  0.00    -0.205 F 
ATOM     71  C   UNL A   1      36.915  29.417  30.991  1.00  0.00     0.022 A 
BRANCH  69  72
ATOM     72  S   UNL A   1      35.870  30.778  28.858  1.00  0.00     0.127 S 
ATOM     73  O   UNL A   1      35.162  31.372  29.994  1.00  0.00    -0.237 OA
ATOM     74  O   UNL A   1      36.628  31.735  28.048  1.00  0.00    -0.237 OA
ATOM     75  O   UNL A   1      35.118  29.798  28.094  1.00  0.00    -0.744 OA
ENDBRANCH  69  72
ENDBRANCH  51  65
BRANCH  52  76
ATOM     76  C   UNL A   1      48.345  27.427  25.619  1.00  0.00     0.023 A 
ATOM     77  C   UNL A   1      49.458  27.053  26.397  1.00  0.00     0.012 A 
ATOM     78  C   UNL A   1      48.495  27.558  24.226  1.00  0.00     0.148 A 
ATOM     79  C   UNL A   1      50.703  26.843  25.805  1.00  0.00     0.002 A 
ATOM     80  C   UNL A   1      49.726  27.295  23.634  1.00  0.00     0.091 A 
ATOM     81  F   UNL A   1      47.429  27.930  23.502  1.00  0.00    -0.205 F 
ATOM     82  C   UNL A   1      50.834  26.953  24.423  1.00  0.00     0.022 A 
BRANCH  80  83
ATOM     83  S   UNL A   1      49.948  27.279  21.851  1.00  0.00     0.127 S 
ATOM     84  O   UNL A   1      49.764  28.688  21.515  1.00  0.00    -0.237 OA
ATOM     85  O   UNL A   1      51.320  26.788  21.719  1.00  0.00    -0.237 OA
ATOM     86  O   UNL A   1      48.936  26.363  21.343  1.00  0.00    -0.744 OA
ENDBRANCH  80  83
ENDBRANCH  52  76
BRANCH  64  87
ATOM     87  C   UNL A   1      45.446  32.841  28.946  1.00  0.00     0.023 A 
ATOM     88  C   UNL A   1      46.254  33.052  30.079  1.00  0.00     0.012 A 
ATOM     89  C   UNL A   1      45.170  33.919  28.082  1.00  0.00     0.148 A 
ATOM     90  C   UNL A   1      46.760  34.319  30.364  1.00  0.00     0.002 A 
ATOM     91  C   UNL A   1      45.715  35.170  28.346  1.00  0.00     0.091 A 
ATOM     92  F   UNL A   1      44.381  33.703  27.020  1.00  0.00    -0.205 F 
ATOM     93  C   UNL A   1      46.501  35.375  29.491  1.00  0.00     0.022 A 
BRANCH  91  94
ATOM     94  S   UNL A   1      45.511  36.562  27.227  1.00  0.00     0.127 S 
ATOM     95  O   UNL A   1      46.339  36.156  26.093  1.00  0.00    -0.237 OA
ATOM     96  O   UNL A   1      44.071  36.545  26.967  1.00  0.00    -0.237 OA
ATOM     97  O   UNL A   1      45.976  37.733  27.958  1.00  0.00    -0.744 OA
ENDBRANCH  91  94
ENDBRANCH  64  87
ENDBRANCH  38  39
ENDBRANCH  30  33
ENDBRANCH  28  29
ENDBRANCH  27  28
ENDBRANCH  26  27
ENDBRANCH   1  26
TORSDOF 21
ENDMDL
MODEL 2
REMARK VINA RESULT:     -11.1      1.228      7.411
REMARK SMILES CC(C)c1nc(N(C)CCc2ccccn2)sc1C(=O)NCCCCCCNC(=O)c1ccc(-c2c3nc(c(-c4cccc(S(=O)(=O)[O-])c4F)c4ccc([nH]4)c(-c4cccc(S(=O)(=O)[O-])c4F)c4nc(c(-c5cccc(S(=O)(=O)[O-])c5F)c5ccc2[nH]5)C=C4)C=C3)cc1
REMARK SMILES IDX 24 1 23 2 22 3 21 4 19 5 20 6 18 8 4 9 5 10 6 11 17 12 2 13
REMARK SMILES IDX 1 14 3 15 7 16 8 17 9 18 10 19 11 20 12 21 16 22 13 23 15 24
REMARK SMILES IDX 14 25 25 26 26 27 27 28 28 29 29 30 30 32 31 33 32 34 93 35
REMARK SMILES IDX 33 36 92 37 34 38 35 39 36 40 86 41 37 42 91 43 85 44 87 45
REMARK SMILES IDX 38 46 90 47 84 48 83 49 39 51 71 52 51 53 70 54 52 55 55 56
REMARK SMILES IDX 69 57 88 58 53 59 54 60 68 62 89 63 56 64 40 65 41 66 49 67
REMARK SMILES IDX 42 68 44 69 50 70 43 71 45 72 46 73 47 74 48 75 72 76 73 77
REMARK SMILES IDX 81 78 74 79 76 80 82 81 75 82 77 83 78 84 79 85 80 86 57 87
REMARK SMILES IDX 58 88 66 89 59 90 61 91 67 92 60 93 62 94 63 95 64 96 65 97
REMARK H PARENT 21 7 28 31 87 50 55 61
REMARK Flexibility Score: inf
ROOT
ATOM      1  C   UNL A   1      35.693  21.724  25.994  1.00  0.00     0.002 C 
ENDROOT
BRANCH   1   2
ATOM      2  C   UNL A   1      34.333  21.466  26.643  1.00  0.00     0.021 C 
BRANCH   2   3
ATOM      3  C   UNL A   1      33.905  22.526  27.666  1.00  0.00     0.116 C 
BRANCH   3   4
ATOM      4  N   UNL A   1      32.470  22.724  27.652  1.00  0.00    -0.351 N 
ATOM      5  C   UNL A   1      31.491  23.230  26.846  1.00  0.00     0.263 C 
ATOM      6  O   UNL A   1      30.376  23.003  27.346  1.00  0.00    -0.268 OA
ATOM      7  H   UNL A   1      32.076  22.387  28.489  1.00  0.00     0.163 HD
BRANCH   5   8
ATOM      8  C   UNL A   1      31.623  23.959  25.585  1.00  0.00     0.117 A 
ATOM      9  C   UNL A   1      32.220  23.833  24.332  1.00  0.00     0.069 A 
ATOM     10  N   UNL A   1      32.104  24.964  23.527  1.00  0.00    -0.224 NA
ATOM     11  C   UNL A   1      31.487  25.964  24.100  1.00  0.00     0.186 A 
ATOM     12  S   UNL A   1      30.844  25.532  25.621  1.00  0.00    -0.091 S 
BRANCH   9  13
ATOM     13  C   UNL A   1      33.023  22.720  23.712  1.00  0.00     0.034 C 
ATOM     14  C   UNL A   1      32.181  21.698  22.928  1.00  0.00     0.014 C 
ATOM     15  C   UNL A   1      34.090  23.278  22.777  1.00  0.00     0.014 C 
ENDBRANCH   9  13
BRANCH  11  16
ATOM     16  N   UNL A   1      31.397  27.202  23.529  1.00  0.00    -0.351 N 
ATOM     17  C   UNL A   1      32.231  27.652  22.432  1.00  0.00     0.146 C 
BRANCH  16  18
ATOM     18  C   UNL A   1      30.395  28.142  24.055  1.00  0.00     0.125 C 
BRANCH  18  19
ATOM     19  C   UNL A   1      29.190  28.319  23.123  1.00  0.00     0.077 C 
BRANCH  19  20
ATOM     20  C   UNL A   1      28.929  29.737  22.682  1.00  0.00     0.042 A 
ATOM     21  C   UNL A   1      28.945  30.783  23.603  1.00  0.00     0.024 A 
ATOM     22  N   UNL A   1      28.646  29.928  21.371  1.00  0.00    -0.261 NA
ATOM     23  C   UNL A   1      28.662  32.072  23.163  1.00  0.00     0.003 A 
ATOM     24  C   UNL A   1      28.389  31.192  20.969  1.00  0.00     0.111 A 
ATOM     25  C   UNL A   1      28.373  32.284  21.822  1.00  0.00     0.020 A 
ENDBRANCH  19  20
ENDBRANCH  18  19
ENDBRANCH  16  18
ENDBRANCH  11  16
ENDBRANCH   5   8
ENDBRANCH   3   4
ENDBRANCH   2   3
ENDBRANCH   1   2
BRANCH   1  26
ATOM     26  C   UNL A   1      36.055  20.789  24.838  1.00  0.00     0.002 C 
BRANCH  26  27
ATOM     27  C   UNL A   1      37.369  20.014  24.983  1.00  0.00     0.021 C 
BRANCH  27  28
ATOM     28  C   UNL A   1      38.515  20.772  25.653  1.00  0.00     0.116 C 
BRANCH  28  29
ATOM     29  N   UNL A   1      39.651  19.912  25.942  1.00  0.00    -0.352 N 
ATOM     30  C   UNL A   1      40.944  20.218  26.276  1.00  0.00     0.251 C 
ATOM     31  H   UNL A   1      39.458  18.948  25.890  1.00  0.00     0.163 HD
ATOM     32  O   UNL A   1      41.797  19.331  26.251  1.00  0.00    -0.269 OA
BRANCH  30  33
ATOM     33  C   UNL A   1      41.330  21.593  26.665  1.00  0.00     0.039 A 
ATOM     34  C   UNL A   1      41.655  22.510  25.659  1.00  0.00     0.014 A 
ATOM     35  C   UNL A   1      41.445  21.964  28.007  1.00  0.00     0.014 A 
ATOM     36  C   UNL A   1      42.048  23.808  25.998  1.00  0.00     0.010 A 
ATOM     37  C   UNL A   1      41.778  23.276  28.341  1.00  0.00     0.010 A 
ATOM     38  C   UNL A   1      42.092  24.209  27.342  1.00  0.00    -0.014 A 
BRANCH  38  39
ATOM     39  C   UNL A   1      42.458  25.599  27.722  1.00  0.00     0.031 A 
ATOM     40  C   UNL A   1      43.891  26.055  27.653  1.00  0.00     0.074 A 
ATOM     41  C   UNL A   1      41.512  26.424  28.212  1.00  0.00     0.049 A 
ATOM     42  N   UNL A   1      44.409  27.203  28.007  1.00  0.00    -0.248 NA
ATOM     43  C   UNL A   1      44.876  25.086  27.145  1.00  0.00     0.031 C 
ATOM     44  C   UNL A   1      40.102  26.075  28.398  1.00  0.00     0.029 A 
ATOM     45  N   UNL A   1      41.600  27.713  28.675  1.00  0.00    -0.354 N 
ATOM     46  C   UNL A   1      45.779  27.084  27.802  1.00  0.00     0.074 A 
ATOM     47  C   UNL A   1      46.016  25.742  27.316  1.00  0.00     0.031 C 
ATOM     48  C   UNL A   1      39.458  27.122  28.939  1.00  0.00     0.029 A 
ATOM     49  C   UNL A   1      40.410  28.205  29.162  1.00  0.00     0.049 A 
ATOM     50  H   UNL A   1      42.433  28.236  28.660  1.00  0.00     0.167 HD
ATOM     51  C   UNL A   1      46.748  28.014  27.975  1.00  0.00     0.034 A 
ATOM     52  C   UNL A   1      40.121  29.393  29.730  1.00  0.00     0.034 A 
ATOM     53  C   UNL A   1      46.502  29.364  28.408  1.00  0.00     0.049 A 
ATOM     54  C   UNL A   1      41.206  30.426  29.860  1.00  0.00     0.074 A 
ATOM     55  C   UNL A   1      47.404  30.407  28.526  1.00  0.00     0.029 A 
ATOM     56  N   UNL A   1      45.266  29.859  28.795  1.00  0.00    -0.354 N 
ATOM     57  N   UNL A   1      42.467  30.347  29.509  1.00  0.00    -0.248 NA
ATOM     58  C   UNL A   1      40.823  31.726  30.431  1.00  0.00     0.031 C 
ATOM     59  C   UNL A   1      46.714  31.530  28.998  1.00  0.00     0.029 A 
ATOM     60  C   UNL A   1      45.381  31.189  29.157  1.00  0.00     0.049 A 
ATOM     61  H   UNL A   1      44.430  29.339  28.810  1.00  0.00     0.167 HD
ATOM     62  C   UNL A   1      43.017  31.595  29.779  1.00  0.00     0.074 A 
ATOM     63  C   UNL A   1      41.948  32.418  30.306  1.00  0.00     0.031 C 
ATOM     64  C   UNL A   1      44.296  32.016  29.620  1.00  0.00     0.034 A 
BRANCH  51  65
ATOM     65  C   UNL A   1      48.163  27.627  27.634  1.00  0.00     0.023 A 
ATOM     66  C   UNL A   1      48.985  27.063  28.631  1.00  0.00     0.012 A 
ATOM     67  C   UNL A   1      48.659  27.756  26.322  1.00  0.00     0.148 A 
ATOM     68  C   UNL A   1      50.288  26.662  28.336  1.00  0.00     0.002 A 
ATOM     69  C   UNL A   1      49.944  27.316  26.026  1.00  0.00     0.091 A 
ATOM     70  F   UNL A   1      47.870  28.313  25.391  1.00  0.00    -0.205 F 
ATOM     71  C   UNL A   1      50.762  26.778  27.033  1.00  0.00     0.022 A 
BRANCH  69  72
ATOM     72  S   UNL A   1      50.619  27.353  24.360  1.00  0.00     0.127 S 
ATOM     73  O   UNL A   1      50.961  28.769  24.214  1.00  0.00    -0.237 OA
ATOM     74  O   UNL A   1      51.774  26.459  24.476  1.00  0.00    -0.237 OA
ATOM     75  O   UNL A   1      49.564  26.869  23.488  1.00  0.00    -0.744 OA
ENDBRANCH  69  72
ENDBRANCH  51  65
BRANCH  52  76
ATOM     76  C   UNL A   1      38.722  29.694  30.147  1.00  0.00     0.023 A 
ATOM     77  C   UNL A   1      38.302  29.351  31.447  1.00  0.00     0.012 A 
ATOM     78  C   UNL A   1      37.819  30.342  29.283  1.00  0.00     0.148 A 
ATOM     79  C   UNL A   1      37.001  29.622  31.870  1.00  0.00     0.002 A 
ATOM     80  C   UNL A   1      36.540  30.658  29.729  1.00  0.00     0.091 A 
ATOM     81  F   UNL A   1      38.231  30.646  28.044  1.00  0.00    -0.205 F 
ATOM     82  C   UNL A   1      36.124  30.285  31.015  1.00  0.00     0.022 A 
BRANCH  80  83
ATOM     83  S   UNL A   1      35.395  31.630  28.743  1.00  0.00     0.127 S 
ATOM     84  O   UNL A   1      34.753  30.601  27.929  1.00  0.00    -0.237 OA
ATOM     85  O   UNL A   1      34.540  32.228  29.769  1.00  0.00    -0.237 OA
ATOM     86  O   UNL A   1      36.222  32.590  28.023  1.00  0.00    -0.744 OA
ENDBRANCH  80  83
ENDBRANCH  52  76
BRANCH  64  87
ATOM     87  C   UNL A   1      44.614  33.442  29.985  1.00  0.00     0.023 A 
ATOM     88  C   UNL A   1      45.120  33.739  31.265  1.00  0.00     0.012 A 
ATOM     89  C   UNL A   1      44.487  34.473  29.033  1.00  0.00     0.148 A 
ATOM     90  C   UNL A   1      45.470  35.046  31.603  1.00  0.00     0.002 A 
ATOM     91  C   UNL A   1      44.880  35.765  29.362  1.00  0.00     0.091 A 
ATOM     92  F   UNL A   1      43.983  34.173  27.828  1.00  0.00    -0.205 F 
ATOM     93  C   UNL A   1      45.361  36.056  30.648  1.00  0.00     0.022 A 
BRANCH  91  94
ATOM     94  S   UNL A   1      44.863  37.107  28.166  1.00  0.00     0.127 S 
ATOM     95  O   UNL A   1      45.758  36.594  27.130  1.00  0.00    -0.237 OA
ATOM     96  O   UNL A   1      43.453  37.163  27.780  1.00  0.00    -0.237 OA
ATOM     97  O   UNL A   1      45.339  38.284  28.881  1.00  0.00    -0.744 OA
ENDBRANCH  91  94
ENDBRANCH  64  87
ENDBRANCH  38  39
ENDBRANCH  30  33
ENDBRANCH  28  29
ENDBRANCH  27  28
ENDBRANCH  26  27
ENDBRANCH   1  26
TORSDOF 21
ENDMDL
MODEL 3
REMARK VINA RESULT:     -10.6      5.494      9.705
REMARK SMILES CC(C)c1nc(N(C)CCc2ccccn2)sc1C(=O)NCCCCCCNC(=O)c1ccc(-c2c3nc(c(-c4cccc(S(=O)(=O)[O-])c4F)c4ccc([nH]4)c(-c4cccc(S(=O)(=O)[O-])c4F)c4nc(c(-c5cccc(S(=O)(=O)[O-])c5F)c5ccc2[nH]5)C=C4)C=C3)cc1
REMARK SMILES IDX 24 1 23 2 22 3 21 4 19 5 20 6 18 8 4 9 5 10 6 11 17 12 2 13
REMARK SMILES IDX 1 14 3 15 7 16 8 17 9 18 10 19 11 20 12 21 16 22 13 23 15 24
REMARK SMILES IDX 14 25 25 26 26 27 27 28 28 29 29 30 30 32 31 33 32 34 93 35
REMARK SMILES IDX 33 36 92 37 34 38 35 39 36 40 86 41 37 42 91 43 85 44 87 45
REMARK SMILES IDX 38 46 90 47 84 48 83 49 39 51 71 52 51 53 70 54 52 55 55 56
REMARK SMILES IDX 69 57 88 58 53 59 54 60 68 62 89 63 56 64 40 65 41 66 49 67
REMARK SMILES IDX 42 68 44 69 50 70 43 71 45 72 46 73 47 74 48 75 72 76 73 77
REMARK SMILES IDX 81 78 74 79 76 80 82 81 75 82 77 83 78 84 79 85 80 86 57 87
REMARK SMILES IDX 58 88 66 89 59 90 61 91 67 92 60 93 62 94 63 95 64 96 65 97
REMARK H PARENT 21 7 28 31 87 50 55 61
REMARK Flexibility Score: inf
ROOT
ATOM      1  C   UNL A   1      31.543  28.878  24.693  1.00  0.00     0.002 C 
ENDROOT
BRANCH   1   2
ATOM      2  C   UNL A   1      30.840  29.366  23.427  1.00  0.00     0.021 C 
BRANCH   2   3
ATOM      3  C   UNL A   1      30.597  28.278  22.374  1.00  0.00     0.116 C 
BRANCH   3   4
ATOM      4  N   UNL A   1      31.840  27.662  21.956  1.00  0.00    -0.351 N 
ATOM      5  C   UNL A   1      32.586  26.543  22.194  1.00  0.00     0.263 C 
ATOM      6  O   UNL A   1      33.548  26.505  21.408  1.00  0.00    -0.268 OA
ATOM      7  H   UNL A   1      32.289  28.230  21.289  1.00  0.00     0.163 HD
BRANCH   5   8
ATOM      8  C   UNL A   1      32.387  25.503  23.202  1.00  0.00     0.117 A 
ATOM      9  C   UNL A   1      31.553  25.196  24.275  1.00  0.00     0.069 A 
ATOM     10  N   UNL A   1      31.934  24.063  24.990  1.00  0.00    -0.224 NA
ATOM     11  C   UNL A   1      33.031  23.502  24.554  1.00  0.00     0.186 A 
ATOM     12  S   UNL A   1      33.591  24.227  23.114  1.00  0.00    -0.091 S 
BRANCH   9  13
ATOM     13  C   UNL A   1      30.350  25.902  24.842  1.00  0.00     0.034 C 
ATOM     14  C   UNL A   1      29.110  25.863  23.932  1.00  0.00     0.014 C 
ATOM     15  C   UNL A   1      29.967  25.316  26.198  1.00  0.00     0.014 C 
ENDBRANCH   9  13
BRANCH  11  16
ATOM     16  N   UNL A   1      33.643  22.469  25.205  1.00  0.00    -0.351 N 
ATOM     17  C   UNL A   1      33.377  22.108  26.585  1.00  0.00     0.146 C 
BRANCH  16  18
ATOM     18  C   UNL A   1      34.632  21.667  24.468  1.00  0.00     0.125 C 
BRANCH  18  19
ATOM     19  C   UNL A   1      34.950  20.331  25.148  1.00  0.00     0.077 C 
BRANCH  19  20
ATOM     20  C   UNL A   1      34.296  19.126  24.522  1.00  0.00     0.042 A 
ATOM     21  C   UNL A   1      34.970  17.908  24.447  1.00  0.00     0.024 A 
ATOM     22  N   UNL A   1      33.053  19.299  24.011  1.00  0.00    -0.261 NA
ATOM     23  C   UNL A   1      34.347  16.829  23.828  1.00  0.00     0.003 A 
ATOM     24  C   UNL A   1      32.466  18.231  23.429  1.00  0.00     0.111 A 
ATOM     25  C   UNL A   1      33.072  16.992  23.302  1.00  0.00     0.020 A 
ENDBRANCH  19  20
ENDBRANCH  18  19
ENDBRANCH  16  18
ENDBRANCH  11  16
ENDBRANCH   5   8
ENDBRANCH   3   4
ENDBRANCH   2   3
ENDBRANCH   1   2
BRANCH   1  26
ATOM     26  C   UNL A   1      32.482  29.891  25.354  1.00  0.00     0.002 C 
BRANCH  26  27
ATOM     27  C   UNL A   1      31.811  30.991  26.182  1.00  0.00     0.021 C 
BRANCH  27  28
ATOM     28  C   UNL A   1      32.582  31.453  27.420  1.00  0.00     0.116 C 
BRANCH  28  29
ATOM     29  N   UNL A   1      32.914  32.867  27.368  1.00  0.00    -0.352 N 
ATOM     30  C   UNL A   1      33.928  33.572  27.961  1.00  0.00     0.251 C 
ATOM     31  H   UNL A   1      32.308  33.410  26.813  1.00  0.00     0.163 HD
ATOM     32  O   UNL A   1      33.882  34.801  27.966  1.00  0.00    -0.269 OA
BRANCH  30  33
ATOM     33  C   UNL A   1      35.074  32.880  28.594  1.00  0.00     0.039 A 
ATOM     34  C   UNL A   1      34.822  31.960  29.617  1.00  0.00     0.014 A 
ATOM     35  C   UNL A   1      36.391  33.182  28.239  1.00  0.00     0.014 A 
ATOM     36  C   UNL A   1      35.886  31.311  30.250  1.00  0.00     0.010 A 
ATOM     37  C   UNL A   1      37.448  32.490  28.829  1.00  0.00     0.010 A 
ATOM     38  C   UNL A   1      37.208  31.554  29.847  1.00  0.00    -0.014 A 
BRANCH  38  39
ATOM     39  C   UNL A   1      38.350  30.838  30.472  1.00  0.00     0.031 A 
ATOM     40  C   UNL A   1      38.815  31.204  31.856  1.00  0.00     0.074 A 
ATOM     41  C   UNL A   1      39.026  29.916  29.757  1.00  0.00     0.049 A 
ATOM     42  N   UNL A   1      39.832  30.739  32.534  1.00  0.00    -0.248 NA
ATOM     43  C   UNL A   1      38.053  32.248  32.560  1.00  0.00     0.031 C 
ATOM     44  C   UNL A   1      38.721  29.525  28.379  1.00  0.00     0.029 A 
ATOM     45  N   UNL A   1      40.129  29.164  30.079  1.00  0.00    -0.354 N 
ATOM     46  C   UNL A   1      39.856  31.457  33.725  1.00  0.00     0.074 A 
ATOM     47  C   UNL A   1      38.767  32.407  33.666  1.00  0.00     0.031 C 
ATOM     48  C   UNL A   1      39.616  28.611  27.973  1.00  0.00     0.029 A 
ATOM     49  C   UNL A   1      40.572  28.368  29.048  1.00  0.00     0.049 A 
ATOM     50  H   UNL A   1      40.561  29.191  30.963  1.00  0.00     0.167 HD
ATOM     51  C   UNL A   1      40.691  31.319  34.783  1.00  0.00     0.034 A 
ATOM     52  C   UNL A   1      41.634  27.540  28.975  1.00  0.00     0.034 A 
ATOM     53  C   UNL A   1      41.740  30.337  34.860  1.00  0.00     0.049 A 
ATOM     54  C   UNL A   1      42.512  27.368  30.184  1.00  0.00     0.074 A 
ATOM     55  C   UNL A   1      42.580  30.057  35.924  1.00  0.00     0.029 A 
ATOM     56  N   UNL A   1      42.095  29.476  33.834  1.00  0.00    -0.354 N 
ATOM     57  N   UNL A   1      42.420  27.940  31.360  1.00  0.00    -0.248 NA
ATOM     58  C   UNL A   1      43.620  26.407  30.071  1.00  0.00     0.031 C 
ATOM     59  C   UNL A   1      43.452  29.035  35.536  1.00  0.00     0.029 A 
ATOM     60  C   UNL A   1      43.143  28.667  34.236  1.00  0.00     0.049 A 
ATOM     61  H   UNL A   1      41.665  29.445  32.949  1.00  0.00     0.167 HD
ATOM     62  C   UNL A   1      43.429  27.383  32.136  1.00  0.00     0.074 A 
ATOM     63  C   UNL A   1      44.110  26.414  31.303  1.00  0.00     0.031 C 
ATOM     64  C   UNL A   1      43.772  27.661  33.418  1.00  0.00     0.034 A 
BRANCH  51  65
ATOM     65  C   UNL A   1      40.466  32.210  35.976  1.00  0.00     0.023 A 
ATOM     66  C   UNL A   1      41.314  33.318  36.182  1.00  0.00     0.012 A 
ATOM     67  C   UNL A   1      39.385  31.995  36.853  1.00  0.00     0.148 A 
ATOM     68  C   UNL A   1      41.108  34.181  37.258  1.00  0.00     0.002 A 
ATOM     69  C   UNL A   1      39.161  32.884  37.900  1.00  0.00     0.091 A 
ATOM     70  F   UNL A   1      38.601  30.925  36.655  1.00  0.00    -0.205 F 
ATOM     71  C   UNL A   1      40.027  33.969  38.109  1.00  0.00     0.022 A 
BRANCH  69  72
ATOM     72  S   UNL A   1      37.751  32.741  39.005  1.00  0.00     0.127 S 
ATOM     73  O   UNL A   1      37.959  33.883  39.897  1.00  0.00    -0.237 OA
ATOM     74  O   UNL A   1      36.621  32.889  38.084  1.00  0.00    -0.237 OA
ATOM     75  O   UNL A   1      37.858  31.433  39.627  1.00  0.00    -0.744 OA
ENDBRANCH  69  72
ENDBRANCH  51  65
BRANCH  52  76
ATOM     76  C   UNL A   1      41.876  26.754  27.732  1.00  0.00     0.023 A 
ATOM     77  C   UNL A   1      42.467  27.386  26.621  1.00  0.00     0.012 A 
ATOM     78  C   UNL A   1      41.558  25.385  27.654  1.00  0.00     0.148 A 
ATOM     79  C   UNL A   1      42.711  26.678  25.444  1.00  0.00     0.002 A 
ATOM     80  C   UNL A   1      41.853  24.671  26.497  1.00  0.00     0.091 A 
ATOM     81  F   UNL A   1      40.982  24.803  28.716  1.00  0.00    -0.205 F 
ATOM     82  C   UNL A   1      42.414  25.319  25.387  1.00  0.00     0.022 A 
BRANCH  80  83
ATOM     83  S   UNL A   1      41.631  22.891  26.387  1.00  0.00     0.127 S 
ATOM     84  O   UNL A   1      42.324  22.581  25.140  1.00  0.00    -0.237 OA
ATOM     85  O   UNL A   1      42.304  22.424  27.600  1.00  0.00    -0.237 OA
ATOM     86  O   UNL A   1      40.189  22.681  26.387  1.00  0.00    -0.744 OA
ENDBRANCH  80  83
ENDBRANCH  52  76
BRANCH  64  87
ATOM     87  C   UNL A   1      44.913  26.886  34.022  1.00  0.00     0.023 A 
ATOM     88  C   UNL A   1      46.226  27.386  33.924  1.00  0.00     0.012 A 
ATOM     89  C   UNL A   1      44.674  25.707  34.754  1.00  0.00     0.148 A 
ATOM     90  C   UNL A   1      47.288  26.709  34.521  1.00  0.00     0.002 A 
ATOM     91  C   UNL A   1      45.731  25.062  35.386  1.00  0.00     0.091 A 
ATOM     92  F   UNL A   1      43.420  25.236  34.818  1.00  0.00    -0.205 F 
ATOM     93  C   UNL A   1      47.039  25.556  35.262  1.00  0.00     0.022 A 
BRANCH  91  94
ATOM     94  S   UNL A   1      45.488  23.625  36.436  1.00  0.00     0.127 S 
ATOM     95  O   UNL A   1      46.866  23.218  36.707  1.00  0.00    -0.237 OA
ATOM     96  O   UNL A   1      44.783  24.194  37.586  1.00  0.00    -0.237 OA
ATOM     97  O   UNL A   1      44.699  22.685  35.651  1.00  0.00    -0.744 OA
ENDBRANCH  91  94
ENDBRANCH  64  87
ENDBRANCH  38  39
ENDBRANCH  30  33
ENDBRANCH  28  29
ENDBRANCH  27  28
ENDBRANCH  26  27
ENDBRANCH   1  26
TORSDOF 21
ENDMDL
