MODEL 1
REMARK VINA RESULT:     -11.1      0.000      0.000
REMARK SMILES CCC(CC)(NC(=O)N[C@@H](C)[C@@H]1CCCO1)C(=O)NCCCCCCNC(=O)c1ccc(-c2c3nc(c(-c4cccc(S(=O)(=O)[O-])c4F)c4ccc([nH]4)c(-c4cccc(S(=O)(=O)[O-])c4F)c4nc(c(-c5cccc(S(=O)(=O)[O-])c5F)c5ccc2[nH]5)C=C4)C=C3)cc1
REMARK SMILES IDX 22 1 21 2 20 3 19 4 17 5 18 6 3 8 2 9 1 10 4 11 5 12 6 13
REMARK SMILES IDX 7 14 8 16 9 17 10 19 11 20 12 21 13 22 16 23 14 24 15 25
REMARK SMILES IDX 23 26 24 27 25 28 26 29 27 30 28 32 29 33 30 34 91 35 31 36
REMARK SMILES IDX 90 37 32 38 33 39 34 40 84 41 35 42 89 43 83 44 85 45 36 46
REMARK SMILES IDX 88 47 82 48 81 49 37 51 69 52 49 53 68 54 50 55 53 56 67 57
REMARK SMILES IDX 86 58 51 59 52 60 66 62 87 63 54 64 38 65 39 66 47 67 40 68
REMARK SMILES IDX 42 69 48 70 41 71 43 72 44 73 45 74 46 75 70 76 71 77 79 78
REMARK SMILES IDX 72 79 74 80 80 81 73 82 75 83 76 84 77 85 78 86 55 87 56 88
REMARK SMILES IDX 64 89 57 90 59 91 65 92 58 93 60 94 61 95 62 96 63 97
REMARK H PARENT 19 7 6 15 9 18 26 31 85 50 53 61
REMARK Flexibility Score: inf
ROOT
ATOM      1  C   UNL A   1      34.035  21.703  27.450  1.00  0.00     0.002 C 
ENDROOT
BRANCH   1   2
ATOM      2  C   UNL A   1      32.816  22.532  27.846  1.00  0.00     0.021 C 
BRANCH   2   3
ATOM      3  C   UNL A   1      31.580  22.550  26.936  1.00  0.00     0.116 C 
BRANCH   3   4
ATOM      4  N   UNL A   1      30.743  23.746  26.916  1.00  0.00    -0.354 N 
ATOM      5  C   UNL A   1      30.496  24.720  25.976  1.00  0.00     0.245 C 
ATOM      6  O   UNL A   1      29.541  25.470  26.207  1.00  0.00    -0.272 OA
ATOM      7  H   UNL A   1      30.249  23.886  27.755  1.00  0.00     0.163 HD
BRANCH   5   8
ATOM      8  C   UNL A   1      31.259  24.768  24.620  1.00  0.00     0.120 C 
BRANCH   8   9
ATOM      9  C   UNL A   1      30.909  25.911  23.623  1.00  0.00     0.035 C 
ATOM     10  C   UNL A   1      31.364  25.773  22.180  1.00  0.00     0.007 C 
ENDBRANCH   8   9
BRANCH   8  11
ATOM     11  C   UNL A   1      30.891  23.382  23.976  1.00  0.00     0.035 C 
ATOM     12  C   UNL A   1      32.029  22.487  23.508  1.00  0.00     0.007 C 
ENDBRANCH   8  11
BRANCH   8  13
ATOM     13  N   UNL A   1      32.697  24.896  24.917  1.00  0.00    -0.324 N 
ATOM     14  C   UNL A   1      33.487  25.899  25.327  1.00  0.00     0.315 C 
ATOM     15  H   UNL A   1      33.191  24.054  24.785  1.00  0.00     0.166 HD
ATOM     16  O   UNL A   1      34.706  25.704  25.259  1.00  0.00    -0.249 OA
ATOM     17  N   UNL A   1      33.104  27.066  25.856  1.00  0.00    -0.333 N 
ATOM     18  H   UNL A   1      33.881  27.546  26.223  1.00  0.00     0.165 HD
BRANCH  17  19
ATOM     19  C   UNL A   1      31.868  27.855  26.059  1.00  0.00     0.109 C 
ATOM     20  C   UNL A   1      31.608  28.160  27.534  1.00  0.00     0.034 C 
BRANCH  19  21
ATOM     21  C   UNL A   1      31.909  29.158  25.192  1.00  0.00     0.140 C 
ATOM     22  C   UNL A   1      30.879  29.311  24.061  1.00  0.00     0.036 C 
ATOM     23  O   UNL A   1      33.206  29.239  24.554  1.00  0.00    -0.376 OA
ATOM     24  C   UNL A   1      31.701  29.408  22.794  1.00  0.00     0.031 C 
ATOM     25  C   UNL A   1      33.037  28.837  23.195  1.00  0.00     0.160 C 
ENDBRANCH  19  21
ENDBRANCH  17  19
ENDBRANCH   8  13
ENDBRANCH   5   8
ENDBRANCH   3   4
ENDBRANCH   2   3
ENDBRANCH   1   2
BRANCH   1  26
ATOM     26  C   UNL A   1      35.080  22.395  26.581  1.00  0.00     0.002 C 
BRANCH  26  27
ATOM     27  C   UNL A   1      35.667  21.512  25.484  1.00  0.00     0.021 C 
BRANCH  27  28
ATOM     28  C   UNL A   1      37.102  21.851  25.102  1.00  0.00     0.116 C 
BRANCH  28  29
ATOM     29  N   UNL A   1      38.036  20.782  25.425  1.00  0.00    -0.352 N 
ATOM     30  C   UNL A   1      39.260  20.893  26.053  1.00  0.00     0.251 C 
ATOM     31  H   UNL A   1      37.763  19.873  25.166  1.00  0.00     0.163 HD
ATOM     32  O   UNL A   1      40.014  19.944  26.143  1.00  0.00    -0.269 OA
BRANCH  30  33
ATOM     33  C   UNL A   1      39.640  22.221  26.585  1.00  0.00     0.039 A 
ATOM     34  C   UNL A   1      40.665  22.304  27.529  1.00  0.00     0.014 A 
ATOM     35  C   UNL A   1      39.049  23.374  26.063  1.00  0.00     0.014 A 
ATOM     36  C   UNL A   1      41.150  23.560  27.899  1.00  0.00     0.010 A 
ATOM     37  C   UNL A   1      39.582  24.617  26.380  1.00  0.00     0.010 A 
ATOM     38  C   UNL A   1      40.641  24.724  27.296  1.00  0.00    -0.014 A 
BRANCH  38  39
ATOM     39  C   UNL A   1      41.222  26.059  27.581  1.00  0.00     0.031 A 
ATOM     40  C   UNL A   1      42.632  26.373  27.167  1.00  0.00     0.074 A 
ATOM     41  C   UNL A   1      40.519  26.947  28.311  1.00  0.00     0.049 A 
ATOM     42  N   UNL A   1      43.334  27.454  27.387  1.00  0.00    -0.248 NA
ATOM     43  C   UNL A   1      43.360  25.321  26.436  1.00  0.00     0.031 C 
ATOM     44  C   UNL A   1      39.180  26.720  28.857  1.00  0.00     0.029 A 
ATOM     45  N   UNL A   1      40.848  28.205  28.751  1.00  0.00    -0.354 N 
ATOM     46  C   UNL A   1      44.591  27.203  26.852  1.00  0.00     0.074 A 
ATOM     47  C   UNL A   1      44.568  25.853  26.334  1.00  0.00     0.031 C 
ATOM     48  C   UNL A   1      38.806  27.797  29.567  1.00  0.00     0.029 A 
ATOM     49  C   UNL A   1      39.887  28.778  29.548  1.00  0.00     0.049 A 
ATOM     50  H   UNL A   1      41.693  28.654  28.517  1.00  0.00     0.167 HD
ATOM     51  C   UNL A   1      45.657  28.034  26.765  1.00  0.00     0.034 A 
ATOM     52  C   UNL A   1      39.878  29.956  30.204  1.00  0.00     0.034 A 
ATOM     53  C   UNL A   1      45.664  29.387  27.252  1.00  0.00     0.049 A 
ATOM     54  C   UNL A   1      41.055  30.881  30.060  1.00  0.00     0.074 A 
ATOM     55  C   UNL A   1      46.657  30.342  27.127  1.00  0.00     0.029 A 
ATOM     56  N   UNL A   1      44.632  29.974  27.969  1.00  0.00    -0.354 N 
ATOM     57  N   UNL A   1      42.169  30.698  29.391  1.00  0.00    -0.248 NA
ATOM     58  C   UNL A   1      40.962  32.188  30.726  1.00  0.00     0.031 C 
ATOM     59  C   UNL A   1      46.234  31.500  27.789  1.00  0.00     0.029 A 
ATOM     60  C   UNL A   1      44.969  31.273  28.307  1.00  0.00     0.049 A 
ATOM     61  H   UNL A   1      43.785  29.532  28.204  1.00  0.00     0.167 HD
ATOM     62  C   UNL A   1      42.900  31.871  29.539  1.00  0.00     0.074 A 
ATOM     63  C   UNL A   1      42.090  32.770  30.336  1.00  0.00     0.031 C 
ATOM     64  C   UNL A   1      44.137  32.171  29.069  1.00  0.00     0.034 A 
BRANCH  51  65
ATOM     65  C   UNL A   1      46.885  27.512  26.065  1.00  0.00     0.023 A 
ATOM     66  C   UNL A   1      47.792  26.696  26.774  1.00  0.00     0.012 A 
ATOM     67  C   UNL A   1      47.132  27.800  24.709  1.00  0.00     0.148 A 
ATOM     68  C   UNL A   1      48.946  26.213  26.160  1.00  0.00     0.002 A 
ATOM     69  C   UNL A   1      48.262  27.276  24.091  1.00  0.00     0.091 A 
ATOM     70  F   UNL A   1      46.274  28.597  24.055  1.00  0.00    -0.205 F 
ATOM     71  C   UNL A   1      49.176  26.494  24.817  1.00  0.00     0.022 A 
BRANCH  69  72
ATOM     72  S   UNL A   1      48.605  27.519  22.344  1.00  0.00     0.127 S 
ATOM     73  O   UNL A   1      49.866  28.256  22.390  1.00  0.00    -0.237 OA
ATOM     74  O   UNL A   1      48.721  26.143  21.857  1.00  0.00    -0.237 OA
ATOM     75  O   UNL A   1      47.464  28.252  21.813  1.00  0.00    -0.744 OA
ENDBRANCH  69  72
ENDBRANCH  51  65
BRANCH  52  76
ATOM     76  C   UNL A   1      38.686  30.339  31.010  1.00  0.00     0.023 A 
ATOM     77  C   UNL A   1      38.635  30.012  32.378  1.00  0.00     0.012 A 
ATOM     78  C   UNL A   1      37.630  31.081  30.441  1.00  0.00     0.148 A 
ATOM     79  C   UNL A   1      37.547  30.397  33.162  1.00  0.00     0.002 A 
ATOM     80  C   UNL A   1      36.577  31.510  31.239  1.00  0.00     0.091 A 
ATOM     81  F   UNL A   1      37.692  31.373  29.135  1.00  0.00    -0.205 F 
ATOM     82  C   UNL A   1      36.526  31.156  32.597  1.00  0.00     0.022 A 
BRANCH  80  83
ATOM     83  S   UNL A   1      35.295  32.612  30.631  1.00  0.00     0.127 S 
ATOM     84  O   UNL A   1      36.045  33.843  30.395  1.00  0.00    -0.237 OA
ATOM     85  O   UNL A   1      34.850  31.918  29.422  1.00  0.00    -0.237 OA
ATOM     86  O   UNL A   1      34.294  32.673  31.689  1.00  0.00    -0.744 OA
ENDBRANCH  80  83
ENDBRANCH  52  76
BRANCH  64  87
ATOM     87  C   UNL A   1      44.697  33.530  29.396  1.00  0.00     0.023 A 
ATOM     88  C   UNL A   1      45.427  33.715  30.587  1.00  0.00     0.012 A 
ATOM     89  C   UNL A   1      44.572  34.601  28.489  1.00  0.00     0.148 A 
ATOM     90  C   UNL A   1      46.000  34.951  30.883  1.00  0.00     0.002 A 
ATOM     91  C   UNL A   1      45.186  35.816  28.769  1.00  0.00     0.091 A 
ATOM     92  F   UNL A   1      43.858  34.410  27.370  1.00  0.00    -0.205 F 
ATOM     93  C   UNL A   1      45.891  35.996  29.970  1.00  0.00     0.022 A 
BRANCH  91  94
ATOM     94  S   UNL A   1      45.177  37.191  27.612  1.00  0.00     0.127 S 
ATOM     95  O   UNL A   1      45.825  38.242  28.393  1.00  0.00    -0.237 OA
ATOM     96  O   UNL A   1      45.980  36.670  26.505  1.00  0.00    -0.237 OA
ATOM     97  O   UNL A   1      43.778  37.431  27.283  1.00  0.00    -0.744 OA
ENDBRANCH  91  94
ENDBRANCH  64  87
ENDBRANCH  38  39
ENDBRANCH  30  33
ENDBRANCH  28  29
ENDBRANCH  27  28
ENDBRANCH  26  27
ENDBRANCH   1  26
TORSDOF 21
ENDMDL
MODEL 2
REMARK VINA RESULT:     -10.9      1.490      7.688
REMARK SMILES CCC(CC)(NC(=O)N[C@@H](C)[C@@H]1CCCO1)C(=O)NCCCCCCNC(=O)c1ccc(-c2c3nc(c(-c4cccc(S(=O)(=O)[O-])c4F)c4ccc([nH]4)c(-c4cccc(S(=O)(=O)[O-])c4F)c4nc(c(-c5cccc(S(=O)(=O)[O-])c5F)c5ccc2[nH]5)C=C4)C=C3)cc1
REMARK SMILES IDX 22 1 21 2 20 3 19 4 17 5 18 6 3 8 2 9 1 10 4 11 5 12 6 13
REMARK SMILES IDX 7 14 8 16 9 17 10 19 11 20 12 21 13 22 16 23 14 24 15 25
REMARK SMILES IDX 23 26 24 27 25 28 26 29 27 30 28 32 29 33 30 34 91 35 31 36
REMARK SMILES IDX 90 37 32 38 33 39 34 40 84 41 35 42 89 43 83 44 85 45 36 46
REMARK SMILES IDX 88 47 82 48 81 49 37 51 69 52 49 53 68 54 50 55 53 56 67 57
REMARK SMILES IDX 86 58 51 59 52 60 66 62 87 63 54 64 38 65 39 66 47 67 40 68
REMARK SMILES IDX 42 69 48 70 41 71 43 72 44 73 45 74 46 75 70 76 71 77 79 78
REMARK SMILES IDX 72 79 74 80 80 81 73 82 75 83 76 84 77 85 78 86 55 87 56 88
REMARK SMILES IDX 64 89 57 90 59 91 65 92 58 93 60 94 61 95 62 96 63 97
REMARK H PARENT 19 7 6 15 9 18 26 31 85 50 53 61
REMARK Flexibility Score: inf
ROOT
ATOM      1  C   UNL A   1      34.970  20.318  24.635  1.00  0.00     0.002 C 
ENDROOT
BRANCH   1   2
ATOM      2  C   UNL A   1      33.715  20.010  25.449  1.00  0.00     0.021 C 
BRANCH   2   3
ATOM      3  C   UNL A   1      32.338  20.412  24.902  1.00  0.00     0.116 C 
BRANCH   3   4
ATOM      4  N   UNL A   1      31.429  21.152  25.772  1.00  0.00    -0.354 N 
ATOM      5  C   UNL A   1      30.928  22.432  25.759  1.00  0.00     0.245 C 
ATOM      6  O   UNL A   1      29.985  22.657  26.526  1.00  0.00    -0.272 OA
ATOM      7  H   UNL A   1      31.103  20.618  26.533  1.00  0.00     0.163 HD
BRANCH   5   8
ATOM      8  C   UNL A   1      31.399  23.490  24.718  1.00  0.00     0.120 C 
BRANCH   8   9
ATOM      9  C   UNL A   1      31.808  22.991  23.301  1.00  0.00     0.035 C 
ATOM     10  C   UNL A   1      33.220  23.274  22.816  1.00  0.00     0.007 C 
ENDBRANCH   8   9
BRANCH   8  11
ATOM     11  C   UNL A   1      32.649  24.128  25.427  1.00  0.00     0.035 C 
ATOM     12  C   UNL A   1      32.920  23.749  26.875  1.00  0.00     0.007 C 
ENDBRANCH   8  11
BRANCH   8  13
ATOM     13  N   UNL A   1      30.300  24.452  24.524  1.00  0.00    -0.324 N 
ATOM     14  C   UNL A   1      30.209  25.789  24.531  1.00  0.00     0.315 C 
ATOM     15  H   UNL A   1      29.435  24.013  24.350  1.00  0.00     0.166 HD
ATOM     16  O   UNL A   1      29.067  26.264  24.552  1.00  0.00    -0.249 OA
ATOM     17  N   UNL A   1      31.213  26.669  24.458  1.00  0.00    -0.333 N 
ATOM     18  H   UNL A   1      30.862  27.577  24.314  1.00  0.00     0.165 HD
BRANCH  17  19
ATOM     19  C   UNL A   1      32.691  26.694  24.529  1.00  0.00     0.109 C 
ATOM     20  C   UNL A   1      33.334  26.997  23.176  1.00  0.00     0.034 C 
BRANCH  19  21
ATOM     21  C   UNL A   1      33.164  27.694  25.637  1.00  0.00     0.140 C 
ATOM     22  C   UNL A   1      32.333  27.796  26.927  1.00  0.00     0.036 C 
ATOM     23  O   UNL A   1      33.175  29.027  25.072  1.00  0.00    -0.376 OA
ATOM     24  C   UNL A   1      31.854  29.232  26.970  1.00  0.00     0.031 C 
ATOM     25  C   UNL A   1      32.010  29.700  25.546  1.00  0.00     0.160 C 
ENDBRANCH  19  21
ENDBRANCH  17  19
ENDBRANCH   8  13
ENDBRANCH   5   8
ENDBRANCH   3   4
ENDBRANCH   2   3
ENDBRANCH   1   2
BRANCH   1  26
ATOM     26  C   UNL A   1      35.978  21.273  25.267  1.00  0.00     0.002 C 
BRANCH  26  27
ATOM     27  C   UNL A   1      37.384  21.175  24.684  1.00  0.00     0.021 C 
BRANCH  27  28
ATOM     28  C   UNL A   1      38.502  21.268  25.714  1.00  0.00     0.116 C 
BRANCH  28  29
ATOM     29  N   UNL A   1      39.281  20.041  25.811  1.00  0.00    -0.352 N 
ATOM     30  C   UNL A   1      40.624  19.916  26.101  1.00  0.00     0.251 C 
ATOM     31  H   UNL A   1      38.791  19.203  25.651  1.00  0.00     0.163 HD
ATOM     32  O   UNL A   1      41.192  18.844  26.017  1.00  0.00    -0.269 OA
BRANCH  30  33
ATOM     33  C   UNL A   1      41.360  21.140  26.487  1.00  0.00     0.039 A 
ATOM     34  C   UNL A   1      42.065  21.843  25.510  1.00  0.00     0.014 A 
ATOM     35  C   UNL A   1      41.254  21.632  27.790  1.00  0.00     0.014 A 
ATOM     36  C   UNL A   1      42.608  23.090  25.825  1.00  0.00     0.010 A 
ATOM     37  C   UNL A   1      41.734  22.904  28.080  1.00  0.00     0.010 A 
ATOM     38  C   UNL A   1      42.412  23.648  27.100  1.00  0.00    -0.014 A 
BRANCH  38  39
ATOM     39  C   UNL A   1      42.873  25.021  27.422  1.00  0.00     0.031 A 
ATOM     40  C   UNL A   1      41.923  26.014  28.030  1.00  0.00     0.074 A 
ATOM     41  C   UNL A   1      44.114  25.405  27.065  1.00  0.00     0.049 A 
ATOM     42  N   UNL A   1      42.121  27.274  28.317  1.00  0.00    -0.248 NA
ATOM     43  C   UNL A   1      40.561  25.537  28.324  1.00  0.00     0.031 C 
ATOM     44  C   UNL A   1      45.094  24.562  26.377  1.00  0.00     0.029 A 
ATOM     45  N   UNL A   1      44.750  26.614  27.195  1.00  0.00    -0.354 N 
ATOM     46  C   UNL A   1      40.907  27.748  28.795  1.00  0.00     0.074 A 
ATOM     47  C   UNL A   1      39.966  26.652  28.720  1.00  0.00     0.031 C 
ATOM     48  C   UNL A   1      46.202  25.282  26.137  1.00  0.00     0.029 A 
ATOM     49  C   UNL A   1      46.002  26.642  26.630  1.00  0.00     0.049 A 
ATOM     50  H   UNL A   1      44.347  27.389  27.651  1.00  0.00     0.167 HD
ATOM     51  C   UNL A   1      40.609  28.974  29.287  1.00  0.00     0.034 A 
ATOM     52  C   UNL A   1      46.888  27.650  26.507  1.00  0.00     0.034 A 
ATOM     53  C   UNL A   1      41.556  30.051  29.390  1.00  0.00     0.049 A 
ATOM     54  C   UNL A   1      46.554  28.992  27.098  1.00  0.00     0.074 A 
ATOM     55  C   UNL A   1      41.383  31.299  29.963  1.00  0.00     0.029 A 
ATOM     56  N   UNL A   1      42.853  30.013  28.898  1.00  0.00    -0.354 N 
ATOM     57  N   UNL A   1      45.460  29.371  27.714  1.00  0.00    -0.248 NA
ATOM     58  C   UNL A   1      47.586  30.036  27.011  1.00  0.00     0.031 C 
ATOM     59  C   UNL A   1      42.568  32.024  29.796  1.00  0.00     0.029 A 
ATOM     60  C   UNL A   1      43.486  31.220  29.139  1.00  0.00     0.049 A 
ATOM     61  H   UNL A   1      43.261  29.242  28.444  1.00  0.00     0.167 HD
ATOM     62  C   UNL A   1      45.678  30.686  28.107  1.00  0.00     0.074 A 
ATOM     63  C   UNL A   1      47.020  31.030  27.684  1.00  0.00     0.031 C 
ATOM     64  C   UNL A   1      44.836  31.537  28.746  1.00  0.00     0.034 A 
BRANCH  51  65
ATOM     65  C   UNL A   1      39.210  29.191  29.805  1.00  0.00     0.023 A 
ATOM     66  C   UNL A   1      38.881  28.764  31.108  1.00  0.00     0.012 A 
ATOM     67  C   UNL A   1      38.233  29.836  29.023  1.00  0.00     0.148 A 
ATOM     68  C   UNL A   1      37.591  28.934  31.609  1.00  0.00     0.002 A 
ATOM     69  C   UNL A   1      36.961  30.043  29.547  1.00  0.00     0.091 A 
ATOM     70  F   UNL A   1      38.553  30.214  27.777  1.00  0.00    -0.205 F 
ATOM     71  C   UNL A   1      36.635  29.581  30.833  1.00  0.00     0.022 A 
BRANCH  69  72
ATOM     72  S   UNL A   1      35.684  30.936  28.653  1.00  0.00     0.127 S 
ATOM     73  O   UNL A   1      35.016  29.854  27.932  1.00  0.00    -0.237 OA
ATOM     74  O   UNL A   1      34.897  31.521  29.740  1.00  0.00    -0.237 OA
ATOM     75  O   UNL A   1      36.384  31.908  27.825  1.00  0.00    -0.744 OA
ENDBRANCH  69  72
ENDBRANCH  51  65
BRANCH  52  76
ATOM     76  C   UNL A   1      48.196  27.402  25.840  1.00  0.00     0.023 A 
ATOM     77  C   UNL A   1      49.283  26.925  26.596  1.00  0.00     0.012 A 
ATOM     78  C   UNL A   1      48.350  27.575  24.449  1.00  0.00     0.148 A 
ATOM     79  C   UNL A   1      50.507  26.644  25.985  1.00  0.00     0.002 A 
ATOM     80  C   UNL A   1      49.552  27.241  23.838  1.00  0.00     0.091 A 
ATOM     81  F   UNL A   1      47.306  28.040  23.749  1.00  0.00    -0.205 F 
ATOM     82  C   UNL A   1      50.637  26.790  24.606  1.00  0.00     0.022 A 
BRANCH  80  83
ATOM     83  S   UNL A   1      49.763  27.258  22.054  1.00  0.00     0.127 S 
ATOM     84  O   UNL A   1      51.148  26.816  21.912  1.00  0.00    -0.237 OA
ATOM     85  O   UNL A   1      48.758  26.288  21.622  1.00  0.00    -0.237 OA
ATOM     86  O   UNL A   1      49.490  28.628  21.639  1.00  0.00    -0.744 OA
ENDBRANCH  80  83
ENDBRANCH  52  76
BRANCH  64  87
ATOM     87  C   UNL A   1      45.339  32.927  29.038  1.00  0.00     0.023 A 
ATOM     88  C   UNL A   1      46.064  33.170  30.223  1.00  0.00     0.012 A 
ATOM     89  C   UNL A   1      45.165  33.969  28.107  1.00  0.00     0.148 A 
ATOM     90  C   UNL A   1      46.585  34.436  30.487  1.00  0.00     0.002 A 
ATOM     91  C   UNL A   1      45.728  35.215  28.356  1.00  0.00     0.091 A 
ATOM     92  F   UNL A   1      44.458  33.722  26.996  1.00  0.00    -0.205 F 
ATOM     93  C   UNL A   1      46.428  35.454  29.550  1.00  0.00     0.022 A 
BRANCH  91  94
ATOM     94  S   UNL A   1      45.658  36.561  27.167  1.00  0.00     0.127 S 
ATOM     95  O   UNL A   1      46.289  35.957  25.996  1.00  0.00    -0.237 OA
ATOM     96  O   UNL A   1      44.218  36.785  27.037  1.00  0.00    -0.237 OA
ATOM     97  O   UNL A   1      46.390  37.668  27.769  1.00  0.00    -0.744 OA
ENDBRANCH  91  94
ENDBRANCH  64  87
ENDBRANCH  38  39
ENDBRANCH  30  33
ENDBRANCH  28  29
ENDBRANCH  27  28
ENDBRANCH  26  27
ENDBRANCH   1  26
TORSDOF 21
ENDMDL
MODEL 3
REMARK VINA RESULT:     -10.9      2.272      3.040
REMARK SMILES CCC(CC)(NC(=O)N[C@@H](C)[C@@H]1CCCO1)C(=O)NCCCCCCNC(=O)c1ccc(-c2c3nc(c(-c4cccc(S(=O)(=O)[O-])c4F)c4ccc([nH]4)c(-c4cccc(S(=O)(=O)[O-])c4F)c4nc(c(-c5cccc(S(=O)(=O)[O-])c5F)c5ccc2[nH]5)C=C4)C=C3)cc1
REMARK SMILES IDX 22 1 21 2 20 3 19 4 17 5 18 6 3 8 2 9 1 10 4 11 5 12 6 13
REMARK SMILES IDX 7 14 8 16 9 17 10 19 11 20 12 21 13 22 16 23 14 24 15 25
REMARK SMILES IDX 23 26 24 27 25 28 26 29 27 30 28 32 29 33 30 34 91 35 31 36
REMARK SMILES IDX 90 37 32 38 33 39 34 40 84 41 35 42 89 43 83 44 85 45 36 46
REMARK SMILES IDX 88 47 82 48 81 49 37 51 69 52 49 53 68 54 50 55 53 56 67 57
REMARK SMILES IDX 86 58 51 59 52 60 66 62 87 63 54 64 38 65 39 66 47 67 40 68
REMARK SMILES IDX 42 69 48 70 41 71 43 72 44 73 45 74 46 75 70 76 71 77 79 78
REMARK SMILES IDX 72 79 74 80 80 81 73 82 75 83 76 84 77 85 78 86 55 87 56 88
REMARK SMILES IDX 64 89 57 90 59 91 65 92 58 93 60 94 61 95 62 96 63 97
REMARK H PARENT 19 7 6 15 9 18 26 31 85 50 53 61
REMARK Flexibility Score: inf
ROOT
ATOM      1  C   UNL A   1      34.271  21.402  24.669  1.00  0.00     0.002 C 
ENDROOT
BRANCH   1   2
ATOM      2  C   UNL A   1      32.864  21.742  25.154  1.00  0.00     0.021 C 
BRANCH   2   3
ATOM      3  C   UNL A   1      31.956  22.629  24.291  1.00  0.00     0.116 C 
BRANCH   3   4
ATOM      4  N   UNL A   1      32.429  23.039  22.972  1.00  0.00    -0.354 N 
ATOM      5  C   UNL A   1      32.741  24.253  22.407  1.00  0.00     0.245 C 
ATOM      6  O   UNL A   1      33.343  24.213  21.328  1.00  0.00    -0.272 OA
ATOM      7  H   UNL A   1      32.551  22.283  22.354  1.00  0.00     0.163 HD
BRANCH   5   8
ATOM      8  C   UNL A   1      32.509  25.596  23.160  1.00  0.00     0.120 C 
BRANCH   8   9
ATOM      9  C   UNL A   1      32.702  25.612  24.704  1.00  0.00     0.035 C 
ATOM     10  C   UNL A   1      34.107  25.442  25.258  1.00  0.00     0.007 C 
ENDBRANCH   8   9
BRANCH   8  11
ATOM     11  C   UNL A   1      31.010  25.921  22.817  1.00  0.00     0.035 C 
ATOM     12  C   UNL A   1      29.952  25.594  23.861  1.00  0.00     0.007 C 
ENDBRANCH   8  11
BRANCH   8  13
ATOM     13  N   UNL A   1      33.449  26.589  22.609  1.00  0.00    -0.324 N 
ATOM     14  C   UNL A   1      33.380  27.901  22.341  1.00  0.00     0.315 C 
ATOM     15  H   UNL A   1      34.327  26.202  22.385  1.00  0.00     0.166 HD
ATOM     16  O   UNL A   1      34.300  28.376  21.666  1.00  0.00    -0.249 OA
ATOM     17  N   UNL A   1      32.458  28.768  22.774  1.00  0.00    -0.333 N 
ATOM     18  H   UNL A   1      32.734  29.690  22.572  1.00  0.00     0.165 HD
BRANCH  17  19
ATOM     19  C   UNL A   1      31.148  28.762  23.463  1.00  0.00     0.109 C 
ATOM     20  C   UNL A   1      31.263  29.160  24.935  1.00  0.00     0.034 C 
BRANCH  19  21
ATOM     21  C   UNL A   1      30.126  29.664  22.693  1.00  0.00     0.140 C 
ATOM     22  C   UNL A   1      29.250  30.629  23.508  1.00  0.00     0.036 C 
ATOM     23  O   UNL A   1      29.203  28.802  21.984  1.00  0.00    -0.376 OA
ATOM     24  C   UNL A   1      27.827  30.186  23.242  1.00  0.00     0.031 C 
ATOM     25  C   UNL A   1      27.986  28.778  22.728  1.00  0.00     0.160 C 
ENDBRANCH  19  21
ENDBRANCH  17  19
ENDBRANCH   8  13
ENDBRANCH   5   8
ENDBRANCH   3   4
ENDBRANCH   2   3
ENDBRANCH   1   2
BRANCH   1  26
ATOM     26  C   UNL A   1      35.421  21.743  25.611  1.00  0.00     0.002 C 
BRANCH  26  27
ATOM     27  C   UNL A   1      36.772  21.898  24.919  1.00  0.00     0.021 C 
BRANCH  27  28
ATOM     28  C   UNL A   1      37.825  22.624  25.747  1.00  0.00     0.116 C 
BRANCH  28  29
ATOM     29  N   UNL A   1      39.090  21.906  25.800  1.00  0.00    -0.352 N 
ATOM     30  C   UNL A   1      40.322  22.395  26.183  1.00  0.00     0.251 C 
ATOM     31  H   UNL A   1      39.064  20.959  25.530  1.00  0.00     0.163 HD
ATOM     32  O   UNL A   1      41.334  21.735  26.052  1.00  0.00    -0.269 OA
BRANCH  30  33
ATOM     33  C   UNL A   1      40.374  23.769  26.730  1.00  0.00     0.039 A 
ATOM     34  C   UNL A   1      40.448  23.946  28.113  1.00  0.00     0.014 A 
ATOM     35  C   UNL A   1      40.455  24.860  25.862  1.00  0.00     0.014 A 
ATOM     36  C   UNL A   1      40.678  25.223  28.625  1.00  0.00     0.010 A 
ATOM     37  C   UNL A   1      40.756  26.118  26.372  1.00  0.00     0.010 A 
ATOM     38  C   UNL A   1      40.876  26.312  27.758  1.00  0.00    -0.014 A 
BRANCH  38  39
ATOM     39  C   UNL A   1      41.244  27.654  28.274  1.00  0.00     0.031 A 
ATOM     40  C   UNL A   1      42.689  28.022  28.459  1.00  0.00     0.074 A 
ATOM     41  C   UNL A   1      40.274  28.497  28.679  1.00  0.00     0.049 A 
ATOM     42  N   UNL A   1      43.202  29.116  28.958  1.00  0.00    -0.248 NA
ATOM     43  C   UNL A   1      43.687  27.016  28.059  1.00  0.00     0.031 C 
ATOM     44  C   UNL A   1      38.838  28.214  28.644  1.00  0.00     0.029 A 
ATOM     45  N   UNL A   1      40.352  29.750  29.235  1.00  0.00    -0.354 N 
ATOM     46  C   UNL A   1      44.577  28.920  28.962  1.00  0.00     0.074 A 
ATOM     47  C   UNL A   1      44.815  27.586  28.455  1.00  0.00     0.031 C 
ATOM     48  C   UNL A   1      38.171  29.256  29.166  1.00  0.00     0.029 A 
ATOM     49  C   UNL A   1      39.131  30.269  29.595  1.00  0.00     0.049 A 
ATOM     50  H   UNL A   1      41.202  30.232  29.364  1.00  0.00     0.167 HD
ATOM     51  C   UNL A   1      45.556  29.784  29.320  1.00  0.00     0.034 A 
ATOM     52  C   UNL A   1      38.817  31.425  30.213  1.00  0.00     0.034 A 
ATOM     53  C   UNL A   1      45.316  31.120  29.793  1.00  0.00     0.049 A 
ATOM     54  C   UNL A   1      39.917  32.388  30.564  1.00  0.00     0.074 A 
ATOM     55  C   UNL A   1      46.238  32.108  30.089  1.00  0.00     0.029 A 
ATOM     56  N   UNL A   1      44.061  31.654  30.051  1.00  0.00    -0.354 N 
ATOM     57  N   UNL A   1      41.210  32.260  30.390  1.00  0.00    -0.248 NA
ATOM     58  C   UNL A   1      39.515  33.670  31.161  1.00  0.00     0.031 C 
ATOM     59  C   UNL A   1      45.542  33.232  30.549  1.00  0.00     0.029 A 
ATOM     60  C   UNL A   1      44.185  32.951  30.517  1.00  0.00     0.049 A 
ATOM     61  H   UNL A   1      43.209  31.180  29.922  1.00  0.00     0.167 HD
ATOM     62  C   UNL A   1      41.776  33.449  30.836  1.00  0.00     0.074 A 
ATOM     63  C   UNL A   1      40.681  34.298  31.261  1.00  0.00     0.031 C 
ATOM     64  C   UNL A   1      43.085  33.799  30.902  1.00  0.00     0.034 A 
BRANCH  51  65
ATOM     65  C   UNL A   1      46.981  29.321  29.157  1.00  0.00     0.023 A 
ATOM     66  C   UNL A   1      47.693  28.861  30.284  1.00  0.00     0.012 A 
ATOM     67  C   UNL A   1      47.607  29.313  27.896  1.00  0.00     0.148 A 
ATOM     68  C   UNL A   1      49.018  28.444  30.169  1.00  0.00     0.002 A 
ATOM     69  C   UNL A   1      48.914  28.851  27.781  1.00  0.00     0.091 A 
ATOM     70  F   UNL A   1      46.926  29.776  26.837  1.00  0.00    -0.205 F 
ATOM     71  C   UNL A   1      49.624  28.429  28.917  1.00  0.00     0.022 A 
BRANCH  69  72
ATOM     72  S   UNL A   1      49.756  28.721  26.199  1.00  0.00     0.127 S 
ATOM     73  O   UNL A   1      50.366  30.043  26.079  1.00  0.00    -0.237 OA
ATOM     74  O   UNL A   1      50.703  27.632  26.441  1.00  0.00    -0.237 OA
ATOM     75  O   UNL A   1      48.720  28.414  25.222  1.00  0.00    -0.744 OA
ENDBRANCH  69  72
ENDBRANCH  51  65
BRANCH  52  76
ATOM     76  C   UNL A   1      37.388  31.747  30.485  1.00  0.00     0.023 A 
ATOM     77  C   UNL A   1      36.823  31.407  31.729  1.00  0.00     0.012 A 
ATOM     78  C   UNL A   1      36.606  32.444  29.542  1.00  0.00     0.148 A 
ATOM     79  C   UNL A   1      35.498  31.737  32.022  1.00  0.00     0.002 A 
ATOM     80  C   UNL A   1      35.307  32.819  29.861  1.00  0.00     0.091 A 
ATOM     81  F   UNL A   1      37.160  32.748  28.360  1.00  0.00    -0.205 F 
ATOM     82  C   UNL A   1      34.745  32.452  31.094  1.00  0.00     0.022 A 
BRANCH  80  83
ATOM     83  S   UNL A   1      34.316  33.865  28.789  1.00  0.00     0.127 S 
ATOM     84  O   UNL A   1      33.267  34.319  29.699  1.00  0.00    -0.237 OA
ATOM     85  O   UNL A   1      35.279  34.894  28.396  1.00  0.00    -0.237 OA
ATOM     86  O   UNL A   1      33.877  33.007  27.696  1.00  0.00    -0.744 OA
ENDBRANCH  80  83
ENDBRANCH  52  76
BRANCH  64  87
ATOM     87  C   UNL A   1      43.415  35.164  31.447  1.00  0.00     0.023 A 
ATOM     88  C   UNL A   1      43.652  35.324  32.828  1.00  0.00     0.012 A 
ATOM     89  C   UNL A   1      43.571  36.268  30.587  1.00  0.00     0.148 A 
ATOM     90  C   UNL A   1      44.012  36.567  33.346  1.00  0.00     0.002 A 
ATOM     91  C   UNL A   1      43.976  37.493  31.104  1.00  0.00     0.091 A 
ATOM     92  F   UNL A   1      43.324  36.100  29.280  1.00  0.00    -0.205 F 
ATOM     93  C   UNL A   1      44.186  37.647  32.484  1.00  0.00     0.022 A 
BRANCH  91  94
ATOM     94  S   UNL A   1      44.316  38.916  30.062  1.00  0.00     0.127 S 
ATOM     95  O   UNL A   1      44.807  39.889  31.036  1.00  0.00    -0.237 OA
ATOM     96  O   UNL A   1      45.335  38.397  29.151  1.00  0.00    -0.237 OA
ATOM     97  O   UNL A   1      43.051  39.258  29.423  1.00  0.00    -0.744 OA
ENDBRANCH  91  94
ENDBRANCH  64  87
ENDBRANCH  38  39
ENDBRANCH  30  33
ENDBRANCH  28  29
ENDBRANCH  27  28
ENDBRANCH  26  27
ENDBRANCH   1  26
TORSDOF 21
ENDMDL
