MODEL 1
REMARK VINA RESULT:     -12.6      0.000      0.000
REMARK SMILES NC(=O)c1ccc(NC(=O)Cc2ccccc2C(=O)NCCCCCCNC(=O)c2ccc(-c3c4nc(c(-c5cccc(S(=O)(=O)[O-])c5F)c5ccc([nH]5)c(-c5cccc(S(=O)(=O)[O-])c5F)c5nc(c(-c6cccc(S(=O)(=O)[O-])c6F)c6ccc3[nH]6)C=C5)C=C4)cc2)cc1
REMARK SMILES IDX 23 1 22 2 21 3 20 4 18 5 19 6 17 8 12 9 13 10 14 11 16 12
REMARK SMILES IDX 15 13 11 14 9 15 8 16 10 18 7 19 4 20 5 21 94 22 6 23 93 24
REMARK SMILES IDX 2 25 1 26 3 29 24 30 25 31 26 32 27 33 28 34 29 36 30 37
REMARK SMILES IDX 31 38 92 39 32 40 91 41 33 42 34 43 35 44 85 45 36 46 90 47
REMARK SMILES IDX 84 48 86 49 37 50 89 51 83 52 82 53 38 55 70 56 50 57 69 58
REMARK SMILES IDX 51 59 54 60 68 61 87 62 52 63 53 64 67 66 88 67 55 68 39 69
REMARK SMILES IDX 40 70 48 71 41 72 43 73 49 74 42 75 44 76 45 77 46 78 47 79
REMARK SMILES IDX 71 80 72 81 80 82 73 83 75 84 81 85 74 86 76 87 77 88 78 89
REMARK SMILES IDX 79 90 56 91 57 92 65 93 58 94 60 95 66 96 59 97 61 98 62 99
REMARK SMILES IDX 63 100 64 101
REMARK H PARENT 20 7 8 17 1 27 1 28 27 35 86 54 54 65
REMARK Flexibility Score: inf
ROOT
ATOM      1  C   UNL A   1      33.662  26.928  26.121  1.00  0.00     0.002 C 
ENDROOT
BRANCH   1   2
ATOM      2  C   UNL A   1      33.680  25.429  25.757  1.00  0.00     0.021 C 
BRANCH   2   3
ATOM      3  C   UNL A   1      34.879  24.837  25.025  1.00  0.00     0.116 C 
BRANCH   3   4
ATOM      4  N   UNL A   1      35.279  23.566  25.565  1.00  0.00    -0.352 N 
ATOM      5  C   UNL A   1      34.452  22.551  25.989  1.00  0.00     0.251 C 
ATOM      6  O   UNL A   1      33.949  22.534  27.105  1.00  0.00    -0.269 OA
ATOM      7  H   UNL A   1      36.247  23.406  25.641  1.00  0.00     0.163 HD
BRANCH   5   8
ATOM      8  C   UNL A   1      34.173  21.470  24.999  1.00  0.00     0.043 A 
ATOM      9  C   UNL A   1      33.010  21.436  24.226  1.00  0.00    -0.026 A 
ATOM     10  C   UNL A   1      32.524  20.140  23.900  1.00  0.00     0.005 A 
ATOM     11  C   UNL A   1      33.278  18.980  24.114  1.00  0.00     0.000 A 
ATOM     12  C   UNL A   1      34.999  20.327  25.088  1.00  0.00     0.014 A 
ATOM     13  C   UNL A   1      34.561  19.087  24.625  1.00  0.00     0.001 A 
BRANCH   9  14
ATOM     14  C   UNL A   1      32.134  22.624  23.888  1.00  0.00     0.136 C 
BRANCH  14  15
ATOM     15  C   UNL A   1      31.031  23.265  24.759  1.00  0.00     0.228 C 
ATOM     16  N   UNL A   1      30.551  24.527  24.972  1.00  0.00    -0.326 N 
ATOM     17  H   UNL A   1      30.321  24.644  25.922  1.00  0.00     0.169 HD
ATOM     18  O   UNL A   1      30.557  22.491  25.624  1.00  0.00    -0.274 OA
BRANCH  16  19
ATOM     19  C   UNL A   1      30.278  25.722  24.258  1.00  0.00     0.041 A 
ATOM     20  C   UNL A   1      29.813  28.026  22.680  1.00  0.00     0.039 A 
ATOM     21  C   UNL A   1      28.808  27.545  23.499  1.00  0.00     0.016 A 
ATOM     22  C   UNL A   1      30.959  27.255  22.483  1.00  0.00     0.016 A 
ATOM     23  C   UNL A   1      29.035  26.365  24.224  1.00  0.00     0.027 A 
ATOM     24  C   UNL A   1      31.171  26.096  23.250  1.00  0.00     0.027 A 
BRANCH  20  25
ATOM     25  C   UNL A   1      29.750  29.401  22.158  1.00  0.00     0.248 C 
ATOM     26  N   UNL A   1      30.912  29.988  21.768  1.00  0.00    -0.366 N 
ATOM     27  H   UNL A   1      30.905  30.907  21.414  1.00  0.00     0.159 HD
ATOM     28  H   UNL A   1      31.761  29.494  21.838  1.00  0.00     0.159 HD
ATOM     29  O   UNL A   1      28.670  29.990  22.082  1.00  0.00    -0.270 OA
ENDBRANCH  20  25
ENDBRANCH  16  19
ENDBRANCH  14  15
ENDBRANCH   9  14
ENDBRANCH   5   8
ENDBRANCH   3   4
ENDBRANCH   2   3
ENDBRANCH   1   2
BRANCH   1  30
ATOM     30  C   UNL A   1      32.394  27.573  26.683  1.00  0.00     0.002 C 
BRANCH  30  31
ATOM     31  C   UNL A   1      31.864  28.791  25.939  1.00  0.00     0.021 C 
BRANCH  31  32
ATOM     32  C   UNL A   1      32.863  29.915  25.714  1.00  0.00     0.116 C 
BRANCH  32  33
ATOM     33  N   UNL A   1      32.491  31.188  26.309  1.00  0.00    -0.352 N 
ATOM     34  C   UNL A   1      33.193  31.902  27.259  1.00  0.00     0.251 C 
ATOM     35  H   UNL A   1      31.645  31.586  26.000  1.00  0.00     0.163 HD
ATOM     36  O   UNL A   1      32.742  32.944  27.721  1.00  0.00    -0.269 OA
BRANCH  34  37
ATOM     37  C   UNL A   1      34.483  31.361  27.751  1.00  0.00     0.039 A 
ATOM     38  C   UNL A   1      35.543  32.241  27.981  1.00  0.00     0.014 A 
ATOM     39  C   UNL A   1      34.613  30.005  28.066  1.00  0.00     0.014 A 
ATOM     40  C   UNL A   1      36.705  31.773  28.600  1.00  0.00     0.010 A 
ATOM     41  C   UNL A   1      35.735  29.562  28.762  1.00  0.00     0.010 A 
ATOM     42  C   UNL A   1      36.795  30.441  29.035  1.00  0.00    -0.014 A 
BRANCH  42  43
ATOM     43  C   UNL A   1      37.982  29.945  29.782  1.00  0.00     0.031 A 
ATOM     44  C   UNL A   1      38.270  30.457  31.169  1.00  0.00     0.074 A 
ATOM     45  C   UNL A   1      38.850  29.104  29.182  1.00  0.00     0.049 A 
ATOM     46  N   UNL A   1      39.280  30.186  31.953  1.00  0.00    -0.248 NA
ATOM     47  C   UNL A   1      37.312  31.421  31.736  1.00  0.00     0.031 C 
ATOM     48  C   UNL A   1      38.733  28.601  27.812  1.00  0.00     0.029 A 
ATOM     49  N   UNL A   1      40.019  28.546  29.640  1.00  0.00    -0.354 N 
ATOM     50  C   UNL A   1      39.101  30.971  33.087  1.00  0.00     0.074 A 
ATOM     51  C   UNL A   1      37.907  31.757  32.872  1.00  0.00     0.031 C 
ATOM     52  C   UNL A   1      39.781  27.805  27.543  1.00  0.00     0.029 A 
ATOM     53  C   UNL A   1      40.660  27.763  28.709  1.00  0.00     0.049 A 
ATOM     54  H   UNL A   1      40.365  28.692  30.550  1.00  0.00     0.167 HD
ATOM     55  C   UNL A   1      39.844  31.012  34.218  1.00  0.00     0.034 A 
ATOM     56  C   UNL A   1      41.825  27.090  28.780  1.00  0.00     0.034 A 
ATOM     57  C   UNL A   1      41.004  30.195  34.450  1.00  0.00     0.049 A 
ATOM     58  C   UNL A   1      42.609  27.116  30.065  1.00  0.00     0.074 A 
ATOM     59  C   UNL A   1      41.770  30.096  35.598  1.00  0.00     0.029 A 
ATOM     60  N   UNL A   1      41.571  29.343  33.515  1.00  0.00    -0.354 N 
ATOM     61  N   UNL A   1      42.334  27.739  31.186  1.00  0.00    -0.248 NA
ATOM     62  C   UNL A   1      43.843  26.317  30.111  1.00  0.00     0.031 C 
ATOM     63  C   UNL A   1      42.816  29.201  35.348  1.00  0.00     0.029 A 
ATOM     64  C   UNL A   1      42.682  28.720  34.056  1.00  0.00     0.049 A 
ATOM     65  H   UNL A   1      41.233  29.202  32.601  1.00  0.00     0.167 HD
ATOM     66  C   UNL A   1      43.335  27.376  32.080  1.00  0.00     0.074 A 
ATOM     67  C   UNL A   1      44.214  26.465  31.376  1.00  0.00     0.031 C 
ATOM     68  C   UNL A   1      43.516  27.771  33.364  1.00  0.00     0.034 A 
BRANCH  55  69
ATOM     69  C   UNL A   1      39.391  31.934  35.321  1.00  0.00     0.023 A 
ATOM     70  C   UNL A   1      39.691  33.309  35.247  1.00  0.00     0.012 A 
ATOM     71  C   UNL A   1      38.621  31.453  36.398  1.00  0.00     0.148 A 
ATOM     72  C   UNL A   1      39.266  34.186  36.243  1.00  0.00     0.002 A 
ATOM     73  C   UNL A   1      38.159  32.340  37.363  1.00  0.00     0.091 A 
ATOM     74  F   UNL A   1      38.362  30.139  36.463  1.00  0.00    -0.205 F 
ATOM     75  C   UNL A   1      38.492  33.704  37.294  1.00  0.00     0.022 A 
BRANCH  73  76
ATOM     76  S   UNL A   1      37.087  31.834  38.713  1.00  0.00     0.127 S 
ATOM     77  O   UNL A   1      37.909  32.155  39.878  1.00  0.00    -0.237 OA
ATOM     78  O   UNL A   1      35.926  32.704  38.526  1.00  0.00    -0.237 OA
ATOM     79  O   UNL A   1      36.823  30.416  38.505  1.00  0.00    -0.744 OA
ENDBRANCH  73  76
ENDBRANCH  55  69
BRANCH  56  80
ATOM     80  C   UNL A   1      42.291  26.278  27.619  1.00  0.00     0.023 A 
ATOM     81  C   UNL A   1      43.138  26.865  26.658  1.00  0.00     0.012 A 
ATOM     82  C   UNL A   1      41.922  24.927  27.473  1.00  0.00     0.148 A 
ATOM     83  C   UNL A   1      43.582  26.133  25.557  1.00  0.00     0.002 A 
ATOM     84  C   UNL A   1      42.413  24.186  26.404  1.00  0.00     0.091 A 
ATOM     85  F   UNL A   1      41.107  24.389  28.391  1.00  0.00    -0.205 F 
ATOM     86  C   UNL A   1      43.228  24.792  25.435  1.00  0.00     0.022 A 
BRANCH  84  87
ATOM     87  S   UNL A   1      42.116  22.423  26.237  1.00  0.00     0.127 S 
ATOM     88  O   UNL A   1      42.711  21.901  27.464  1.00  0.00    -0.237 OA
ATOM     89  O   UNL A   1      40.654  22.366  26.187  1.00  0.00    -0.237 OA
ATOM     90  O   UNL A   1      42.772  22.029  24.997  1.00  0.00    -0.744 OA
ENDBRANCH  84  87
ENDBRANCH  56  80
BRANCH  68  91
ATOM     91  C   UNL A   1      44.681  27.190  34.122  1.00  0.00     0.023 A 
ATOM     92  C   UNL A   1      45.913  27.869  34.146  1.00  0.00     0.012 A 
ATOM     93  C   UNL A   1      44.523  26.013  34.881  1.00  0.00     0.148 A 
ATOM     94  C   UNL A   1      46.981  27.372  34.893  1.00  0.00     0.002 A 
ATOM     95  C   UNL A   1      45.575  25.550  35.662  1.00  0.00     0.091 A 
ATOM     96  F   UNL A   1      43.347  25.371  34.829  1.00  0.00    -0.205 F 
ATOM     97  C   UNL A   1      46.808  26.221  35.660  1.00  0.00     0.022 A 
BRANCH  95  98
ATOM     98  S   UNL A   1      45.413  24.135  36.756  1.00  0.00     0.127 S 
ATOM     99  O   UNL A   1      46.745  24.066  37.353  1.00  0.00    -0.237 OA
ATOM    100  O   UNL A   1      44.357  24.572  37.672  1.00  0.00    -0.237 OA
ATOM    101  O   UNL A   1      45.049  23.009  35.907  1.00  0.00    -0.744 OA
ENDBRANCH  95  98
ENDBRANCH  68  91
ENDBRANCH  42  43
ENDBRANCH  34  37
ENDBRANCH  32  33
ENDBRANCH  31  32
ENDBRANCH  30  31
ENDBRANCH   1  30
TORSDOF 20
ENDMDL
MODEL 2
REMARK VINA RESULT:     -12.4      5.128     10.297
REMARK SMILES NC(=O)c1ccc(NC(=O)Cc2ccccc2C(=O)NCCCCCCNC(=O)c2ccc(-c3c4nc(c(-c5cccc(S(=O)(=O)[O-])c5F)c5ccc([nH]5)c(-c5cccc(S(=O)(=O)[O-])c5F)c5nc(c(-c6cccc(S(=O)(=O)[O-])c6F)c6ccc3[nH]6)C=C5)C=C4)cc2)cc1
REMARK SMILES IDX 23 1 22 2 21 3 20 4 18 5 19 6 17 8 12 9 13 10 14 11 16 12
REMARK SMILES IDX 15 13 11 14 9 15 8 16 10 18 7 19 4 20 5 21 94 22 6 23 93 24
REMARK SMILES IDX 2 25 1 26 3 29 24 30 25 31 26 32 27 33 28 34 29 36 30 37
REMARK SMILES IDX 31 38 92 39 32 40 91 41 33 42 34 43 35 44 85 45 36 46 90 47
REMARK SMILES IDX 84 48 86 49 37 50 89 51 83 52 82 53 38 55 70 56 50 57 69 58
REMARK SMILES IDX 51 59 54 60 68 61 87 62 52 63 53 64 67 66 88 67 55 68 39 69
REMARK SMILES IDX 40 70 48 71 41 72 43 73 49 74 42 75 44 76 45 77 46 78 47 79
REMARK SMILES IDX 71 80 72 81 80 82 73 83 75 84 81 85 74 86 76 87 77 88 78 89
REMARK SMILES IDX 79 90 56 91 57 92 65 93 58 94 60 95 66 96 59 97 61 98 62 99
REMARK SMILES IDX 63 100 64 101
REMARK H PARENT 20 7 8 17 1 27 1 28 27 35 86 54 54 65
REMARK Flexibility Score: inf
ROOT
ATOM      1  C   UNL A   1      34.348  23.553  23.299  1.00  0.00     0.002 C 
ENDROOT
BRANCH   1   2
ATOM      2  C   UNL A   1      33.654  24.873  22.904  1.00  0.00     0.021 C 
BRANCH   2   3
ATOM      3  C   UNL A   1      32.162  24.884  22.588  1.00  0.00     0.116 C 
BRANCH   3   4
ATOM      4  N   UNL A   1      31.579  26.188  22.744  1.00  0.00    -0.352 N 
ATOM      5  C   UNL A   1      30.840  26.641  23.813  1.00  0.00     0.251 C 
ATOM      6  O   UNL A   1      29.642  26.416  23.928  1.00  0.00    -0.269 OA
ATOM      7  H   UNL A   1      31.723  26.825  22.007  1.00  0.00     0.163 HD
BRANCH   5   8
ATOM      8  C   UNL A   1      31.586  27.408  24.853  1.00  0.00     0.043 A 
ATOM      9  C   UNL A   1      32.001  26.838  26.059  1.00  0.00    -0.026 A 
ATOM     10  C   UNL A   1      32.031  27.715  27.178  1.00  0.00     0.005 A 
ATOM     11  C   UNL A   1      31.902  29.103  27.048  1.00  0.00     0.000 A 
ATOM     12  C   UNL A   1      31.598  28.812  24.692  1.00  0.00     0.014 A 
ATOM     13  C   UNL A   1      31.778  29.659  25.784  1.00  0.00     0.001 A 
BRANCH   9  14
ATOM     14  C   UNL A   1      32.218  25.361  26.314  1.00  0.00     0.136 C 
BRANCH  14  15
ATOM     15  C   UNL A   1      31.163  24.233  26.299  1.00  0.00     0.228 C 
ATOM     16  N   UNL A   1      31.042  23.004  25.712  1.00  0.00    -0.326 N 
ATOM     17  H   UNL A   1      30.109  22.855  25.434  1.00  0.00     0.169 HD
ATOM     18  O   UNL A   1      30.060  24.565  26.795  1.00  0.00    -0.274 OA
BRANCH  16  19
ATOM     19  C   UNL A   1      31.833  21.875  25.378  1.00  0.00     0.041 A 
ATOM     20  C   UNL A   1      33.431  19.693  24.538  1.00  0.00     0.039 A 
ATOM     21  C   UNL A   1      33.683  20.296  25.757  1.00  0.00     0.016 A 
ATOM     22  C   UNL A   1      32.538  20.298  23.653  1.00  0.00     0.016 A 
ATOM     23  C   UNL A   1      32.923  21.416  26.127  1.00  0.00     0.027 A 
ATOM     24  C   UNL A   1      31.768  21.399  24.066  1.00  0.00     0.027 A 
BRANCH  20  25
ATOM     25  C   UNL A   1      33.965  18.353  24.247  1.00  0.00     0.248 C 
ATOM     26  N   UNL A   1      35.205  18.047  24.711  1.00  0.00    -0.366 N 
ATOM     27  H   UNL A   1      35.592  17.158  24.535  1.00  0.00     0.159 HD
ATOM     28  H   UNL A   1      35.716  18.713  25.226  1.00  0.00     0.159 HD
ATOM     29  O   UNL A   1      33.298  17.543  23.601  1.00  0.00    -0.270 OA
ENDBRANCH  20  25
ENDBRANCH  16  19
ENDBRANCH  14  15
ENDBRANCH   9  14
ENDBRANCH   5   8
ENDBRANCH   3   4
ENDBRANCH   2   3
ENDBRANCH   1   2
BRANCH   1  30
ATOM     30  C   UNL A   1      35.766  23.565  23.872  1.00  0.00     0.002 C 
BRANCH  30  31
ATOM     31  C   UNL A   1      36.422  22.209  24.091  1.00  0.00     0.021 C 
BRANCH  31  32
ATOM     32  C   UNL A   1      36.886  21.921  25.511  1.00  0.00     0.116 C 
BRANCH  32  33
ATOM     33  N   UNL A   1      37.906  20.892  25.621  1.00  0.00    -0.352 N 
ATOM     34  C   UNL A   1      39.183  21.034  26.125  1.00  0.00     0.251 C 
ATOM     35  H   UNL A   1      37.659  19.994  25.302  1.00  0.00     0.163 HD
ATOM     36  O   UNL A   1      39.970  20.094  26.114  1.00  0.00    -0.269 OA
BRANCH  34  37
ATOM     37  C   UNL A   1      39.607  22.360  26.636  1.00  0.00     0.039 A 
ATOM     38  C   UNL A   1      40.641  22.426  27.572  1.00  0.00     0.014 A 
ATOM     39  C   UNL A   1      39.044  23.533  26.127  1.00  0.00     0.014 A 
ATOM     40  C   UNL A   1      41.163  23.670  27.937  1.00  0.00     0.010 A 
ATOM     41  C   UNL A   1      39.624  24.763  26.423  1.00  0.00     0.010 A 
ATOM     42  C   UNL A   1      40.689  24.846  27.334  1.00  0.00    -0.014 A 
BRANCH  42  43
ATOM     43  C   UNL A   1      41.294  26.172  27.634  1.00  0.00     0.031 A 
ATOM     44  C   UNL A   1      42.706  26.472  27.206  1.00  0.00     0.074 A 
ATOM     45  C   UNL A   1      40.609  27.073  28.368  1.00  0.00     0.049 A 
ATOM     46  N   UNL A   1      43.422  27.544  27.422  1.00  0.00    -0.248 NA
ATOM     47  C   UNL A   1      43.417  25.417  26.463  1.00  0.00     0.031 C 
ATOM     48  C   UNL A   1      39.266  26.872  28.917  1.00  0.00     0.029 A 
ATOM     49  N   UNL A   1      40.958  28.328  28.802  1.00  0.00    -0.354 N 
ATOM     50  C   UNL A   1      44.674  27.281  26.878  1.00  0.00     0.074 A 
ATOM     51  C   UNL A   1      44.632  25.934  26.355  1.00  0.00     0.031 C 
ATOM     52  C   UNL A   1      38.904  27.966  29.607  1.00  0.00     0.029 A 
ATOM     53  C   UNL A   1      39.997  28.934  29.576  1.00  0.00     0.049 A 
ATOM     54  H   UNL A   1      41.817  28.754  28.579  1.00  0.00     0.167 HD
ATOM     55  C   UNL A   1      45.752  28.097  26.790  1.00  0.00     0.034 A 
ATOM     56  C   UNL A   1      39.994  30.130  30.196  1.00  0.00     0.034 A 
ATOM     57  C   UNL A   1      45.775  29.452  27.268  1.00  0.00     0.049 A 
ATOM     58  C   UNL A   1      41.187  31.036  30.046  1.00  0.00     0.074 A 
ATOM     59  C   UNL A   1      46.787  30.389  27.144  1.00  0.00     0.029 A 
ATOM     60  N   UNL A   1      44.746  30.064  27.967  1.00  0.00    -0.354 N 
ATOM     61  N   UNL A   1      42.301  30.829  29.386  1.00  0.00    -0.248 NA
ATOM     62  C   UNL A   1      41.110  32.355  30.692  1.00  0.00     0.031 C 
ATOM     63  C   UNL A   1      46.378  31.560  27.791  1.00  0.00     0.029 A 
ATOM     64  C   UNL A   1      45.100  31.362  28.289  1.00  0.00     0.049 A 
ATOM     65  H   UNL A   1      43.891  29.637  28.200  1.00  0.00     0.167 HD
ATOM     66  C   UNL A   1      43.038  32.002  29.502  1.00  0.00     0.074 A 
ATOM     67  C   UNL A   1      42.237  32.923  30.283  1.00  0.00     0.031 C 
ATOM     68  C   UNL A   1      44.271  32.288  29.017  1.00  0.00     0.034 A 
BRANCH  55  69
ATOM     69  C   UNL A   1      46.981  27.562  26.101  1.00  0.00     0.023 A 
ATOM     70  C   UNL A   1      47.164  27.797  24.724  1.00  0.00     0.012 A 
ATOM     71  C   UNL A   1      47.978  26.879  26.824  1.00  0.00     0.148 A 
ATOM     72  C   UNL A   1      48.302  27.331  24.067  1.00  0.00     0.002 A 
ATOM     73  C   UNL A   1      49.133  26.459  26.174  1.00  0.00     0.091 A 
ATOM     74  F   UNL A   1      47.777  26.647  28.129  1.00  0.00    -0.205 F 
ATOM     75  C   UNL A   1      49.290  26.672  24.794  1.00  0.00     0.022 A 
BRANCH  73  76
ATOM     76  S   UNL A   1      50.500  25.675  27.034  1.00  0.00     0.127 S 
ATOM     77  O   UNL A   1      51.459  25.479  25.948  1.00  0.00    -0.237 OA
ATOM     78  O   UNL A   1      50.880  26.700  28.007  1.00  0.00    -0.237 OA
ATOM     79  O   UNL A   1      49.959  24.455  27.618  1.00  0.00    -0.744 OA
ENDBRANCH  73  76
ENDBRANCH  55  69
BRANCH  56  80
ATOM     80  C   UNL A   1      38.794  30.571  30.964  1.00  0.00     0.023 A 
ATOM     81  C   UNL A   1      38.731  30.330  32.350  1.00  0.00     0.012 A 
ATOM     82  C   UNL A   1      37.729  31.246  30.336  1.00  0.00     0.148 A 
ATOM     83  C   UNL A   1      37.617  30.723  33.092  1.00  0.00     0.002 A 
ATOM     84  C   UNL A   1      36.647  31.685  31.091  1.00  0.00     0.091 A 
ATOM     85  F   UNL A   1      37.802  31.456  29.015  1.00  0.00    -0.205 F 
ATOM     86  C   UNL A   1      36.580  31.408  32.465  1.00  0.00     0.022 A 
BRANCH  84  87
ATOM     87  S   UNL A   1      35.329  32.687  30.392  1.00  0.00     0.127 S 
ATOM     88  O   UNL A   1      36.053  33.884  29.973  1.00  0.00    -0.237 OA
ATOM     89  O   UNL A   1      34.853  31.839  29.299  1.00  0.00    -0.237 OA
ATOM     90  O   UNL A   1      34.365  32.873  31.469  1.00  0.00    -0.744 OA
ENDBRANCH  84  87
ENDBRANCH  56  80
BRANCH  68  91
ATOM     91  C   UNL A   1      44.824  33.666  29.267  1.00  0.00     0.023 A 
ATOM     92  C   UNL A   1      45.545  33.931  30.446  1.00  0.00     0.012 A 
ATOM     93  C   UNL A   1      44.702  34.673  28.288  1.00  0.00     0.148 A 
ATOM     94  C   UNL A   1      46.114  35.187  30.662  1.00  0.00     0.002 A 
ATOM     95  C   UNL A   1      45.313  35.905  28.486  1.00  0.00     0.091 A 
ATOM     96  F   UNL A   1      43.996  34.405  27.180  1.00  0.00    -0.205 F 
ATOM     97  C   UNL A   1      46.009  36.168  29.677  1.00  0.00     0.022 A 
BRANCH  95  98
ATOM     98  S   UNL A   1      45.316  37.192  27.234  1.00  0.00     0.127 S 
ATOM     99  O   UNL A   1      46.060  38.258  27.903  1.00  0.00    -0.237 OA
ATOM    100  O   UNL A   1      46.032  36.549  26.131  1.00  0.00    -0.237 OA
ATOM    101  O   UNL A   1      43.917  37.487  26.957  1.00  0.00    -0.744 OA
ENDBRANCH  95  98
ENDBRANCH  68  91
ENDBRANCH  42  43
ENDBRANCH  34  37
ENDBRANCH  32  33
ENDBRANCH  31  32
ENDBRANCH  30  31
ENDBRANCH   1  30
TORSDOF 20
ENDMDL
MODEL 3
REMARK VINA RESULT:     -12.3      5.048      9.842
REMARK SMILES NC(=O)c1ccc(NC(=O)Cc2ccccc2C(=O)NCCCCCCNC(=O)c2ccc(-c3c4nc(c(-c5cccc(S(=O)(=O)[O-])c5F)c5ccc([nH]5)c(-c5cccc(S(=O)(=O)[O-])c5F)c5nc(c(-c6cccc(S(=O)(=O)[O-])c6F)c6ccc3[nH]6)C=C5)C=C4)cc2)cc1
REMARK SMILES IDX 23 1 22 2 21 3 20 4 18 5 19 6 17 8 12 9 13 10 14 11 16 12
REMARK SMILES IDX 15 13 11 14 9 15 8 16 10 18 7 19 4 20 5 21 94 22 6 23 93 24
REMARK SMILES IDX 2 25 1 26 3 29 24 30 25 31 26 32 27 33 28 34 29 36 30 37
REMARK SMILES IDX 31 38 92 39 32 40 91 41 33 42 34 43 35 44 85 45 36 46 90 47
REMARK SMILES IDX 84 48 86 49 37 50 89 51 83 52 82 53 38 55 70 56 50 57 69 58
REMARK SMILES IDX 51 59 54 60 68 61 87 62 52 63 53 64 67 66 88 67 55 68 39 69
REMARK SMILES IDX 40 70 48 71 41 72 43 73 49 74 42 75 44 76 45 77 46 78 47 79
REMARK SMILES IDX 71 80 72 81 80 82 73 83 75 84 81 85 74 86 76 87 77 88 78 89
REMARK SMILES IDX 79 90 56 91 57 92 65 93 58 94 60 95 66 96 59 97 61 98 62 99
REMARK SMILES IDX 63 100 64 101
REMARK H PARENT 20 7 8 17 1 27 1 28 27 35 86 54 54 65
REMARK Flexibility Score: inf
ROOT
ATOM      1  C   UNL A   1      35.183  23.363  23.584  1.00  0.00     0.002 C 
ENDROOT
BRANCH   1   2
ATOM      2  C   UNL A   1      34.524  23.705  22.231  1.00  0.00     0.021 C 
BRANCH   2   3
ATOM      3  C   UNL A   1      33.269  24.570  22.192  1.00  0.00     0.116 C 
BRANCH   3   4
ATOM      4  N   UNL A   1      32.438  24.383  23.349  1.00  0.00    -0.352 N 
ATOM      5  C   UNL A   1      31.469  23.422  23.524  1.00  0.00     0.251 C 
ATOM      6  O   UNL A   1      30.330  23.550  23.093  1.00  0.00    -0.269 OA
ATOM      7  H   UNL A   1      32.577  25.010  24.096  1.00  0.00     0.163 HD
BRANCH   5   8
ATOM      8  C   UNL A   1      31.885  22.189  24.253  1.00  0.00     0.043 A 
ATOM      9  C   UNL A   1      32.219  22.189  25.610  1.00  0.00    -0.026 A 
ATOM     10  C   UNL A   1      33.210  21.248  26.001  1.00  0.00     0.005 A 
ATOM     11  C   UNL A   1      33.647  20.222  25.155  1.00  0.00     0.000 A 
ATOM     12  C   UNL A   1      32.211  21.077  23.444  1.00  0.00     0.014 A 
ATOM     13  C   UNL A   1      33.073  20.083  23.901  1.00  0.00     0.001 A 
BRANCH   9  14
ATOM     14  C   UNL A   1      31.777  23.215  26.632  1.00  0.00     0.136 C 
BRANCH  14  15
ATOM     15  C   UNL A   1      30.385  23.868  26.777  1.00  0.00     0.228 C 
ATOM     16  N   UNL A   1      29.838  25.094  26.514  1.00  0.00    -0.326 N 
ATOM     17  H   UNL A   1      29.193  25.332  27.219  1.00  0.00     0.169 HD
ATOM     18  O   UNL A   1      29.579  23.194  27.461  1.00  0.00    -0.274 OA
BRANCH  16  19
ATOM     19  C   UNL A   1      29.905  26.130  25.548  1.00  0.00     0.041 A 
ATOM     20  C   UNL A   1      30.225  28.171  23.611  1.00  0.00     0.039 A 
ATOM     21  C   UNL A   1      29.206  27.247  23.468  1.00  0.00     0.016 A 
ATOM     22  C   UNL A   1      31.202  27.961  24.585  1.00  0.00     0.016 A 
ATOM     23  C   UNL A   1      29.103  26.204  24.402  1.00  0.00     0.027 A 
ATOM     24  C   UNL A   1      31.051  26.928  25.526  1.00  0.00     0.027 A 
BRANCH  20  25
ATOM     25  C   UNL A   1      30.187  29.438  22.865  1.00  0.00     0.248 C 
ATOM     26  N   UNL A   1      31.189  29.687  21.981  1.00  0.00    -0.366 N 
ATOM     27  H   UNL A   1      31.194  30.527  21.465  1.00  0.00     0.159 HD
ATOM     28  H   UNL A   1      31.910  29.028  21.855  1.00  0.00     0.159 HD
ATOM     29  O   UNL A   1      29.270  30.241  23.046  1.00  0.00    -0.270 OA
ENDBRANCH  20  25
ENDBRANCH  16  19
ENDBRANCH  14  15
ENDBRANCH   9  14
ENDBRANCH   5   8
ENDBRANCH   3   4
ENDBRANCH   2   3
ENDBRANCH   1   2
BRANCH   1  30
ATOM     30  C   UNL A   1      36.665  22.989  23.651  1.00  0.00     0.002 C 
BRANCH  30  31
ATOM     31  C   UNL A   1      36.991  21.598  24.178  1.00  0.00     0.021 C 
BRANCH  31  32
ATOM     32  C   UNL A   1      37.531  21.540  25.598  1.00  0.00     0.116 C 
BRANCH  32  33
ATOM     33  N   UNL A   1      38.609  20.586  25.801  1.00  0.00    -0.352 N 
ATOM     34  C   UNL A   1      39.843  20.831  26.370  1.00  0.00     0.251 C 
ATOM     35  H   UNL A   1      38.441  19.664  25.500  1.00  0.00     0.163 HD
ATOM     36  O   UNL A   1      40.690  19.946  26.435  1.00  0.00    -0.269 OA
BRANCH  34  37
ATOM     37  C   UNL A   1      40.148  22.198  26.857  1.00  0.00     0.039 A 
ATOM     38  C   UNL A   1      41.089  22.359  27.876  1.00  0.00     0.014 A 
ATOM     39  C   UNL A   1      39.571  23.316  26.249  1.00  0.00     0.014 A 
ATOM     40  C   UNL A   1      41.509  23.644  28.230  1.00  0.00     0.010 A 
ATOM     41  C   UNL A   1      40.056  24.588  26.541  1.00  0.00     0.010 A 
ATOM     42  C   UNL A   1      41.028  24.767  27.537  1.00  0.00    -0.014 A 
BRANCH  42  43
ATOM     43  C   UNL A   1      41.533  26.136  27.830  1.00  0.00     0.031 A 
ATOM     44  C   UNL A   1      42.931  26.527  27.432  1.00  0.00     0.074 A 
ATOM     45  C   UNL A   1      40.768  26.998  28.532  1.00  0.00     0.049 A 
ATOM     46  N   UNL A   1      43.565  27.649  27.648  1.00  0.00    -0.248 NA
ATOM     47  C   UNL A   1      43.732  25.513  26.724  1.00  0.00     0.031 C 
ATOM     48  C   UNL A   1      39.428  26.712  29.051  1.00  0.00     0.029 A 
ATOM     49  N   UNL A   1      41.018  28.281  28.954  1.00  0.00    -0.354 N 
ATOM     50  C   UNL A   1      44.846  27.466  27.140  1.00  0.00     0.074 A 
ATOM     51  C   UNL A   1      44.911  26.112  26.638  1.00  0.00     0.031 C 
ATOM     52  C   UNL A   1      38.974  27.788  29.714  1.00  0.00     0.029 A 
ATOM     53  C   UNL A   1      39.998  28.830  29.694  1.00  0.00     0.049 A 
ATOM     54  H   UNL A   1      41.852  28.762  28.745  1.00  0.00     0.167 HD
ATOM     55  C   UNL A   1      45.867  28.353  27.066  1.00  0.00     0.034 A 
ATOM     56  C   UNL A   1      39.897  30.032  30.294  1.00  0.00     0.034 A 
ATOM     57  C   UNL A   1      45.785  29.714  27.521  1.00  0.00     0.049 A 
ATOM     58  C   UNL A   1      41.028  31.016  30.158  1.00  0.00     0.074 A 
ATOM     59  C   UNL A   1      46.732  30.716  27.407  1.00  0.00     0.029 A 
ATOM     60  N   UNL A   1      44.698  30.262  28.184  1.00  0.00    -0.354 N 
ATOM     61  N   UNL A   1      42.170  30.877  29.529  1.00  0.00    -0.248 NA
ATOM     62  C   UNL A   1      40.843  32.336  30.780  1.00  0.00     0.031 C 
ATOM     63  C   UNL A   1      46.226  31.865  28.024  1.00  0.00     0.029 A 
ATOM     64  C   UNL A   1      44.953  31.587  28.494  1.00  0.00     0.049 A 
ATOM     65  H   UNL A   1      43.869  29.781  28.403  1.00  0.00     0.167 HD
ATOM     66  C   UNL A   1      42.820  32.100  29.645  1.00  0.00     0.074 A 
ATOM     67  C   UNL A   1      41.938  32.975  30.390  1.00  0.00     0.031 C 
ATOM     68  C   UNL A   1      44.043  32.463  29.185  1.00  0.00     0.034 A 
BRANCH  55  69
ATOM     69  C   UNL A   1      47.148  27.895  26.416  1.00  0.00     0.023 A 
ATOM     70  C   UNL A   1      48.159  27.311  27.206  1.00  0.00     0.012 A 
ATOM     71  C   UNL A   1      47.327  27.989  25.023  1.00  0.00     0.148 A 
ATOM     72  C   UNL A   1      49.344  26.861  26.626  1.00  0.00     0.002 A 
ATOM     73  C   UNL A   1      48.491  27.494  24.445  1.00  0.00     0.091 A 
ATOM     74  F   UNL A   1      46.364  28.566  24.290  1.00  0.00    -0.205 F 
ATOM     75  C   UNL A   1      49.505  26.943  25.246  1.00  0.00     0.022 A 
BRANCH  73  76
ATOM     76  S   UNL A   1      48.761  27.478  22.669  1.00  0.00     0.127 S 
ATOM     77  O   UNL A   1      50.033  28.192  22.558  1.00  0.00    -0.237 OA
ATOM     78  O   UNL A   1      48.839  26.045  22.383  1.00  0.00    -0.237 OA
ATOM     79  O   UNL A   1      47.612  28.154  22.083  1.00  0.00    -0.744 OA
ENDBRANCH  73  76
ENDBRANCH  55  69
BRANCH  56  80
ATOM     80  C   UNL A   1      38.649  30.400  31.024  1.00  0.00     0.023 A 
ATOM     81  C   UNL A   1      38.493  30.009  32.369  1.00  0.00     0.012 A 
ATOM     82  C   UNL A   1      37.631  31.150  30.405  1.00  0.00     0.148 A 
ATOM     83  C   UNL A   1      37.333  30.332  33.074  1.00  0.00     0.002 A 
ATOM     84  C   UNL A   1      36.502  31.516  31.129  1.00  0.00     0.091 A 
ATOM     85  F   UNL A   1      37.793  31.501  29.122  1.00  0.00    -0.205 F 
ATOM     86  C   UNL A   1      36.343  31.092  32.458  1.00  0.00     0.022 A 
BRANCH  84  87
ATOM     87  S   UNL A   1      35.238  32.601  30.459  1.00  0.00     0.127 S 
ATOM     88  O   UNL A   1      34.757  31.831  29.316  1.00  0.00    -0.237 OA
ATOM     89  O   UNL A   1      34.299  32.697  31.577  1.00  0.00    -0.237 OA
ATOM     90  O   UNL A   1      35.920  33.849  30.141  1.00  0.00    -0.744 OA
ENDBRANCH  84  87
ENDBRANCH  56  80
BRANCH  68  91
ATOM     91  C   UNL A   1      44.493  33.881  29.427  1.00  0.00     0.023 A 
ATOM     92  C   UNL A   1      45.047  34.241  30.670  1.00  0.00     0.012 A 
ATOM     93  C   UNL A   1      44.446  34.831  28.387  1.00  0.00     0.148 A 
ATOM     94  C   UNL A   1      45.523  35.534  30.885  1.00  0.00     0.002 A 
ATOM     95  C   UNL A   1      44.967  36.103  28.592  1.00  0.00     0.091 A 
ATOM     96  F   UNL A   1      43.898  34.473  27.218  1.00  0.00    -0.205 F 
ATOM     97  C   UNL A   1      45.494  36.460  29.843  1.00  0.00     0.022 A 
BRANCH  95  98
ATOM     98  S   UNL A   1      45.064  37.327  27.281  1.00  0.00     0.127 S 
ATOM     99  O   UNL A   1      45.829  38.393  27.926  1.00  0.00    -0.237 OA
ATOM    100  O   UNL A   1      45.788  36.604  26.235  1.00  0.00    -0.237 OA
ATOM    101  O   UNL A   1      43.688  37.663  26.942  1.00  0.00    -0.744 OA
ENDBRANCH  95  98
ENDBRANCH  68  91
ENDBRANCH  42  43
ENDBRANCH  34  37
ENDBRANCH  32  33
ENDBRANCH  31  32
ENDBRANCH  30  31
ENDBRANCH   1  30
TORSDOF 20
ENDMDL
