MODEL 1
REMARK VINA RESULT:     -11.5      0.000      0.000
REMARK SMILES O=C(CCCc1nc(-c2ccc(Cl)c(Cl)c2)c(-c2ccccc2)o1)NCCCCCCNC(=O)c1ccc(-c2c3nc(c(-c4cccc(S(=O)(=O)[O-])c4F)c4ccc([nH]4)c(-c4cccc(S(=O)(=O)[O-])c4F)c4nc(c(-c5cccc(S(=O)(=O)[O-])c5F)c5ccc2[nH]5)C=C4)C=C3)cc1
REMARK SMILES IDX 28 1 27 2 26 3 25 4 1 5 2 6 3 8 4 9 5 10 6 11 7 12 24 13
REMARK SMILES IDX 8 14 17 15 9 16 10 17 16 18 11 19 14 20 12 21 15 22 13 23
REMARK SMILES IDX 18 24 19 25 23 26 20 27 22 28 21 29 29 30 30 31 31 32 32 33
REMARK SMILES IDX 33 34 34 36 35 37 36 38 97 39 37 40 96 41 38 42 39 43 40 44
REMARK SMILES IDX 90 45 41 46 95 47 89 48 91 49 42 50 94 51 88 52 87 53 43 55
REMARK SMILES IDX 75 56 55 57 74 58 56 59 59 60 73 61 92 62 57 63 58 64 72 66
REMARK SMILES IDX 93 67 60 68 44 69 45 70 53 71 46 72 48 73 54 74 47 75 49 76
REMARK SMILES IDX 50 77 51 78 52 79 76 80 77 81 85 82 78 83 80 84 86 85 79 86
REMARK SMILES IDX 81 87 82 88 83 89 84 90 61 91 62 92 70 93 63 94 65 95 71 96
REMARK SMILES IDX 64 97 66 98 67 99 68 100 69 101
REMARK H PARENT 25 7 32 35 91 54 59 65
REMARK Flexibility Score: inf
ROOT
ATOM      1  C   UNL A   1      32.118  29.158  23.966  1.00  0.00     0.002 C 
ENDROOT
BRANCH   1   2
ATOM      2  C   UNL A   1      33.468  28.685  23.413  1.00  0.00     0.021 C 
BRANCH   2   3
ATOM      3  C   UNL A   1      33.534  27.198  23.066  1.00  0.00     0.116 C 
BRANCH   3   4
ATOM      4  N   UNL A   1      32.371  26.485  23.552  1.00  0.00    -0.356 N 
ATOM      5  O   UNL A   1      31.306  26.315  21.522  1.00  0.00    -0.275 OA
ATOM      6  C   UNL A   1      31.348  26.090  22.727  1.00  0.00     0.220 C 
ATOM      7  H   UNL A   1      32.312  26.275  24.512  1.00  0.00     0.163 HD
BRANCH   6   8
ATOM      8  C   UNL A   1      30.243  25.336  23.436  1.00  0.00     0.100 C 
BRANCH   8   9
ATOM      9  C   UNL A   1      29.916  25.902  24.822  1.00  0.00     0.020 C 
BRANCH   9  10
ATOM     10  C   UNL A   1      30.194  24.980  26.013  1.00  0.00     0.098 C 
BRANCH  10  11
ATOM     11  C   UNL A   1      31.195  23.928  25.702  1.00  0.00     0.195 A 
ATOM     12  N   UNL A   1      30.961  22.660  25.422  1.00  0.00    -0.213 NA
ATOM     13  O   UNL A   1      32.506  24.308  25.603  1.00  0.00    -0.440 OA
ATOM     14  C   UNL A   1      32.210  22.150  25.170  1.00  0.00     0.117 A 
ATOM     15  C   UNL A   1      33.151  23.158  25.230  1.00  0.00     0.162 A 
BRANCH  14  16
ATOM     16  C   UNL A   1      32.483  20.761  24.877  1.00  0.00     0.006 A 
ATOM     17  C   UNL A   1      32.884  19.889  25.892  1.00  0.00     0.012 A 
ATOM     18  C   UNL A   1      32.316  20.274  23.573  1.00  0.00     0.032 A 
ATOM     19  C   UNL A   1      33.081  18.532  25.612  1.00  0.00     0.023 A 
ATOM     20  C   UNL A   1      32.518  18.920  23.291  1.00  0.00     0.060 A 
ATOM     21  C   UNL A   1      32.892  18.044  24.315  1.00  0.00     0.059 A 
ATOM     22  Cl  UNL A   1      32.271  18.396  21.663  1.00  0.00    -0.083 Cl
ATOM     23  Cl  UNL A   1      33.121  16.353  24.047  1.00  0.00    -0.083 Cl
ENDBRANCH  14  16
BRANCH  15  24
ATOM     24  C   UNL A   1      34.569  23.252  24.949  1.00  0.00     0.020 A 
ATOM     25  C   UNL A   1      35.478  23.612  25.948  1.00  0.00     0.012 A 
ATOM     26  C   UNL A   1      35.048  22.927  23.671  1.00  0.00     0.012 A 
ATOM     27  C   UNL A   1      36.848  23.629  25.678  1.00  0.00     0.001 A 
ATOM     28  C   UNL A   1      36.416  22.953  23.400  1.00  0.00     0.001 A 
ATOM     29  C   UNL A   1      37.316  23.298  24.405  1.00  0.00     0.000 A 
ENDBRANCH  15  24
ENDBRANCH  10  11
ENDBRANCH   9  10
ENDBRANCH   8   9
ENDBRANCH   6   8
ENDBRANCH   3   4
ENDBRANCH   2   3
ENDBRANCH   1   2
BRANCH   1  30
ATOM     30  C   UNL A   1      32.102  29.502  25.457  1.00  0.00     0.002 C 
BRANCH  30  31
ATOM     31  C   UNL A   1      32.761  28.454  26.353  1.00  0.00     0.021 C 
BRANCH  31  32
ATOM     32  C   UNL A   1      34.024  28.932  27.060  1.00  0.00     0.116 C 
BRANCH  32  33
ATOM     33  N   UNL A   1      33.894  30.289  27.571  1.00  0.00    -0.352 N 
ATOM     34  C   UNL A   1      34.739  30.971  28.412  1.00  0.00     0.251 C 
ATOM     35  H   UNL A   1      33.096  30.782  27.276  1.00  0.00     0.163 HD
ATOM     36  O   UNL A   1      34.396  32.050  28.889  1.00  0.00    -0.269 OA
BRANCH  34  37
ATOM     37  C   UNL A   1      36.053  30.387  28.757  1.00  0.00     0.039 A 
ATOM     38  C   UNL A   1      37.160  30.689  27.962  1.00  0.00     0.014 A 
ATOM     39  C   UNL A   1      36.192  29.550  29.868  1.00  0.00     0.014 A 
ATOM     40  C   UNL A   1      38.417  30.186  28.308  1.00  0.00     0.010 A 
ATOM     41  C   UNL A   1      37.456  29.120  30.258  1.00  0.00     0.010 A 
ATOM     42  C   UNL A   1      38.580  29.417  29.472  1.00  0.00    -0.014 A 
BRANCH  42  43
ATOM     43  C   UNL A   1      39.910  28.886  29.867  1.00  0.00     0.031 A 
ATOM     44  C   UNL A   1      40.711  29.587  30.935  1.00  0.00     0.074 A 
ATOM     45  C   UNL A   1      40.427  27.817  29.229  1.00  0.00     0.049 A 
ATOM     46  N   UNL A   1      41.915  29.322  31.371  1.00  0.00    -0.248 NA
ATOM     47  C   UNL A   1      40.086  30.756  31.581  1.00  0.00     0.031 C 
ATOM     48  C   UNL A   1      39.785  27.094  28.128  1.00  0.00     0.029 A 
ATOM     49  N   UNL A   1      41.627  27.169  29.394  1.00  0.00    -0.354 N 
ATOM     50  C   UNL A   1      42.200  30.299  32.320  1.00  0.00     0.074 A 
ATOM     51  C   UNL A   1      41.065  31.193  32.361  1.00  0.00     0.031 C 
ATOM     52  C   UNL A   1      40.595  26.105  27.718  1.00  0.00     0.029 A 
ATOM     53  C   UNL A   1      41.826  26.141  28.500  1.00  0.00     0.049 A 
ATOM     54  H   UNL A   1      42.281  27.415  30.087  1.00  0.00     0.167 HD
ATOM     55  C   UNL A   1      43.289  30.421  33.114  1.00  0.00     0.034 A 
ATOM     56  C   UNL A   1      42.888  25.330  28.324  1.00  0.00     0.034 A 
ATOM     57  C   UNL A   1      44.402  29.512  33.098  1.00  0.00     0.049 A 
ATOM     58  C   UNL A   1      44.077  25.474  29.238  1.00  0.00     0.074 A 
ATOM     59  C   UNL A   1      45.533  29.521  33.896  1.00  0.00     0.029 A 
ATOM     60  N   UNL A   1      44.524  28.427  32.244  1.00  0.00    -0.354 N 
ATOM     61  N   UNL A   1      44.270  26.329  30.213  1.00  0.00    -0.248 NA
ATOM     62  C   UNL A   1      45.175  24.515  29.058  1.00  0.00     0.031 C 
ATOM     63  C   UNL A   1      46.348  28.452  33.512  1.00  0.00     0.029 A 
ATOM     64  C   UNL A   1      45.706  27.755  32.502  1.00  0.00     0.049 A 
ATOM     65  H   UNL A   1      43.867  28.172  31.556  1.00  0.00     0.167 HD
ATOM     66  C   UNL A   1      45.484  25.977  30.793  1.00  0.00     0.074 A 
ATOM     67  C   UNL A   1      45.972  24.820  30.072  1.00  0.00     0.031 C 
ATOM     68  C   UNL A   1      46.142  26.563  31.823  1.00  0.00     0.034 A 
BRANCH  55  69
ATOM     69  C   UNL A   1      43.304  31.544  34.120  1.00  0.00     0.023 A 
ATOM     70  C   UNL A   1      43.845  32.793  33.752  1.00  0.00     0.012 A 
ATOM     71  C   UNL A   1      42.720  31.391  35.392  1.00  0.00     0.148 A 
ATOM     72  C   UNL A   1      43.831  33.864  34.643  1.00  0.00     0.002 A 
ATOM     73  C   UNL A   1      42.666  32.478  36.258  1.00  0.00     0.091 A 
ATOM     74  F   UNL A   1      42.224  30.192  35.729  1.00  0.00    -0.205 F 
ATOM     75  C   UNL A   1      43.232  33.711  35.890  1.00  0.00     0.022 A 
BRANCH  73  76
ATOM     76  S   UNL A   1      41.844  32.412  37.853  1.00  0.00     0.127 S 
ATOM     77  O   UNL A   1      40.464  32.127  37.463  1.00  0.00    -0.237 OA
ATOM     78  O   UNL A   1      42.534  31.300  38.506  1.00  0.00    -0.237 OA
ATOM     79  O   UNL A   1      42.056  33.713  38.473  1.00  0.00    -0.744 OA
ENDBRANCH  73  76
ENDBRANCH  55  69
BRANCH  56  80
ATOM     80  C   UNL A   1      42.870  24.277  27.267  1.00  0.00     0.023 A 
ATOM     81  C   UNL A   1      43.492  24.523  26.026  1.00  0.00     0.012 A 
ATOM     82  C   UNL A   1      42.222  23.046  27.475  1.00  0.00     0.148 A 
ATOM     83  C   UNL A   1      43.419  23.586  24.995  1.00  0.00     0.002 A 
ATOM     84  C   UNL A   1      42.205  22.092  26.464  1.00  0.00     0.091 A 
ATOM     85  F   UNL A   1      41.627  22.832  28.657  1.00  0.00    -0.205 F 
ATOM     86  C   UNL A   1      42.782  22.368  25.215  1.00  0.00     0.022 A 
BRANCH  84  87
ATOM     87  S   UNL A   1      41.520  20.450  26.709  1.00  0.00     0.127 S 
ATOM     88  O   UNL A   1      41.846  19.797  25.445  1.00  0.00    -0.237 OA
ATOM     89  O   UNL A   1      42.283  19.972  27.864  1.00  0.00    -0.237 OA
ATOM     90  O   UNL A   1      40.102  20.654  26.974  1.00  0.00    -0.744 OA
ENDBRANCH  84  87
ENDBRANCH  56  80
BRANCH  68  91
ATOM     91  C   UNL A   1      47.423  25.924  32.291  1.00  0.00     0.023 A 
ATOM     92  C   UNL A   1      48.658  26.313  31.736  1.00  0.00     0.012 A 
ATOM     93  C   UNL A   1      47.401  24.978  33.336  1.00  0.00     0.148 A 
ATOM     94  C   UNL A   1      49.847  25.738  32.183  1.00  0.00     0.002 A 
ATOM     95  C   UNL A   1      48.595  24.452  33.815  1.00  0.00     0.091 A 
ATOM     96  F   UNL A   1      46.215  24.608  33.840  1.00  0.00    -0.205 F 
ATOM     97  C   UNL A   1      49.816  24.819  33.230  1.00  0.00     0.022 A 
BRANCH  95  98
ATOM     98  S   UNL A   1      48.658  23.341  35.224  1.00  0.00     0.127 S 
ATOM     99  O   UNL A   1      50.094  23.096  35.347  1.00  0.00    -0.237 OA
ATOM    100  O   UNL A   1      48.087  24.163  36.292  1.00  0.00    -0.237 OA
ATOM    101  O   UNL A   1      47.855  22.182  34.859  1.00  0.00    -0.744 OA
ENDBRANCH  95  98
ENDBRANCH  68  91
ENDBRANCH  42  43
ENDBRANCH  34  37
ENDBRANCH  32  33
ENDBRANCH  31  32
ENDBRANCH  30  31
ENDBRANCH   1  30
TORSDOF 21
ENDMDL
MODEL 2
REMARK VINA RESULT:     -10.8      1.060      7.356
REMARK SMILES O=C(CCCc1nc(-c2ccc(Cl)c(Cl)c2)c(-c2ccccc2)o1)NCCCCCCNC(=O)c1ccc(-c2c3nc(c(-c4cccc(S(=O)(=O)[O-])c4F)c4ccc([nH]4)c(-c4cccc(S(=O)(=O)[O-])c4F)c4nc(c(-c5cccc(S(=O)(=O)[O-])c5F)c5ccc2[nH]5)C=C4)C=C3)cc1
REMARK SMILES IDX 28 1 27 2 26 3 25 4 1 5 2 6 3 8 4 9 5 10 6 11 7 12 24 13
REMARK SMILES IDX 8 14 17 15 9 16 10 17 16 18 11 19 14 20 12 21 15 22 13 23
REMARK SMILES IDX 18 24 19 25 23 26 20 27 22 28 21 29 29 30 30 31 31 32 32 33
REMARK SMILES IDX 33 34 34 36 35 37 36 38 97 39 37 40 96 41 38 42 39 43 40 44
REMARK SMILES IDX 90 45 41 46 95 47 89 48 91 49 42 50 94 51 88 52 87 53 43 55
REMARK SMILES IDX 75 56 55 57 74 58 56 59 59 60 73 61 92 62 57 63 58 64 72 66
REMARK SMILES IDX 93 67 60 68 44 69 45 70 53 71 46 72 48 73 54 74 47 75 49 76
REMARK SMILES IDX 50 77 51 78 52 79 76 80 77 81 85 82 78 83 80 84 86 85 79 86
REMARK SMILES IDX 81 87 82 88 83 89 84 90 61 91 62 92 70 93 63 94 65 95 71 96
REMARK SMILES IDX 64 97 66 98 67 99 68 100 69 101
REMARK H PARENT 25 7 32 35 91 54 59 65
REMARK Flexibility Score: inf
ROOT
ATOM      1  C   UNL A   1      32.063  29.231  24.610  1.00  0.00     0.002 C 
ENDROOT
BRANCH   1   2
ATOM      2  C   UNL A   1      33.381  28.901  23.899  1.00  0.00     0.021 C 
BRANCH   2   3
ATOM      3  C   UNL A   1      33.352  27.632  23.048  1.00  0.00     0.116 C 
BRANCH   3   4
ATOM      4  N   UNL A   1      32.339  26.705  23.508  1.00  0.00    -0.356 N 
ATOM      5  O   UNL A   1      31.065  26.743  21.596  1.00  0.00    -0.275 OA
ATOM      6  C   UNL A   1      31.274  26.326  22.730  1.00  0.00     0.220 C 
ATOM      7  H   UNL A   1      32.418  26.331  24.416  1.00  0.00     0.163 HD
BRANCH   6   8
ATOM      8  C   UNL A   1      30.350  25.328  23.396  1.00  0.00     0.100 C 
BRANCH   8   9
ATOM      9  C   UNL A   1      29.810  25.810  24.747  1.00  0.00     0.020 C 
BRANCH   9  10
ATOM     10  C   UNL A   1      30.225  24.992  25.973  1.00  0.00     0.098 C 
BRANCH  10  11
ATOM     11  C   UNL A   1      31.230  23.947  25.652  1.00  0.00     0.195 A 
ATOM     12  N   UNL A   1      31.001  22.683  25.353  1.00  0.00    -0.213 NA
ATOM     13  O   UNL A   1      32.541  24.332  25.563  1.00  0.00    -0.440 OA
ATOM     14  C   UNL A   1      32.252  22.180  25.099  1.00  0.00     0.117 A 
ATOM     15  C   UNL A   1      33.191  23.189  25.176  1.00  0.00     0.162 A 
BRANCH  14  16
ATOM     16  C   UNL A   1      32.530  20.796  24.787  1.00  0.00     0.006 A 
ATOM     17  C   UNL A   1      33.002  19.928  25.776  1.00  0.00     0.012 A 
ATOM     18  C   UNL A   1      32.296  20.308  23.494  1.00  0.00     0.032 A 
ATOM     19  C   UNL A   1      33.205  18.575  25.482  1.00  0.00     0.023 A 
ATOM     20  C   UNL A   1      32.504  18.958  23.197  1.00  0.00     0.060 A 
ATOM     21  C   UNL A   1      32.950  18.086  24.196  1.00  0.00     0.059 A 
ATOM     22  Cl  UNL A   1      32.172  18.432  21.585  1.00  0.00    -0.083 Cl
ATOM     23  Cl  UNL A   1      33.190  16.399  23.912  1.00  0.00    -0.083 Cl
ENDBRANCH  14  16
BRANCH  15  24
ATOM     24  C   UNL A   1      34.609  23.290  24.903  1.00  0.00     0.020 A 
ATOM     25  C   UNL A   1      35.500  23.743  25.881  1.00  0.00     0.012 A 
ATOM     26  C   UNL A   1      35.109  22.881  23.658  1.00  0.00     0.012 A 
ATOM     27  C   UNL A   1      36.872  23.766  25.623  1.00  0.00     0.001 A 
ATOM     28  C   UNL A   1      36.479  22.914  23.398  1.00  0.00     0.001 A 
ATOM     29  C   UNL A   1      37.361  23.351  24.384  1.00  0.00     0.000 A 
ENDBRANCH  15  24
ENDBRANCH  10  11
ENDBRANCH   9  10
ENDBRANCH   8   9
ENDBRANCH   6   8
ENDBRANCH   3   4
ENDBRANCH   2   3
ENDBRANCH   1   2
BRANCH   1  30
ATOM     30  C   UNL A   1      32.076  29.064  26.131  1.00  0.00     0.002 C 
BRANCH  30  31
ATOM     31  C   UNL A   1      33.209  28.185  26.659  1.00  0.00     0.021 C 
BRANCH  31  32
ATOM     32  C   UNL A   1      34.434  28.954  27.137  1.00  0.00     0.116 C 
BRANCH  32  33
ATOM     33  N   UNL A   1      34.098  30.276  27.645  1.00  0.00    -0.352 N 
ATOM     34  C   UNL A   1      34.771  31.035  28.570  1.00  0.00     0.251 C 
ATOM     35  H   UNL A   1      33.279  30.680  27.276  1.00  0.00     0.163 HD
ATOM     36  O   UNL A   1      34.259  32.058  29.019  1.00  0.00    -0.269 OA
BRANCH  34  37
ATOM     37  C   UNL A   1      36.105  30.601  29.038  1.00  0.00     0.039 A 
ATOM     38  C   UNL A   1      36.191  29.613  30.020  1.00  0.00     0.014 A 
ATOM     39  C   UNL A   1      37.267  31.161  28.499  1.00  0.00     0.014 A 
ATOM     40  C   UNL A   1      37.446  29.157  30.433  1.00  0.00     0.010 A 
ATOM     41  C   UNL A   1      38.511  30.646  28.850  1.00  0.00     0.010 A 
ATOM     42  C   UNL A   1      38.616  29.652  29.834  1.00  0.00    -0.014 A 
BRANCH  42  43
ATOM     43  C   UNL A   1      39.959  29.168  30.245  1.00  0.00     0.031 A 
ATOM     44  C   UNL A   1      40.610  28.034  29.495  1.00  0.00     0.074 A 
ATOM     45  C   UNL A   1      40.566  29.700  31.326  1.00  0.00     0.049 A 
ATOM     46  N   UNL A   1      41.742  27.426  29.739  1.00  0.00    -0.248 NA
ATOM     47  C   UNL A   1      39.882  27.496  28.332  1.00  0.00     0.031 C 
ATOM     48  C   UNL A   1      40.008  30.751  32.181  1.00  0.00     0.029 A 
ATOM     49  N   UNL A   1      41.775  29.407  31.908  1.00  0.00    -0.354 N 
ATOM     50  C   UNL A   1      41.850  26.424  28.781  1.00  0.00     0.074 A 
ATOM     51  C   UNL A   1      40.647  26.471  27.981  1.00  0.00     0.031 C 
ATOM     52  C   UNL A   1      40.871  31.014  33.175  1.00  0.00     0.029 A 
ATOM     53  C   UNL A   1      42.027  30.132  33.051  1.00  0.00     0.049 A 
ATOM     54  H   UNL A   1      42.403  28.744  31.541  1.00  0.00     0.167 HD
ATOM     55  C   UNL A   1      42.874  25.567  28.558  1.00  0.00     0.034 A 
ATOM     56  C   UNL A   1      43.066  30.080  33.908  1.00  0.00     0.034 A 
ATOM     57  C   UNL A   1      44.085  25.544  29.331  1.00  0.00     0.049 A 
ATOM     58  C   UNL A   1      44.201  29.132  33.621  1.00  0.00     0.074 A 
ATOM     59  C   UNL A   1      45.202  24.745  29.156  1.00  0.00     0.029 A 
ATOM     60  N   UNL A   1      44.343  26.359  30.421  1.00  0.00    -0.354 N 
ATOM     61  N   UNL A   1      44.337  28.280  32.635  1.00  0.00    -0.248 NA
ATOM     62  C   UNL A   1      45.347  29.170  34.542  1.00  0.00     0.031 C 
ATOM     63  C   UNL A   1      46.128  25.065  30.153  1.00  0.00     0.029 A 
ATOM     64  C   UNL A   1      45.604  26.089  30.924  1.00  0.00     0.049 A 
ATOM     65  H   UNL A   1      43.721  27.030  30.785  1.00  0.00     0.167 HD
ATOM     66  C   UNL A   1      45.601  27.720  32.786  1.00  0.00     0.074 A 
ATOM     67  C   UNL A   1      46.197  28.344  33.949  1.00  0.00     0.031 C 
ATOM     68  C   UNL A   1      46.211  26.769  32.038  1.00  0.00     0.034 A 
BRANCH  55  69
ATOM     69  C   UNL A   1      42.759  24.623  27.388  1.00  0.00     0.023 A 
ATOM     70  C   UNL A   1      43.295  25.003  26.140  1.00  0.00     0.012 A 
ATOM     71  C   UNL A   1      42.198  23.341  27.538  1.00  0.00     0.148 A 
ATOM     72  C   UNL A   1      43.246  24.134  25.052  1.00  0.00     0.002 A 
ATOM     73  C   UNL A   1      42.198  22.461  26.461  1.00  0.00     0.091 A 
ATOM     74  F   UNL A   1      41.682  23.003  28.728  1.00  0.00    -0.205 F 
ATOM     75  C   UNL A   1      42.709  22.860  25.215  1.00  0.00     0.022 A 
BRANCH  73  76
ATOM     76  S   UNL A   1      41.606  20.770  26.585  1.00  0.00     0.127 S 
ATOM     77  O   UNL A   1      40.162  20.950  26.432  1.00  0.00    -0.237 OA
ATOM     78  O   UNL A   1      42.263  20.132  25.444  1.00  0.00    -0.237 OA
ATOM     79  O   UNL A   1      42.034  20.285  27.889  1.00  0.00    -0.744 OA
ENDBRANCH  73  76
ENDBRANCH  55  69
BRANCH  56  80
ATOM     80  C   UNL A   1      43.110  30.976  35.099  1.00  0.00     0.023 A 
ATOM     81  C   UNL A   1      42.608  30.521  36.336  1.00  0.00     0.012 A 
ATOM     82  C   UNL A   1      43.626  32.283  35.010  1.00  0.00     0.148 A 
ATOM     83  C   UNL A   1      42.566  31.369  37.443  1.00  0.00     0.002 A 
ATOM     84  C   UNL A   1      43.637  33.102  36.133  1.00  0.00     0.091 A 
ATOM     85  F   UNL A   1      44.091  32.703  33.826  1.00  0.00    -0.205 F 
ATOM     86  C   UNL A   1      43.086  32.656  37.344  1.00  0.00     0.022 A 
BRANCH  84  87
ATOM     87  S   UNL A   1      44.406  34.725  36.127  1.00  0.00     0.127 S 
ATOM     88  O   UNL A   1      44.376  35.076  37.543  1.00  0.00    -0.237 OA
ATOM     89  O   UNL A   1      45.736  34.428  35.592  1.00  0.00    -0.237 OA
ATOM     90  O   UNL A   1      43.580  35.545  35.249  1.00  0.00    -0.744 OA
ENDBRANCH  84  87
ENDBRANCH  56  80
BRANCH  68  91
ATOM     91  C   UNL A   1      47.625  26.393  32.397  1.00  0.00     0.023 A 
ATOM     92  C   UNL A   1      48.709  27.149  31.911  1.00  0.00     0.012 A 
ATOM     93  C   UNL A   1      47.869  25.319  33.278  1.00  0.00     0.148 A 
ATOM     94  C   UNL A   1      50.017  26.816  32.261  1.00  0.00     0.002 A 
ATOM     95  C   UNL A   1      49.171  25.029  33.666  1.00  0.00     0.091 A 
ATOM     96  F   UNL A   1      46.825  24.601  33.716  1.00  0.00    -0.205 F 
ATOM     97  C   UNL A   1      50.246  25.765  33.146  1.00  0.00     0.022 A 
BRANCH  95  98
ATOM     98  S   UNL A   1      49.552  23.761  34.879  1.00  0.00     0.127 S 
ATOM     99  O   UNL A   1      51.010  23.707  34.806  1.00  0.00    -0.237 OA
ATOM    100  O   UNL A   1      49.025  24.345  36.113  1.00  0.00    -0.237 OA
ATOM    101  O   UNL A   1      48.858  22.559  34.436  1.00  0.00    -0.744 OA
ENDBRANCH  95  98
ENDBRANCH  68  91
ENDBRANCH  42  43
ENDBRANCH  34  37
ENDBRANCH  32  33
ENDBRANCH  31  32
ENDBRANCH  30  31
ENDBRANCH   1  30
TORSDOF 21
ENDMDL
MODEL 3
REMARK VINA RESULT:     -10.7      1.845      7.462
REMARK SMILES O=C(CCCc1nc(-c2ccc(Cl)c(Cl)c2)c(-c2ccccc2)o1)NCCCCCCNC(=O)c1ccc(-c2c3nc(c(-c4cccc(S(=O)(=O)[O-])c4F)c4ccc([nH]4)c(-c4cccc(S(=O)(=O)[O-])c4F)c4nc(c(-c5cccc(S(=O)(=O)[O-])c5F)c5ccc2[nH]5)C=C4)C=C3)cc1
REMARK SMILES IDX 28 1 27 2 26 3 25 4 1 5 2 6 3 8 4 9 5 10 6 11 7 12 24 13
REMARK SMILES IDX 8 14 17 15 9 16 10 17 16 18 11 19 14 20 12 21 15 22 13 23
REMARK SMILES IDX 18 24 19 25 23 26 20 27 22 28 21 29 29 30 30 31 31 32 32 33
REMARK SMILES IDX 33 34 34 36 35 37 36 38 97 39 37 40 96 41 38 42 39 43 40 44
REMARK SMILES IDX 90 45 41 46 95 47 89 48 91 49 42 50 94 51 88 52 87 53 43 55
REMARK SMILES IDX 75 56 55 57 74 58 56 59 59 60 73 61 92 62 57 63 58 64 72 66
REMARK SMILES IDX 93 67 60 68 44 69 45 70 53 71 46 72 48 73 54 74 47 75 49 76
REMARK SMILES IDX 50 77 51 78 52 79 76 80 77 81 85 82 78 83 80 84 86 85 79 86
REMARK SMILES IDX 81 87 82 88 83 89 84 90 61 91 62 92 70 93 63 94 65 95 71 96
REMARK SMILES IDX 64 97 66 98 67 99 68 100 69 101
REMARK H PARENT 25 7 32 35 91 54 59 65
REMARK Flexibility Score: inf
ROOT
ATOM      1  C   UNL A   1      32.121  29.254  24.922  1.00  0.00     0.002 C 
ENDROOT
BRANCH   1   2
ATOM      2  C   UNL A   1      33.361  29.027  24.049  1.00  0.00     0.021 C 
BRANCH   2   3
ATOM      3  C   UNL A   1      33.273  27.828  23.106  1.00  0.00     0.116 C 
BRANCH   3   4
ATOM      4  N   UNL A   1      32.295  26.863  23.562  1.00  0.00    -0.356 N 
ATOM      5  O   UNL A   1      30.889  27.047  21.753  1.00  0.00    -0.275 OA
ATOM      6  C   UNL A   1      31.177  26.542  22.833  1.00  0.00     0.220 C 
ATOM      7  H   UNL A   1      32.437  26.419  24.429  1.00  0.00     0.163 HD
BRANCH   6   8
ATOM      8  C   UNL A   1      30.301  25.490  23.481  1.00  0.00     0.100 C 
BRANCH   8   9
ATOM      9  C   UNL A   1      29.709  25.938  24.822  1.00  0.00     0.020 C 
BRANCH   9  10
ATOM     10  C   UNL A   1      30.134  25.131  26.052  1.00  0.00     0.098 C 
BRANCH  10  11
ATOM     11  C   UNL A   1      31.129  24.077  25.732  1.00  0.00     0.195 A 
ATOM     12  N   UNL A   1      30.890  22.810  25.451  1.00  0.00    -0.213 NA
ATOM     13  O   UNL A   1      32.441  24.453  25.622  1.00  0.00    -0.440 OA
ATOM     14  C   UNL A   1      32.135  22.298  25.188  1.00  0.00     0.117 A 
ATOM     15  C   UNL A   1      33.080  23.303  25.241  1.00  0.00     0.162 A 
BRANCH  14  16
ATOM     16  C   UNL A   1      32.402  20.908  24.890  1.00  0.00     0.006 A 
ATOM     17  C   UNL A   1      32.754  20.020  25.910  1.00  0.00     0.012 A 
ATOM     18  C   UNL A   1      32.277  20.437  23.576  1.00  0.00     0.032 A 
ATOM     19  C   UNL A   1      32.945  18.664  25.622  1.00  0.00     0.023 A 
ATOM     20  C   UNL A   1      32.474  19.083  23.286  1.00  0.00     0.060 A 
ATOM     21  C   UNL A   1      32.799  18.192  24.314  1.00  0.00     0.059 A 
ATOM     22  Cl  UNL A   1      32.281  18.579  21.645  1.00  0.00    -0.083 Cl
ATOM     23  Cl  UNL A   1      33.017  16.501  24.037  1.00  0.00    -0.083 Cl
ENDBRANCH  14  16
BRANCH  15  24
ATOM     24  C   UNL A   1      34.495  23.393  24.948  1.00  0.00     0.020 A 
ATOM     25  C   UNL A   1      35.413  23.751  25.939  1.00  0.00     0.012 A 
ATOM     26  C   UNL A   1      34.963  23.068  23.666  1.00  0.00     0.012 A 
ATOM     27  C   UNL A   1      36.781  23.764  25.658  1.00  0.00     0.001 A 
ATOM     28  C   UNL A   1      36.329  23.090  23.383  1.00  0.00     0.001 A 
ATOM     29  C   UNL A   1      37.238  23.432  24.381  1.00  0.00     0.000 A 
ENDBRANCH  15  24
ENDBRANCH  10  11
ENDBRANCH   9  10
ENDBRANCH   8   9
ENDBRANCH   6   8
ENDBRANCH   3   4
ENDBRANCH   2   3
ENDBRANCH   1   2
BRANCH   1  30
ATOM     30  C   UNL A   1      32.334  29.078  26.427  1.00  0.00     0.002 C 
BRANCH  30  31
ATOM     31  C   UNL A   1      33.540  28.214  26.797  1.00  0.00     0.021 C 
BRANCH  31  32
ATOM     32  C   UNL A   1      34.761  28.999  27.258  1.00  0.00     0.116 C 
BRANCH  32  33
ATOM     33  N   UNL A   1      34.404  30.256  27.900  1.00  0.00    -0.352 N 
ATOM     34  C   UNL A   1      35.106  30.966  28.843  1.00  0.00     0.251 C 
ATOM     35  H   UNL A   1      33.546  30.650  27.620  1.00  0.00     0.163 HD
ATOM     36  O   UNL A   1      34.583  31.921  29.412  1.00  0.00    -0.269 OA
BRANCH  34  37
ATOM     37  C   UNL A   1      36.485  30.558  29.185  1.00  0.00     0.039 A 
ATOM     38  C   UNL A   1      36.680  29.562  30.143  1.00  0.00     0.014 A 
ATOM     39  C   UNL A   1      37.582  31.151  28.553  1.00  0.00     0.014 A 
ATOM     40  C   UNL A   1      37.977  29.130  30.437  1.00  0.00     0.010 A 
ATOM     41  C   UNL A   1      38.863  30.662  28.785  1.00  0.00     0.010 A 
ATOM     42  C   UNL A   1      39.077  29.660  29.743  1.00  0.00    -0.014 A 
BRANCH  42  43
ATOM     43  C   UNL A   1      40.462  29.203  30.028  1.00  0.00     0.031 A 
ATOM     44  C   UNL A   1      41.025  28.012  29.296  1.00  0.00     0.074 A 
ATOM     45  C   UNL A   1      41.192  29.815  30.983  1.00  0.00     0.049 A 
ATOM     46  N   UNL A   1      42.181  27.419  29.450  1.00  0.00    -0.248 NA
ATOM     47  C   UNL A   1      40.166  27.387  28.274  1.00  0.00     0.031 C 
ATOM     48  C   UNL A   1      40.735  30.932  31.814  1.00  0.00     0.029 A 
ATOM     49  N   UNL A   1      42.463  29.563  31.438  1.00  0.00    -0.354 N 
ATOM     50  C   UNL A   1      42.178  26.345  28.566  1.00  0.00     0.074 A 
ATOM     51  C   UNL A   1      40.887  26.335  27.915  1.00  0.00     0.031 C 
ATOM     52  C   UNL A   1      41.710  31.268  32.675  1.00  0.00     0.029 A 
ATOM     53  C   UNL A   1      42.846  30.374  32.483  1.00  0.00     0.049 A 
ATOM     54  H   UNL A   1      43.046  28.870  31.052  1.00  0.00     0.167 HD
ATOM     55  C   UNL A   1      43.172  25.468  28.290  1.00  0.00     0.034 A 
ATOM     56  C   UNL A   1      43.980  30.383  33.210  1.00  0.00     0.034 A 
ATOM     57  C   UNL A   1      44.467  25.500  28.912  1.00  0.00     0.049 A 
ATOM     58  C   UNL A   1      45.078  29.411  32.865  1.00  0.00     0.074 A 
ATOM     59  C   UNL A   1      45.559  24.684  28.668  1.00  0.00     0.029 A 
ATOM     60  N   UNL A   1      44.849  26.396  29.897  1.00  0.00    -0.354 N 
ATOM     61  N   UNL A   1      45.099  28.483  31.940  1.00  0.00    -0.248 NA
ATOM     62  C   UNL A   1      46.325  29.514  33.636  1.00  0.00     0.031 C 
ATOM     63  C   UNL A   1      46.596  25.076  29.520  1.00  0.00     0.029 A 
ATOM     64  C   UNL A   1      46.163  26.160  30.266  1.00  0.00     0.049 A 
ATOM     65  H   UNL A   1      44.272  27.096  30.279  1.00  0.00     0.167 HD
ATOM     66  C   UNL A   1      46.375  27.931  31.982  1.00  0.00     0.074 A 
ATOM     67  C   UNL A   1      47.103  28.641  33.013  1.00  0.00     0.031 C 
ATOM     68  C   UNL A   1      46.895  26.922  31.242  1.00  0.00     0.034 A 
BRANCH  55  69
ATOM     69  C   UNL A   1      42.923  24.436  27.220  1.00  0.00     0.023 A 
ATOM     70  C   UNL A   1      43.404  24.667  25.914  1.00  0.00     0.012 A 
ATOM     71  C   UNL A   1      42.288  23.215  27.517  1.00  0.00     0.148 A 
ATOM     72  C   UNL A   1      43.230  23.712  24.914  1.00  0.00     0.002 A 
ATOM     73  C   UNL A   1      42.163  22.247  26.526  1.00  0.00     0.091 A 
ATOM     74  F   UNL A   1      41.825  23.020  28.759  1.00  0.00    -0.205 F 
ATOM     75  C   UNL A   1      42.622  22.499  25.222  1.00  0.00     0.022 A 
BRANCH  73  76
ATOM     76  S   UNL A   1      41.469  20.620  26.837  1.00  0.00     0.127 S 
ATOM     77  O   UNL A   1      42.192  20.217  28.043  1.00  0.00    -0.237 OA
ATOM     78  O   UNL A   1      40.055  20.926  27.048  1.00  0.00    -0.237 OA
ATOM     79  O   UNL A   1      41.754  19.824  25.650  1.00  0.00    -0.744 OA
ENDBRANCH  73  76
ENDBRANCH  55  69
BRANCH  56  80
ATOM     80  C   UNL A   1      44.163  31.370  34.315  1.00  0.00     0.023 A 
ATOM     81  C   UNL A   1      44.857  32.572  34.070  1.00  0.00     0.012 A 
ATOM     82  C   UNL A   1      43.673  31.114  35.609  1.00  0.00     0.148 A 
ATOM     83  C   UNL A   1      45.108  33.472  35.107  1.00  0.00     0.002 A 
ATOM     84  C   UNL A   1      43.874  32.043  36.623  1.00  0.00     0.091 A 
ATOM     85  F   UNL A   1      43.023  29.962  35.827  1.00  0.00    -0.205 F 
ATOM     86  C   UNL A   1      44.612  33.212  36.381  1.00  0.00     0.022 A 
BRANCH  84  87
ATOM     87  S   UNL A   1      43.157  31.847  38.258  1.00  0.00     0.127 S 
ATOM     88  O   UNL A   1      43.162  33.219  38.755  1.00  0.00    -0.237 OA
ATOM     89  O   UNL A   1      41.832  31.309  37.945  1.00  0.00    -0.237 OA
ATOM     90  O   UNL A   1      44.030  30.913  38.957  1.00  0.00    -0.744 OA
ENDBRANCH  84  87
ENDBRANCH  56  80
BRANCH  68  91
ATOM     91  C   UNL A   1      48.343  26.569  31.458  1.00  0.00     0.023 A 
ATOM     92  C   UNL A   1      48.708  25.627  32.440  1.00  0.00     0.012 A 
ATOM     93  C   UNL A   1      49.339  27.131  30.633  1.00  0.00     0.148 A 
ATOM     94  C   UNL A   1      50.047  25.282  32.626  1.00  0.00     0.002 A 
ATOM     95  C   UNL A   1      50.663  26.740  30.787  1.00  0.00     0.091 A 
ATOM     96  F   UNL A   1      48.973  28.039  29.717  1.00  0.00    -0.205 F 
ATOM     97  C   UNL A   1      51.021  25.829  31.793  1.00  0.00     0.022 A 
BRANCH  95  98
ATOM     98  S   UNL A   1      51.968  27.314  29.696  1.00  0.00     0.127 S 
ATOM     99  O   UNL A   1      51.462  26.907  28.386  1.00  0.00    -0.237 OA
ATOM    100  O   UNL A   1      51.955  28.758  29.932  1.00  0.00    -0.237 OA
ATOM    101  O   UNL A   1      53.184  26.641  30.133  1.00  0.00    -0.744 OA
ENDBRANCH  95  98
ENDBRANCH  68  91
ENDBRANCH  42  43
ENDBRANCH  34  37
ENDBRANCH  32  33
ENDBRANCH  31  32
ENDBRANCH  30  31
ENDBRANCH   1  30
TORSDOF 21
ENDMDL
