MODEL 1
REMARK VINA RESULT:     -10.2      0.000      0.000
REMARK SMILES CCCCCCNC(=O)Oc1cccc(-c2ccc([C@@H](C)C(=O)NCCCCCCNC(=O)c3ccc(-c4c5nc(c(-c6cccc(S(=O)(=O)[O-])c6F)c6ccc([nH]6)c(-c6cccc(S(=O)(=O)[O-])c6F)c6nc(c(-c7cccc(S(=O)(=O)[O-])c7F)c7ccc4[nH]7)C=C6)C=C5)cc3)cc2F)c1
REMARK SMILES IDX 22 1 23 2 24 3 20 5 21 6 19 7 16 8 17 9 98 10 18 11 97 12
REMARK SMILES IDX 99 13 15 14 11 15 12 16 100 17 13 18 14 19 10 20 8 21 7 22
REMARK SMILES IDX 9 24 6 25 5 26 4 27 3 28 2 29 1 30 25 31 26 32 27 33 28 34
REMARK SMILES IDX 29 35 30 36 31 37 32 38 33 40 34 41 35 42 96 43 36 44 95 45
REMARK SMILES IDX 37 46 38 47 39 48 89 49 40 50 94 51 88 52 90 53 41 54 93 55
REMARK SMILES IDX 87 56 86 57 42 59 74 60 54 61 73 62 55 63 58 64 72 65 91 66
REMARK SMILES IDX 56 67 57 68 71 70 92 71 59 72 43 73 44 74 52 75 45 76 47 77
REMARK SMILES IDX 53 78 46 79 48 80 49 81 50 82 51 83 75 84 76 85 84 86 77 87
REMARK SMILES IDX 79 88 85 89 78 90 80 91 81 92 82 93 83 94 60 95 61 96 69 97
REMARK SMILES IDX 62 98 64 99 70 100 63 101 65 102 66 103 67 104 68 105
REMARK H PARENT 24 4 7 23 31 39 90 58 58 69
REMARK Flexibility Score: inf
ROOT
ATOM      1  C   UNL A   1      34.562  32.679  28.410  1.00  0.00     0.227 C 
ATOM      2  O   UNL A   1      34.380  33.333  27.375  1.00  0.00    -0.274 OA
ATOM      3  N   UNL A   1      34.268  33.306  29.581  1.00  0.00    -0.356 N 
ATOM      4  H   UNL A   1      33.871  34.200  29.472  1.00  0.00     0.163 HD
ENDROOT
BRANCH   1   5
ATOM      5  C   UNL A   1      35.071  31.231  28.320  1.00  0.00     0.105 C 
ATOM      6  C   UNL A   1      36.568  31.115  28.034  1.00  0.00     0.023 C 
BRANCH   5   7
ATOM      7  C   UNL A   1      34.171  30.313  27.508  1.00  0.00    -0.033 A 
ATOM      8  C   UNL A   1      32.491  28.479  26.082  1.00  0.00     0.018 A 
ATOM      9  C   UNL A   1      32.036  29.745  26.484  1.00  0.00     0.012 A 
ATOM     10  C   UNL A   1      33.824  28.172  26.393  1.00  0.00     0.131 A 
ATOM     11  C   UNL A   1      32.868  30.655  27.143  1.00  0.00     0.005 A 
ATOM     12  C   UNL A   1      34.642  29.055  27.109  1.00  0.00     0.044 A 
ATOM     13  F   UNL A   1      34.371  27.010  25.999  1.00  0.00    -0.206 F 
BRANCH   8  14
ATOM     14  C   UNL A   1      31.584  27.547  25.373  1.00  0.00    -0.012 A 
ATOM     15  C   UNL A   1      30.739  25.312  24.926  1.00  0.00     0.133 A 
ATOM     16  C   UNL A   1      29.792  25.804  24.034  1.00  0.00     0.047 A 
ATOM     17  C   UNL A   1      31.627  26.161  25.591  1.00  0.00     0.056 A 
ATOM     18  C   UNL A   1      29.729  27.171  23.805  1.00  0.00     0.004 A 
ATOM     19  C   UNL A   1      30.622  28.027  24.458  1.00  0.00     0.009 A 
BRANCH  15  20
ATOM     20  O   UNL A   1      30.851  23.915  25.008  1.00  0.00    -0.410 OA
BRANCH  20  21
ATOM     21  C   UNL A   1      30.681  23.281  26.228  1.00  0.00     0.412 C 
ATOM     22  N   UNL A   1      31.169  22.003  26.225  1.00  0.00    -0.321 N 
ATOM     23  H   UNL A   1      31.047  21.478  27.049  1.00  0.00     0.167 HD
ATOM     24  O   UNL A   1      30.155  23.754  27.227  1.00  0.00    -0.224 OA
BRANCH  22  25
ATOM     25  C   UNL A   1      31.849  21.346  25.125  1.00  0.00     0.119 C 
BRANCH  25  26
ATOM     26  C   UNL A   1      33.252  20.888  25.520  1.00  0.00     0.021 C 
BRANCH  26  27
ATOM     27  C   UNL A   1      34.358  21.914  25.247  1.00  0.00     0.002 C 
BRANCH  27  28
ATOM     28  C   UNL A   1      35.727  21.324  24.890  1.00  0.00    -0.000 C 
BRANCH  28  29
ATOM     29  C   UNL A   1      36.798  22.347  24.502  1.00  0.00    -0.003 C 
ATOM     30  C   UNL A   1      36.611  22.909  23.102  1.00  0.00     0.004 C 
ENDBRANCH  28  29
ENDBRANCH  27  28
ENDBRANCH  26  27
ENDBRANCH  25  26
ENDBRANCH  22  25
ENDBRANCH  20  21
ENDBRANCH  15  20
ENDBRANCH   8  14
ENDBRANCH   5   7
ENDBRANCH   1   5
BRANCH   3  31
ATOM     31  C   UNL A   1      34.437  32.897  30.960  1.00  0.00     0.116 C 
BRANCH  31  32
ATOM     32  C   UNL A   1      35.893  32.544  31.271  1.00  0.00     0.021 C 
BRANCH  32  33
ATOM     33  C   UNL A   1      36.770  33.762  31.574  1.00  0.00     0.002 C 
BRANCH  33  34
ATOM     34  C   UNL A   1      37.221  33.886  33.036  1.00  0.00     0.002 C 
BRANCH  34  35
ATOM     35  C   UNL A   1      36.753  32.761  33.964  1.00  0.00     0.021 C 
BRANCH  35  36
ATOM     36  C   UNL A   1      37.838  31.758  34.344  1.00  0.00     0.116 C 
BRANCH  36  37
ATOM     37  N   UNL A   1      37.537  30.426  33.837  1.00  0.00    -0.352 N 
ATOM     38  C   UNL A   1      38.018  29.787  32.721  1.00  0.00     0.251 C 
ATOM     39  H   UNL A   1      36.895  29.907  34.374  1.00  0.00     0.163 HD
ATOM     40  O   UNL A   1      37.464  28.770  32.312  1.00  0.00    -0.269 OA
BRANCH  38  41
ATOM     41  C   UNL A   1      39.198  30.325  32.013  1.00  0.00     0.039 A 
ATOM     42  C   UNL A   1      39.042  30.837  30.721  1.00  0.00     0.014 A 
ATOM     43  C   UNL A   1      40.462  30.298  32.610  1.00  0.00     0.014 A 
ATOM     44  C   UNL A   1      40.146  31.368  30.050  1.00  0.00     0.010 A 
ATOM     45  C   UNL A   1      41.544  30.892  31.969  1.00  0.00     0.010 A 
ATOM     46  C   UNL A   1      41.401  31.423  30.678  1.00  0.00    -0.014 A 
BRANCH  46  47
ATOM     47  C   UNL A   1      42.574  32.039  30.006  1.00  0.00     0.031 A 
ATOM     48  C   UNL A   1      43.780  31.203  29.671  1.00  0.00     0.074 A 
ATOM     49  C   UNL A   1      42.586  33.366  29.775  1.00  0.00     0.049 A 
ATOM     50  N   UNL A   1      44.917  31.573  29.140  1.00  0.00    -0.248 NA
ATOM     51  C   UNL A   1      43.713  29.769  30.001  1.00  0.00     0.031 C 
ATOM     52  C   UNL A   1      41.509  34.295  30.124  1.00  0.00     0.029 A 
ATOM     53  N   UNL A   1      43.549  34.170  29.217  1.00  0.00    -0.354 N 
ATOM     54  C   UNL A   1      45.709  30.431  29.102  1.00  0.00     0.074 A 
ATOM     55  C   UNL A   1      44.937  29.362  29.698  1.00  0.00     0.031 C 
ATOM     56  C   UNL A   1      41.869  35.539  29.768  1.00  0.00     0.029 A 
ATOM     57  C   UNL A   1      43.210  35.503  29.197  1.00  0.00     0.049 A 
ATOM     58  H   UNL A   1      44.401  33.825  28.866  1.00  0.00     0.167 HD
ATOM     59  C   UNL A   1      46.954  30.277  28.591  1.00  0.00     0.034 A 
ATOM     60  C   UNL A   1      43.905  36.576  28.771  1.00  0.00     0.034 A 
ATOM     61  C   UNL A   1      47.702  31.333  27.963  1.00  0.00     0.049 A 
ATOM     62  C   UNL A   1      45.273  36.372  28.177  1.00  0.00     0.074 A 
ATOM     63  C   UNL A   1      48.934  31.261  27.339  1.00  0.00     0.029 A 
ATOM     64  N   UNL A   1      47.291  32.655  27.884  1.00  0.00    -0.354 N 
ATOM     65  N   UNL A   1      45.942  35.257  28.008  1.00  0.00    -0.248 NA
ATOM     66  C   UNL A   1      45.968  37.569  27.682  1.00  0.00     0.031 C 
ATOM     67  C   UNL A   1      49.280  32.544  26.904  1.00  0.00     0.029 A 
ATOM     68  C   UNL A   1      48.249  33.411  27.232  1.00  0.00     0.049 A 
ATOM     69  H   UNL A   1      46.442  33.004  28.240  1.00  0.00     0.167 HD
ATOM     70  C   UNL A   1      47.115  35.611  27.354  1.00  0.00     0.074 A 
ATOM     71  C   UNL A   1      47.058  37.042  27.139  1.00  0.00     0.031 C 
ATOM     72  C   UNL A   1      48.155  34.825  26.977  1.00  0.00     0.034 A 
BRANCH  59  73
ATOM     73  C   UNL A   1      47.568  28.902  28.643  1.00  0.00     0.023 A 
ATOM     74  C   UNL A   1      48.291  28.506  29.788  1.00  0.00     0.012 A 
ATOM     75  C   UNL A   1      47.383  27.982  27.593  1.00  0.00     0.148 A 
ATOM     76  C   UNL A   1      48.851  27.232  29.872  1.00  0.00     0.002 A 
ATOM     77  C   UNL A   1      47.905  26.698  27.702  1.00  0.00     0.091 A 
ATOM     78  F   UNL A   1      46.711  28.381  26.504  1.00  0.00    -0.205 F 
ATOM     79  C   UNL A   1      48.649  26.326  28.833  1.00  0.00     0.022 A 
BRANCH  77  80
ATOM     80  S   UNL A   1      47.632  25.431  26.458  1.00  0.00     0.127 S 
ATOM     81  O   UNL A   1      47.825  24.207  27.235  1.00  0.00    -0.237 OA
ATOM     82  O   UNL A   1      46.247  25.687  26.058  1.00  0.00    -0.237 OA
ATOM     83  O   UNL A   1      48.620  25.671  25.416  1.00  0.00    -0.744 OA
ENDBRANCH  77  80
ENDBRANCH  59  73
BRANCH  60  84
ATOM     84  C   UNL A   1      43.293  37.933  28.831  1.00  0.00     0.023 A 
ATOM     85  C   UNL A   1      43.473  38.723  29.982  1.00  0.00     0.012 A 
ATOM     86  C   UNL A   1      42.555  38.454  27.750  1.00  0.00     0.148 A 
ATOM     87  C   UNL A   1      42.902  39.993  30.072  1.00  0.00     0.002 A 
ATOM     88  C   UNL A   1      42.035  39.741  27.823  1.00  0.00     0.091 A 
ATOM     89  F   UNL A   1      42.384  37.683  26.667  1.00  0.00    -0.205 F 
ATOM     90  C   UNL A   1      42.192  40.505  28.990  1.00  0.00     0.022 A 
BRANCH  88  91
ATOM     91  S   UNL A   1      41.221  40.532  26.430  1.00  0.00     0.127 S 
ATOM     92  O   UNL A   1      40.713  39.381  25.688  1.00  0.00    -0.237 OA
ATOM     93  O   UNL A   1      40.198  41.339  27.095  1.00  0.00    -0.237 OA
ATOM     94  O   UNL A   1      42.255  41.310  25.762  1.00  0.00    -0.744 OA
ENDBRANCH  88  91
ENDBRANCH  60  84
BRANCH  72  95
ATOM     95  C   UNL A   1      49.302  35.483  26.257  1.00  0.00     0.023 A 
ATOM     96  C   UNL A   1      49.301  35.554  24.850  1.00  0.00     0.012 A 
ATOM     97  C   UNL A   1      50.346  36.095  26.979  1.00  0.00     0.148 A 
ATOM     98  C   UNL A   1      50.338  36.195  24.172  1.00  0.00     0.002 A 
ATOM     99  C   UNL A   1      51.348  36.777  26.300  1.00  0.00     0.091 A 
ATOM    100  F   UNL A   1      50.338  36.002  28.317  1.00  0.00    -0.205 F 
ATOM    101  C   UNL A   1      51.353  36.817  24.896  1.00  0.00     0.022 A 
BRANCH  99 102
ATOM    102  S   UNL A   1      52.641  37.689  27.150  1.00  0.00     0.127 S 
ATOM    103  O   UNL A   1      52.964  38.727  26.173  1.00  0.00    -0.237 OA
ATOM    104  O   UNL A   1      51.946  38.171  28.345  1.00  0.00    -0.237 OA
ATOM    105  O   UNL A   1      53.703  36.728  27.416  1.00  0.00    -0.744 OA
ENDBRANCH  99 102
ENDBRANCH  72  95
ENDBRANCH  46  47
ENDBRANCH  38  41
ENDBRANCH  36  37
ENDBRANCH  35  36
ENDBRANCH  34  35
ENDBRANCH  33  34
ENDBRANCH  32  33
ENDBRANCH  31  32
ENDBRANCH   3  31
TORSDOF 25
ENDMDL
MODEL 2
REMARK VINA RESULT:      -9.8      2.033      7.415
REMARK SMILES CCCCCCNC(=O)Oc1cccc(-c2ccc([C@@H](C)C(=O)NCCCCCCNC(=O)c3ccc(-c4c5nc(c(-c6cccc(S(=O)(=O)[O-])c6F)c6ccc([nH]6)c(-c6cccc(S(=O)(=O)[O-])c6F)c6nc(c(-c7cccc(S(=O)(=O)[O-])c7F)c7ccc4[nH]7)C=C6)C=C5)cc3)cc2F)c1
REMARK SMILES IDX 22 1 23 2 24 3 20 5 21 6 19 7 16 8 17 9 98 10 18 11 97 12
REMARK SMILES IDX 99 13 15 14 11 15 12 16 100 17 13 18 14 19 10 20 8 21 7 22
REMARK SMILES IDX 9 24 6 25 5 26 4 27 3 28 2 29 1 30 25 31 26 32 27 33 28 34
REMARK SMILES IDX 29 35 30 36 31 37 32 38 33 40 34 41 35 42 96 43 36 44 95 45
REMARK SMILES IDX 37 46 38 47 39 48 89 49 40 50 94 51 88 52 90 53 41 54 93 55
REMARK SMILES IDX 87 56 86 57 42 59 74 60 54 61 73 62 55 63 58 64 72 65 91 66
REMARK SMILES IDX 56 67 57 68 71 70 92 71 59 72 43 73 44 74 52 75 45 76 47 77
REMARK SMILES IDX 53 78 46 79 48 80 49 81 50 82 51 83 75 84 76 85 84 86 77 87
REMARK SMILES IDX 79 88 85 89 78 90 80 91 81 92 82 93 83 94 60 95 61 96 69 97
REMARK SMILES IDX 62 98 64 99 70 100 63 101 65 102 66 103 67 104 68 105
REMARK H PARENT 24 4 7 23 31 39 90 58 58 69
REMARK Flexibility Score: inf
ROOT
ATOM      1  C   UNL A   1      33.809  32.019  27.690  1.00  0.00     0.227 C 
ATOM      2  O   UNL A   1      32.654  32.166  27.269  1.00  0.00    -0.274 OA
ATOM      3  N   UNL A   1      34.478  33.154  28.028  1.00  0.00    -0.356 N 
ATOM      4  H   UNL A   1      33.938  33.974  27.966  1.00  0.00     0.163 HD
ENDROOT
BRANCH   1   5
ATOM      5  C   UNL A   1      34.398  30.606  27.828  1.00  0.00     0.105 C 
ATOM      6  C   UNL A   1      35.923  30.556  27.733  1.00  0.00     0.023 C 
BRANCH   5   7
ATOM      7  C   UNL A   1      33.653  29.549  27.030  1.00  0.00    -0.033 A 
ATOM      8  C   UNL A   1      32.376  27.483  25.505  1.00  0.00     0.018 A 
ATOM      9  C   UNL A   1      31.988  27.783  26.820  1.00  0.00     0.012 A 
ATOM     10  C   UNL A   1      33.406  28.269  24.967  1.00  0.00     0.131 A 
ATOM     11  C   UNL A   1      32.583  28.818  27.549  1.00  0.00     0.005 A 
ATOM     12  C   UNL A   1      34.048  29.264  25.715  1.00  0.00     0.044 A 
ATOM     13  F   UNL A   1      33.808  28.100  23.697  1.00  0.00    -0.206 F 
BRANCH   8  14
ATOM     14  C   UNL A   1      31.713  26.389  24.759  1.00  0.00    -0.012 A 
ATOM     15  C   UNL A   1      31.692  24.144  23.826  1.00  0.00     0.133 A 
ATOM     16  C   UNL A   1      30.385  24.300  23.375  1.00  0.00     0.047 A 
ATOM     17  C   UNL A   1      32.356  25.166  24.508  1.00  0.00     0.056 A 
ATOM     18  C   UNL A   1      29.728  25.498  23.615  1.00  0.00     0.004 A 
ATOM     19  C   UNL A   1      30.390  26.531  24.287  1.00  0.00     0.009 A 
BRANCH  15  20
ATOM     20  O   UNL A   1      32.352  22.970  23.431  1.00  0.00    -0.410 OA
BRANCH  20  21
ATOM     21  C   UNL A   1      33.506  23.051  22.670  1.00  0.00     0.412 C 
ATOM     22  N   UNL A   1      34.632  22.775  23.398  1.00  0.00    -0.321 N 
ATOM     23  H   UNL A   1      35.495  22.851  22.929  1.00  0.00     0.167 HD
ATOM     24  O   UNL A   1      33.576  23.338  21.482  1.00  0.00    -0.224 OA
BRANCH  22  25
ATOM     25  C   UNL A   1      34.678  22.381  24.793  1.00  0.00     0.119 C 
BRANCH  25  26
ATOM     26  C   UNL A   1      35.143  20.935  24.957  1.00  0.00     0.021 C 
BRANCH  26  27
ATOM     27  C   UNL A   1      34.022  19.937  25.269  1.00  0.00     0.002 C 
BRANCH  27  28
ATOM     28  C   UNL A   1      33.703  18.936  24.153  1.00  0.00    -0.000 C 
BRANCH  28  29
ATOM     29  C   UNL A   1      34.493  17.626  24.203  1.00  0.00    -0.003 C 
ATOM     30  C   UNL A   1      34.055  16.621  23.150  1.00  0.00     0.004 C 
ENDBRANCH  28  29
ENDBRANCH  27  28
ENDBRANCH  26  27
ENDBRANCH  25  26
ENDBRANCH  22  25
ENDBRANCH  20  21
ENDBRANCH  15  20
ENDBRANCH   8  14
ENDBRANCH   5   7
ENDBRANCH   1   5
BRANCH   3  31
ATOM     31  C   UNL A   1      35.842  33.373  28.460  1.00  0.00     0.116 C 
BRANCH  31  32
ATOM     32  C   UNL A   1      35.904  33.882  29.901  1.00  0.00     0.021 C 
BRANCH  32  33
ATOM     33  C   UNL A   1      37.330  34.071  30.427  1.00  0.00     0.002 C 
BRANCH  33  34
ATOM     34  C   UNL A   1      37.477  33.963  31.951  1.00  0.00     0.002 C 
BRANCH  34  35
ATOM     35  C   UNL A   1      36.336  33.236  32.669  1.00  0.00     0.021 C 
BRANCH  35  36
ATOM     36  C   UNL A   1      36.766  32.003  33.460  1.00  0.00     0.116 C 
BRANCH  36  37
ATOM     37  N   UNL A   1      36.392  30.772  32.778  1.00  0.00    -0.352 N 
ATOM     38  C   UNL A   1      37.000  30.138  31.724  1.00  0.00     0.251 C 
ATOM     39  H   UNL A   1      35.583  30.329  33.124  1.00  0.00     0.163 HD
ATOM     40  O   UNL A   1      36.405  29.251  31.117  1.00  0.00    -0.269 OA
BRANCH  38  41
ATOM     41  C   UNL A   1      38.368  30.524  31.319  1.00  0.00     0.039 A 
ATOM     42  C   UNL A   1      39.371  30.597  32.290  1.00  0.00     0.014 A 
ATOM     43  C   UNL A   1      38.654  30.843  29.988  1.00  0.00     0.014 A 
ATOM     44  C   UNL A   1      40.673  30.941  31.916  1.00  0.00     0.010 A 
ATOM     45  C   UNL A   1      39.964  31.114  29.607  1.00  0.00     0.010 A 
ATOM     46  C   UNL A   1      40.985  31.176  30.567  1.00  0.00    -0.014 A 
BRANCH  46  47
ATOM     47  C   UNL A   1      42.374  31.483  30.139  1.00  0.00     0.031 A 
ATOM     48  C   UNL A   1      42.837  32.911  30.031  1.00  0.00     0.074 A 
ATOM     49  C   UNL A   1      43.191  30.478  29.766  1.00  0.00     0.049 A 
ATOM     50  N   UNL A   1      43.989  33.375  29.620  1.00  0.00    -0.248 NA
ATOM     51  C   UNL A   1      41.870  33.957  30.406  1.00  0.00     0.031 C 
ATOM     52  C   UNL A   1      42.834  29.058  29.754  1.00  0.00     0.029 A 
ATOM     53  N   UNL A   1      44.482  30.499  29.299  1.00  0.00    -0.354 N 
ATOM     54  C   UNL A   1      43.875  34.761  29.656  1.00  0.00     0.074 A 
ATOM     55  C   UNL A   1      42.530  35.062  30.093  1.00  0.00     0.031 C 
ATOM     56  C   UNL A   1      43.880  28.345  29.307  1.00  0.00     0.029 A 
ATOM     57  C   UNL A   1      44.970  29.255  28.972  1.00  0.00     0.049 A 
ATOM     58  H   UNL A   1      45.008  31.325  29.208  1.00  0.00     0.167 HD
ATOM     59  C   UNL A   1      44.815  35.697  29.380  1.00  0.00     0.034 A 
ATOM     60  C   UNL A   1      46.159  28.890  28.454  1.00  0.00     0.034 A 
ATOM     61  C   UNL A   1      46.163  35.391  28.985  1.00  0.00     0.049 A 
ATOM     62  C   UNL A   1      47.196  29.947  28.188  1.00  0.00     0.074 A 
ATOM     63  C   UNL A   1      47.214  36.264  28.764  1.00  0.00     0.029 A 
ATOM     64  N   UNL A   1      46.647  34.115  28.745  1.00  0.00    -0.354 N 
ATOM     65  N   UNL A   1      47.121  31.243  28.378  1.00  0.00    -0.248 NA
ATOM     66  C   UNL A   1      48.494  29.491  27.671  1.00  0.00     0.031 C 
ATOM     67  C   UNL A   1      48.327  35.517  28.366  1.00  0.00     0.029 A 
ATOM     68  C   UNL A   1      47.978  34.176  28.368  1.00  0.00     0.049 A 
ATOM     69  H   UNL A   1      46.122  33.287  28.830  1.00  0.00     0.167 HD
ATOM     70  C   UNL A   1      48.370  31.751  28.041  1.00  0.00     0.074 A 
ATOM     71  C   UNL A   1      49.189  30.621  27.655  1.00  0.00     0.031 C 
ATOM     72  C   UNL A   1      48.797  33.038  28.038  1.00  0.00     0.034 A 
BRANCH  59  73
ATOM     73  C   UNL A   1      44.430  37.145  29.546  1.00  0.00     0.023 A 
ATOM     74  C   UNL A   1      44.523  37.747  30.819  1.00  0.00     0.012 A 
ATOM     75  C   UNL A   1      44.037  37.925  28.442  1.00  0.00     0.148 A 
ATOM     76  C   UNL A   1      44.195  39.090  30.997  1.00  0.00     0.002 A 
ATOM     77  C   UNL A   1      43.755  39.275  28.619  1.00  0.00     0.091 A 
ATOM     78  F   UNL A   1      43.935  37.333  27.243  1.00  0.00    -0.205 F 
ATOM     79  C   UNL A   1      43.821  39.855  29.895  1.00  0.00     0.022 A 
BRANCH  77  80
ATOM     80  S   UNL A   1      43.344  40.367  27.252  1.00  0.00     0.127 S 
ATOM     81  O   UNL A   1      44.122  39.780  26.161  1.00  0.00    -0.237 OA
ATOM     82  O   UNL A   1      41.896  40.182  27.136  1.00  0.00    -0.237 OA
ATOM     83  O   UNL A   1      43.754  41.701  27.664  1.00  0.00    -0.744 OA
ENDBRANCH  77  80
ENDBRANCH  59  73
BRANCH  60  84
ATOM     84  C   UNL A   1      46.458  27.450  28.215  1.00  0.00     0.023 A 
ATOM     85  C   UNL A   1      46.896  26.647  29.286  1.00  0.00     0.012 A 
ATOM     86  C   UNL A   1      46.289  26.866  26.945  1.00  0.00     0.148 A 
ATOM     87  C   UNL A   1      47.195  25.298  29.090  1.00  0.00     0.002 A 
ATOM     88  C   UNL A   1      46.536  25.509  26.768  1.00  0.00     0.091 A 
ATOM     89  F   UNL A   1      45.882  27.647  25.934  1.00  0.00    -0.205 F 
ATOM     90  C   UNL A   1      47.006  24.728  27.834  1.00  0.00     0.022 A 
BRANCH  88  91
ATOM     91  S   UNL A   1      46.192  24.662  25.221  1.00  0.00     0.127 S 
ATOM     92  O   UNL A   1      44.754  24.874  25.077  1.00  0.00    -0.237 OA
ATOM     93  O   UNL A   1      47.024  25.408  24.276  1.00  0.00    -0.237 OA
ATOM     94  O   UNL A   1      46.612  23.283  25.427  1.00  0.00    -0.744 OA
ENDBRANCH  88  91
ENDBRANCH  60  84
BRANCH  72  95
ATOM     95  C   UNL A   1      50.227  33.299  27.642  1.00  0.00     0.023 A 
ATOM     96  C   UNL A   1      51.259  33.135  28.587  1.00  0.00     0.012 A 
ATOM     97  C   UNL A   1      50.552  33.635  26.313  1.00  0.00     0.148 A 
ATOM     98  C   UNL A   1      52.590  33.334  28.223  1.00  0.00     0.002 A 
ATOM     99  C   UNL A   1      51.884  33.782  25.946  1.00  0.00     0.091 A 
ATOM    100  F   UNL A   1      49.555  33.804  25.433  1.00  0.00    -0.205 F 
ATOM    101  C   UNL A   1      52.904  33.645  26.901  1.00  0.00     0.022 A 
BRANCH  99 102
ATOM    102  S   UNL A   1      52.388  34.085  24.248  1.00  0.00     0.127 S 
ATOM    103  O   UNL A   1      53.845  34.071  24.363  1.00  0.00    -0.237 OA
ATOM    104  O   UNL A   1      51.820  32.933  23.546  1.00  0.00    -0.237 OA
ATOM    105  O   UNL A   1      51.803  35.366  23.877  1.00  0.00    -0.744 OA
ENDBRANCH  99 102
ENDBRANCH  72  95
ENDBRANCH  46  47
ENDBRANCH  38  41
ENDBRANCH  36  37
ENDBRANCH  35  36
ENDBRANCH  34  35
ENDBRANCH  33  34
ENDBRANCH  32  33
ENDBRANCH  31  32
ENDBRANCH   3  31
TORSDOF 25
ENDMDL
MODEL 3
REMARK VINA RESULT:      -9.6      7.013     11.464
REMARK SMILES CCCCCCNC(=O)Oc1cccc(-c2ccc([C@@H](C)C(=O)NCCCCCCNC(=O)c3ccc(-c4c5nc(c(-c6cccc(S(=O)(=O)[O-])c6F)c6ccc([nH]6)c(-c6cccc(S(=O)(=O)[O-])c6F)c6nc(c(-c7cccc(S(=O)(=O)[O-])c7F)c7ccc4[nH]7)C=C6)C=C5)cc3)cc2F)c1
REMARK SMILES IDX 22 1 23 2 24 3 20 5 21 6 19 7 16 8 17 9 98 10 18 11 97 12
REMARK SMILES IDX 99 13 15 14 11 15 12 16 100 17 13 18 14 19 10 20 8 21 7 22
REMARK SMILES IDX 9 24 6 25 5 26 4 27 3 28 2 29 1 30 25 31 26 32 27 33 28 34
REMARK SMILES IDX 29 35 30 36 31 37 32 38 33 40 34 41 35 42 96 43 36 44 95 45
REMARK SMILES IDX 37 46 38 47 39 48 89 49 40 50 94 51 88 52 90 53 41 54 93 55
REMARK SMILES IDX 87 56 86 57 42 59 74 60 54 61 73 62 55 63 58 64 72 65 91 66
REMARK SMILES IDX 56 67 57 68 71 70 92 71 59 72 43 73 44 74 52 75 45 76 47 77
REMARK SMILES IDX 53 78 46 79 48 80 49 81 50 82 51 83 75 84 76 85 84 86 77 87
REMARK SMILES IDX 79 88 85 89 78 90 80 91 81 92 82 93 83 94 60 95 61 96 69 97
REMARK SMILES IDX 62 98 64 99 70 100 63 101 65 102 66 103 67 104 68 105
REMARK H PARENT 24 4 7 23 31 39 90 58 58 69
REMARK Flexibility Score: inf
ROOT
ATOM      1  C   UNL A   1      42.122  32.084  30.109  1.00  0.00     0.227 C 
ATOM      2  O   UNL A   1      42.814  32.711  29.295  1.00  0.00    -0.274 OA
ATOM      3  N   UNL A   1      42.319  30.740  30.161  1.00  0.00    -0.356 N 
ATOM      4  H   UNL A   1      43.051  30.416  29.587  1.00  0.00     0.163 HD
ENDROOT
BRANCH   1   5
ATOM      5  C   UNL A   1      41.127  32.838  31.006  1.00  0.00     0.105 C 
ATOM      6  C   UNL A   1      41.206  32.452  32.483  1.00  0.00     0.023 C 
BRANCH   5   7
ATOM      7  C   UNL A   1      39.726  32.935  30.424  1.00  0.00    -0.033 A 
ATOM      8  C   UNL A   1      37.029  33.104  29.464  1.00  0.00     0.018 A 
ATOM      9  C   UNL A   1      37.967  34.123  29.230  1.00  0.00     0.012 A 
ATOM     10  C   UNL A   1      37.493  31.984  30.170  1.00  0.00     0.131 A 
ATOM     11  C   UNL A   1      39.293  34.022  29.662  1.00  0.00     0.005 A 
ATOM     12  C   UNL A   1      38.803  31.906  30.661  1.00  0.00     0.044 A 
ATOM     13  F   UNL A   1      36.690  30.932  30.392  1.00  0.00    -0.206 F 
BRANCH   8  14
ATOM     14  C   UNL A   1      35.637  33.241  28.977  1.00  0.00    -0.012 A 
ATOM     15  C   UNL A   1      33.514  34.421  28.878  1.00  0.00     0.133 A 
ATOM     16  C   UNL A   1      32.996  33.496  27.977  1.00  0.00     0.047 A 
ATOM     17  C   UNL A   1      34.813  34.306  29.377  1.00  0.00     0.056 A 
ATOM     18  C   UNL A   1      33.793  32.438  27.565  1.00  0.00     0.004 A 
ATOM     19  C   UNL A   1      35.091  32.308  28.070  1.00  0.00     0.009 A 
BRANCH  15  20
ATOM     20  O   UNL A   1      32.619  35.385  29.367  1.00  0.00    -0.410 OA
BRANCH  20  21
ATOM     21  C   UNL A   1      33.057  36.678  29.599  1.00  0.00     0.412 C 
ATOM     22  N   UNL A   1      32.997  37.020  30.923  1.00  0.00    -0.321 N 
ATOM     23  H   UNL A   1      33.258  37.941  31.157  1.00  0.00     0.167 HD
ATOM     24  O   UNL A   1      33.457  37.473  28.758  1.00  0.00    -0.224 OA
BRANCH  22  25
ATOM     25  C   UNL A   1      32.586  36.159  32.014  1.00  0.00     0.119 C 
BRANCH  25  26
ATOM     26  C   UNL A   1      33.787  35.612  32.786  1.00  0.00     0.021 C 
BRANCH  26  27
ATOM     27  C   UNL A   1      33.878  34.083  32.823  1.00  0.00     0.002 C 
BRANCH  27  28
ATOM     28  C   UNL A   1      35.148  33.516  33.467  1.00  0.00    -0.000 C 
BRANCH  28  29
ATOM     29  C   UNL A   1      36.214  34.552  33.832  1.00  0.00    -0.003 C 
ATOM     30  C   UNL A   1      37.346  34.628  32.819  1.00  0.00     0.004 C 
ENDBRANCH  28  29
ENDBRANCH  27  28
ENDBRANCH  26  27
ENDBRANCH  25  26
ENDBRANCH  22  25
ENDBRANCH  20  21
ENDBRANCH  15  20
ENDBRANCH   8  14
ENDBRANCH   5   7
ENDBRANCH   1   5
BRANCH   3  31
ATOM     31  C   UNL A   1      41.645  29.697  30.907  1.00  0.00     0.116 C 
BRANCH  31  32
ATOM     32  C   UNL A   1      40.759  28.838  30.003  1.00  0.00     0.021 C 
BRANCH  32  33
ATOM     33  C   UNL A   1      39.405  28.484  30.625  1.00  0.00     0.002 C 
BRANCH  33  34
ATOM     34  C   UNL A   1      39.410  28.353  32.153  1.00  0.00     0.002 C 
BRANCH  34  35
ATOM     35  C   UNL A   1      38.276  29.085  32.878  1.00  0.00     0.021 C 
BRANCH  35  36
ATOM     36  C   UNL A   1      38.734  30.213  33.799  1.00  0.00     0.116 C 
BRANCH  36  37
ATOM     37  N   UNL A   1      38.018  30.193  35.066  1.00  0.00    -0.352 N 
ATOM     38  C   UNL A   1      38.251  30.912  36.212  1.00  0.00     0.251 C 
ATOM     39  H   UNL A   1      37.254  29.573  35.108  1.00  0.00     0.163 HD
ATOM     40  O   UNL A   1      37.707  30.583  37.263  1.00  0.00    -0.269 OA
BRANCH  38  41
ATOM     41  C   UNL A   1      39.157  32.079  36.180  1.00  0.00     0.039 A 
ATOM     42  C   UNL A   1      38.619  33.356  36.001  1.00  0.00     0.014 A 
ATOM     43  C   UNL A   1      40.541  31.910  36.299  1.00  0.00     0.014 A 
ATOM     44  C   UNL A   1      39.464  34.468  35.991  1.00  0.00     0.010 A 
ATOM     45  C   UNL A   1      41.371  33.024  36.361  1.00  0.00     0.010 A 
ATOM     46  C   UNL A   1      40.844  34.314  36.197  1.00  0.00    -0.014 A 
BRANCH  46  47
ATOM     47  C   UNL A   1      41.753  35.488  36.251  1.00  0.00     0.031 A 
ATOM     48  C   UNL A   1      41.955  36.231  37.544  1.00  0.00     0.074 A 
ATOM     49  C   UNL A   1      42.329  35.933  35.117  1.00  0.00     0.049 A 
ATOM     50  N   UNL A   1      42.660  37.309  37.773  1.00  0.00    -0.248 NA
ATOM     51  C   UNL A   1      41.251  35.714  38.730  1.00  0.00     0.031 C 
ATOM     52  C   UNL A   1      42.150  35.344  33.789  1.00  0.00     0.029 A 
ATOM     53  N   UNL A   1      43.160  37.003  34.896  1.00  0.00    -0.354 N 
ATOM     54  C   UNL A   1      42.459  37.617  39.114  1.00  0.00     0.074 A 
ATOM     55  C   UNL A   1      41.537  36.634  39.639  1.00  0.00     0.031 C 
ATOM     56  C   UNL A   1      42.853  36.055  32.894  1.00  0.00     0.029 A 
ATOM     57  C   UNL A   1      43.507  37.168  33.575  1.00  0.00     0.049 A 
ATOM     58  H   UNL A   1      43.479  37.596  35.615  1.00  0.00     0.167 HD
ATOM     59  C   UNL A   1      43.015  38.610  39.849  1.00  0.00     0.034 A 
ATOM     60  C   UNL A   1      44.260  38.113  32.979  1.00  0.00     0.034 A 
ATOM     61  C   UNL A   1      43.963  39.560  39.333  1.00  0.00     0.049 A 
ATOM     62  C   UNL A   1      44.892  39.184  33.825  1.00  0.00     0.074 A 
ATOM     63  C   UNL A   1      44.647  40.550  40.014  1.00  0.00     0.029 A 
ATOM     64  N   UNL A   1      44.355  39.645  38.006  1.00  0.00    -0.354 N 
ATOM     65  N   UNL A   1      44.814  39.366  35.122  1.00  0.00    -0.248 NA
ATOM     66  C   UNL A   1      45.745  40.161  33.134  1.00  0.00     0.031 C 
ATOM     67  C   UNL A   1      45.435  41.250  39.095  1.00  0.00     0.029 A 
ATOM     68  C   UNL A   1      45.264  40.676  37.845  1.00  0.00     0.049 A 
ATOM     69  H   UNL A   1      44.034  39.057  37.284  1.00  0.00     0.167 HD
ATOM     70  C   UNL A   1      45.636  40.450  35.406  1.00  0.00     0.074 A 
ATOM     71  C   UNL A   1      46.218  40.872  34.149  1.00  0.00     0.031 C 
ATOM     72  C   UNL A   1      45.877  41.052  36.597  1.00  0.00     0.034 A 
BRANCH  59  73
ATOM     73  C   UNL A   1      42.651  38.687  41.310  1.00  0.00     0.023 A 
ATOM     74  C   UNL A   1      43.393  37.942  42.251  1.00  0.00     0.012 A 
ATOM     75  C   UNL A   1      41.622  39.537  41.760  1.00  0.00     0.148 A 
ATOM     76  C   UNL A   1      43.091  38.012  43.611  1.00  0.00     0.002 A 
ATOM     77  C   UNL A   1      41.358  39.636  43.122  1.00  0.00     0.091 A 
ATOM     78  F   UNL A   1      40.915  40.223  40.851  1.00  0.00    -0.205 F 
ATOM     79  C   UNL A   1      42.081  38.866  44.046  1.00  0.00     0.022 A 
BRANCH  77  80
ATOM     80  S   UNL A   1      40.133  40.768  43.791  1.00  0.00     0.127 S 
ATOM     81  O   UNL A   1      40.607  42.053  43.279  1.00  0.00    -0.237 OA
ATOM     82  O   UNL A   1      38.897  40.284  43.174  1.00  0.00    -0.237 OA
ATOM     83  O   UNL A   1      40.190  40.612  45.238  1.00  0.00    -0.744 OA
ENDBRANCH  77  80
ENDBRANCH  59  73
BRANCH  60  84
ATOM     84  C   UNL A   1      44.512  38.050  31.511  1.00  0.00     0.023 A 
ATOM     85  C   UNL A   1      45.455  37.132  31.011  1.00  0.00     0.012 A 
ATOM     86  C   UNL A   1      43.810  38.872  30.610  1.00  0.00     0.148 A 
ATOM     87  C   UNL A   1      45.722  37.059  29.643  1.00  0.00     0.002 A 
ATOM     88  C   UNL A   1      44.039  38.756  29.244  1.00  0.00     0.091 A 
ATOM     89  F   UNL A   1      42.923  39.748  31.105  1.00  0.00    -0.205 F 
ATOM     90  C   UNL A   1      45.007  37.863  28.760  1.00  0.00     0.022 A 
BRANCH  88  91
ATOM     91  S   UNL A   1      43.071  39.654  28.025  1.00  0.00     0.127 S 
ATOM     92  O   UNL A   1      43.475  41.034  28.282  1.00  0.00    -0.237 OA
ATOM     93  O   UNL A   1      43.566  39.089  26.769  1.00  0.00    -0.237 OA
ATOM     94  O   UNL A   1      41.680  39.336  28.316  1.00  0.00    -0.744 OA
ENDBRANCH  88  91
ENDBRANCH  60  84
BRANCH  72  95
ATOM     95  C   UNL A   1      46.841  42.209  36.613  1.00  0.00     0.023 A 
ATOM     96  C   UNL A   1      46.362  43.524  36.456  1.00  0.00     0.012 A 
ATOM     97  C   UNL A   1      48.212  41.996  36.857  1.00  0.00     0.148 A 
ATOM     98  C   UNL A   1      47.239  44.607  36.510  1.00  0.00     0.002 A 
ATOM     99  C   UNL A   1      49.071  43.083  36.960  1.00  0.00     0.091 A 
ATOM    100  F   UNL A   1      48.651  40.735  36.986  1.00  0.00    -0.205 F 
ATOM    101  C   UNL A   1      48.589  44.389  36.773  1.00  0.00     0.022 A 
BRANCH  99 102
ATOM    102  S   UNL A   1      50.806  42.904  37.393  1.00  0.00     0.127 S 
ATOM    103  O   UNL A   1      51.325  42.167  36.243  1.00  0.00    -0.237 OA
ATOM    104  O   UNL A   1      51.249  44.296  37.478  1.00  0.00    -0.237 OA
ATOM    105  O   UNL A   1      50.831  42.184  38.660  1.00  0.00    -0.744 OA
ENDBRANCH  99 102
ENDBRANCH  72  95
ENDBRANCH  46  47
ENDBRANCH  38  41
ENDBRANCH  36  37
ENDBRANCH  35  36
ENDBRANCH  34  35
ENDBRANCH  33  34
ENDBRANCH  32  33
ENDBRANCH  31  32
ENDBRANCH   3  31
TORSDOF 25
ENDMDL
