MODEL 1
REMARK VINA RESULT:     -11.4      0.000      0.000
REMARK SMILES O=C(NCCCCCCNC(=O)c1cccc(CS(=O)(=O)NCc2ccccc2)c1)c1ccc(-c2c3nc(c(-c4cccc(S(=O)(=O)[O-])c4F)c4ccc([nH]4)c(-c4cccc(S(=O)(=O)[O-])c4F)c4nc(c(-c5cccc(S(=O)(=O)[O-])c5F)c5ccc2[nH]5)C=C4)C=C3)cc1
REMARK SMILES IDX 7 1 6 2 5 3 4 4 3 5 1 6 2 7 31 9 32 10 93 11 33 12 92 13
REMARK SMILES IDX 34 14 35 15 36 16 86 17 37 18 91 19 85 20 87 21 38 22 90 23
REMARK SMILES IDX 84 24 83 25 39 27 71 28 51 29 70 30 52 31 55 32 69 33 88 34
REMARK SMILES IDX 53 35 54 36 68 38 89 39 56 40 40 41 41 42 49 43 42 44 44 45
REMARK SMILES IDX 50 46 43 47 45 48 46 49 47 50 48 51 72 52 73 53 81 54 74 55
REMARK SMILES IDX 76 56 82 57 75 58 77 59 78 60 79 61 80 62 57 63 58 64 66 65
REMARK SMILES IDX 59 66 61 67 67 68 60 69 62 70 63 71 64 72 65 73 8 74 9 75
REMARK SMILES IDX 10 76 11 77 12 79 13 80 14 81 30 82 15 83 17 84 16 85 18 86
REMARK SMILES IDX 19 87 20 88 21 89 22 90 23 92 24 93 25 94 29 95 26 96 28 97
REMARK SMILES IDX 27 98
REMARK H PARENT 3 8 87 26 55 37 10 78 22 91
REMARK Flexibility Score: inf
ROOT
ATOM      1  C   UNL A   1      32.972  30.055  27.316  1.00  0.00     0.002 C 
ENDROOT
BRANCH   1   2
ATOM      2  C   UNL A   1      31.917  30.798  26.491  1.00  0.00     0.002 C 
BRANCH   2   3
ATOM      3  C   UNL A   1      31.660  32.245  26.916  1.00  0.00     0.021 C 
BRANCH   3   4
ATOM      4  C   UNL A   1      32.916  33.034  27.269  1.00  0.00     0.116 C 
BRANCH   4   5
ATOM      5  N   UNL A   1      32.599  34.311  27.880  1.00  0.00    -0.352 N 
ATOM      6  O   UNL A   1      32.588  35.867  29.505  1.00  0.00    -0.269 OA
ATOM      7  C   UNL A   1      33.133  34.890  29.003  1.00  0.00     0.251 C 
ATOM      8  H   UNL A   1      31.901  34.836  27.426  1.00  0.00     0.163 HD
BRANCH   7   9
ATOM      9  C   UNL A   1      34.354  34.315  29.606  1.00  0.00     0.039 A 
ATOM     10  C   UNL A   1      35.609  34.545  29.034  1.00  0.00     0.014 A 
ATOM     11  C   UNL A   1      34.238  33.549  30.768  1.00  0.00     0.014 A 
ATOM     12  C   UNL A   1      36.735  33.915  29.553  1.00  0.00     0.010 A 
ATOM     13  C   UNL A   1      35.380  32.980  31.332  1.00  0.00     0.010 A 
ATOM     14  C   UNL A   1      36.633  33.139  30.717  1.00  0.00    -0.014 A 
BRANCH  14  15
ATOM     15  C   UNL A   1      37.846  32.551  31.335  1.00  0.00     0.031 A 
ATOM     16  C   UNL A   1      38.557  31.400  30.686  1.00  0.00     0.074 A 
ATOM     17  C   UNL A   1      38.258  33.018  32.529  1.00  0.00     0.049 A 
ATOM     18  N   UNL A   1      39.561  30.694  31.136  1.00  0.00    -0.248 NA
ATOM     19  C   UNL A   1      38.068  30.978  29.364  1.00  0.00     0.031 C 
ATOM     20  C   UNL A   1      37.623  34.111  33.268  1.00  0.00     0.029 A 
ATOM     21  N   UNL A   1      39.278  32.607  33.348  1.00  0.00    -0.354 N 
ATOM     22  C   UNL A   1      39.793  29.711  30.182  1.00  0.00     0.074 A 
ATOM     23  C   UNL A   1      38.823  29.914  29.126  1.00  0.00     0.031 C 
ATOM     24  C   UNL A   1      38.252  34.272  34.440  1.00  0.00     0.029 A 
ATOM     25  C   UNL A   1      39.291  33.255  34.562  1.00  0.00     0.049 A 
ATOM     26  H   UNL A   1      39.934  31.919  33.095  1.00  0.00     0.167 HD
ATOM     27  C   UNL A   1      40.731  28.733  30.186  1.00  0.00     0.034 A 
ATOM     28  C   UNL A   1      40.021  33.028  35.671  1.00  0.00     0.034 A 
ATOM     29  C   UNL A   1      41.694  28.549  31.239  1.00  0.00     0.049 A 
ATOM     30  C   UNL A   1      41.048  31.936  35.659  1.00  0.00     0.074 A 
ATOM     31  C   UNL A   1      42.733  27.638  31.303  1.00  0.00     0.029 A 
ATOM     32  N   UNL A   1      41.720  29.269  32.424  1.00  0.00    -0.354 N 
ATOM     33  N   UNL A   1      41.340  31.095  34.696  1.00  0.00    -0.248 NA
ATOM     34  C   UNL A   1      41.868  31.776  36.866  1.00  0.00     0.031 C 
ATOM     35  C   UNL A   1      43.356  27.774  32.548  1.00  0.00     0.029 A 
ATOM     36  C   UNL A   1      42.742  28.809  33.236  1.00  0.00     0.049 A 
ATOM     37  H   UNL A   1      41.102  30.000  32.654  1.00  0.00     0.167 HD
ATOM     38  C   UNL A   1      42.401  30.331  35.165  1.00  0.00     0.074 A 
ATOM     39  C   UNL A   1      42.703  30.813  36.499  1.00  0.00     0.031 C 
ATOM     40  C   UNL A   1      43.064  29.326  34.544  1.00  0.00     0.034 A 
BRANCH  27  41
ATOM     41  C   UNL A   1      40.755  27.783  29.015  1.00  0.00     0.023 A 
ATOM     42  C   UNL A   1      39.841  26.711  28.956  1.00  0.00     0.012 A 
ATOM     43  C   UNL A   1      41.665  27.971  27.956  1.00  0.00     0.148 A 
ATOM     44  C   UNL A   1      39.869  25.810  27.892  1.00  0.00     0.002 A 
ATOM     45  C   UNL A   1      41.653  27.099  26.873  1.00  0.00     0.091 A 
ATOM     46  F   UNL A   1      42.539  28.984  28.032  1.00  0.00    -0.205 F 
ATOM     47  C   UNL A   1      40.768  26.009  26.847  1.00  0.00     0.022 A 
BRANCH  45  48
ATOM     48  S   UNL A   1      42.717  27.323  25.443  1.00  0.00     0.127 S 
ATOM     49  O   UNL A   1      42.531  26.057  24.736  1.00  0.00    -0.237 OA
ATOM     50  O   UNL A   1      42.110  28.482  24.786  1.00  0.00    -0.237 OA
ATOM     51  O   UNL A   1      44.052  27.560  25.973  1.00  0.00    -0.744 OA
ENDBRANCH  45  48
ENDBRANCH  27  41
BRANCH  28  52
ATOM     52  C   UNL A   1      39.792  33.879  36.870  1.00  0.00     0.023 A 
ATOM     53  C   UNL A   1      40.108  35.249  36.824  1.00  0.00     0.012 A 
ATOM     54  C   UNL A   1      39.176  33.350  38.022  1.00  0.00     0.148 A 
ATOM     55  C   UNL A   1      39.827  36.077  37.911  1.00  0.00     0.002 A 
ATOM     56  C   UNL A   1      38.848  34.190  39.078  1.00  0.00     0.091 A 
ATOM     57  F   UNL A   1      38.886  32.041  38.041  1.00  0.00    -0.205 F 
ATOM     58  C   UNL A   1      39.187  35.551  39.031  1.00  0.00     0.022 A 
BRANCH  56  59
ATOM     59  S   UNL A   1      37.896  33.635  40.496  1.00  0.00     0.127 S 
ATOM     60  O   UNL A   1      37.726  34.878  41.245  1.00  0.00    -0.237 OA
ATOM     61  O   UNL A   1      36.681  33.128  39.858  1.00  0.00    -0.237 OA
ATOM     62  O   UNL A   1      38.709  32.618  41.148  1.00  0.00    -0.744 OA
ENDBRANCH  56  59
ENDBRANCH  28  52
BRANCH  40  63
ATOM     63  C   UNL A   1      44.231  28.700  35.259  1.00  0.00     0.023 A 
ATOM     64  C   UNL A   1      45.530  29.216  35.090  1.00  0.00     0.012 A 
ATOM     65  C   UNL A   1      44.009  27.671  36.196  1.00  0.00     0.148 A 
ATOM     66  C   UNL A   1      46.594  28.706  35.834  1.00  0.00     0.002 A 
ATOM     67  C   UNL A   1      45.062  27.206  36.972  1.00  0.00     0.091 A 
ATOM     68  F   UNL A   1      42.767  27.183  36.325  1.00  0.00    -0.205 F 
ATOM     69  C   UNL A   1      46.358  27.714  36.786  1.00  0.00     0.022 A 
BRANCH  67  70
ATOM     70  S   UNL A   1      44.834  26.009  38.292  1.00  0.00     0.127 S 
ATOM     71  O   UNL A   1      44.378  24.833  37.552  1.00  0.00    -0.237 OA
ATOM     72  O   UNL A   1      46.183  25.899  38.844  1.00  0.00    -0.237 OA
ATOM     73  O   UNL A   1      43.851  26.588  39.198  1.00  0.00    -0.744 OA
ENDBRANCH  67  70
ENDBRANCH  40  63
ENDBRANCH  14  15
ENDBRANCH   7   9
ENDBRANCH   4   5
ENDBRANCH   3   4
ENDBRANCH   2   3
ENDBRANCH   1   2
BRANCH   1  74
ATOM     74  C   UNL A   1      34.059  29.357  26.497  1.00  0.00     0.021 C 
BRANCH  74  75
ATOM     75  C   UNL A   1      33.527  28.419  25.422  1.00  0.00     0.116 C 
BRANCH  75  76
ATOM     76  N   UNL A   1      33.986  28.801  24.096  1.00  0.00    -0.352 N 
ATOM     77  C   UNL A   1      33.848  28.112  22.918  1.00  0.00     0.251 C 
ATOM     78  H   UNL A   1      34.455  29.664  24.035  1.00  0.00     0.163 HD
ATOM     79  O   UNL A   1      34.446  28.455  21.904  1.00  0.00    -0.269 OA
BRANCH  77  80
ATOM     80  C   UNL A   1      32.948  26.944  22.882  1.00  0.00     0.040 A 
ATOM     81  C   UNL A   1      33.277  25.840  22.098  1.00  0.00     0.014 A 
ATOM     82  C   UNL A   1      31.763  26.962  23.626  1.00  0.00     0.018 A 
ATOM     83  C   UNL A   1      32.443  24.724  22.112  1.00  0.00     0.001 A 
ATOM     84  C   UNL A   1      30.919  25.848  23.646  1.00  0.00    -0.031 A 
ATOM     85  C   UNL A   1      31.280  24.722  22.891  1.00  0.00     0.005 A 
BRANCH  84  86
ATOM     86  C   UNL A   1      29.681  25.885  24.498  1.00  0.00     0.189 C 
BRANCH  86  87
ATOM     87  S   UNL A   1      29.983  25.341  26.181  1.00  0.00     0.216 S 
ATOM     88  O   UNL A   1      30.964  26.201  26.796  1.00  0.00    -0.212 OA
ATOM     89  O   UNL A   1      28.681  25.199  26.809  1.00  0.00    -0.212 OA
BRANCH  87  90
ATOM     90  N   UNL A   1      30.542  23.776  26.109  1.00  0.00    -0.211 NA
ATOM     91  H   UNL A   1      30.572  23.553  25.114  1.00  0.00     0.141 HD
BRANCH  90  92
ATOM     92  C   UNL A   1      31.803  23.268  26.649  1.00  0.00     0.134 C 
BRANCH  92  93
ATOM     93  C   UNL A   1      33.067  23.460  25.854  1.00  0.00    -0.033 A 
ATOM     94  C   UNL A   1      33.491  22.452  24.973  1.00  0.00     0.005 A 
ATOM     95  C   UNL A   1      33.867  24.599  25.995  1.00  0.00     0.005 A 
ATOM     96  C   UNL A   1      34.630  22.624  24.184  1.00  0.00     0.000 A 
ATOM     97  C   UNL A   1      34.995  24.781  25.194  1.00  0.00     0.000 A 
ATOM     98  C   UNL A   1      35.370  23.799  24.281  1.00  0.00     0.000 A 
ENDBRANCH  92  93
ENDBRANCH  90  92
ENDBRANCH  87  90
ENDBRANCH  86  87
ENDBRANCH  84  86
ENDBRANCH  77  80
ENDBRANCH  75  76
ENDBRANCH  74  75
ENDBRANCH   1  74
TORSDOF 21
ENDMDL
MODEL 2
REMARK VINA RESULT:     -11.2      1.907      7.777
REMARK SMILES O=C(NCCCCCCNC(=O)c1cccc(CS(=O)(=O)NCc2ccccc2)c1)c1ccc(-c2c3nc(c(-c4cccc(S(=O)(=O)[O-])c4F)c4ccc([nH]4)c(-c4cccc(S(=O)(=O)[O-])c4F)c4nc(c(-c5cccc(S(=O)(=O)[O-])c5F)c5ccc2[nH]5)C=C4)C=C3)cc1
REMARK SMILES IDX 7 1 6 2 5 3 4 4 3 5 1 6 2 7 31 9 32 10 93 11 33 12 92 13
REMARK SMILES IDX 34 14 35 15 36 16 86 17 37 18 91 19 85 20 87 21 38 22 90 23
REMARK SMILES IDX 84 24 83 25 39 27 71 28 51 29 70 30 52 31 55 32 69 33 88 34
REMARK SMILES IDX 53 35 54 36 68 38 89 39 56 40 40 41 41 42 49 43 42 44 44 45
REMARK SMILES IDX 50 46 43 47 45 48 46 49 47 50 48 51 72 52 73 53 81 54 74 55
REMARK SMILES IDX 76 56 82 57 75 58 77 59 78 60 79 61 80 62 57 63 58 64 66 65
REMARK SMILES IDX 59 66 61 67 67 68 60 69 62 70 63 71 64 72 65 73 8 74 9 75
REMARK SMILES IDX 10 76 11 77 12 79 13 80 14 81 30 82 15 83 17 84 16 85 18 86
REMARK SMILES IDX 19 87 20 88 21 89 22 90 23 92 24 93 25 94 29 95 26 96 28 97
REMARK SMILES IDX 27 98
REMARK H PARENT 3 8 87 26 55 37 10 78 22 91
REMARK Flexibility Score: inf
ROOT
ATOM      1  C   UNL A   1      32.682  28.949  26.188  1.00  0.00     0.002 C 
ENDROOT
BRANCH   1   2
ATOM      2  C   UNL A   1      31.470  29.751  25.701  1.00  0.00     0.002 C 
BRANCH   2   3
ATOM      3  C   UNL A   1      31.459  31.225  26.113  1.00  0.00     0.021 C 
BRANCH   3   4
ATOM      4  C   UNL A   1      32.493  31.594  27.170  1.00  0.00     0.116 C 
BRANCH   4   5
ATOM      5  N   UNL A   1      32.701  33.029  27.244  1.00  0.00    -0.352 N 
ATOM      6  O   UNL A   1      33.504  34.949  28.097  1.00  0.00    -0.269 OA
ATOM      7  C   UNL A   1      33.618  33.734  27.980  1.00  0.00     0.251 C 
ATOM      8  H   UNL A   1      32.098  33.573  26.687  1.00  0.00     0.163 HD
BRANCH   7   9
ATOM      9  C   UNL A   1      34.727  33.014  28.642  1.00  0.00     0.039 A 
ATOM     10  C   UNL A   1      36.006  33.000  28.077  1.00  0.00     0.014 A 
ATOM     11  C   UNL A   1      34.482  32.360  29.850  1.00  0.00     0.014 A 
ATOM     12  C   UNL A   1      37.012  32.235  28.657  1.00  0.00     0.010 A 
ATOM     13  C   UNL A   1      35.514  31.656  30.472  1.00  0.00     0.010 A 
ATOM     14  C   UNL A   1      36.780  31.569  29.869  1.00  0.00    -0.014 A 
BRANCH  14  15
ATOM     15  C   UNL A   1      37.879  30.838  30.545  1.00  0.00     0.031 A 
ATOM     16  C   UNL A   1      38.293  31.196  31.942  1.00  0.00     0.074 A 
ATOM     17  C   UNL A   1      38.553  29.898  29.857  1.00  0.00     0.049 A 
ATOM     18  N   UNL A   1      39.298  30.741  32.645  1.00  0.00    -0.248 NA
ATOM     19  C   UNL A   1      37.480  32.205  32.639  1.00  0.00     0.031 C 
ATOM     20  C   UNL A   1      38.259  29.492  28.481  1.00  0.00     0.029 A 
ATOM     21  N   UNL A   1      39.645  29.144  30.203  1.00  0.00    -0.354 N 
ATOM     22  C   UNL A   1      39.273  31.443  33.843  1.00  0.00     0.074 A 
ATOM     23  C   UNL A   1      38.150  32.355  33.772  1.00  0.00     0.031 C 
ATOM     24  C   UNL A   1      39.160  28.580  28.091  1.00  0.00     0.029 A 
ATOM     25  C   UNL A   1      40.129  28.384  29.164  1.00  0.00     0.049 A 
ATOM     26  H   UNL A   1      40.043  29.146  31.103  1.00  0.00     0.167 HD
ATOM     27  C   UNL A   1      40.108  31.334  34.905  1.00  0.00     0.034 A 
ATOM     28  C   UNL A   1      41.253  27.649  29.061  1.00  0.00     0.034 A 
ATOM     29  C   UNL A   1      41.215  30.417  34.964  1.00  0.00     0.049 A 
ATOM     30  C   UNL A   1      42.169  27.548  30.244  1.00  0.00     0.074 A 
ATOM     31  C   UNL A   1      42.075  30.175  36.021  1.00  0.00     0.029 A 
ATOM     32  N   UNL A   1      41.636  29.613  33.915  1.00  0.00    -0.354 N 
ATOM     33  N   UNL A   1      42.061  28.123  31.417  1.00  0.00    -0.248 NA
ATOM     34  C   UNL A   1      43.343  26.676  30.107  1.00  0.00     0.031 C 
ATOM     35  C   UNL A   1      43.044  29.261  35.594  1.00  0.00     0.029 A 
ATOM     36  C   UNL A   1      42.755  28.890  34.290  1.00  0.00     0.049 A 
ATOM     37  H   UNL A   1      41.202  29.564  33.032  1.00  0.00     0.167 HD
ATOM     38  C   UNL A   1      43.129  27.654  32.172  1.00  0.00     0.074 A 
ATOM     39  C   UNL A   1      43.872  26.745  31.322  1.00  0.00     0.031 C 
ATOM     40  C   UNL A   1      43.460  27.952  33.452  1.00  0.00     0.034 A 
BRANCH  27  41
ATOM     41  C   UNL A   1      39.857  32.236  36.087  1.00  0.00     0.023 A 
ATOM     42  C   UNL A   1      40.610  33.417  36.249  1.00  0.00     0.012 A 
ATOM     43  C   UNL A   1      38.850  31.928  37.024  1.00  0.00     0.148 A 
ATOM     44  C   UNL A   1      40.405  34.246  37.351  1.00  0.00     0.002 A 
ATOM     45  C   UNL A   1      38.616  32.787  38.093  1.00  0.00     0.091 A 
ATOM     46  F   UNL A   1      38.152  30.795  36.867  1.00  0.00    -0.205 F 
ATOM     47  C   UNL A   1      39.404  33.936  38.267  1.00  0.00     0.022 A 
BRANCH  45  48
ATOM     48  S   UNL A   1      37.294  32.513  39.276  1.00  0.00     0.127 S 
ATOM     49  O   UNL A   1      37.624  31.182  39.785  1.00  0.00    -0.237 OA
ATOM     50  O   UNL A   1      37.506  33.600  40.233  1.00  0.00    -0.237 OA
ATOM     51  O   UNL A   1      36.054  32.609  38.519  1.00  0.00    -0.744 OA
ENDBRANCH  45  48
ENDBRANCH  27  41
BRANCH  28  52
ATOM     52  C   UNL A   1      41.544  26.951  27.780  1.00  0.00     0.023 A 
ATOM     53  C   UNL A   1      42.066  27.676  26.694  1.00  0.00     0.012 A 
ATOM     54  C   UNL A   1      41.390  25.554  27.670  1.00  0.00     0.148 A 
ATOM     55  C   UNL A   1      42.418  27.023  25.512  1.00  0.00     0.002 A 
ATOM     56  C   UNL A   1      41.796  24.904  26.512  1.00  0.00     0.091 A 
ATOM     57  F   UNL A   1      40.890  24.887  28.719  1.00  0.00    -0.205 F 
ATOM     58  C   UNL A   1      42.296  25.639  25.425  1.00  0.00     0.022 A 
BRANCH  56  59
ATOM     59  S   UNL A   1      41.811  23.114  26.361  1.00  0.00     0.127 S 
ATOM     60  O   UNL A   1      42.497  22.929  25.085  1.00  0.00    -0.237 OA
ATOM     61  O   UNL A   1      42.585  22.724  27.540  1.00  0.00    -0.237 OA
ATOM     62  O   UNL A   1      40.415  22.701  26.388  1.00  0.00    -0.744 OA
ENDBRANCH  56  59
ENDBRANCH  28  52
BRANCH  40  63
ATOM     63  C   UNL A   1      44.645  27.250  34.057  1.00  0.00     0.023 A 
ATOM     64  C   UNL A   1      45.930  27.819  33.975  1.00  0.00     0.012 A 
ATOM     65  C   UNL A   1      44.454  26.077  34.816  1.00  0.00     0.148 A 
ATOM     66  C   UNL A   1      47.009  27.224  34.628  1.00  0.00     0.002 A 
ATOM     67  C   UNL A   1      45.521  25.521  35.508  1.00  0.00     0.091 A 
ATOM     68  F   UNL A   1      43.224  25.543  34.864  1.00  0.00    -0.205 F 
ATOM     69  C   UNL A   1      46.802  26.086  35.408  1.00  0.00     0.022 A 
BRANCH  67  70
ATOM     70  S   UNL A   1      45.327  24.122  36.618  1.00  0.00     0.127 S 
ATOM     71  O   UNL A   1      44.387  24.653  37.605  1.00  0.00    -0.237 OA
ATOM     72  O   UNL A   1      44.771  23.101  35.732  1.00  0.00    -0.237 OA
ATOM     73  O   UNL A   1      46.658  23.824  37.130  1.00  0.00    -0.744 OA
ENDBRANCH  67  70
ENDBRANCH  40  63
ENDBRANCH  14  15
ENDBRANCH   7   9
ENDBRANCH   4   5
ENDBRANCH   3   4
ENDBRANCH   2   3
ENDBRANCH   1   2
BRANCH   1  74
ATOM     74  C   UNL A   1      33.689  28.577  25.099  1.00  0.00     0.021 C 
BRANCH  74  75
ATOM     75  C   UNL A   1      33.373  27.278  24.371  1.00  0.00     0.116 C 
BRANCH  75  76
ATOM     76  N   UNL A   1      32.338  27.460  23.365  1.00  0.00    -0.352 N 
ATOM     77  C   UNL A   1      31.758  26.511  22.562  1.00  0.00     0.251 C 
ATOM     78  H   UNL A   1      32.012  28.381  23.246  1.00  0.00     0.163 HD
ATOM     79  O   UNL A   1      31.034  26.825  21.625  1.00  0.00    -0.269 OA
BRANCH  77  80
ATOM     80  C   UNL A   1      32.009  25.087  22.853  1.00  0.00     0.040 A 
ATOM     81  C   UNL A   1      32.962  24.388  22.116  1.00  0.00     0.014 A 
ATOM     82  C   UNL A   1      31.276  24.449  23.860  1.00  0.00     0.018 A 
ATOM     83  C   UNL A   1      33.224  23.056  22.434  1.00  0.00     0.001 A 
ATOM     84  C   UNL A   1      31.531  23.113  24.186  1.00  0.00    -0.031 A 
ATOM     85  C   UNL A   1      32.524  22.428  23.471  1.00  0.00     0.005 A 
BRANCH  84  86
ATOM     86  C   UNL A   1      30.760  22.476  25.309  1.00  0.00     0.189 C 
BRANCH  86  87
ATOM     87  S   UNL A   1      31.089  23.243  26.897  1.00  0.00     0.216 S 
ATOM     88  O   UNL A   1      31.551  24.594  26.694  1.00  0.00    -0.212 OA
ATOM     89  O   UNL A   1      29.911  23.019  27.716  1.00  0.00    -0.212 OA
BRANCH  87  90
ATOM     90  N   UNL A   1      32.257  22.336  27.659  1.00  0.00    -0.211 NA
ATOM     91  H   UNL A   1      32.249  21.437  27.176  1.00  0.00     0.141 HD
BRANCH  90  92
ATOM     92  C   UNL A   1      33.674  22.673  27.807  1.00  0.00     0.134 C 
BRANCH  92  93
ATOM     93  C   UNL A   1      34.542  22.730  26.579  1.00  0.00    -0.033 A 
ATOM     94  C   UNL A   1      34.815  23.971  25.981  1.00  0.00     0.005 A 
ATOM     95  C   UNL A   1      35.056  21.575  25.979  1.00  0.00     0.005 A 
ATOM     96  C   UNL A   1      35.660  24.061  24.873  1.00  0.00     0.000 A 
ATOM     97  C   UNL A   1      35.915  21.664  24.883  1.00  0.00     0.000 A 
ATOM     98  C   UNL A   1      36.226  22.907  24.337  1.00  0.00     0.000 A 
ENDBRANCH  92  93
ENDBRANCH  90  92
ENDBRANCH  87  90
ENDBRANCH  86  87
ENDBRANCH  84  86
ENDBRANCH  77  80
ENDBRANCH  75  76
ENDBRANCH  74  75
ENDBRANCH   1  74
TORSDOF 21
ENDMDL
MODEL 3
REMARK VINA RESULT:     -10.9      2.156      2.786
REMARK SMILES O=C(NCCCCCCNC(=O)c1cccc(CS(=O)(=O)NCc2ccccc2)c1)c1ccc(-c2c3nc(c(-c4cccc(S(=O)(=O)[O-])c4F)c4ccc([nH]4)c(-c4cccc(S(=O)(=O)[O-])c4F)c4nc(c(-c5cccc(S(=O)(=O)[O-])c5F)c5ccc2[nH]5)C=C4)C=C3)cc1
REMARK SMILES IDX 7 1 6 2 5 3 4 4 3 5 1 6 2 7 31 9 32 10 93 11 33 12 92 13
REMARK SMILES IDX 34 14 35 15 36 16 86 17 37 18 91 19 85 20 87 21 38 22 90 23
REMARK SMILES IDX 84 24 83 25 39 27 71 28 51 29 70 30 52 31 55 32 69 33 88 34
REMARK SMILES IDX 53 35 54 36 68 38 89 39 56 40 40 41 41 42 49 43 42 44 44 45
REMARK SMILES IDX 50 46 43 47 45 48 46 49 47 50 48 51 72 52 73 53 81 54 74 55
REMARK SMILES IDX 76 56 82 57 75 58 77 59 78 60 79 61 80 62 57 63 58 64 66 65
REMARK SMILES IDX 59 66 61 67 67 68 60 69 62 70 63 71 64 72 65 73 8 74 9 75
REMARK SMILES IDX 10 76 11 77 12 79 13 80 14 81 30 82 15 83 17 84 16 85 18 86
REMARK SMILES IDX 19 87 20 88 21 89 22 90 23 92 24 93 25 94 29 95 26 96 28 97
REMARK SMILES IDX 27 98
REMARK H PARENT 3 8 87 26 55 37 10 78 22 91
REMARK Flexibility Score: inf
ROOT
ATOM      1  C   UNL A   1      31.524  28.661  25.719  1.00  0.00     0.002 C 
ENDROOT
BRANCH   1   2
ATOM      2  C   UNL A   1      31.756  29.595  26.911  1.00  0.00     0.002 C 
BRANCH   2   3
ATOM      3  C   UNL A   1      31.659  31.089  26.594  1.00  0.00     0.021 C 
BRANCH   3   4
ATOM      4  C   UNL A   1      32.954  31.866  26.807  1.00  0.00     0.116 C 
BRANCH   4   5
ATOM      5  N   UNL A   1      32.702  33.219  27.269  1.00  0.00    -0.352 N 
ATOM      6  O   UNL A   1      32.818  34.962  28.685  1.00  0.00    -0.269 OA
ATOM      7  C   UNL A   1      33.310  33.913  28.283  1.00  0.00     0.251 C 
ATOM      8  H   UNL A   1      31.995  33.706  26.788  1.00  0.00     0.163 HD
BRANCH   7   9
ATOM      9  C   UNL A   1      34.545  33.378  28.893  1.00  0.00     0.039 A 
ATOM     10  C   UNL A   1      35.796  33.900  28.547  1.00  0.00     0.014 A 
ATOM     11  C   UNL A   1      34.445  32.351  29.833  1.00  0.00     0.014 A 
ATOM     12  C   UNL A   1      36.954  33.318  29.051  1.00  0.00     0.010 A 
ATOM     13  C   UNL A   1      35.606  31.820  30.397  1.00  0.00     0.010 A 
ATOM     14  C   UNL A   1      36.869  32.283  29.994  1.00  0.00    -0.014 A 
BRANCH  14  15
ATOM     15  C   UNL A   1      38.098  31.731  30.613  1.00  0.00     0.031 A 
ATOM     16  C   UNL A   1      38.916  30.693  29.903  1.00  0.00     0.074 A 
ATOM     17  C   UNL A   1      38.428  32.121  31.859  1.00  0.00     0.049 A 
ATOM     18  N   UNL A   1      39.952  30.023  30.337  1.00  0.00    -0.248 NA
ATOM     19  C   UNL A   1      38.511  30.353  28.531  1.00  0.00     0.031 C 
ATOM     20  C   UNL A   1      37.687  33.100  32.658  1.00  0.00     0.029 A 
ATOM     21  N   UNL A   1      39.444  31.714  32.686  1.00  0.00    -0.354 N 
ATOM     22  C   UNL A   1      40.292  29.145  29.316  1.00  0.00     0.074 A 
ATOM     23  C   UNL A   1      39.350  29.369  28.239  1.00  0.00     0.031 C 
ATOM     24  C   UNL A   1      38.257  33.203  33.866  1.00  0.00     0.029 A 
ATOM     25  C   UNL A   1      39.363  32.255  33.949  1.00  0.00     0.049 A 
ATOM     26  H   UNL A   1      40.158  31.099  32.406  1.00  0.00     0.167 HD
ATOM     27  C   UNL A   1      41.299  28.239  29.280  1.00  0.00     0.034 A 
ATOM     28  C   UNL A   1      40.065  31.985  35.067  1.00  0.00     0.034 A 
ATOM     29  C   UNL A   1      42.232  28.033  30.356  1.00  0.00     0.049 A 
ATOM     30  C   UNL A   1      41.169  30.973  35.009  1.00  0.00     0.074 A 
ATOM     31  C   UNL A   1      43.332  27.194  30.391  1.00  0.00     0.029 A 
ATOM     32  N   UNL A   1      42.159  28.648  31.598  1.00  0.00    -0.354 N 
ATOM     33  N   UNL A   1      41.559  30.240  33.994  1.00  0.00    -0.248 NA
ATOM     34  C   UNL A   1      41.952  30.768  36.235  1.00  0.00     0.031 C 
ATOM     35  C   UNL A   1      43.895  27.267  31.669  1.00  0.00     0.029 A 
ATOM     36  C   UNL A   1      43.180  28.192  32.413  1.00  0.00     0.049 A 
ATOM     37  H   UNL A   1      41.481  29.311  31.860  1.00  0.00     0.167 HD
ATOM     38  C   UNL A   1      42.655  29.516  34.445  1.00  0.00     0.074 A 
ATOM     39  C   UNL A   1      42.869  29.901  35.825  1.00  0.00     0.031 C 
ATOM     40  C   UNL A   1      43.413  28.617  33.772  1.00  0.00     0.034 A 
BRANCH  27  41
ATOM     41  C   UNL A   1      41.437  27.397  28.037  1.00  0.00     0.023 A 
ATOM     42  C   UNL A   1      41.942  27.965  26.850  1.00  0.00     0.012 A 
ATOM     43  C   UNL A   1      41.093  26.030  28.054  1.00  0.00     0.148 A 
ATOM     44  C   UNL A   1      42.051  27.204  25.686  1.00  0.00     0.002 A 
ATOM     45  C   UNL A   1      41.253  25.265  26.904  1.00  0.00     0.091 A 
ATOM     46  F   UNL A   1      40.599  25.506  29.184  1.00  0.00    -0.205 F 
ATOM     47  C   UNL A   1      41.714  25.854  25.715  1.00  0.00     0.022 A 
BRANCH  45  48
ATOM     48  S   UNL A   1      40.925  23.499  26.869  1.00  0.00     0.127 S 
ATOM     49  O   UNL A   1      41.825  23.053  25.806  1.00  0.00    -0.237 OA
ATOM     50  O   UNL A   1      41.321  23.085  28.216  1.00  0.00    -0.237 OA
ATOM     51  O   UNL A   1      39.503  23.363  26.589  1.00  0.00    -0.744 OA
ENDBRANCH  45  48
ENDBRANCH  27  41
BRANCH  28  52
ATOM     52  C   UNL A   1      39.728  32.711  36.321  1.00  0.00     0.023 A 
ATOM     53  C   UNL A   1      40.310  33.966  36.577  1.00  0.00     0.012 A 
ATOM     54  C   UNL A   1      38.763  32.201  37.212  1.00  0.00     0.148 A 
ATOM     55  C   UNL A   1      39.946  34.696  37.709  1.00  0.00     0.002 A 
ATOM     56  C   UNL A   1      38.364  32.958  38.306  1.00  0.00     0.091 A 
ATOM     57  F   UNL A   1      38.224  31.003  36.944  1.00  0.00    -0.205 F 
ATOM     58  C   UNL A   1      38.966  34.200  38.565  1.00  0.00     0.022 A 
BRANCH  56  59
ATOM     59  S   UNL A   1      37.010  32.468  39.380  1.00  0.00     0.127 S 
ATOM     60  O   UNL A   1      35.858  32.615  38.492  1.00  0.00    -0.237 OA
ATOM     61  O   UNL A   1      37.370  31.087  39.699  1.00  0.00    -0.237 OA
ATOM     62  O   UNL A   1      37.049  33.383  40.511  1.00  0.00    -0.744 OA
ENDBRANCH  56  59
ENDBRANCH  28  52
BRANCH  40  63
ATOM     63  C   UNL A   1      44.595  28.015  34.483  1.00  0.00     0.023 A 
ATOM     64  C   UNL A   1      45.849  28.654  34.448  1.00  0.00     0.012 A 
ATOM     65  C   UNL A   1      44.421  26.872  35.290  1.00  0.00     0.148 A 
ATOM     66  C   UNL A   1      46.916  28.155  35.195  1.00  0.00     0.002 A 
ATOM     67  C   UNL A   1      45.472  26.413  36.072  1.00  0.00     0.091 A 
ATOM     68  F   UNL A   1      43.223  26.270  35.291  1.00  0.00    -0.205 F 
ATOM     69  C   UNL A   1      46.724  27.047  36.019  1.00  0.00     0.022 A 
BRANCH  67  70
ATOM     70  S   UNL A   1      45.287  25.061  37.240  1.00  0.00     0.127 S 
ATOM     71  O   UNL A   1      46.543  25.140  37.987  1.00  0.00    -0.237 OA
ATOM     72  O   UNL A   1      44.102  25.466  37.995  1.00  0.00    -0.237 OA
ATOM     73  O   UNL A   1      45.118  23.855  36.441  1.00  0.00    -0.744 OA
ENDBRANCH  67  70
ENDBRANCH  40  63
ENDBRANCH  14  15
ENDBRANCH   7   9
ENDBRANCH   4   5
ENDBRANCH   3   4
ENDBRANCH   2   3
ENDBRANCH   1   2
BRANCH   1  74
ATOM     74  C   UNL A   1      31.337  29.365  24.374  1.00  0.00     0.021 C 
BRANCH  74  75
ATOM     75  C   UNL A   1      30.851  28.456  23.253  1.00  0.00     0.116 C 
BRANCH  75  76
ATOM     76  N   UNL A   1      31.920  28.123  22.324  1.00  0.00    -0.352 N 
ATOM     77  C   UNL A   1      32.704  26.998  22.299  1.00  0.00     0.251 C 
ATOM     78  H   UNL A   1      32.104  28.791  21.625  1.00  0.00     0.163 HD
ATOM     79  O   UNL A   1      33.695  26.927  21.581  1.00  0.00    -0.269 OA
BRANCH  77  80
ATOM     80  C   UNL A   1      32.327  25.853  23.149  1.00  0.00     0.040 A 
ATOM     81  C   UNL A   1      31.174  25.127  22.860  1.00  0.00     0.014 A 
ATOM     82  C   UNL A   1      33.126  25.516  24.247  1.00  0.00     0.018 A 
ATOM     83  C   UNL A   1      30.856  24.018  23.641  1.00  0.00     0.001 A 
ATOM     84  C   UNL A   1      32.816  24.406  25.038  1.00  0.00    -0.031 A 
ATOM     85  C   UNL A   1      31.679  23.650  24.713  1.00  0.00     0.005 A 
BRANCH  84  86
ATOM     86  C   UNL A   1      33.726  24.043  26.177  1.00  0.00     0.189 C 
BRANCH  86  87
ATOM     87  S   UNL A   1      35.078  22.976  25.671  1.00  0.00     0.216 S 
ATOM     88  O   UNL A   1      35.130  22.914  24.231  1.00  0.00    -0.212 OA
ATOM     89  O   UNL A   1      36.252  23.424  26.398  1.00  0.00    -0.212 OA
BRANCH  87  90
ATOM     90  N   UNL A   1      34.790  21.467  26.309  1.00  0.00    -0.211 NA
ATOM     91  H   UNL A   1      35.165  21.506  27.257  1.00  0.00     0.141 HD
BRANCH  90  92
ATOM     92  C   UNL A   1      33.494  20.801  26.443  1.00  0.00     0.134 C 
BRANCH  92  93
ATOM     93  C   UNL A   1      33.046  19.853  25.362  1.00  0.00    -0.033 A 
ATOM     94  C   UNL A   1      32.753  20.350  24.082  1.00  0.00     0.005 A 
ATOM     95  C   UNL A   1      32.867  18.486  25.602  1.00  0.00     0.005 A 
ATOM     96  C   UNL A   1      32.387  19.488  23.046  1.00  0.00     0.000 A 
ATOM     97  C   UNL A   1      32.518  17.621  24.564  1.00  0.00     0.000 A 
ATOM     98  C   UNL A   1      32.290  18.120  23.284  1.00  0.00     0.000 A 
ENDBRANCH  92  93
ENDBRANCH  90  92
ENDBRANCH  87  90
ENDBRANCH  86  87
ENDBRANCH  84  86
ENDBRANCH  77  80
ENDBRANCH  75  76
ENDBRANCH  74  75
ENDBRANCH   1  74
TORSDOF 21
ENDMDL
