MODEL 1
REMARK VINA RESULT:     -11.2      0.000      0.000
REMARK SMILES C[C@H]([NH3+])c1ccc(F)cc1OCC(C)(C)C(=O)NCCCCCCNC(=O)c1ccc(-c2c3nc(c(-c4cccc(S(=O)(=O)[O-])c4F)c4ccc([nH]4)c(-c4cccc(S(=O)(=O)[O-])c4F)c4nc(c(-c5cccc(S(=O)(=O)[O-])c5F)c5ccc2[nH]5)C=C4)C=C3)cc1
REMARK SMILES IDX 20 1 19 2 18 3 16 4 17 5 13 7 14 8 15 9 12 10 11 11 10 12
REMARK SMILES IDX 4 13 5 14 6 15 9 16 7 17 8 18 2 19 1 20 3 21 21 25 22 26
REMARK SMILES IDX 23 27 24 28 25 29 26 30 27 32 28 33 29 34 90 35 30 36 89 37
REMARK SMILES IDX 31 38 32 39 33 40 83 41 34 42 88 43 82 44 84 45 35 46 87 47
REMARK SMILES IDX 81 48 80 49 36 51 68 52 48 53 67 54 49 55 52 56 66 57 85 58
REMARK SMILES IDX 50 59 51 60 65 62 86 63 53 64 37 65 38 66 46 67 39 68 41 69
REMARK SMILES IDX 47 70 40 71 42 72 43 73 44 74 45 75 69 76 70 77 78 78 71 79
REMARK SMILES IDX 73 80 79 81 72 82 74 83 75 84 76 85 77 86 54 87 55 88 63 89
REMARK SMILES IDX 56 90 58 91 64 92 57 93 59 94 60 95 61 96 62 97
REMARK H PARENT 18 6 3 22 3 23 3 24 25 31 84 50 52 61
REMARK Flexibility Score: inf
ROOT
ATOM      1  C   UNL A   1      32.980  20.155  25.369  1.00  0.00     0.021 C 
ENDROOT
BRANCH   1   2
ATOM      2  C   UNL A   1      31.797  21.004  24.952  1.00  0.00     0.116 C 
BRANCH   2   3
ATOM      3  N   UNL A   1      31.235  21.762  26.064  1.00  0.00    -0.356 N 
ATOM      4  C   UNL A   1      31.006  23.111  26.186  1.00  0.00     0.229 C 
ATOM      5  O   UNL A   1      30.441  23.505  27.206  1.00  0.00    -0.274 OA
ATOM      6  H   UNL A   1      30.980  21.223  26.848  1.00  0.00     0.163 HD
BRANCH   4   7
ATOM      7  C   UNL A   1      31.484  24.063  25.075  1.00  0.00     0.077 C 
ATOM      8  C   UNL A   1      31.387  23.286  23.745  1.00  0.00     0.025 C 
ATOM      9  C   UNL A   1      32.929  24.496  25.439  1.00  0.00     0.025 C 
BRANCH   7  10
ATOM     10  C   UNL A   1      30.691  25.416  25.085  1.00  0.00     0.245 C 
BRANCH  10  11
ATOM     11  O   UNL A   1      30.800  26.254  23.950  1.00  0.00    -0.492 OA
BRANCH  11  12
ATOM     12  C   UNL A   1      30.349  27.536  23.840  1.00  0.00     0.131 A 
ATOM     13  C   UNL A   1      31.005  28.787  23.922  1.00  0.00     0.051 A 
ATOM     14  C   UNL A   1      30.258  29.935  23.538  1.00  0.00     0.017 A 
ATOM     15  C   UNL A   1      28.940  29.856  23.088  1.00  0.00     0.040 A 
ATOM     16  C   UNL A   1      28.992  27.489  23.461  1.00  0.00     0.086 A 
ATOM     17  C   UNL A   1      28.310  28.631  23.075  1.00  0.00     0.126 A 
ATOM     18  F   UNL A   1      27.042  28.534  22.653  1.00  0.00    -0.207 F 
BRANCH  13  19
ATOM     19  C   UNL A   1      32.461  29.031  24.307  1.00  0.00     0.212 C 
ATOM     20  C   UNL A   1      33.412  28.958  23.119  1.00  0.00     0.081 C 
BRANCH  19  21
ATOM     21  N   UNL A   1      32.931  28.097  25.345  1.00  0.00    -0.351 N 
ATOM     22  H   UNL A   1      32.146  27.817  25.932  1.00  0.00     0.345 HD
ATOM     23  H   UNL A   1      33.639  28.554  25.918  1.00  0.00     0.345 HD
ATOM     24  H   UNL A   1      33.335  27.271  24.902  1.00  0.00     0.345 HD
ENDBRANCH  19  21
ENDBRANCH  13  19
ENDBRANCH  11  12
ENDBRANCH  10  11
ENDBRANCH   7  10
ENDBRANCH   4   7
ENDBRANCH   2   3
ENDBRANCH   1   2
BRANCH   1  25
ATOM     25  C   UNL A   1      34.089  20.983  26.014  1.00  0.00     0.002 C 
BRANCH  25  26
ATOM     26  C   UNL A   1      35.312  21.223  25.117  1.00  0.00     0.002 C 
BRANCH  26  27
ATOM     27  C   UNL A   1      36.485  21.938  25.795  1.00  0.00     0.021 C 
BRANCH  27  28
ATOM     28  C   UNL A   1      37.816  21.789  25.067  1.00  0.00     0.116 C 
BRANCH  28  29
ATOM     29  N   UNL A   1      38.664  20.790  25.697  1.00  0.00    -0.352 N 
ATOM     30  C   UNL A   1      39.811  20.960  26.427  1.00  0.00     0.251 C 
ATOM     31  H   UNL A   1      38.372  19.856  25.582  1.00  0.00     0.163 HD
ATOM     32  O   UNL A   1      40.513  19.997  26.706  1.00  0.00    -0.269 OA
BRANCH  30  33
ATOM     33  C   UNL A   1      40.193  22.319  26.856  1.00  0.00     0.039 A 
ATOM     34  C   UNL A   1      41.091  22.460  27.914  1.00  0.00     0.014 A 
ATOM     35  C   UNL A   1      39.676  23.441  26.203  1.00  0.00     0.014 A 
ATOM     36  C   UNL A   1      41.515  23.736  28.284  1.00  0.00     0.010 A 
ATOM     37  C   UNL A   1      40.157  24.706  26.524  1.00  0.00     0.010 A 
ATOM     38  C   UNL A   1      41.080  24.865  27.568  1.00  0.00    -0.014 A 
BRANCH  38  39
ATOM     39  C   UNL A   1      41.612  26.214  27.874  1.00  0.00     0.031 A 
ATOM     40  C   UNL A   1      43.007  26.595  27.463  1.00  0.00     0.074 A 
ATOM     41  C   UNL A   1      40.855  27.071  28.587  1.00  0.00     0.049 A 
ATOM     42  N   UNL A   1      43.650  27.711  27.684  1.00  0.00    -0.248 NA
ATOM     43  C   UNL A   1      43.791  25.586  26.731  1.00  0.00     0.031 C 
ATOM     44  C   UNL A   1      39.512  26.786  29.098  1.00  0.00     0.029 A 
ATOM     45  N   UNL A   1      41.111  28.346  29.024  1.00  0.00    -0.354 N 
ATOM     46  C   UNL A   1      44.916  27.534  27.141  1.00  0.00     0.074 A 
ATOM     47  C   UNL A   1      44.965  26.189  26.610  1.00  0.00     0.031 C 
ATOM     48  C   UNL A   1      39.057  27.859  29.762  1.00  0.00     0.029 A 
ATOM     49  C   UNL A   1      40.087  28.892  29.762  1.00  0.00     0.049 A 
ATOM     50  H   UNL A   1      41.949  28.826  28.827  1.00  0.00     0.167 HD
ATOM     51  C   UNL A   1      45.934  28.422  27.067  1.00  0.00     0.034 A 
ATOM     52  C   UNL A   1      39.988  30.088  30.376  1.00  0.00     0.034 A 
ATOM     53  C   UNL A   1      45.864  29.767  27.569  1.00  0.00     0.049 A 
ATOM     54  C   UNL A   1      41.126  31.064  30.258  1.00  0.00     0.074 A 
ATOM     55  C   UNL A   1      46.820  30.764  27.482  1.00  0.00     0.029 A 
ATOM     56  N   UNL A   1      44.786  30.307  28.254  1.00  0.00    -0.354 N 
ATOM     57  N   UNL A   1      42.269  30.922  29.633  1.00  0.00    -0.248 NA
ATOM     58  C   UNL A   1      40.949  32.376  30.896  1.00  0.00     0.031 C 
ATOM     59  C   UNL A   1      46.333  31.894  28.143  1.00  0.00     0.029 A 
ATOM     60  C   UNL A   1      45.055  31.619  28.600  1.00  0.00     0.049 A 
ATOM     61  H   UNL A   1      43.952  29.826  28.462  1.00  0.00     0.167 HD
ATOM     62  C   UNL A   1      42.930  32.137  29.765  1.00  0.00     0.074 A 
ATOM     63  C   UNL A   1      42.054  33.008  30.521  1.00  0.00     0.031 C 
ATOM     64  C   UNL A   1      44.153  32.494  29.305  1.00  0.00     0.034 A 
BRANCH  51  65
ATOM     65  C   UNL A   1      47.200  27.998  26.370  1.00  0.00     0.023 A 
ATOM     66  C   UNL A   1      48.228  27.380  27.112  1.00  0.00     0.012 A 
ATOM     67  C   UNL A   1      47.327  28.107  24.971  1.00  0.00     0.148 A 
ATOM     68  C   UNL A   1      49.369  26.894  26.475  1.00  0.00     0.002 A 
ATOM     69  C   UNL A   1      48.444  27.576  24.338  1.00  0.00     0.091 A 
ATOM     70  F   UNL A   1      46.348  28.715  24.287  1.00  0.00    -0.205 F 
ATOM     71  C   UNL A   1      49.470  26.979  25.089  1.00  0.00     0.022 A 
BRANCH  69  72
ATOM     72  S   UNL A   1      48.630  27.551  22.551  1.00  0.00     0.127 S 
ATOM     73  O   UNL A   1      49.940  28.178  22.383  1.00  0.00    -0.237 OA
ATOM     74  O   UNL A   1      48.598  26.118  22.261  1.00  0.00    -0.237 OA
ATOM     75  O   UNL A   1      47.506  28.309  22.018  1.00  0.00    -0.744 OA
ENDBRANCH  69  72
ENDBRANCH  51  65
BRANCH  52  76
ATOM     76  C   UNL A   1      38.731  30.445  31.091  1.00  0.00     0.023 A 
ATOM     77  C   UNL A   1      38.600  30.135  32.459  1.00  0.00     0.012 A 
ATOM     78  C   UNL A   1      37.696  31.147  30.444  1.00  0.00     0.148 A 
ATOM     79  C   UNL A   1      37.452  30.497  33.163  1.00  0.00     0.002 A 
ATOM     80  C   UNL A   1      36.581  31.557  31.166  1.00  0.00     0.091 A 
ATOM     81  F   UNL A   1      37.836  31.425  29.140  1.00  0.00    -0.205 F 
ATOM     82  C   UNL A   1      36.449  31.218  32.521  1.00  0.00     0.022 A 
BRANCH  80  83
ATOM     83  S   UNL A   1      35.312  32.615  30.461  1.00  0.00     0.127 S 
ATOM     84  O   UNL A   1      36.048  33.855  30.232  1.00  0.00    -0.237 OA
ATOM     85  O   UNL A   1      34.947  31.879  29.250  1.00  0.00    -0.237 OA
ATOM     86  O   UNL A   1      34.255  32.684  31.461  1.00  0.00    -0.744 OA
ENDBRANCH  80  83
ENDBRANCH  52  76
BRANCH  64  87
ATOM     87  C   UNL A   1      44.621  33.904  29.551  1.00  0.00     0.023 A 
ATOM     88  C   UNL A   1      45.337  34.218  30.722  1.00  0.00     0.012 A 
ATOM     89  C   UNL A   1      44.453  34.891  28.557  1.00  0.00     0.148 A 
ATOM     90  C   UNL A   1      45.859  35.497  30.912  1.00  0.00     0.002 A 
ATOM     91  C   UNL A   1      45.024  36.145  28.728  1.00  0.00     0.091 A 
ATOM     92  F   UNL A   1      43.754  34.577  27.457  1.00  0.00    -0.205 F 
ATOM     93  C   UNL A   1      45.717  36.454  29.910  1.00  0.00     0.022 A 
BRANCH  91  94
ATOM     94  S   UNL A   1      44.988  37.404  27.446  1.00  0.00     0.127 S 
ATOM     95  O   UNL A   1      45.512  38.568  28.158  1.00  0.00    -0.237 OA
ATOM     96  O   UNL A   1      45.891  36.845  26.440  1.00  0.00    -0.237 OA
ATOM     97  O   UNL A   1      43.598  37.508  27.022  1.00  0.00    -0.744 OA
ENDBRANCH  91  94
ENDBRANCH  64  87
ENDBRANCH  38  39
ENDBRANCH  30  33
ENDBRANCH  28  29
ENDBRANCH  27  28
ENDBRANCH  26  27
ENDBRANCH  25  26
ENDBRANCH   1  25
TORSDOF 21
ENDMDL
MODEL 2
REMARK VINA RESULT:     -11.0      1.901      2.624
REMARK SMILES C[C@H]([NH3+])c1ccc(F)cc1OCC(C)(C)C(=O)NCCCCCCNC(=O)c1ccc(-c2c3nc(c(-c4cccc(S(=O)(=O)[O-])c4F)c4ccc([nH]4)c(-c4cccc(S(=O)(=O)[O-])c4F)c4nc(c(-c5cccc(S(=O)(=O)[O-])c5F)c5ccc2[nH]5)C=C4)C=C3)cc1
REMARK SMILES IDX 20 1 19 2 18 3 16 4 17 5 13 7 14 8 15 9 12 10 11 11 10 12
REMARK SMILES IDX 4 13 5 14 6 15 9 16 7 17 8 18 2 19 1 20 3 21 21 25 22 26
REMARK SMILES IDX 23 27 24 28 25 29 26 30 27 32 28 33 29 34 90 35 30 36 89 37
REMARK SMILES IDX 31 38 32 39 33 40 83 41 34 42 88 43 82 44 84 45 35 46 87 47
REMARK SMILES IDX 81 48 80 49 36 51 68 52 48 53 67 54 49 55 52 56 66 57 85 58
REMARK SMILES IDX 50 59 51 60 65 62 86 63 53 64 37 65 38 66 46 67 39 68 41 69
REMARK SMILES IDX 47 70 40 71 42 72 43 73 44 74 45 75 69 76 70 77 78 78 71 79
REMARK SMILES IDX 73 80 79 81 72 82 74 83 75 84 76 85 77 86 54 87 55 88 63 89
REMARK SMILES IDX 56 90 58 91 64 92 57 93 59 94 60 95 61 96 62 97
REMARK H PARENT 18 6 3 22 3 23 3 24 25 31 84 50 52 61
REMARK Flexibility Score: inf
ROOT
ATOM      1  C   UNL A   1      35.335  22.885  24.092  1.00  0.00     0.021 C 
ENDROOT
BRANCH   1   2
ATOM      2  C   UNL A   1      34.158  22.090  24.619  1.00  0.00     0.116 C 
BRANCH   2   3
ATOM      3  N   UNL A   1      32.971  22.233  23.784  1.00  0.00    -0.356 N 
ATOM      4  C   UNL A   1      31.932  23.128  23.872  1.00  0.00     0.229 C 
ATOM      5  O   UNL A   1      31.075  23.098  22.989  1.00  0.00    -0.274 OA
ATOM      6  H   UNL A   1      32.904  21.589  23.042  1.00  0.00     0.163 HD
BRANCH   4   7
ATOM      7  C   UNL A   1      31.866  24.096  25.067  1.00  0.00     0.077 C 
ATOM      8  C   UNL A   1      32.291  23.295  26.317  1.00  0.00     0.025 C 
ATOM      9  C   UNL A   1      30.412  24.633  25.137  1.00  0.00     0.025 C 
BRANCH   7  10
ATOM     10  C   UNL A   1      32.715  25.390  24.817  1.00  0.00     0.245 C 
BRANCH  10  11
ATOM     11  O   UNL A   1      32.041  26.540  24.340  1.00  0.00    -0.492 OA
BRANCH  11  12
ATOM     12  C   UNL A   1      32.069  27.787  24.891  1.00  0.00     0.131 A 
ATOM     13  C   UNL A   1      31.437  29.001  24.533  1.00  0.00     0.051 A 
ATOM     14  C   UNL A   1      31.516  30.071  25.466  1.00  0.00     0.017 A 
ATOM     15  C   UNL A   1      32.172  29.950  26.692  1.00  0.00     0.040 A 
ATOM     16  C   UNL A   1      32.796  27.714  26.097  1.00  0.00     0.086 A 
ATOM     17  C   UNL A   1      32.828  28.775  26.986  1.00  0.00     0.126 A 
ATOM     18  F   UNL A   1      33.469  28.640  28.155  1.00  0.00    -0.207 F 
BRANCH  13  19
ATOM     19  C   UNL A   1      30.610  29.264  23.278  1.00  0.00     0.212 C 
ATOM     20  C   UNL A   1      29.557  28.192  23.024  1.00  0.00     0.081 C 
BRANCH  19  21
ATOM     21  N   UNL A   1      31.445  29.399  22.073  1.00  0.00    -0.351 N 
ATOM     22  H   UNL A   1      32.298  28.852  22.186  1.00  0.00     0.345 HD
ATOM     23  H   UNL A   1      31.687  30.380  21.936  1.00  0.00     0.345 HD
ATOM     24  H   UNL A   1      30.929  29.060  21.260  1.00  0.00     0.345 HD
ENDBRANCH  19  21
ENDBRANCH  13  19
ENDBRANCH  11  12
ENDBRANCH  10  11
ENDBRANCH   7  10
ENDBRANCH   4   7
ENDBRANCH   2   3
ENDBRANCH   1   2
BRANCH   1  25
ATOM     25  C   UNL A   1      36.649  22.117  24.203  1.00  0.00     0.002 C 
BRANCH  25  26
ATOM     26  C   UNL A   1      36.579  20.851  25.070  1.00  0.00     0.002 C 
BRANCH  26  27
ATOM     27  C   UNL A   1      37.811  19.942  24.994  1.00  0.00     0.021 C 
BRANCH  27  28
ATOM     28  C   UNL A   1      39.016  20.452  25.775  1.00  0.00     0.116 C 
BRANCH  28  29
ATOM     29  N   UNL A   1      40.035  19.425  25.922  1.00  0.00    -0.352 N 
ATOM     30  C   UNL A   1      41.385  19.563  26.115  1.00  0.00     0.251 C 
ATOM     31  H   UNL A   1      39.708  18.498  25.877  1.00  0.00     0.163 HD
ATOM     32  O   UNL A   1      42.125  18.594  26.008  1.00  0.00    -0.269 OA
BRANCH  30  33
ATOM     33  C   UNL A   1      41.931  20.896  26.436  1.00  0.00     0.039 A 
ATOM     34  C   UNL A   1      42.201  21.779  25.390  1.00  0.00     0.014 A 
ATOM     35  C   UNL A   1      42.158  21.269  27.763  1.00  0.00     0.014 A 
ATOM     36  C   UNL A   1      42.650  23.066  25.682  1.00  0.00     0.010 A 
ATOM     37  C   UNL A   1      42.534  22.576  28.054  1.00  0.00     0.010 A 
ATOM     38  C   UNL A   1      42.785  23.486  27.016  1.00  0.00    -0.014 A 
BRANCH  38  39
ATOM     39  C   UNL A   1      43.149  24.885  27.344  1.00  0.00     0.031 A 
ATOM     40  C   UNL A   1      44.563  25.365  27.175  1.00  0.00     0.074 A 
ATOM     41  C   UNL A   1      42.210  25.702  27.862  1.00  0.00     0.049 A 
ATOM     42  N   UNL A   1      45.069  26.537  27.452  1.00  0.00    -0.248 NA
ATOM     43  C   UNL A   1      45.543  24.398  26.650  1.00  0.00     0.031 C 
ATOM     44  C   UNL A   1      40.822  25.325  28.134  1.00  0.00     0.029 A 
ATOM     45  N   UNL A   1      42.285  27.009  28.272  1.00  0.00    -0.354 N 
ATOM     46  C   UNL A   1      46.423  26.446  27.158  1.00  0.00     0.074 A 
ATOM     47  C   UNL A   1      46.671  25.092  26.715  1.00  0.00     0.031 C 
ATOM     48  C   UNL A   1      40.172  26.381  28.648  1.00  0.00     0.029 A 
ATOM     49  C   UNL A   1      41.104  27.495  28.782  1.00  0.00     0.049 A 
ATOM     50  H   UNL A   1      43.106  27.548  28.207  1.00  0.00     0.167 HD
ATOM     51  C   UNL A   1      47.369  27.412  27.225  1.00  0.00     0.034 A 
ATOM     52  C   UNL A   1      40.803  28.700  29.306  1.00  0.00     0.034 A 
ATOM     53  C   UNL A   1      47.106  28.765  27.636  1.00  0.00     0.049 A 
ATOM     54  C   UNL A   1      41.867  29.762  29.348  1.00  0.00     0.074 A 
ATOM     55  C   UNL A   1      47.984  29.834  27.674  1.00  0.00     0.029 A 
ATOM     56  N   UNL A   1      45.882  29.238  28.084  1.00  0.00    -0.354 N 
ATOM     57  N   UNL A   1      43.114  29.692  28.949  1.00  0.00    -0.248 NA
ATOM     58  C   UNL A   1      41.478  31.077  29.874  1.00  0.00     0.031 C 
ATOM     59  C   UNL A   1      47.300  30.943  28.176  1.00  0.00     0.029 A 
ATOM     60  C   UNL A   1      45.983  30.579  28.407  1.00  0.00     0.049 A 
ATOM     61  H   UNL A   1      45.062  28.697  28.162  1.00  0.00     0.167 HD
ATOM     62  C   UNL A   1      43.647  30.962  29.136  1.00  0.00     0.074 A 
ATOM     63  C   UNL A   1      42.583  31.785  29.675  1.00  0.00     0.031 C 
ATOM     64  C   UNL A   1      44.904  31.402  28.889  1.00  0.00     0.034 A 
BRANCH  51  65
ATOM     65  C   UNL A   1      48.770  27.069  26.793  1.00  0.00     0.023 A 
ATOM     66  C   UNL A   1      49.583  26.283  27.635  1.00  0.00     0.012 A 
ATOM     67  C   UNL A   1      49.240  27.428  25.514  1.00  0.00     0.148 A 
ATOM     68  C   UNL A   1      50.848  25.873  27.218  1.00  0.00     0.002 A 
ATOM     69  C   UNL A   1      50.482  26.974  25.087  1.00  0.00     0.091 A 
ATOM     70  F   UNL A   1      48.460  28.192  24.738  1.00  0.00    -0.205 F 
ATOM     71  C   UNL A   1      51.291  26.206  25.941  1.00  0.00     0.022 A 
BRANCH  69  72
ATOM     72  S   UNL A   1      51.107  27.269  23.428  1.00  0.00     0.127 S 
ATOM     73  O   UNL A   1      51.219  28.727  23.411  1.00  0.00    -0.237 OA
ATOM     74  O   UNL A   1      52.385  26.559  23.452  1.00  0.00    -0.237 OA
ATOM     75  O   UNL A   1      50.114  26.712  22.519  1.00  0.00    -0.744 OA
ENDBRANCH  69  72
ENDBRANCH  51  65
BRANCH  52  76
ATOM     76  C   UNL A   1      39.413  28.978  29.761  1.00  0.00     0.023 A 
ATOM     77  C   UNL A   1      39.015  28.583  31.054  1.00  0.00     0.012 A 
ATOM     78  C   UNL A   1      38.506  29.687  28.950  1.00  0.00     0.148 A 
ATOM     79  C   UNL A   1      37.732  28.869  31.520  1.00  0.00     0.002 A 
ATOM     80  C   UNL A   1      37.251  30.021  29.444  1.00  0.00     0.091 A 
ATOM     81  F   UNL A   1      38.901  30.047  27.720  1.00  0.00    -0.205 F 
ATOM     82  C   UNL A   1      36.855  29.598  30.722  1.00  0.00     0.022 A 
BRANCH  80  83
ATOM     83  S   UNL A   1      36.112  31.083  28.546  1.00  0.00     0.127 S 
ATOM     84  O   UNL A   1      34.975  31.141  29.459  1.00  0.00    -0.237 OA
ATOM     85  O   UNL A   1      36.882  32.322  28.435  1.00  0.00    -0.237 OA
ATOM     86  O   UNL A   1      35.868  30.414  27.274  1.00  0.00    -0.744 OA
ENDBRANCH  80  83
ENDBRANCH  52  76
BRANCH  64  87
ATOM     87  C   UNL A   1      45.211  32.855  29.143  1.00  0.00     0.023 A 
ATOM     88  C   UNL A   1      45.819  33.248  30.351  1.00  0.00     0.012 A 
ATOM     89  C   UNL A   1      45.006  33.811  28.128  1.00  0.00     0.148 A 
ATOM     90  C   UNL A   1      46.196  34.574  30.555  1.00  0.00     0.002 A 
ATOM     91  C   UNL A   1      45.435  35.118  28.316  1.00  0.00     0.091 A 
ATOM     92  F   UNL A   1      44.410  33.420  26.993  1.00  0.00    -0.205 F 
ATOM     93  C   UNL A   1      46.020  35.505  29.533  1.00  0.00     0.022 A 
BRANCH  91  94
ATOM     94  S   UNL A   1      45.351  36.357  27.017  1.00  0.00     0.127 S 
ATOM     95  O   UNL A   1      43.915  36.408  26.747  1.00  0.00    -0.237 OA
ATOM     96  O   UNL A   1      45.889  37.542  27.686  1.00  0.00    -0.237 OA
ATOM     97  O   UNL A   1      46.172  35.852  25.924  1.00  0.00    -0.744 OA
ENDBRANCH  91  94
ENDBRANCH  64  87
ENDBRANCH  38  39
ENDBRANCH  30  33
ENDBRANCH  28  29
ENDBRANCH  27  28
ENDBRANCH  26  27
ENDBRANCH  25  26
ENDBRANCH   1  25
TORSDOF 21
ENDMDL
MODEL 3
REMARK VINA RESULT:     -10.7      2.392      3.241
REMARK SMILES C[C@H]([NH3+])c1ccc(F)cc1OCC(C)(C)C(=O)NCCCCCCNC(=O)c1ccc(-c2c3nc(c(-c4cccc(S(=O)(=O)[O-])c4F)c4ccc([nH]4)c(-c4cccc(S(=O)(=O)[O-])c4F)c4nc(c(-c5cccc(S(=O)(=O)[O-])c5F)c5ccc2[nH]5)C=C4)C=C3)cc1
REMARK SMILES IDX 20 1 19 2 18 3 16 4 17 5 13 7 14 8 15 9 12 10 11 11 10 12
REMARK SMILES IDX 4 13 5 14 6 15 9 16 7 17 8 18 2 19 1 20 3 21 21 25 22 26
REMARK SMILES IDX 23 27 24 28 25 29 26 30 27 32 28 33 29 34 90 35 30 36 89 37
REMARK SMILES IDX 31 38 32 39 33 40 83 41 34 42 88 43 82 44 84 45 35 46 87 47
REMARK SMILES IDX 81 48 80 49 36 51 68 52 48 53 67 54 49 55 52 56 66 57 85 58
REMARK SMILES IDX 50 59 51 60 65 62 86 63 53 64 37 65 38 66 46 67 39 68 41 69
REMARK SMILES IDX 47 70 40 71 42 72 43 73 44 74 45 75 69 76 70 77 78 78 71 79
REMARK SMILES IDX 73 80 79 81 72 82 74 83 75 84 76 85 77 86 54 87 55 88 63 89
REMARK SMILES IDX 56 90 58 91 64 92 57 93 59 94 60 95 61 96 62 97
REMARK H PARENT 18 6 3 22 3 23 3 24 25 31 84 50 52 61
REMARK Flexibility Score: inf
ROOT
ATOM      1  C   UNL A   1      37.209  23.660  25.493  1.00  0.00     0.021 C 
ENDROOT
BRANCH   1   2
ATOM      2  C   UNL A   1      35.782  23.468  25.965  1.00  0.00     0.116 C 
BRANCH   2   3
ATOM      3  N   UNL A   1      35.010  22.612  25.071  1.00  0.00    -0.356 N 
ATOM      4  C   UNL A   1      33.651  22.516  24.896  1.00  0.00     0.229 C 
ATOM      5  O   UNL A   1      33.240  21.765  24.012  1.00  0.00    -0.274 OA
ATOM      6  H   UNL A   1      35.546  22.009  24.506  1.00  0.00     0.163 HD
BRANCH   4   7
ATOM      7  C   UNL A   1      32.711  23.316  25.817  1.00  0.00     0.077 C 
ATOM      8  C   UNL A   1      32.925  22.783  27.250  1.00  0.00     0.025 C 
ATOM      9  C   UNL A   1      31.268  23.107  25.284  1.00  0.00     0.025 C 
BRANCH   7  10
ATOM     10  C   UNL A   1      32.927  24.862  25.670  1.00  0.00     0.245 C 
BRANCH  10  11
ATOM     11  O   UNL A   1      31.846  25.714  25.998  1.00  0.00    -0.492 OA
BRANCH  11  12
ATOM     12  C   UNL A   1      31.518  26.886  25.382  1.00  0.00     0.131 A 
ATOM     13  C   UNL A   1      31.591  28.236  25.802  1.00  0.00     0.051 A 
ATOM     14  C   UNL A   1      31.367  29.233  24.814  1.00  0.00     0.017 A 
ATOM     15  C   UNL A   1      31.095  28.921  23.481  1.00  0.00     0.040 A 
ATOM     16  C   UNL A   1      31.161  26.594  24.050  1.00  0.00     0.086 A 
ATOM     17  C   UNL A   1      30.972  27.598  23.116  1.00  0.00     0.126 A 
ATOM     18  F   UNL A   1      30.705  27.277  21.843  1.00  0.00    -0.207 F 
BRANCH  13  19
ATOM     19  C   UNL A   1      31.964  28.740  27.193  1.00  0.00     0.212 C 
ATOM     20  C   UNL A   1      33.468  28.765  27.435  1.00  0.00     0.081 C 
BRANCH  19  21
ATOM     21  N   UNL A   1      31.327  27.954  28.264  1.00  0.00    -0.351 N 
ATOM     22  H   UNL A   1      30.479  27.514  27.906  1.00  0.00     0.345 HD
ATOM     23  H   UNL A   1      31.089  28.569  29.041  1.00  0.00     0.345 HD
ATOM     24  H   UNL A   1      31.973  27.233  28.587  1.00  0.00     0.345 HD
ENDBRANCH  19  21
ENDBRANCH  13  19
ENDBRANCH  11  12
ENDBRANCH  10  11
ENDBRANCH   7  10
ENDBRANCH   4   7
ENDBRANCH   2   3
ENDBRANCH   1   2
BRANCH   1  25
ATOM     25  C   UNL A   1      38.176  23.891  26.651  1.00  0.00     0.002 C 
BRANCH  25  26
ATOM     26  C   UNL A   1      39.533  23.187  26.501  1.00  0.00     0.002 C 
BRANCH  26  27
ATOM     27  C   UNL A   1      39.533  21.694  26.847  1.00  0.00     0.021 C 
BRANCH  27  28
ATOM     28  C   UNL A   1      39.518  20.769  25.635  1.00  0.00     0.116 C 
BRANCH  28  29
ATOM     29  N   UNL A   1      40.467  19.678  25.780  1.00  0.00    -0.352 N 
ATOM     30  C   UNL A   1      41.824  19.726  25.963  1.00  0.00     0.251 C 
ATOM     31  H   UNL A   1      40.079  18.773  25.742  1.00  0.00     0.163 HD
ATOM     32  O   UNL A   1      42.498  18.710  25.856  1.00  0.00    -0.269 OA
BRANCH  30  33
ATOM     33  C   UNL A   1      42.460  21.021  26.274  1.00  0.00     0.039 A 
ATOM     34  C   UNL A   1      42.772  21.884  25.223  1.00  0.00     0.014 A 
ATOM     35  C   UNL A   1      42.729  21.381  27.597  1.00  0.00     0.014 A 
ATOM     36  C   UNL A   1      43.308  23.140  25.506  1.00  0.00     0.010 A 
ATOM     37  C   UNL A   1      43.193  22.661  27.881  1.00  0.00     0.010 A 
ATOM     38  C   UNL A   1      43.488  23.551  26.838  1.00  0.00    -0.014 A 
BRANCH  38  39
ATOM     39  C   UNL A   1      43.946  24.924  27.158  1.00  0.00     0.031 A 
ATOM     40  C   UNL A   1      45.392  25.302  26.999  1.00  0.00     0.074 A 
ATOM     41  C   UNL A   1      43.062  25.809  27.661  1.00  0.00     0.049 A 
ATOM     42  N   UNL A   1      45.976  26.439  27.271  1.00  0.00    -0.248 NA
ATOM     43  C   UNL A   1      46.306  24.265  26.491  1.00  0.00     0.031 C 
ATOM     44  C   UNL A   1      41.648  25.533  27.922  1.00  0.00     0.029 A 
ATOM     45  N   UNL A   1      43.225  27.111  28.061  1.00  0.00    -0.354 N 
ATOM     46  C   UNL A   1      47.323  26.251  26.991  1.00  0.00     0.074 A 
ATOM     47  C   UNL A   1      47.479  24.879  26.561  1.00  0.00     0.031 C 
ATOM     48  C   UNL A   1      41.069  26.636  28.421  1.00  0.00     0.029 A 
ATOM     49  C   UNL A   1      42.075  27.683  28.556  1.00  0.00     0.049 A 
ATOM     50  H   UNL A   1      44.082  27.591  27.999  1.00  0.00     0.167 HD
ATOM     51  C   UNL A   1      48.333  27.149  27.060  1.00  0.00     0.034 A 
ATOM     52  C   UNL A   1      41.856  28.911  29.067  1.00  0.00     0.034 A 
ATOM     53  C   UNL A   1      48.162  28.520  27.457  1.00  0.00     0.049 A 
ATOM     54  C   UNL A   1      42.991  29.896  29.110  1.00  0.00     0.074 A 
ATOM     55  C   UNL A   1      49.113  29.525  27.495  1.00  0.00     0.029 A 
ATOM     56  N   UNL A   1      46.970  29.081  27.890  1.00  0.00    -0.354 N 
ATOM     57  N   UNL A   1      44.233  29.735  28.724  1.00  0.00    -0.248 NA
ATOM     58  C   UNL A   1      42.690  31.240  29.623  1.00  0.00     0.031 C 
ATOM     59  C   UNL A   1      48.504  30.683  27.982  1.00  0.00     0.029 A 
ATOM     60  C   UNL A   1      47.162  30.415  28.202  1.00  0.00     0.049 A 
ATOM     61  H   UNL A   1      46.114  28.600  27.964  1.00  0.00     0.167 HD
ATOM     62  C   UNL A   1      44.852  30.967  28.907  1.00  0.00     0.074 A 
ATOM     63  C   UNL A   1      43.844  31.867  29.429  1.00  0.00     0.031 C 
ATOM     64  C   UNL A   1      46.139  31.316  28.668  1.00  0.00     0.034 A 
BRANCH  51  65
ATOM     65  C   UNL A   1      49.711  26.705  26.644  1.00  0.00     0.023 A 
ATOM     66  C   UNL A   1      50.406  25.766  27.434  1.00  0.00     0.012 A 
ATOM     67  C   UNL A   1      50.268  27.127  25.421  1.00  0.00     0.148 A 
ATOM     68  C   UNL A   1      51.641  25.269  27.022  1.00  0.00     0.002 A 
ATOM     69  C   UNL A   1      51.476  26.590  24.994  1.00  0.00     0.091 A 
ATOM     70  F   UNL A   1      49.601  28.034  24.694  1.00  0.00    -0.205 F 
ATOM     71  C   UNL A   1      52.168  25.669  25.798  1.00  0.00     0.022 A 
BRANCH  69  72
ATOM     72  S   UNL A   1      52.197  26.968  23.392  1.00  0.00     0.127 S 
ATOM     73  O   UNL A   1      53.199  25.910  23.263  1.00  0.00    -0.237 OA
ATOM     74  O   UNL A   1      51.046  26.830  22.499  1.00  0.00    -0.237 OA
ATOM     75  O   UNL A   1      52.731  28.318  23.498  1.00  0.00    -0.744 OA
ENDBRANCH  69  72
ENDBRANCH  51  65
BRANCH  52  76
ATOM     76  C   UNL A   1      40.484  29.289  29.506  1.00  0.00     0.023 A 
ATOM     77  C   UNL A   1      39.576  29.817  28.567  1.00  0.00     0.012 A 
ATOM     78  C   UNL A   1      40.053  29.068  30.829  1.00  0.00     0.148 A 
ATOM     79  C   UNL A   1      38.272  30.140  28.942  1.00  0.00     0.002 A 
ATOM     80  C   UNL A   1      38.735  29.335  31.180  1.00  0.00     0.091 A 
ATOM     81  F   UNL A   1      40.934  28.573  31.709  1.00  0.00    -0.205 F 
ATOM     82  C   UNL A   1      37.847  29.888  30.244  1.00  0.00     0.022 A 
BRANCH  80  83
ATOM     83  S   UNL A   1      38.061  28.905  32.789  1.00  0.00     0.127 S 
ATOM     84  O   UNL A   1      36.697  29.415  32.688  1.00  0.00    -0.237 OA
ATOM     85  O   UNL A   1      38.178  27.446  32.782  1.00  0.00    -0.237 OA
ATOM     86  O   UNL A   1      38.913  29.570  33.766  1.00  0.00    -0.744 OA
ENDBRANCH  80  83
ENDBRANCH  52  76
BRANCH  64  87
ATOM     87  C   UNL A   1      46.545  32.745  28.914  1.00  0.00     0.023 A 
ATOM     88  C   UNL A   1      47.230  33.092  30.094  1.00  0.00     0.012 A 
ATOM     89  C   UNL A   1      46.352  33.719  27.913  1.00  0.00     0.148 A 
ATOM     90  C   UNL A   1      47.696  34.392  30.285  1.00  0.00     0.002 A 
ATOM     91  C   UNL A   1      46.868  34.997  28.086  1.00  0.00     0.091 A 
ATOM     92  F   UNL A   1      45.682  33.372  26.805  1.00  0.00    -0.205 F 
ATOM     93  C   UNL A   1      47.530  35.339  29.276  1.00  0.00     0.022 A 
BRANCH  91  94
ATOM     94  S   UNL A   1      46.799  36.247  26.797  1.00  0.00     0.127 S 
ATOM     95  O   UNL A   1      46.921  37.481  27.573  1.00  0.00    -0.237 OA
ATOM     96  O   UNL A   1      47.972  35.918  25.986  1.00  0.00    -0.237 OA
ATOM     97  O   UNL A   1      45.522  36.061  26.122  1.00  0.00    -0.744 OA
ENDBRANCH  91  94
ENDBRANCH  64  87
ENDBRANCH  38  39
ENDBRANCH  30  33
ENDBRANCH  28  29
ENDBRANCH  27  28
ENDBRANCH  26  27
ENDBRANCH  25  26
ENDBRANCH   1  25
TORSDOF 21
ENDMDL
