MODEL 1
REMARK VINA RESULT:     -11.5      0.000      0.000
REMARK SMILES Cc1nn(CC(=O)NCCCCCCNC(=O)c2ccc(-c3c4nc(c(-c5cccc(S(=O)(=O)[O-])c5F)c5ccc([nH]5)c(-c5cccc(S(=O)(=O)[O-])c5F)c5nc(c(-c6cccc(S(=O)(=O)[O-])c6F)c6ccc3[nH]6)C=C5)C=C4)cc2)c(C)c1NS(=O)(=O)c1cccc2cccnc12
REMARK SMILES IDX 11 1 10 2 9 3 8 4 6 5 7 6 5 8 4 9 1 10 2 11 3 12 83 13 81 14
REMARK SMILES IDX 82 15 84 16 85 18 86 19 87 20 88 21 89 22 97 23 90 24 92 25
REMARK SMILES IDX 96 26 91 27 93 28 95 29 94 30 12 31 13 32 14 33 15 34 16 35
REMARK SMILES IDX 17 37 18 38 19 39 80 40 20 41 79 42 21 43 22 44 23 45 73 46
REMARK SMILES IDX 24 47 78 48 72 49 74 50 25 51 77 52 71 53 70 54 26 56 58 57
REMARK SMILES IDX 38 58 57 59 39 60 42 61 56 62 75 63 40 64 41 65 55 67 76 68
REMARK SMILES IDX 43 69 27 70 28 71 36 72 29 73 31 74 37 75 30 76 32 77 33 78
REMARK SMILES IDX 34 79 35 80 59 81 60 82 68 83 61 84 63 85 69 86 62 87 64 88
REMARK SMILES IDX 65 89 66 90 67 91 44 92 45 93 53 94 46 95 48 96 54 97 47 98
REMARK SMILES IDX 49 99 50 100 51 101 52 102
REMARK H PARENT 8 7 84 17 15 36 74 55 42 66
REMARK Flexibility Score: inf
ROOT
ATOM      1  C   UNL A   1      31.261  31.319  26.572  1.00  0.00     0.002 C 
ENDROOT
BRANCH   1   2
ATOM      2  C   UNL A   1      32.312  30.240  26.303  1.00  0.00     0.021 C 
BRANCH   2   3
ATOM      3  C   UNL A   1      31.828  29.111  25.405  1.00  0.00     0.116 C 
BRANCH   3   4
ATOM      4  N   UNL A   1      31.332  29.558  24.108  1.00  0.00    -0.354 N 
ATOM      5  C   UNL A   1      30.389  29.072  23.252  1.00  0.00     0.241 C 
ATOM      6  O   UNL A   1      30.122  29.821  22.296  1.00  0.00    -0.273 OA
ATOM      7  H   UNL A   1      31.765  30.381  23.786  1.00  0.00     0.163 HD
BRANCH   5   8
ATOM      8  C   UNL A   1      29.518  27.837  23.456  1.00  0.00     0.244 C 
BRANCH   8   9
ATOM      9  N   UNL A   1      30.196  26.608  23.773  1.00  0.00    -0.258 N 
ATOM     10  C   UNL A   1      30.961  24.105  26.095  1.00  0.00     0.071 C 
ATOM     11  C   UNL A   1      30.612  24.882  24.876  1.00  0.00     0.084 A 
ATOM     12  N   UNL A   1      30.187  26.148  25.026  1.00  0.00    -0.175 NA
ATOM     13  C   UNL A   1      30.769  24.567  23.482  1.00  0.00     0.093 A 
ATOM     14  C   UNL A   1      30.976  25.824  22.964  1.00  0.00     0.060 A 
ATOM     15  C   UNL A   1      31.916  26.307  21.937  1.00  0.00     0.069 C 
BRANCH  13  16
ATOM     16  N   UNL A   1      31.018  23.335  22.892  1.00  0.00    -0.276 N 
ATOM     17  H   UNL A   1      30.228  22.878  22.520  1.00  0.00     0.180 HD
BRANCH  16  18
ATOM     18  S   UNL A   1      32.485  22.502  22.719  1.00  0.00     0.264 S 
ATOM     19  O   UNL A   1      31.987  21.184  22.349  1.00  0.00    -0.201 OA
ATOM     20  O   UNL A   1      33.318  23.217  21.774  1.00  0.00    -0.201 OA
BRANCH  18  21
ATOM     21  C   UNL A   1      33.515  22.140  24.142  1.00  0.00     0.114 A 
ATOM     22  C   UNL A   1      32.898  21.253  25.057  1.00  0.00     0.024 A 
ATOM     23  C   UNL A   1      34.828  22.558  24.403  1.00  0.00     0.091 A 
ATOM     24  C   UNL A   1      33.436  20.993  26.307  1.00  0.00     0.002 A 
ATOM     25  C   UNL A   1      35.261  22.445  25.758  1.00  0.00     0.002 A 
ATOM     26  N   UNL A   1      35.731  23.022  23.511  1.00  0.00    -0.255 NA
ATOM     27  C   UNL A   1      34.563  21.683  26.694  1.00  0.00     0.010 A 
ATOM     28  C   UNL A   1      36.441  23.070  26.183  1.00  0.00     0.012 A 
ATOM     29  C   UNL A   1      36.961  23.425  23.940  1.00  0.00     0.112 A 
ATOM     30  C   UNL A   1      37.321  23.574  25.255  1.00  0.00     0.021 A 
ENDBRANCH  18  21
ENDBRANCH  16  18
ENDBRANCH  13  16
ENDBRANCH   8   9
ENDBRANCH   5   8
ENDBRANCH   3   4
ENDBRANCH   2   3
ENDBRANCH   1   2
BRANCH   1  31
ATOM     31  C   UNL A   1      31.749  32.777  26.553  1.00  0.00     0.002 C 
BRANCH  31  32
ATOM     32  C   UNL A   1      32.551  33.267  27.768  1.00  0.00     0.021 C 
BRANCH  32  33
ATOM     33  C   UNL A   1      32.781  34.770  27.810  1.00  0.00     0.116 C 
BRANCH  33  34
ATOM     34  N   UNL A   1      32.699  35.315  29.168  1.00  0.00    -0.352 N 
ATOM     35  C   UNL A   1      33.404  34.936  30.299  1.00  0.00     0.251 C 
ATOM     36  H   UNL A   1      32.054  36.049  29.293  1.00  0.00     0.163 HD
ATOM     37  O   UNL A   1      33.006  35.220  31.411  1.00  0.00    -0.269 OA
BRANCH  35  38
ATOM     38  C   UNL A   1      34.667  34.195  30.119  1.00  0.00     0.039 A 
ATOM     39  C   UNL A   1      35.565  34.513  29.093  1.00  0.00     0.014 A 
ATOM     40  C   UNL A   1      34.940  33.166  31.012  1.00  0.00     0.014 A 
ATOM     41  C   UNL A   1      36.777  33.827  29.024  1.00  0.00     0.010 A 
ATOM     42  C   UNL A   1      36.189  32.615  31.051  1.00  0.00     0.010 A 
ATOM     43  C   UNL A   1      37.078  32.886  30.016  1.00  0.00    -0.014 A 
BRANCH  43  44
ATOM     44  C   UNL A   1      38.367  32.211  30.078  1.00  0.00     0.031 A 
ATOM     45  C   UNL A   1      38.343  30.810  29.578  1.00  0.00     0.074 A 
ATOM     46  C   UNL A   1      39.502  32.924  30.258  1.00  0.00     0.049 A 
ATOM     47  N   UNL A   1      38.553  29.720  30.241  1.00  0.00    -0.248 NA
ATOM     48  C   UNL A   1      37.861  30.581  28.205  1.00  0.00     0.031 C 
ATOM     49  C   UNL A   1      39.624  34.386  30.376  1.00  0.00     0.029 A 
ATOM     50  N   UNL A   1      40.799  32.525  30.183  1.00  0.00    -0.354 N 
ATOM     51  C   UNL A   1      38.486  28.696  29.294  1.00  0.00     0.074 A 
ATOM     52  C   UNL A   1      37.799  29.251  28.163  1.00  0.00     0.031 C 
ATOM     53  C   UNL A   1      40.891  34.757  30.091  1.00  0.00     0.029 A 
ATOM     54  C   UNL A   1      41.698  33.562  29.939  1.00  0.00     0.049 A 
ATOM     55  H   UNL A   1      41.079  31.587  30.292  1.00  0.00     0.167 HD
ATOM     56  C   UNL A   1      39.283  27.591  29.392  1.00  0.00     0.034 A 
ATOM     57  C   UNL A   1      42.997  33.444  29.567  1.00  0.00     0.034 A 
ATOM     58  C   UNL A   1      39.881  27.513  30.705  1.00  0.00     0.049 A 
ATOM     59  C   UNL A   1      43.414  32.060  29.866  1.00  0.00     0.074 A 
ATOM     60  C   UNL A   1      39.414  27.447  32.002  1.00  0.00     0.029 A 
ATOM     61  N   UNL A   1      41.197  27.897  30.791  1.00  0.00    -0.354 N 
ATOM     62  N   UNL A   1      43.507  31.582  31.074  1.00  0.00    -0.248 NA
ATOM     63  C   UNL A   1      43.300  31.073  28.805  1.00  0.00     0.031 C 
ATOM     64  C   UNL A   1      40.332  28.231  32.762  1.00  0.00     0.029 A 
ATOM     65  C   UNL A   1      41.346  28.670  31.907  1.00  0.00     0.049 A 
ATOM     66  H   UNL A   1      41.911  27.658  30.157  1.00  0.00     0.167 HD
ATOM     67  C   UNL A   1      42.989  30.299  30.971  1.00  0.00     0.074 A 
ATOM     68  C   UNL A   1      43.002  29.998  29.539  1.00  0.00     0.031 C 
ATOM     69  C   UNL A   1      42.315  29.736  32.016  1.00  0.00     0.034 A 
BRANCH  56  70
ATOM     70  C   UNL A   1      39.897  26.827  28.224  1.00  0.00     0.023 A 
ATOM     71  C   UNL A   1      39.614  25.440  28.163  1.00  0.00     0.012 A 
ATOM     72  C   UNL A   1      40.938  27.290  27.387  1.00  0.00     0.148 A 
ATOM     73  C   UNL A   1      40.392  24.555  27.409  1.00  0.00     0.002 A 
ATOM     74  C   UNL A   1      41.671  26.415  26.590  1.00  0.00     0.091 A 
ATOM     75  F   UNL A   1      41.324  28.564  27.423  1.00  0.00    -0.205 F 
ATOM     76  C   UNL A   1      41.429  25.042  26.627  1.00  0.00     0.022 A 
BRANCH  74  77
ATOM     77  S   UNL A   1      43.007  26.992  25.529  1.00  0.00     0.127 S 
ATOM     78  O   UNL A   1      43.472  25.738  24.942  1.00  0.00    -0.237 OA
ATOM     79  O   UNL A   1      42.293  27.880  24.612  1.00  0.00    -0.237 OA
ATOM     80  O   UNL A   1      43.948  27.669  26.410  1.00  0.00    -0.744 OA
ENDBRANCH  74  77
ENDBRANCH  56  70
BRANCH  57  81
ATOM     81  C   UNL A   1      43.839  34.344  28.750  1.00  0.00     0.023 A 
ATOM     82  C   UNL A   1      43.940  34.152  27.358  1.00  0.00     0.012 A 
ATOM     83  C   UNL A   1      44.322  35.555  29.288  1.00  0.00     0.148 A 
ATOM     84  C   UNL A   1      44.479  35.144  26.527  1.00  0.00     0.002 A 
ATOM     85  C   UNL A   1      44.871  36.529  28.461  1.00  0.00     0.091 A 
ATOM     86  F   UNL A   1      44.144  35.793  30.594  1.00  0.00    -0.205 F 
ATOM     87  C   UNL A   1      44.941  36.335  27.078  1.00  0.00     0.022 A 
BRANCH  85  88
ATOM     88  S   UNL A   1      45.486  38.079  29.122  1.00  0.00     0.127 S 
ATOM     89  O   UNL A   1      46.624  37.644  29.929  1.00  0.00    -0.237 OA
ATOM     90  O   UNL A   1      45.834  38.810  27.906  1.00  0.00    -0.237 OA
ATOM     91  O   UNL A   1      44.376  38.622  29.895  1.00  0.00    -0.744 OA
ENDBRANCH  85  88
ENDBRANCH  57  81
BRANCH  69  92
ATOM     92  C   UNL A   1      42.395  30.421  33.356  1.00  0.00     0.023 A 
ATOM     93  C   UNL A   1      43.506  30.288  34.216  1.00  0.00     0.012 A 
ATOM     94  C   UNL A   1      41.405  31.366  33.662  1.00  0.00     0.148 A 
ATOM     95  C   UNL A   1      43.617  31.076  35.365  1.00  0.00     0.002 A 
ATOM     96  C   UNL A   1      41.543  32.181  34.777  1.00  0.00     0.091 A 
ATOM     97  F   UNL A   1      40.356  31.474  32.832  1.00  0.00    -0.205 F 
ATOM     98  C   UNL A   1      42.644  32.034  35.637  1.00  0.00     0.022 A 
BRANCH  96  99
ATOM     99  S   UNL A   1      40.394  33.519  35.098  1.00  0.00     0.127 S 
ATOM    100  O   UNL A   1      40.943  34.107  36.317  1.00  0.00    -0.237 OA
ATOM    101  O   UNL A   1      40.535  34.349  33.900  1.00  0.00    -0.237 OA
ATOM    102  O   UNL A   1      39.083  32.896  35.236  1.00  0.00    -0.744 OA
ENDBRANCH  96  99
ENDBRANCH  69  92
ENDBRANCH  43  44
ENDBRANCH  35  38
ENDBRANCH  33  34
ENDBRANCH  32  33
ENDBRANCH  31  32
ENDBRANCH   1  31
TORSDOF 20
ENDMDL
MODEL 2
REMARK VINA RESULT:     -11.4      2.902      8.348
REMARK SMILES Cc1nn(CC(=O)NCCCCCCNC(=O)c2ccc(-c3c4nc(c(-c5cccc(S(=O)(=O)[O-])c5F)c5ccc([nH]5)c(-c5cccc(S(=O)(=O)[O-])c5F)c5nc(c(-c6cccc(S(=O)(=O)[O-])c6F)c6ccc3[nH]6)C=C5)C=C4)cc2)c(C)c1NS(=O)(=O)c1cccc2cccnc12
REMARK SMILES IDX 11 1 10 2 9 3 8 4 6 5 7 6 5 8 4 9 1 10 2 11 3 12 83 13 81 14
REMARK SMILES IDX 82 15 84 16 85 18 86 19 87 20 88 21 89 22 97 23 90 24 92 25
REMARK SMILES IDX 96 26 91 27 93 28 95 29 94 30 12 31 13 32 14 33 15 34 16 35
REMARK SMILES IDX 17 37 18 38 19 39 80 40 20 41 79 42 21 43 22 44 23 45 73 46
REMARK SMILES IDX 24 47 78 48 72 49 74 50 25 51 77 52 71 53 70 54 26 56 58 57
REMARK SMILES IDX 38 58 57 59 39 60 42 61 56 62 75 63 40 64 41 65 55 67 76 68
REMARK SMILES IDX 43 69 27 70 28 71 36 72 29 73 31 74 37 75 30 76 32 77 33 78
REMARK SMILES IDX 34 79 35 80 59 81 60 82 68 83 61 84 63 85 69 86 62 87 64 88
REMARK SMILES IDX 65 89 66 90 67 91 44 92 45 93 53 94 46 95 48 96 54 97 47 98
REMARK SMILES IDX 49 99 50 100 51 101 52 102
REMARK H PARENT 8 7 84 17 15 36 74 55 42 66
REMARK Flexibility Score: inf
ROOT
ATOM      1  C   UNL A   1      36.637  22.216  24.592  1.00  0.00     0.002 C 
ENDROOT
BRANCH   1   2
ATOM      2  C   UNL A   1      35.777  21.003  24.955  1.00  0.00     0.021 C 
BRANCH   2   3
ATOM      3  C   UNL A   1      34.731  21.280  26.025  1.00  0.00     0.116 C 
BRANCH   3   4
ATOM      4  N   UNL A   1      33.855  20.148  26.303  1.00  0.00    -0.354 N 
ATOM      5  C   UNL A   1      32.989  19.428  25.534  1.00  0.00     0.241 C 
ATOM      6  O   UNL A   1      32.523  18.417  26.087  1.00  0.00    -0.273 OA
ATOM      7  H   UNL A   1      33.897  19.839  27.237  1.00  0.00     0.163 HD
BRANCH   5   8
ATOM      8  C   UNL A   1      32.704  19.624  24.049  1.00  0.00     0.244 C 
BRANCH   8   9
ATOM      9  N   UNL A   1      32.172  20.901  23.652  1.00  0.00    -0.258 N 
ATOM     10  C   UNL A   1      30.704  23.954  24.527  1.00  0.00     0.071 C 
ATOM     11  C   UNL A   1      31.518  22.869  23.920  1.00  0.00     0.084 A 
ATOM     12  N   UNL A   1      31.585  21.687  24.557  1.00  0.00    -0.175 NA
ATOM     13  C   UNL A   1      32.186  22.790  22.649  1.00  0.00     0.093 A 
ATOM     14  C   UNL A   1      32.086  21.443  22.396  1.00  0.00     0.060 A 
ATOM     15  C   UNL A   1      31.778  20.708  21.157  1.00  0.00     0.069 C 
BRANCH  13  16
ATOM     16  N   UNL A   1      32.495  23.817  21.765  1.00  0.00    -0.276 N 
ATOM     17  H   UNL A   1      32.730  23.531  20.852  1.00  0.00     0.180 HD
BRANCH  16  18
ATOM     18  S   UNL A   1      32.529  25.491  22.031  1.00  0.00     0.264 S 
ATOM     19  O   UNL A   1      33.628  25.866  21.150  1.00  0.00    -0.201 OA
ATOM     20  O   UNL A   1      31.212  26.032  21.763  1.00  0.00    -0.201 OA
BRANCH  18  21
ATOM     21  C   UNL A   1      33.052  26.165  23.608  1.00  0.00     0.114 A 
ATOM     22  C   UNL A   1      34.081  25.407  24.218  1.00  0.00     0.024 A 
ATOM     23  C   UNL A   1      32.631  27.343  24.242  1.00  0.00     0.091 A 
ATOM     24  C   UNL A   1      34.497  25.641  25.519  1.00  0.00     0.002 A 
ATOM     25  C   UNL A   1      32.919  27.440  25.636  1.00  0.00     0.002 A 
ATOM     26  N   UNL A   1      32.013  28.402  23.672  1.00  0.00    -0.255 NA
ATOM     27  C   UNL A   1      33.829  26.589  26.261  1.00  0.00     0.010 A 
ATOM     28  C   UNL A   1      32.319  28.435  26.420  1.00  0.00     0.012 A 
ATOM     29  C   UNL A   1      31.632  29.460  24.443  1.00  0.00     0.112 A 
ATOM     30  C   UNL A   1      31.658  29.477  25.814  1.00  0.00     0.021 A 
ENDBRANCH  18  21
ENDBRANCH  16  18
ENDBRANCH  13  16
ENDBRANCH   8   9
ENDBRANCH   5   8
ENDBRANCH   3   4
ENDBRANCH   2   3
ENDBRANCH   1   2
BRANCH   1  31
ATOM     31  C   UNL A   1      37.755  22.588  25.580  1.00  0.00     0.002 C 
BRANCH  31  32
ATOM     32  C   UNL A   1      37.738  24.011  26.158  1.00  0.00     0.021 C 
BRANCH  32  33
ATOM     33  C   UNL A   1      38.961  24.370  26.990  1.00  0.00     0.116 C 
BRANCH  33  34
ATOM     34  N   UNL A   1      40.183  24.462  26.186  1.00  0.00    -0.352 N 
ATOM     35  C   UNL A   1      41.051  25.533  26.047  1.00  0.00     0.251 C 
ATOM     36  H   UNL A   1      40.417  23.654  25.674  1.00  0.00     0.163 HD
ATOM     37  O   UNL A   1      41.815  25.604  25.105  1.00  0.00    -0.269 OA
BRANCH  35  38
ATOM     38  C   UNL A   1      41.040  26.580  27.087  1.00  0.00     0.039 A 
ATOM     39  C   UNL A   1      41.512  26.335  28.382  1.00  0.00     0.014 A 
ATOM     40  C   UNL A   1      40.547  27.830  26.732  1.00  0.00     0.014 A 
ATOM     41  C   UNL A   1      41.547  27.387  29.295  1.00  0.00     0.010 A 
ATOM     42  C   UNL A   1      40.739  28.896  27.565  1.00  0.00     0.010 A 
ATOM     43  C   UNL A   1      41.164  28.665  28.869  1.00  0.00    -0.014 A 
BRANCH  43  44
ATOM     44  C   UNL A   1      41.280  29.835  29.727  1.00  0.00     0.031 A 
ATOM     45  C   UNL A   1      39.977  30.362  30.215  1.00  0.00     0.074 A 
ATOM     46  C   UNL A   1      42.473  30.167  30.271  1.00  0.00     0.049 A 
ATOM     47  N   UNL A   1      39.426  31.503  29.954  1.00  0.00    -0.248 NA
ATOM     48  C   UNL A   1      39.096  29.437  30.950  1.00  0.00     0.031 C 
ATOM     49  C   UNL A   1      43.747  29.442  30.130  1.00  0.00     0.029 A 
ATOM     50  N   UNL A   1      42.768  31.101  31.213  1.00  0.00    -0.354 N 
ATOM     51  C   UNL A   1      38.255  31.527  30.714  1.00  0.00     0.074 A 
ATOM     52  C   UNL A   1      37.983  30.162  31.061  1.00  0.00     0.031 C 
ATOM     53  C   UNL A   1      44.575  29.786  31.139  1.00  0.00     0.029 A 
ATOM     54  C   UNL A   1      43.964  30.865  31.891  1.00  0.00     0.049 A 
ATOM     55  H   UNL A   1      42.189  31.876  31.400  1.00  0.00     0.167 HD
ATOM     56  C   UNL A   1      37.794  32.690  31.262  1.00  0.00     0.034 A 
ATOM     57  C   UNL A   1      44.387  31.465  33.031  1.00  0.00     0.034 A 
ATOM     58  C   UNL A   1      38.465  33.827  30.676  1.00  0.00     0.049 A 
ATOM     59  C   UNL A   1      43.581  32.690  33.206  1.00  0.00     0.074 A 
ATOM     60  C   UNL A   1      38.615  34.339  29.403  1.00  0.00     0.029 A 
ATOM     61  N   UNL A   1      39.453  34.402  31.438  1.00  0.00    -0.354 N 
ATOM     62  N   UNL A   1      43.646  33.714  32.404  1.00  0.00    -0.248 NA
ATOM     63  C   UNL A   1      42.378  32.600  34.017  1.00  0.00     0.031 C 
ATOM     64  C   UNL A   1      39.951  34.836  29.363  1.00  0.00     0.029 A 
ATOM     65  C   UNL A   1      40.519  34.669  30.628  1.00  0.00     0.049 A 
ATOM     66  H   UNL A   1      39.402  34.590  32.403  1.00  0.00     0.167 HD
ATOM     67  C   UNL A   1      42.326  34.115  32.259  1.00  0.00     0.074 A 
ATOM     68  C   UNL A   1      41.613  33.483  33.369  1.00  0.00     0.031 C 
ATOM     69  C   UNL A   1      41.890  34.657  31.084  1.00  0.00     0.034 A 
BRANCH  56  70
ATOM     70  C   UNL A   1      37.094  32.825  32.610  1.00  0.00     0.023 A 
ATOM     71  C   UNL A   1      35.929  33.630  32.635  1.00  0.00     0.012 A 
ATOM     72  C   UNL A   1      37.644  32.483  33.867  1.00  0.00     0.148 A 
ATOM     73  C   UNL A   1      35.414  34.157  33.825  1.00  0.00     0.002 A 
ATOM     74  C   UNL A   1      37.092  32.958  35.054  1.00  0.00     0.091 A 
ATOM     75  F   UNL A   1      38.777  31.786  33.947  1.00  0.00    -0.205 F 
ATOM     76  C   UNL A   1      36.002  33.828  35.036  1.00  0.00     0.022 A 
BRANCH  74  77
ATOM     77  S   UNL A   1      37.790  32.538  36.659  1.00  0.00     0.127 S 
ATOM     78  O   UNL A   1      36.823  33.151  37.565  1.00  0.00    -0.237 OA
ATOM     79  O   UNL A   1      37.764  31.076  36.619  1.00  0.00    -0.237 OA
ATOM     80  O   UNL A   1      39.128  33.114  36.673  1.00  0.00    -0.744 OA
ENDBRANCH  74  77
ENDBRANCH  56  70
BRANCH  57  81
ATOM     81  C   UNL A   1      45.252  30.950  34.114  1.00  0.00     0.023 A 
ATOM     82  C   UNL A   1      46.282  31.753  34.643  1.00  0.00     0.012 A 
ATOM     83  C   UNL A   1      44.896  29.781  34.818  1.00  0.00     0.148 A 
ATOM     84  C   UNL A   1      46.916  31.417  35.847  1.00  0.00     0.002 A 
ATOM     85  C   UNL A   1      45.540  29.444  36.004  1.00  0.00     0.091 A 
ATOM     86  F   UNL A   1      43.854  29.061  34.381  1.00  0.00    -0.205 F 
ATOM     87  C   UNL A   1      46.542  30.265  36.530  1.00  0.00     0.022 A 
BRANCH  85  88
ATOM     88  S   UNL A   1      45.099  27.966  36.920  1.00  0.00     0.127 S 
ATOM     89  O   UNL A   1      43.986  28.432  37.745  1.00  0.00    -0.237 OA
ATOM     90  O   UNL A   1      44.732  27.044  35.848  1.00  0.00    -0.237 OA
ATOM     91  O   UNL A   1      46.299  27.622  37.674  1.00  0.00    -0.744 OA
ENDBRANCH  85  88
ENDBRANCH  57  81
BRANCH  69  92
ATOM     92  C   UNL A   1      42.927  35.065  30.070  1.00  0.00     0.023 A 
ATOM     93  C   UNL A   1      43.631  36.286  30.144  1.00  0.00     0.012 A 
ATOM     94  C   UNL A   1      43.327  34.104  29.129  1.00  0.00     0.148 A 
ATOM     95  C   UNL A   1      44.704  36.544  29.287  1.00  0.00     0.002 A 
ATOM     96  C   UNL A   1      44.423  34.344  28.313  1.00  0.00     0.091 A 
ATOM     97  F   UNL A   1      42.643  32.951  29.073  1.00  0.00    -0.205 F 
ATOM     98  C   UNL A   1      45.111  35.567  28.382  1.00  0.00     0.022 A 
BRANCH  96  99
ATOM     99  S   UNL A   1      45.073  33.072  27.230  1.00  0.00     0.127 S 
ATOM    100  O   UNL A   1      46.273  33.709  26.696  1.00  0.00    -0.237 OA
ATOM    101  O   UNL A   1      45.326  31.968  28.158  1.00  0.00    -0.237 OA
ATOM    102  O   UNL A   1      44.021  32.798  26.258  1.00  0.00    -0.744 OA
ENDBRANCH  96  99
ENDBRANCH  69  92
ENDBRANCH  43  44
ENDBRANCH  35  38
ENDBRANCH  33  34
ENDBRANCH  32  33
ENDBRANCH  31  32
ENDBRANCH   1  31
TORSDOF 20
ENDMDL
MODEL 3
REMARK VINA RESULT:     -11.1      6.000     14.111
REMARK SMILES Cc1nn(CC(=O)NCCCCCCNC(=O)c2ccc(-c3c4nc(c(-c5cccc(S(=O)(=O)[O-])c5F)c5ccc([nH]5)c(-c5cccc(S(=O)(=O)[O-])c5F)c5nc(c(-c6cccc(S(=O)(=O)[O-])c6F)c6ccc3[nH]6)C=C5)C=C4)cc2)c(C)c1NS(=O)(=O)c1cccc2cccnc12
REMARK SMILES IDX 11 1 10 2 9 3 8 4 6 5 7 6 5 8 4 9 1 10 2 11 3 12 83 13 81 14
REMARK SMILES IDX 82 15 84 16 85 18 86 19 87 20 88 21 89 22 97 23 90 24 92 25
REMARK SMILES IDX 96 26 91 27 93 28 95 29 94 30 12 31 13 32 14 33 15 34 16 35
REMARK SMILES IDX 17 37 18 38 19 39 80 40 20 41 79 42 21 43 22 44 23 45 73 46
REMARK SMILES IDX 24 47 78 48 72 49 74 50 25 51 77 52 71 53 70 54 26 56 58 57
REMARK SMILES IDX 38 58 57 59 39 60 42 61 56 62 75 63 40 64 41 65 55 67 76 68
REMARK SMILES IDX 43 69 27 70 28 71 36 72 29 73 31 74 37 75 30 76 32 77 33 78
REMARK SMILES IDX 34 79 35 80 59 81 60 82 68 83 61 84 63 85 69 86 62 87 64 88
REMARK SMILES IDX 65 89 66 90 67 91 44 92 45 93 53 94 46 95 48 96 54 97 47 98
REMARK SMILES IDX 49 99 50 100 51 101 52 102
REMARK H PARENT 8 7 84 17 15 36 74 55 42 66
REMARK Flexibility Score: inf
ROOT
ATOM      1  C   UNL A   1      49.125  37.933  26.495  1.00  0.00     0.002 C 
ENDROOT
BRANCH   1   2
ATOM      2  C   UNL A   1      48.174  37.972  25.296  1.00  0.00     0.021 C 
BRANCH   2   3
ATOM      3  C   UNL A   1      47.021  38.953  25.449  1.00  0.00     0.116 C 
BRANCH   3   4
ATOM      4  N   UNL A   1      47.126  39.811  26.623  1.00  0.00    -0.354 N 
ATOM      5  C   UNL A   1      47.080  41.163  26.798  1.00  0.00     0.241 C 
ATOM      6  O   UNL A   1      47.051  41.530  27.986  1.00  0.00    -0.273 OA
ATOM      7  H   UNL A   1      47.257  39.313  27.462  1.00  0.00     0.163 HD
BRANCH   5   8
ATOM      8  C   UNL A   1      46.866  42.218  25.719  1.00  0.00     0.244 C 
BRANCH   8   9
ATOM      9  N   UNL A   1      45.636  42.147  24.976  1.00  0.00    -0.258 N 
ATOM     10  C   UNL A   1      42.196  41.509  24.901  1.00  0.00     0.071 C 
ATOM     11  C   UNL A   1      43.564  42.057  24.707  1.00  0.00     0.084 A 
ATOM     12  N   UNL A   1      44.531  41.679  25.561  1.00  0.00    -0.175 NA
ATOM     13  C   UNL A   1      44.116  42.862  23.651  1.00  0.00     0.093 A 
ATOM     14  C   UNL A   1      45.416  42.416  23.650  1.00  0.00     0.060 A 
ATOM     15  C   UNL A   1      46.335  42.104  22.541  1.00  0.00     0.069 C 
BRANCH  13  16
ATOM     16  N   UNL A   1      43.448  43.588  22.672  1.00  0.00    -0.276 N 
ATOM     17  H   UNL A   1      43.624  44.557  22.674  1.00  0.00     0.180 HD
BRANCH  16  18
ATOM     18  S   UNL A   1      42.373  43.048  21.478  1.00  0.00     0.264 S 
ATOM     19  O   UNL A   1      42.992  41.773  21.137  1.00  0.00    -0.201 OA
ATOM     20  O   UNL A   1      41.033  43.040  22.027  1.00  0.00    -0.201 OA
BRANCH  18  21
ATOM     21  C   UNL A   1      42.274  43.866  19.886  1.00  0.00     0.114 A 
ATOM     22  C   UNL A   1      40.965  43.861  19.345  1.00  0.00     0.024 A 
ATOM     23  C   UNL A   1      43.281  44.542  19.183  1.00  0.00     0.091 A 
ATOM     24  C   UNL A   1      40.704  44.268  18.046  1.00  0.00     0.002 A 
ATOM     25  C   UNL A   1      43.035  44.762  17.795  1.00  0.00     0.002 A 
ATOM     26  N   UNL A   1      44.438  45.033  19.682  1.00  0.00    -0.255 NA
ATOM     27  C   UNL A   1      41.766  44.612  17.239  1.00  0.00     0.010 A 
ATOM     28  C   UNL A   1      44.067  45.182  16.946  1.00  0.00     0.012 A 
ATOM     29  C   UNL A   1      45.334  45.635  18.848  1.00  0.00     0.112 A 
ATOM     30  C   UNL A   1      45.251  45.634  17.480  1.00  0.00     0.021 A 
ENDBRANCH  18  21
ENDBRANCH  16  18
ENDBRANCH  13  16
ENDBRANCH   8   9
ENDBRANCH   5   8
ENDBRANCH   3   4
ENDBRANCH   2   3
ENDBRANCH   1   2
BRANCH   1  31
ATOM     31  C   UNL A   1      49.164  36.624  27.302  1.00  0.00     0.002 C 
BRANCH  31  32
ATOM     32  C   UNL A   1      47.843  36.137  27.914  1.00  0.00     0.021 C 
BRANCH  32  33
ATOM     33  C   UNL A   1      47.649  36.507  29.377  1.00  0.00     0.116 C 
BRANCH  33  34
ATOM     34  N   UNL A   1      46.973  37.797  29.547  1.00  0.00    -0.352 N 
ATOM     35  C   UNL A   1      45.625  38.093  29.418  1.00  0.00     0.251 C 
ATOM     36  H   UNL A   1      47.555  38.554  29.785  1.00  0.00     0.163 HD
ATOM     37  O   UNL A   1      45.248  39.234  29.245  1.00  0.00    -0.269 OA
BRANCH  35  38
ATOM     38  C   UNL A   1      44.654  36.987  29.517  1.00  0.00     0.039 A 
ATOM     39  C   UNL A   1      44.152  36.346  28.377  1.00  0.00     0.014 A 
ATOM     40  C   UNL A   1      44.256  36.594  30.789  1.00  0.00     0.014 A 
ATOM     41  C   UNL A   1      43.298  35.256  28.540  1.00  0.00     0.010 A 
ATOM     42  C   UNL A   1      43.562  35.429  30.953  1.00  0.00     0.010 A 
ATOM     43  C   UNL A   1      43.019  34.805  29.836  1.00  0.00    -0.014 A 
BRANCH  43  44
ATOM     44  C   UNL A   1      42.230  33.607  30.085  1.00  0.00     0.031 A 
ATOM     45  C   UNL A   1      40.781  33.868  30.301  1.00  0.00     0.074 A 
ATOM     46  C   UNL A   1      42.737  32.385  29.805  1.00  0.00     0.049 A 
ATOM     47  N   UNL A   1      40.084  33.677  31.373  1.00  0.00    -0.248 NA
ATOM     48  C   UNL A   1      40.051  34.591  29.244  1.00  0.00     0.031 C 
ATOM     49  C   UNL A   1      44.052  32.082  29.215  1.00  0.00     0.029 A 
ATOM     50  N   UNL A   1      42.127  31.170  29.804  1.00  0.00    -0.354 N 
ATOM     51  C   UNL A   1      38.773  34.011  31.023  1.00  0.00     0.074 A 
ATOM     52  C   UNL A   1      38.876  34.808  29.834  1.00  0.00     0.031 C 
ATOM     53  C   UNL A   1      44.028  30.845  28.674  1.00  0.00     0.029 A 
ATOM     54  C   UNL A   1      42.771  30.213  29.022  1.00  0.00     0.049 A 
ATOM     55  H   UNL A   1      41.303  30.984  30.311  1.00  0.00     0.167 HD
ATOM     56  C   UNL A   1      37.709  33.338  31.550  1.00  0.00     0.034 A 
ATOM     57  C   UNL A   1      42.275  29.013  28.628  1.00  0.00     0.034 A 
ATOM     58  C   UNL A   1      38.122  32.547  32.685  1.00  0.00     0.049 A 
ATOM     59  C   UNL A   1      41.120  28.711  29.498  1.00  0.00     0.074 A 
ATOM     60  C   UNL A   1      38.726  32.800  33.901  1.00  0.00     0.029 A 
ATOM     61  N   UNL A   1      38.268  31.199  32.460  1.00  0.00    -0.354 N 
ATOM     62  N   UNL A   1      41.224  28.476  30.775  1.00  0.00    -0.248 NA
ATOM     63  C   UNL A   1      39.801  29.106  29.035  1.00  0.00     0.031 C 
ATOM     64  C   UNL A   1      39.592  31.688  34.118  1.00  0.00     0.029 A 
ATOM     65  C   UNL A   1      39.419  30.785  33.067  1.00  0.00     0.049 A 
ATOM     66  H   UNL A   1      37.650  30.630  31.947  1.00  0.00     0.167 HD
ATOM     67  C   UNL A   1      40.143  29.144  31.331  1.00  0.00     0.074 A 
ATOM     68  C   UNL A   1      39.237  29.399  30.210  1.00  0.00     0.031 C 
ATOM     69  C   UNL A   1      40.234  29.697  32.575  1.00  0.00     0.034 A 
BRANCH  56  70
ATOM     70  C   UNL A   1      36.410  33.012  30.822  1.00  0.00     0.023 A 
ATOM     71  C   UNL A   1      36.357  31.759  30.162  1.00  0.00     0.012 A 
ATOM     72  C   UNL A   1      35.391  33.935  30.492  1.00  0.00     0.148 A 
ATOM     73  C   UNL A   1      35.424  31.487  29.156  1.00  0.00     0.002 A 
ATOM     74  C   UNL A   1      34.424  33.638  29.535  1.00  0.00     0.091 A 
ATOM     75  F   UNL A   1      35.393  35.163  31.007  1.00  0.00    -0.205 F 
ATOM     76  C   UNL A   1      34.460  32.431  28.835  1.00  0.00     0.022 A 
BRANCH  74  77
ATOM     77  S   UNL A   1      33.129  34.809  29.099  1.00  0.00     0.127 S 
ATOM     78  O   UNL A   1      33.913  35.932  28.592  1.00  0.00    -0.237 OA
ATOM     79  O   UNL A   1      32.385  34.063  28.086  1.00  0.00    -0.237 OA
ATOM     80  O   UNL A   1      32.388  35.056  30.329  1.00  0.00    -0.744 OA
ENDBRANCH  74  77
ENDBRANCH  56  70
BRANCH  57  81
ATOM     81  C   UNL A   1      42.552  28.220  27.411  1.00  0.00     0.023 A 
ATOM     82  C   UNL A   1      42.006  28.609  26.172  1.00  0.00     0.012 A 
ATOM     83  C   UNL A   1      43.572  27.247  27.409  1.00  0.00     0.148 A 
ATOM     84  C   UNL A   1      42.479  28.064  24.969  1.00  0.00     0.002 A 
ATOM     85  C   UNL A   1      44.027  26.698  26.215  1.00  0.00     0.091 A 
ATOM     86  F   UNL A   1      44.169  26.941  28.570  1.00  0.00    -0.205 F 
ATOM     87  C   UNL A   1      43.493  27.112  24.991  1.00  0.00     0.022 A 
BRANCH  85  88
ATOM     88  S   UNL A   1      45.328  25.464  26.188  1.00  0.00     0.127 S 
ATOM     89  O   UNL A   1      44.787  24.423  27.059  1.00  0.00    -0.237 OA
ATOM     90  O   UNL A   1      45.386  25.116  24.770  1.00  0.00    -0.237 OA
ATOM     91  O   UNL A   1      46.500  26.145  26.725  1.00  0.00    -0.744 OA
ENDBRANCH  85  88
ENDBRANCH  57  81
BRANCH  69  92
ATOM     92  C   UNL A   1      41.419  29.323  33.427  1.00  0.00     0.023 A 
ATOM     93  C   UNL A   1      42.515  30.187  33.633  1.00  0.00     0.012 A 
ATOM     94  C   UNL A   1      41.328  28.146  34.184  1.00  0.00     0.148 A 
ATOM     95  C   UNL A   1      43.506  29.873  34.568  1.00  0.00     0.002 A 
ATOM     96  C   UNL A   1      42.286  27.862  35.146  1.00  0.00     0.091 A 
ATOM     97  F   UNL A   1      40.278  27.337  33.971  1.00  0.00    -0.205 F 
ATOM     98  C   UNL A   1      43.383  28.718  35.336  1.00  0.00     0.022 A 
BRANCH  96  99
ATOM     99  S   UNL A   1      42.106  26.464  36.254  1.00  0.00     0.127 S 
ATOM    100  O   UNL A   1      43.257  26.624  37.138  1.00  0.00    -0.237 OA
ATOM    101  O   UNL A   1      40.809  26.726  36.882  1.00  0.00    -0.237 OA
ATOM    102  O   UNL A   1      42.124  25.277  35.407  1.00  0.00    -0.744 OA
ENDBRANCH  96  99
ENDBRANCH  69  92
ENDBRANCH  43  44
ENDBRANCH  35  38
ENDBRANCH  33  34
ENDBRANCH  32  33
ENDBRANCH  31  32
ENDBRANCH   1  31
TORSDOF 20
ENDMDL
