MODEL 1
REMARK VINA RESULT:     -11.1      0.000      0.000
REMARK SMILES CC[C@@]1(C(=O)NCCCCCCNC(=O)c2ccc(-c3c4nc(c(-c5cccc(S(=O)(=O)[O-])c5F)c5ccc([nH]5)c(-c5cccc(S(=O)(=O)[O-])c5F)c5nc(c(-c6cccc(S(=O)(=O)[O-])c6F)c6ccc3[nH]6)C=C5)C=C4)cc2)CCC[N@@H+](Cc2ccc(C3CC3)cc2)C1
REMARK SMILES IDX 9 1 8 2 7 3 6 4 4 5 5 6 3 8 79 9 93 10 80 11 82 12 81 13
REMARK SMILES IDX 2 15 1 16 83 17 84 18 85 19 92 20 86 21 91 22 87 23 88 24
REMARK SMILES IDX 89 25 90 26 10 27 11 28 12 29 13 30 14 31 15 33 16 34 17 35
REMARK SMILES IDX 78 36 18 37 77 38 19 39 20 40 21 41 71 42 22 43 76 44 70 45
REMARK SMILES IDX 72 46 23 47 75 48 69 49 68 50 24 52 56 53 36 54 55 55 37 56
REMARK SMILES IDX 40 57 54 58 73 59 38 60 39 61 53 63 74 64 41 65 25 66 26 67
REMARK SMILES IDX 34 68 27 69 29 70 35 71 28 72 30 73 31 74 32 75 33 76 57 77
REMARK SMILES IDX 58 78 66 79 59 80 61 81 67 82 60 83 62 84 63 85 64 86 65 87
REMARK SMILES IDX 42 88 43 89 51 90 44 91 46 92 52 93 45 94 47 95 48 96 49 97
REMARK SMILES IDX 50 98
REMARK H PARENT 6 7 82 14 13 32 72 51 40 62
REMARK Flexibility Score: inf
ROOT
ATOM      1  C   UNL A   1      34.120  28.045  23.361  1.00  0.00     0.002 C 
ENDROOT
BRANCH   1   2
ATOM      2  C   UNL A   1      33.465  26.669  23.197  1.00  0.00     0.021 C 
BRANCH   2   3
ATOM      3  C   UNL A   1      33.993  25.621  24.178  1.00  0.00     0.116 C 
BRANCH   3   4
ATOM      4  N   UNL A   1      34.736  24.603  23.474  1.00  0.00    -0.355 N 
ATOM      5  C   UNL A   1      35.584  23.621  23.861  1.00  0.00     0.231 C 
ATOM      6  O   UNL A   1      36.136  23.035  22.918  1.00  0.00    -0.274 OA
ATOM      7  H   UNL A   1      34.597  24.629  22.500  1.00  0.00     0.163 HD
BRANCH   5   8
ATOM      8  C   UNL A   1      35.706  23.079  25.309  1.00  0.00     0.098 C 
ATOM      9  C   UNL A   1      36.075  21.601  25.548  1.00  0.00     0.028 C 
ATOM     10  C   UNL A   1      34.305  23.246  25.970  1.00  0.00     0.279 C 
ATOM     11  C   UNL A   1      35.033  20.661  24.957  1.00  0.00     0.063 C 
ATOM     12  N   UNL A   1      33.266  22.311  25.486  1.00  0.00    -0.330 N 
ATOM     13  C   UNL A   1      33.671  20.906  25.595  1.00  0.00     0.262 C 
ATOM     14  H   UNL A   1      33.156  22.500  24.490  1.00  0.00     0.348 HD
BRANCH   8  15
ATOM     15  C   UNL A   1      36.779  24.002  25.978  1.00  0.00     0.019 C 
ATOM     16  C   UNL A   1      38.194  23.442  26.089  1.00  0.00     0.005 C 
ENDBRANCH   8  15
BRANCH  12  17
ATOM     17  C   UNL A   1      31.950  22.565  26.116  1.00  0.00     0.299 C 
BRANCH  17  18
ATOM     18  C   UNL A   1      31.102  23.635  25.448  1.00  0.00     0.006 A 
ATOM     19  C   UNL A   1      30.616  24.725  26.178  1.00  0.00     0.010 A 
ATOM     20  C   UNL A   1      30.879  23.612  24.068  1.00  0.00     0.010 A 
ATOM     21  C   UNL A   1      30.008  25.802  25.521  1.00  0.00     0.004 A 
ATOM     22  C   UNL A   1      30.308  24.708  23.417  1.00  0.00     0.004 A 
ATOM     23  C   UNL A   1      29.877  25.843  24.121  1.00  0.00    -0.045 A 
BRANCH  23  24
ATOM     24  C   UNL A   1      29.308  27.074  23.443  1.00  0.00     0.019 C 
ATOM     25  C   UNL A   1      29.788  28.463  23.795  1.00  0.00     0.009 C 
ATOM     26  C   UNL A   1      30.140  27.865  22.464  1.00  0.00     0.009 C 
ENDBRANCH  23  24
ENDBRANCH  17  18
ENDBRANCH  12  17
ENDBRANCH   5   8
ENDBRANCH   3   4
ENDBRANCH   2   3
ENDBRANCH   1   2
BRANCH   1  27
ATOM     27  C   UNL A   1      33.208  29.116  23.966  1.00  0.00     0.002 C 
BRANCH  27  28
ATOM     28  C   UNL A   1      32.852  28.892  25.438  1.00  0.00     0.021 C 
BRANCH  28  29
ATOM     29  C   UNL A   1      33.988  29.189  26.411  1.00  0.00     0.116 C 
BRANCH  29  30
ATOM     30  N   UNL A   1      33.943  30.564  26.882  1.00  0.00    -0.352 N 
ATOM     31  C   UNL A   1      34.724  31.178  27.828  1.00  0.00     0.251 C 
ATOM     32  H   UNL A   1      33.257  31.134  26.464  1.00  0.00     0.163 HD
ATOM     33  O   UNL A   1      34.403  32.273  28.275  1.00  0.00    -0.269 OA
BRANCH  31  34
ATOM     34  C   UNL A   1      35.947  30.502  28.310  1.00  0.00     0.039 A 
ATOM     35  C   UNL A   1      37.140  30.687  27.609  1.00  0.00     0.014 A 
ATOM     36  C   UNL A   1      35.911  29.686  29.444  1.00  0.00     0.014 A 
ATOM     37  C   UNL A   1      38.310  30.086  28.076  1.00  0.00     0.010 A 
ATOM     38  C   UNL A   1      37.093  29.154  29.950  1.00  0.00     0.010 A 
ATOM     39  C   UNL A   1      38.302  29.336  29.264  1.00  0.00    -0.014 A 
BRANCH  39  40
ATOM     40  C   UNL A   1      39.555  28.749  29.801  1.00  0.00     0.031 A 
ATOM     41  C   UNL A   1      40.208  29.329  31.026  1.00  0.00     0.074 A 
ATOM     42  C   UNL A   1      40.141  27.728  29.143  1.00  0.00     0.049 A 
ATOM     43  N   UNL A   1      41.301  28.948  31.635  1.00  0.00    -0.248 NA
ATOM     44  C   UNL A   1      39.569  30.510  31.631  1.00  0.00     0.031 C 
ATOM     45  C   UNL A   1      39.653  27.137  27.895  1.00  0.00     0.029 A 
ATOM     46  N   UNL A   1      41.282  27.019  29.422  1.00  0.00    -0.354 N 
ATOM     47  C   UNL A   1      41.497  29.852  32.671  1.00  0.00     0.074 A 
ATOM     48  C   UNL A   1      40.433  30.827  32.586  1.00  0.00     0.031 C 
ATOM     49  C   UNL A   1      40.479  26.147  27.524  1.00  0.00     0.029 A 
ATOM     50  C   UNL A   1      41.569  26.050  28.489  1.00  0.00     0.049 A 
ATOM     51  H   UNL A   1      41.842  27.187  30.214  1.00  0.00     0.167 HD
ATOM     52  C   UNL A   1      42.457  29.854  33.627  1.00  0.00     0.034 A 
ATOM     53  C   UNL A   1      42.597  25.182  28.417  1.00  0.00     0.034 A 
ATOM     54  C   UNL A   1      43.492  28.862  33.727  1.00  0.00     0.049 A 
ATOM     55  C   UNL A   1      43.624  25.175  29.516  1.00  0.00     0.074 A 
ATOM     56  C   UNL A   1      44.459  28.722  34.707  1.00  0.00     0.029 A 
ATOM     57  N   UNL A   1      43.705  27.844  32.810  1.00  0.00    -0.354 N 
ATOM     58  N   UNL A   1      43.697  25.936  30.581  1.00  0.00    -0.248 NA
ATOM     59  C   UNL A   1      44.686  24.163  29.427  1.00  0.00     0.031 C 
ATOM     60  C   UNL A   1      45.275  27.639  34.366  1.00  0.00     0.029 A 
ATOM     61  C   UNL A   1      44.793  27.080  33.194  1.00  0.00     0.049 A 
ATOM     62  H   UNL A   1      43.162  27.688  32.003  1.00  0.00     0.167 HD
ATOM     63  C   UNL A   1      44.786  25.470  31.308  1.00  0.00     0.074 A 
ATOM     64  C   UNL A   1      45.331  24.349  30.570  1.00  0.00     0.031 C 
ATOM     65  C   UNL A   1      45.295  25.935  32.476  1.00  0.00     0.034 A 
BRANCH  52  66
ATOM     66  C   UNL A   1      42.406  30.942  34.670  1.00  0.00     0.023 A 
ATOM     67  C   UNL A   1      41.732  30.710  35.887  1.00  0.00     0.012 A 
ATOM     68  C   UNL A   1      43.073  32.166  34.474  1.00  0.00     0.148 A 
ATOM     69  C   UNL A   1      41.689  31.693  36.875  1.00  0.00     0.002 A 
ATOM     70  C   UNL A   1      43.068  33.123  35.483  1.00  0.00     0.091 A 
ATOM     71  F   UNL A   1      43.693  32.379  33.304  1.00  0.00    -0.205 F 
ATOM     72  C   UNL A   1      42.365  32.893  36.678  1.00  0.00     0.022 A 
BRANCH  70  73
ATOM     73  S   UNL A   1      43.977  34.667  35.361  1.00  0.00     0.127 S 
ATOM     74  O   UNL A   1      43.291  35.327  34.252  1.00  0.00    -0.237 OA
ATOM     75  O   UNL A   1      43.735  35.270  36.673  1.00  0.00    -0.237 OA
ATOM     76  O   UNL A   1      45.362  34.299  35.108  1.00  0.00    -0.744 OA
ENDBRANCH  70  73
ENDBRANCH  52  66
BRANCH  53  77
ATOM     77  C   UNL A   1      42.664  24.202  27.297  1.00  0.00     0.023 A 
ATOM     78  C   UNL A   1      43.380  24.528  26.128  1.00  0.00     0.012 A 
ATOM     79  C   UNL A   1      42.050  22.937  27.394  1.00  0.00     0.148 A 
ATOM     80  C   UNL A   1      43.457  23.629  25.065  1.00  0.00     0.002 A 
ATOM     81  C   UNL A   1      42.177  22.024  26.355  1.00  0.00     0.091 A 
ATOM     82  F   UNL A   1      41.366  22.650  28.511  1.00  0.00    -0.205 F 
ATOM     83  C   UNL A   1      42.864  22.374  25.182  1.00  0.00     0.022 A 
BRANCH  81  84
ATOM     84  S   UNL A   1      41.564  20.341  26.474  1.00  0.00     0.127 S 
ATOM     85  O   UNL A   1      42.134  19.903  27.746  1.00  0.00    -0.237 OA
ATOM     86  O   UNL A   1      40.115  20.548  26.486  1.00  0.00    -0.237 OA
ATOM     87  O   UNL A   1      42.061  19.654  25.289  1.00  0.00    -0.744 OA
ENDBRANCH  81  84
ENDBRANCH  53  77
BRANCH  65  88
ATOM     88  C   UNL A   1      46.477  25.207  33.062  1.00  0.00     0.023 A 
ATOM     89  C   UNL A   1      47.783  25.679  32.829  1.00  0.00     0.012 A 
ATOM     90  C   UNL A   1      46.282  24.096  33.906  1.00  0.00     0.148 A 
ATOM     91  C   UNL A   1      48.881  25.032  33.396  1.00  0.00     0.002 A 
ATOM     92  C   UNL A   1      47.376  23.489  34.511  1.00  0.00     0.091 A 
ATOM     93  F   UNL A   1      45.032  23.652  34.102  1.00  0.00    -0.205 F 
ATOM     94  C   UNL A   1      48.677  23.947  34.245  1.00  0.00     0.022 A 
BRANCH  92  95
ATOM     95  S   UNL A   1      47.201  22.151  35.696  1.00  0.00     0.127 S 
ATOM     96  O   UNL A   1      48.589  21.913  36.084  1.00  0.00    -0.237 OA
ATOM     97  O   UNL A   1      46.373  22.765  36.735  1.00  0.00    -0.237 OA
ATOM     98  O   UNL A   1      46.557  21.060  34.977  1.00  0.00    -0.744 OA
ENDBRANCH  92  95
ENDBRANCH  65  88
ENDBRANCH  39  40
ENDBRANCH  31  34
ENDBRANCH  29  30
ENDBRANCH  28  29
ENDBRANCH  27  28
ENDBRANCH   1  27
TORSDOF 20
ENDMDL
MODEL 2
REMARK VINA RESULT:     -10.8      2.265      2.766
REMARK SMILES CC[C@@]1(C(=O)NCCCCCCNC(=O)c2ccc(-c3c4nc(c(-c5cccc(S(=O)(=O)[O-])c5F)c5ccc([nH]5)c(-c5cccc(S(=O)(=O)[O-])c5F)c5nc(c(-c6cccc(S(=O)(=O)[O-])c6F)c6ccc3[nH]6)C=C5)C=C4)cc2)CCC[N@@H+](Cc2ccc(C3CC3)cc2)C1
REMARK SMILES IDX 9 1 8 2 7 3 6 4 4 5 5 6 3 8 79 9 93 10 80 11 82 12 81 13
REMARK SMILES IDX 2 15 1 16 83 17 84 18 85 19 92 20 86 21 91 22 87 23 88 24
REMARK SMILES IDX 89 25 90 26 10 27 11 28 12 29 13 30 14 31 15 33 16 34 17 35
REMARK SMILES IDX 78 36 18 37 77 38 19 39 20 40 21 41 71 42 22 43 76 44 70 45
REMARK SMILES IDX 72 46 23 47 75 48 69 49 68 50 24 52 56 53 36 54 55 55 37 56
REMARK SMILES IDX 40 57 54 58 73 59 38 60 39 61 53 63 74 64 41 65 25 66 26 67
REMARK SMILES IDX 34 68 27 69 29 70 35 71 28 72 30 73 31 74 32 75 33 76 57 77
REMARK SMILES IDX 58 78 66 79 59 80 61 81 67 82 60 83 62 84 63 85 64 86 65 87
REMARK SMILES IDX 42 88 43 89 51 90 44 91 46 92 52 93 45 94 47 95 48 96 49 97
REMARK SMILES IDX 50 98
REMARK H PARENT 6 7 82 14 13 32 72 51 40 62
REMARK Flexibility Score: inf
ROOT
ATOM      1  C   UNL A   1      33.484  27.787  22.235  1.00  0.00     0.002 C 
ENDROOT
BRANCH   1   2
ATOM      2  C   UNL A   1      33.404  26.258  22.304  1.00  0.00     0.021 C 
BRANCH   2   3
ATOM      3  C   UNL A   1      34.052  25.668  23.557  1.00  0.00     0.116 C 
BRANCH   3   4
ATOM      4  N   UNL A   1      34.402  24.285  23.338  1.00  0.00    -0.355 N 
ATOM      5  C   UNL A   1      34.874  23.297  24.136  1.00  0.00     0.231 C 
ATOM      6  O   UNL A   1      35.187  22.265  23.523  1.00  0.00    -0.274 OA
ATOM      7  H   UNL A   1      34.270  23.997  22.406  1.00  0.00     0.163 HD
BRANCH   5   8
ATOM      8  C   UNL A   1      34.821  23.310  25.685  1.00  0.00     0.098 C 
ATOM      9  C   UNL A   1      34.734  21.982  26.463  1.00  0.00     0.028 C 
ATOM     10  C   UNL A   1      33.528  24.083  26.083  1.00  0.00     0.279 C 
ATOM     11  C   UNL A   1      33.465  21.214  26.121  1.00  0.00     0.063 C 
ATOM     12  N   UNL A   1      32.261  23.359  25.839  1.00  0.00    -0.330 N 
ATOM     13  C   UNL A   1      32.231  22.038  26.474  1.00  0.00     0.262 C 
ATOM     14  H   UNL A   1      32.219  23.193  24.833  1.00  0.00     0.348 HD
BRANCH   8  15
ATOM     15  C   UNL A   1      36.114  24.084  26.110  1.00  0.00     0.019 C 
ATOM     16  C   UNL A   1      37.449  23.423  25.779  1.00  0.00     0.005 C 
ENDBRANCH   8  15
BRANCH  12  17
ATOM     17  C   UNL A   1      31.075  24.175  26.187  1.00  0.00     0.299 C 
BRANCH  17  18
ATOM     18  C   UNL A   1      30.773  25.324  25.240  1.00  0.00     0.006 A 
ATOM     19  C   UNL A   1      30.338  25.082  23.933  1.00  0.00     0.010 A 
ATOM     20  C   UNL A   1      30.818  26.648  25.686  1.00  0.00     0.010 A 
ATOM     21  C   UNL A   1      29.874  26.135  23.135  1.00  0.00     0.004 A 
ATOM     22  C   UNL A   1      30.316  27.687  24.898  1.00  0.00     0.004 A 
ATOM     23  C   UNL A   1      29.810  27.458  23.609  1.00  0.00    -0.045 A 
BRANCH  23  24
ATOM     24  C   UNL A   1      29.203  28.549  22.749  1.00  0.00     0.019 C 
ATOM     25  C   UNL A   1      27.811  29.077  23.008  1.00  0.00     0.009 C 
ATOM     26  C   UNL A   1      29.005  29.940  23.300  1.00  0.00     0.009 C 
ENDBRANCH  23  24
ENDBRANCH  17  18
ENDBRANCH  12  17
ENDBRANCH   5   8
ENDBRANCH   3   4
ENDBRANCH   2   3
ENDBRANCH   1   2
BRANCH   1  27
ATOM     27  C   UNL A   1      34.049  28.452  23.494  1.00  0.00     0.002 C 
BRANCH  27  28
ATOM     28  C   UNL A   1      33.050  29.327  24.256  1.00  0.00     0.021 C 
BRANCH  28  29
ATOM     29  C   UNL A   1      33.363  29.492  25.739  1.00  0.00     0.116 C 
BRANCH  29  30
ATOM     30  N   UNL A   1      33.064  30.836  26.204  1.00  0.00    -0.352 N 
ATOM     31  C   UNL A   1      33.635  31.540  27.232  1.00  0.00     0.251 C 
ATOM     32  H   UNL A   1      32.351  31.306  25.712  1.00  0.00     0.163 HD
ATOM     33  O   UNL A   1      33.108  32.568  27.642  1.00  0.00    -0.269 OA
BRANCH  31  34
ATOM     34  C   UNL A   1      34.884  31.044  27.848  1.00  0.00     0.039 A 
ATOM     35  C   UNL A   1      35.961  31.919  27.990  1.00  0.00     0.014 A 
ATOM     36  C   UNL A   1      34.989  29.717  28.275  1.00  0.00     0.014 A 
ATOM     37  C   UNL A   1      37.133  31.473  28.604  1.00  0.00     0.010 A 
ATOM     38  C   UNL A   1      36.127  29.299  28.957  1.00  0.00     0.010 A 
ATOM     39  C   UNL A   1      37.216  30.167  29.116  1.00  0.00    -0.014 A 
BRANCH  39  40
ATOM     40  C   UNL A   1      38.435  29.707  29.829  1.00  0.00     0.031 A 
ATOM     41  C   UNL A   1      38.784  30.262  31.183  1.00  0.00     0.074 A 
ATOM     42  C   UNL A   1      39.263  28.834  29.223  1.00  0.00     0.049 A 
ATOM     43  N   UNL A   1      39.804  29.978  31.950  1.00  0.00    -0.248 NA
ATOM     44  C   UNL A   1      37.888  31.291  31.738  1.00  0.00     0.031 C 
ATOM     45  C   UNL A   1      39.080  28.293  27.874  1.00  0.00     0.029 A 
ATOM     46  N   UNL A   1      40.433  28.261  29.654  1.00  0.00    -0.354 N 
ATOM     47  C   UNL A   1      39.691  30.808  33.059  1.00  0.00     0.074 A 
ATOM     48  C   UNL A   1      38.525  31.637  32.848  1.00  0.00     0.031 C 
ATOM     49  C   UNL A   1      40.092  27.456  27.594  1.00  0.00     0.029 A 
ATOM     50  C   UNL A   1      41.009  27.423  28.728  1.00  0.00     0.049 A 
ATOM     51  H   UNL A   1      40.823  28.432  30.541  1.00  0.00     0.167 HD
ATOM     52  C   UNL A   1      40.468  30.855  34.167  1.00  0.00     0.034 A 
ATOM     53  C   UNL A   1      42.150  26.707  28.785  1.00  0.00     0.034 A 
ATOM     54  C   UNL A   1      41.605  30.003  34.388  1.00  0.00     0.049 A 
ATOM     55  C   UNL A   1      42.970  26.742  30.046  1.00  0.00     0.074 A 
ATOM     56  C   UNL A   1      42.405  29.909  35.513  1.00  0.00     0.029 A 
ATOM     57  N   UNL A   1      42.113  29.105  33.461  1.00  0.00    -0.354 N 
ATOM     58  N   UNL A   1      42.753  27.412  31.153  1.00  0.00    -0.248 NA
ATOM     59  C   UNL A   1      44.167  25.891  30.083  1.00  0.00     0.031 C 
ATOM     60  C   UNL A   1      43.415  28.977  35.254  1.00  0.00     0.029 A 
ATOM     61  C   UNL A   1      43.222  28.462  33.983  1.00  0.00     0.049 A 
ATOM     62  H   UNL A   1      41.740  28.949  32.563  1.00  0.00     0.167 HD
ATOM     63  C   UNL A   1      43.762  27.034  32.030  1.00  0.00     0.074 A 
ATOM     64  C   UNL A   1      44.579  26.062  31.333  1.00  0.00     0.031 C 
ATOM     65  C   UNL A   1      43.997  27.459  33.296  1.00  0.00     0.034 A 
BRANCH  52  66
ATOM     66  C   UNL A   1      40.087  31.832  35.251  1.00  0.00     0.023 A 
ATOM     67  C   UNL A   1      40.689  33.107  35.283  1.00  0.00     0.012 A 
ATOM     68  C   UNL A   1      39.094  31.515  36.198  1.00  0.00     0.148 A 
ATOM     69  C   UNL A   1      40.338  34.035  36.262  1.00  0.00     0.002 A 
ATOM     70  C   UNL A   1      38.715  32.462  37.141  1.00  0.00     0.091 A 
ATOM     71  F   UNL A   1      38.546  30.292  36.165  1.00  0.00    -0.205 F 
ATOM     72  C   UNL A   1      39.345  33.718  37.183  1.00  0.00     0.022 A 
BRANCH  70  73
ATOM     73  S   UNL A   1      37.387  32.182  38.319  1.00  0.00     0.127 S 
ATOM     74  O   UNL A   1      38.008  32.612  39.570  1.00  0.00    -0.237 OA
ATOM     75  O   UNL A   1      36.340  33.072  37.819  1.00  0.00    -0.237 OA
ATOM     76  O   UNL A   1      37.070  30.763  38.236  1.00  0.00    -0.744 OA
ENDBRANCH  70  73
ENDBRANCH  52  66
BRANCH  53  77
ATOM     77  C   UNL A   1      42.543  25.844  27.636  1.00  0.00     0.023 A 
ATOM     78  C   UNL A   1      43.435  26.343  26.666  1.00  0.00     0.012 A 
ATOM     79  C   UNL A   1      42.066  24.524  27.516  1.00  0.00     0.148 A 
ATOM     80  C   UNL A   1      43.818  25.556  25.580  1.00  0.00     0.002 A 
ATOM     81  C   UNL A   1      42.496  23.726  26.463  1.00  0.00     0.091 A 
ATOM     82  F   UNL A   1      41.213  24.073  28.446  1.00  0.00    -0.205 F 
ATOM     83  C   UNL A   1      43.356  24.245  25.483  1.00  0.00     0.022 A 
BRANCH  81  84
ATOM     84  S   UNL A   1      42.062  21.989  26.335  1.00  0.00     0.127 S 
ATOM     85  O   UNL A   1      42.989  21.524  25.305  1.00  0.00    -0.237 OA
ATOM     86  O   UNL A   1      42.348  21.505  27.686  1.00  0.00    -0.237 OA
ATOM     87  O   UNL A   1      40.651  21.959  25.975  1.00  0.00    -0.744 OA
ENDBRANCH  81  84
ENDBRANCH  53  77
BRANCH  65  88
ATOM     88  C   UNL A   1      45.158  26.847  34.036  1.00  0.00     0.023 A 
ATOM     89  C   UNL A   1      46.445  27.408  33.919  1.00  0.00     0.012 A 
ATOM     90  C   UNL A   1      44.954  25.757  34.904  1.00  0.00     0.148 A 
ATOM     91  C   UNL A   1      47.519  26.869  34.628  1.00  0.00     0.002 A 
ATOM     92  C   UNL A   1      46.017  25.258  35.647  1.00  0.00     0.091 A 
ATOM     93  F   UNL A   1      43.725  25.226  34.987  1.00  0.00    -0.205 F 
ATOM     94  C   UNL A   1      47.302  25.804  35.499  1.00  0.00     0.022 A 
BRANCH  92  95
ATOM     95  S   UNL A   1      45.812  23.956  36.867  1.00  0.00     0.127 S 
ATOM     96  O   UNL A   1      45.344  22.845  36.041  1.00  0.00    -0.237 OA
ATOM     97  O   UNL A   1      47.173  23.801  37.385  1.00  0.00    -0.237 OA
ATOM     98  O   UNL A   1      44.851  24.462  37.837  1.00  0.00    -0.744 OA
ENDBRANCH  92  95
ENDBRANCH  65  88
ENDBRANCH  39  40
ENDBRANCH  31  34
ENDBRANCH  29  30
ENDBRANCH  28  29
ENDBRANCH  27  28
ENDBRANCH   1  27
TORSDOF 20
ENDMDL
MODEL 3
REMARK VINA RESULT:     -10.7      3.811      5.621
REMARK SMILES CC[C@@]1(C(=O)NCCCCCCNC(=O)c2ccc(-c3c4nc(c(-c5cccc(S(=O)(=O)[O-])c5F)c5ccc([nH]5)c(-c5cccc(S(=O)(=O)[O-])c5F)c5nc(c(-c6cccc(S(=O)(=O)[O-])c6F)c6ccc3[nH]6)C=C5)C=C4)cc2)CCC[N@@H+](Cc2ccc(C3CC3)cc2)C1
REMARK SMILES IDX 9 1 8 2 7 3 6 4 4 5 5 6 3 8 79 9 93 10 80 11 82 12 81 13
REMARK SMILES IDX 2 15 1 16 83 17 84 18 85 19 92 20 86 21 91 22 87 23 88 24
REMARK SMILES IDX 89 25 90 26 10 27 11 28 12 29 13 30 14 31 15 33 16 34 17 35
REMARK SMILES IDX 78 36 18 37 77 38 19 39 20 40 21 41 71 42 22 43 76 44 70 45
REMARK SMILES IDX 72 46 23 47 75 48 69 49 68 50 24 52 56 53 36 54 55 55 37 56
REMARK SMILES IDX 40 57 54 58 73 59 38 60 39 61 53 63 74 64 41 65 25 66 26 67
REMARK SMILES IDX 34 68 27 69 29 70 35 71 28 72 30 73 31 74 32 75 33 76 57 77
REMARK SMILES IDX 58 78 66 79 59 80 61 81 67 82 60 83 62 84 63 85 64 86 65 87
REMARK SMILES IDX 42 88 43 89 51 90 44 91 46 92 52 93 45 94 47 95 48 96 49 97
REMARK SMILES IDX 50 98
REMARK H PARENT 6 7 82 14 13 32 72 51 40 62
REMARK Flexibility Score: inf
ROOT
ATOM      1  C   UNL A   1      34.292  31.549  27.884  1.00  0.00     0.002 C 
ENDROOT
BRANCH   1   2
ATOM      2  C   UNL A   1      35.294  30.450  28.257  1.00  0.00     0.021 C 
BRANCH   2   3
ATOM      3  C   UNL A   1      35.352  29.306  27.244  1.00  0.00     0.116 C 
BRANCH   3   4
ATOM      4  N   UNL A   1      34.458  29.567  26.141  1.00  0.00    -0.355 N 
ATOM      5  C   UNL A   1      33.529  28.827  25.489  1.00  0.00     0.231 C 
ATOM      6  O   UNL A   1      33.064  29.381  24.481  1.00  0.00    -0.274 OA
ATOM      7  H   UNL A   1      34.541  30.480  25.784  1.00  0.00     0.163 HD
BRANCH   5   8
ATOM      8  C   UNL A   1      32.897  27.521  26.035  1.00  0.00     0.098 C 
ATOM      9  C   UNL A   1      33.701  26.206  26.004  1.00  0.00     0.028 C 
ATOM     10  C   UNL A   1      31.639  27.232  25.162  1.00  0.00     0.279 C 
ATOM     11  C   UNL A   1      34.057  25.801  24.580  1.00  0.00     0.063 C 
ATOM     12  N   UNL A   1      31.920  26.767  23.787  1.00  0.00    -0.330 N 
ATOM     13  C   UNL A   1      32.794  25.589  23.754  1.00  0.00     0.262 C 
ATOM     14  H   UNL A   1      32.440  27.519  23.333  1.00  0.00     0.348 HD
BRANCH   8  15
ATOM     15  C   UNL A   1      32.512  27.866  27.513  1.00  0.00     0.019 C 
ATOM     16  C   UNL A   1      31.400  28.891  27.712  1.00  0.00     0.005 C 
ENDBRANCH   8  15
BRANCH  12  17
ATOM     17  C   UNL A   1      30.682  26.567  23.000  1.00  0.00     0.299 C 
BRANCH  17  18
ATOM     18  C   UNL A   1      29.885  27.828  22.706  1.00  0.00     0.006 A 
ATOM     19  C   UNL A   1      28.574  27.972  23.167  1.00  0.00     0.010 A 
ATOM     20  C   UNL A   1      30.482  28.915  22.060  1.00  0.00     0.010 A 
ATOM     21  C   UNL A   1      27.919  29.206  23.066  1.00  0.00     0.004 A 
ATOM     22  C   UNL A   1      29.837  30.153  21.998  1.00  0.00     0.004 A 
ATOM     23  C   UNL A   1      28.547  30.340  22.519  1.00  0.00    -0.045 A 
BRANCH  23  24
ATOM     24  C   UNL A   1      27.839  31.681  22.523  1.00  0.00     0.019 C 
ATOM     25  C   UNL A   1      28.590  32.969  22.769  1.00  0.00     0.009 C 
ATOM     26  C   UNL A   1      28.053  32.665  21.399  1.00  0.00     0.009 C 
ENDBRANCH  23  24
ENDBRANCH  17  18
ENDBRANCH  12  17
ENDBRANCH   5   8
ENDBRANCH   3   4
ENDBRANCH   2   3
ENDBRANCH   1   2
BRANCH   1  27
ATOM     27  C   UNL A   1      34.623  32.932  28.452  1.00  0.00     0.002 C 
BRANCH  27  28
ATOM     28  C   UNL A   1      33.477  33.944  28.373  1.00  0.00     0.021 C 
BRANCH  28  29
ATOM     29  C   UNL A   1      33.810  35.315  28.951  1.00  0.00     0.116 C 
BRANCH  29  30
ATOM     30  N   UNL A   1      32.943  35.651  30.068  1.00  0.00    -0.352 N 
ATOM     31  C   UNL A   1      33.019  35.242  31.374  1.00  0.00     0.251 C 
ATOM     32  H   UNL A   1      32.195  36.258  29.856  1.00  0.00     0.163 HD
ATOM     33  O   UNL A   1      32.076  35.428  32.135  1.00  0.00    -0.269 OA
BRANCH  31  34
ATOM     34  C   UNL A   1      34.243  34.565  31.852  1.00  0.00     0.039 A 
ATOM     35  C   UNL A   1      34.162  33.233  32.262  1.00  0.00     0.014 A 
ATOM     36  C   UNL A   1      35.462  35.247  31.901  1.00  0.00     0.014 A 
ATOM     37  C   UNL A   1      35.317  32.571  32.680  1.00  0.00     0.010 A 
ATOM     38  C   UNL A   1      36.624  34.562  32.242  1.00  0.00     0.010 A 
ATOM     39  C   UNL A   1      36.563  33.221  32.648  1.00  0.00    -0.014 A 
BRANCH  39  40
ATOM     40  C   UNL A   1      37.805  32.503  33.028  1.00  0.00     0.031 A 
ATOM     41  C   UNL A   1      38.538  32.860  34.293  1.00  0.00     0.074 A 
ATOM     42  C   UNL A   1      38.309  31.570  32.196  1.00  0.00     0.049 A 
ATOM     43  N   UNL A   1      39.633  32.341  34.783  1.00  0.00    -0.248 NA
ATOM     44  C   UNL A   1      37.986  33.962  35.100  1.00  0.00     0.031 C 
ATOM     45  C   UNL A   1      37.739  31.199  30.899  1.00  0.00     0.029 A 
ATOM     46  N   UNL A   1      39.423  30.776  32.308  1.00  0.00    -0.354 N 
ATOM     47  C   UNL A   1      39.919  33.067  35.933  1.00  0.00     0.074 A 
ATOM     48  C   UNL A   1      38.904  34.091  36.048  1.00  0.00     0.031 C 
ATOM     49  C   UNL A   1      38.497  30.241  30.342  1.00  0.00     0.029 A 
ATOM     50  C   UNL A   1      39.620  29.950  31.227  1.00  0.00     0.049 A 
ATOM     51  H   UNL A   1      40.022  30.796  33.088  1.00  0.00     0.167 HD
ATOM     52  C   UNL A   1      40.916  32.880  36.830  1.00  0.00     0.034 A 
ATOM     53  C   UNL A   1      40.598  29.057  30.975  1.00  0.00     0.034 A 
ATOM     54  C   UNL A   1      41.902  31.838  36.729  1.00  0.00     0.049 A 
ATOM     55  C   UNL A   1      41.668  28.836  32.009  1.00  0.00     0.074 A 
ATOM     56  C   UNL A   1      42.900  31.507  37.629  1.00  0.00     0.029 A 
ATOM     57  N   UNL A   1      42.024  30.964  35.660  1.00  0.00    -0.354 N 
ATOM     58  N   UNL A   1      41.825  29.421  33.172  1.00  0.00    -0.248 NA
ATOM     59  C   UNL A   1      42.671  27.803  31.717  1.00  0.00     0.031 C 
ATOM     60  C   UNL A   1      43.644  30.454  37.088  1.00  0.00     0.029 A 
ATOM     61  C   UNL A   1      43.086  30.102  35.870  1.00  0.00     0.049 A 
ATOM     62  H   UNL A   1      41.440  30.958  34.866  1.00  0.00     0.167 HD
ATOM     63  C   UNL A   1      42.917  28.802  33.766  1.00  0.00     0.074 A 
ATOM     64  C   UNL A   1      43.372  27.783  32.843  1.00  0.00     0.031 C 
ATOM     65  C   UNL A   1      43.497  29.059  34.965  1.00  0.00     0.034 A 
BRANCH  52  66
ATOM     66  C   UNL A   1      40.965  33.796  38.026  1.00  0.00     0.023 A 
ATOM     67  C   UNL A   1      41.787  34.942  37.994  1.00  0.00     0.012 A 
ATOM     68  C   UNL A   1      40.158  33.559  39.155  1.00  0.00     0.148 A 
ATOM     69  C   UNL A   1      41.834  35.816  39.080  1.00  0.00     0.002 A 
ATOM     70  C   UNL A   1      40.173  34.460  40.214  1.00  0.00     0.091 A 
ATOM     71  F   UNL A   1      39.397  32.455  39.178  1.00  0.00    -0.205 F 
ATOM     72  C   UNL A   1      41.019  35.581  40.184  1.00  0.00     0.022 A 
BRANCH  70  73
ATOM     73  S   UNL A   1      39.100  34.292  41.646  1.00  0.00     0.127 S 
ATOM     74  O   UNL A   1      39.690  33.139  42.323  1.00  0.00    -0.237 OA
ATOM     75  O   UNL A   1      39.300  35.570  42.330  1.00  0.00    -0.237 OA
ATOM     76  O   UNL A   1      37.758  34.088  41.120  1.00  0.00    -0.744 OA
ENDBRANCH  70  73
ENDBRANCH  52  66
BRANCH  53  77
ATOM     77  C   UNL A   1      40.567  28.257  29.718  1.00  0.00     0.023 A 
ATOM     78  C   UNL A   1      39.587  27.258  29.554  1.00  0.00     0.012 A 
ATOM     79  C   UNL A   1      41.481  28.501  28.674  1.00  0.00     0.148 A 
ATOM     80  C   UNL A   1      39.538  26.495  28.387  1.00  0.00     0.002 A 
ATOM     81  C   UNL A   1      41.391  27.776  27.492  1.00  0.00     0.091 A 
ATOM     82  F   UNL A   1      42.410  29.450  28.855  1.00  0.00    -0.205 F 
ATOM     83  C   UNL A   1      40.433  26.759  27.353  1.00  0.00     0.022 A 
BRANCH  81  84
ATOM     84  S   UNL A   1      42.411  28.141  26.060  1.00  0.00     0.127 S 
ATOM     85  O   UNL A   1      43.754  27.894  26.579  1.00  0.00    -0.237 OA
ATOM     86  O   UNL A   1      41.933  27.155  25.090  1.00  0.00    -0.237 OA
ATOM     87  O   UNL A   1      42.115  29.523  25.706  1.00  0.00    -0.744 OA
ENDBRANCH  81  84
ENDBRANCH  53  77
BRANCH  65  88
ATOM     88  C   UNL A   1      44.663  28.198  35.376  1.00  0.00     0.023 A 
ATOM     89  C   UNL A   1      45.980  28.612  35.098  1.00  0.00     0.012 A 
ATOM     90  C   UNL A   1      44.450  27.011  36.105  1.00  0.00     0.148 A 
ATOM     91  C   UNL A   1      47.067  27.839  35.506  1.00  0.00     0.002 A 
ATOM     92  C   UNL A   1      45.538  26.273  36.554  1.00  0.00     0.091 A 
ATOM     93  F   UNL A   1      43.188  26.625  36.344  1.00  0.00    -0.205 F 
ATOM     94  C   UNL A   1      46.846  26.678  36.243  1.00  0.00     0.022 A 
BRANCH  92  95
ATOM     95  S   UNL A   1      45.352  24.820  37.594  1.00  0.00     0.127 S 
ATOM     96  O   UNL A   1      44.661  25.373  38.756  1.00  0.00    -0.237 OA
ATOM     97  O   UNL A   1      44.532  23.943  36.756  1.00  0.00    -0.237 OA
ATOM     98  O   UNL A   1      46.700  24.329  37.843  1.00  0.00    -0.744 OA
ENDBRANCH  92  95
ENDBRANCH  65  88
ENDBRANCH  39  40
ENDBRANCH  31  34
ENDBRANCH  29  30
ENDBRANCH  28  29
ENDBRANCH  27  28
ENDBRANCH   1  27
TORSDOF 20
ENDMDL
