MODEL 1
REMARK VINA RESULT:     -12.8      0.000      0.000
REMARK SMILES Cc1occc1C(=O)N1CCC(C(=O)NCCCCCCNC(=O)c2ccc(-c3c4nc(c(-c5cccc(S(=O)(=O)[O-])c5F)c5ccc([nH]5)c(-c5cccc(S(=O)(=O)[O-])c5F)c5nc(c(-c6cccc(S(=O)(=O)[O-])c6F)c6ccc3[nH]6)C=C5)C=C4)cc2)(n2cccn2)CC1
REMARK SMILES IDX 19 1 18 2 17 3 16 4 15 5 13 6 14 7 12 9 7 10 8 11 9 12 10 13
REMARK SMILES IDX 94 14 11 15 93 16 6 17 1 18 2 19 3 20 4 21 5 22 88 23 89 24
REMARK SMILES IDX 92 25 90 26 91 27 20 28 21 29 22 30 23 31 24 33 25 34 26 35
REMARK SMILES IDX 87 36 27 37 86 38 28 39 29 40 30 41 80 42 31 43 85 44 79 45
REMARK SMILES IDX 81 46 32 47 84 48 78 49 77 50 33 52 65 53 45 54 64 55 46 56
REMARK SMILES IDX 49 57 63 58 82 59 47 60 48 61 62 63 83 64 50 65 34 66 35 67
REMARK SMILES IDX 43 68 36 69 38 70 44 71 37 72 39 73 40 74 41 75 42 76 66 77
REMARK SMILES IDX 67 78 75 79 68 80 70 81 76 82 69 83 71 84 72 85 73 86 74 87
REMARK SMILES IDX 51 88 52 89 60 90 53 91 55 92 61 93 54 94 56 95 57 96 58 97
REMARK SMILES IDX 59 98
REMARK H PARENT 15 8 22 32 81 51 49 62
REMARK Flexibility Score: inf
ROOT
ATOM      1  C   UNL A   1      35.026  22.595  24.015  1.00  0.00     0.002 C 
ENDROOT
BRANCH   1   2
ATOM      2  C   UNL A   1      35.075  23.986  24.656  1.00  0.00     0.002 C 
BRANCH   2   3
ATOM      3  C   UNL A   1      34.091  24.223  25.808  1.00  0.00     0.021 C 
BRANCH   3   4
ATOM      4  C   UNL A   1      33.518  25.639  25.890  1.00  0.00     0.116 C 
BRANCH   4   5
ATOM      5  N   UNL A   1      32.151  25.639  26.394  1.00  0.00    -0.354 N 
ATOM      6  C   UNL A   1      30.946  26.040  25.876  1.00  0.00     0.248 C 
ATOM      7  O   UNL A   1      29.995  25.715  26.591  1.00  0.00    -0.272 OA
ATOM      8  H   UNL A   1      32.076  25.269  27.304  1.00  0.00     0.163 HD
BRANCH   6   9
ATOM      9  C   UNL A   1      30.831  26.762  24.483  1.00  0.00     0.144 C 
ATOM     10  C   UNL A   1      28.166  29.887  23.262  1.00  0.00     0.257 C 
ATOM     11  O   UNL A   1      26.979  29.564  23.401  1.00  0.00    -0.269 OA
ATOM     12  N   UNL A   1      29.179  28.937  23.420  1.00  0.00    -0.338 N 
ATOM     13  C   UNL A   1      28.881  27.579  22.995  1.00  0.00     0.123 C 
ATOM     14  C   UNL A   1      30.548  29.257  23.792  1.00  0.00     0.123 C 
ATOM     15  C   UNL A   1      29.415  26.499  23.918  1.00  0.00     0.062 C 
ATOM     16  C   UNL A   1      31.148  28.256  24.769  1.00  0.00     0.062 C 
BRANCH  10  17
ATOM     17  C   UNL A   1      28.504  31.249  22.870  1.00  0.00     0.081 A 
ATOM     18  C   UNL A   1      27.811  31.442  20.316  1.00  0.00     0.088 C 
ATOM     19  C   UNL A   1      28.330  31.862  21.635  1.00  0.00     0.113 A 
ATOM     20  O   UNL A   1      28.667  33.182  21.707  1.00  0.00    -0.469 OA
ATOM     21  C   UNL A   1      29.004  33.443  22.992  1.00  0.00     0.196 A 
ATOM     22  C   UNL A   1      28.912  32.300  23.748  1.00  0.00     0.056 A 
ENDBRANCH  10  17
BRANCH   9  23
ATOM     23  N   UNL A   1      31.808  26.253  23.459  1.00  0.00    -0.257 N 
ATOM     24  C   UNL A   1      32.972  26.866  23.038  1.00  0.00     0.110 A 
ATOM     25  N   UNL A   1      31.568  25.147  22.725  1.00  0.00    -0.181 NA
ATOM     26  C   UNL A   1      33.525  26.072  22.063  1.00  0.00     0.042 A 
ATOM     27  C   UNL A   1      32.622  25.016  21.925  1.00  0.00     0.135 A 
ENDBRANCH   9  23
ENDBRANCH   6   9
ENDBRANCH   4   5
ENDBRANCH   3   4
ENDBRANCH   2   3
ENDBRANCH   1   2
BRANCH   1  28
ATOM     28  C   UNL A   1      36.021  21.573  24.569  1.00  0.00     0.021 C 
BRANCH  28  29
ATOM     29  C   UNL A   1      37.236  22.157  25.283  1.00  0.00     0.116 C 
BRANCH  29  30
ATOM     30  N   UNL A   1      38.192  21.139  25.687  1.00  0.00    -0.352 N 
ATOM     31  C   UNL A   1      39.426  21.293  26.270  1.00  0.00     0.251 C 
ATOM     32  H   UNL A   1      37.916  20.210  25.520  1.00  0.00     0.163 HD
ATOM     33  O   UNL A   1      40.159  20.317  26.415  1.00  0.00    -0.269 OA
BRANCH  31  34
ATOM     34  C   UNL A   1      39.886  22.633  26.701  1.00  0.00     0.039 A 
ATOM     35  C   UNL A   1      40.948  22.722  27.606  1.00  0.00     0.014 A 
ATOM     36  C   UNL A   1      39.270  23.795  26.228  1.00  0.00     0.014 A 
ATOM     37  C   UNL A   1      41.431  23.977  27.992  1.00  0.00     0.010 A 
ATOM     38  C   UNL A   1      39.786  25.044  26.572  1.00  0.00     0.010 A 
ATOM     39  C   UNL A   1      40.870  25.147  27.458  1.00  0.00    -0.014 A 
BRANCH  39  40
ATOM     40  C   UNL A   1      41.413  26.488  27.796  1.00  0.00     0.031 A 
ATOM     41  C   UNL A   1      42.845  26.830  27.486  1.00  0.00     0.074 A 
ATOM     42  C   UNL A   1      40.645  27.362  28.477  1.00  0.00     0.049 A 
ATOM     43  N   UNL A   1      43.508  27.924  27.761  1.00  0.00    -0.248 NA
ATOM     44  C   UNL A   1      43.646  25.801  26.801  1.00  0.00     0.031 C 
ATOM     45  C   UNL A   1      39.268  27.117  28.913  1.00  0.00     0.029 A 
ATOM     46  N   UNL A   1      40.923  28.621  28.950  1.00  0.00    -0.354 N 
ATOM     47  C   UNL A   1      44.808  27.700  27.326  1.00  0.00     0.074 A 
ATOM     48  C   UNL A   1      44.848  26.362  26.779  1.00  0.00     0.031 C 
ATOM     49  C   UNL A   1      38.827  28.186  29.598  1.00  0.00     0.029 A 
ATOM     50  C   UNL A   1      39.889  29.184  29.663  1.00  0.00     0.049 A 
ATOM     51  H   UNL A   1      41.781  29.077  28.794  1.00  0.00     0.167 HD
ATOM     52  C   UNL A   1      45.867  28.544  27.355  1.00  0.00     0.034 A 
ATOM     53  C   UNL A   1      39.808  30.370  30.297  1.00  0.00     0.034 A 
ATOM     54  C   UNL A   1      45.808  29.901  27.827  1.00  0.00     0.049 A 
ATOM     55  C   UNL A   1      40.978  31.316  30.241  1.00  0.00     0.074 A 
ATOM     56  C   UNL A   1      46.793  30.872  27.774  1.00  0.00     0.029 A 
ATOM     57  N   UNL A   1      44.707  30.478  28.436  1.00  0.00    -0.354 N 
ATOM     58  N   UNL A   1      42.136  31.158  29.648  1.00  0.00    -0.248 NA
ATOM     59  C   UNL A   1      40.817  32.618  30.907  1.00  0.00     0.031 C 
ATOM     60  C   UNL A   1      46.288  32.038  28.359  1.00  0.00     0.029 A 
ATOM     61  C   UNL A   1      44.989  31.792  28.771  1.00  0.00     0.049 A 
ATOM     62  H   UNL A   1      43.850  30.024  28.604  1.00  0.00     0.167 HD
ATOM     63  C   UNL A   1      42.825  32.351  29.838  1.00  0.00     0.074 A 
ATOM     64  C   UNL A   1      41.949  33.229  30.583  1.00  0.00     0.031 C 
ATOM     65  C   UNL A   1      44.081  32.680  29.449  1.00  0.00     0.034 A 
BRANCH  52  66
ATOM     66  C   UNL A   1      47.175  28.056  26.791  1.00  0.00     0.023 A 
ATOM     67  C   UNL A   1      48.165  27.574  27.669  1.00  0.00     0.012 A 
ATOM     68  C   UNL A   1      47.386  27.987  25.400  1.00  0.00     0.148 A 
ATOM     69  C   UNL A   1      49.355  27.045  27.172  1.00  0.00     0.002 A 
ATOM     70  C   UNL A   1      48.561  27.427  24.911  1.00  0.00     0.091 A 
ATOM     71  F   UNL A   1      46.437  28.470  24.585  1.00  0.00    -0.205 F 
ATOM     72  C   UNL A   1      49.547  26.962  25.796  1.00  0.00     0.022 A 
BRANCH  70  73
ATOM     73  S   UNL A   1      48.877  27.212  23.156  1.00  0.00     0.127 S 
ATOM     74  O   UNL A   1      50.339  27.220  23.117  1.00  0.00    -0.237 OA
ATOM     75  O   UNL A   1      48.268  25.908  22.890  1.00  0.00    -0.237 OA
ATOM     76  O   UNL A   1      48.228  28.333  22.490  1.00  0.00    -0.744 OA
ENDBRANCH  70  73
ENDBRANCH  52  66
BRANCH  53  77
ATOM     77  C   UNL A   1      38.540  30.770  30.971  1.00  0.00     0.023 A 
ATOM     78  C   UNL A   1      38.376  30.492  32.343  1.00  0.00     0.012 A 
ATOM     79  C   UNL A   1      37.511  31.433  30.279  1.00  0.00     0.148 A 
ATOM     80  C   UNL A   1      37.198  30.841  33.004  1.00  0.00     0.002 A 
ATOM     81  C   UNL A   1      36.359  31.823  30.956  1.00  0.00     0.091 A 
ATOM     82  F   UNL A   1      37.670  31.673  28.969  1.00  0.00    -0.205 F 
ATOM     83  C   UNL A   1      36.194  31.514  32.315  1.00  0.00     0.022 A 
BRANCH  81  84
ATOM     84  S   UNL A   1      35.092  32.809  30.149  1.00  0.00     0.127 S 
ATOM     85  O   UNL A   1      34.153  33.050  31.240  1.00  0.00    -0.237 OA
ATOM     86  O   UNL A   1      35.840  33.989  29.710  1.00  0.00    -0.237 OA
ATOM     87  O   UNL A   1      34.613  31.974  29.054  1.00  0.00    -0.744 OA
ENDBRANCH  81  84
ENDBRANCH  53  77
BRANCH  65  88
ATOM     88  C   UNL A   1      44.584  34.056  29.791  1.00  0.00     0.023 A 
ATOM     89  C   UNL A   1      45.301  34.251  30.988  1.00  0.00     0.012 A 
ATOM     90  C   UNL A   1      44.422  35.130  28.897  1.00  0.00     0.148 A 
ATOM     91  C   UNL A   1      45.833  35.502  31.297  1.00  0.00     0.002 A 
ATOM     92  C   UNL A   1      44.991  36.365  29.193  1.00  0.00     0.091 A 
ATOM     93  F   UNL A   1      43.716  34.931  27.774  1.00  0.00    -0.205 F 
ATOM     94  C   UNL A   1      45.689  36.554  30.396  1.00  0.00     0.022 A 
BRANCH  92  95
ATOM     95  S   UNL A   1      44.923  37.742  28.042  1.00  0.00     0.127 S 
ATOM     96  O   UNL A   1      45.498  38.826  28.835  1.00  0.00    -0.237 OA
ATOM     97  O   UNL A   1      45.769  37.278  26.940  1.00  0.00    -0.237 OA
ATOM     98  O   UNL A   1      43.516  37.890  27.690  1.00  0.00    -0.744 OA
ENDBRANCH  92  95
ENDBRANCH  65  88
ENDBRANCH  39  40
ENDBRANCH  31  34
ENDBRANCH  29  30
ENDBRANCH  28  29
ENDBRANCH   1  28
TORSDOF 18
ENDMDL
MODEL 2
REMARK VINA RESULT:     -12.7      1.305      7.480
REMARK SMILES Cc1occc1C(=O)N1CCC(C(=O)NCCCCCCNC(=O)c2ccc(-c3c4nc(c(-c5cccc(S(=O)(=O)[O-])c5F)c5ccc([nH]5)c(-c5cccc(S(=O)(=O)[O-])c5F)c5nc(c(-c6cccc(S(=O)(=O)[O-])c6F)c6ccc3[nH]6)C=C5)C=C4)cc2)(n2cccn2)CC1
REMARK SMILES IDX 19 1 18 2 17 3 16 4 15 5 13 6 14 7 12 9 7 10 8 11 9 12 10 13
REMARK SMILES IDX 94 14 11 15 93 16 6 17 1 18 2 19 3 20 4 21 5 22 88 23 89 24
REMARK SMILES IDX 92 25 90 26 91 27 20 28 21 29 22 30 23 31 24 33 25 34 26 35
REMARK SMILES IDX 87 36 27 37 86 38 28 39 29 40 30 41 80 42 31 43 85 44 79 45
REMARK SMILES IDX 81 46 32 47 84 48 78 49 77 50 33 52 65 53 45 54 64 55 46 56
REMARK SMILES IDX 49 57 63 58 82 59 47 60 48 61 62 63 83 64 50 65 34 66 35 67
REMARK SMILES IDX 43 68 36 69 38 70 44 71 37 72 39 73 40 74 41 75 42 76 66 77
REMARK SMILES IDX 67 78 75 79 68 80 70 81 76 82 69 83 71 84 72 85 73 86 74 87
REMARK SMILES IDX 51 88 52 89 60 90 53 91 55 92 61 93 54 94 56 95 57 96 58 97
REMARK SMILES IDX 59 98
REMARK H PARENT 15 8 22 32 81 51 49 62
REMARK Flexibility Score: inf
ROOT
ATOM      1  C   UNL A   1      35.417  23.625  23.877  1.00  0.00     0.002 C 
ENDROOT
BRANCH   1   2
ATOM      2  C   UNL A   1      35.260  24.441  25.164  1.00  0.00     0.002 C 
BRANCH   2   3
ATOM      3  C   UNL A   1      33.878  24.379  25.828  1.00  0.00     0.021 C 
BRANCH   3   4
ATOM      4  C   UNL A   1      33.223  25.736  26.088  1.00  0.00     0.116 C 
BRANCH   4   5
ATOM      5  N   UNL A   1      31.826  25.594  26.476  1.00  0.00    -0.354 N 
ATOM      6  C   UNL A   1      30.633  25.900  25.872  1.00  0.00     0.248 C 
ATOM      7  O   UNL A   1      29.663  25.466  26.497  1.00  0.00    -0.272 OA
ATOM      8  H   UNL A   1      31.713  25.189  27.367  1.00  0.00     0.163 HD
BRANCH   6   9
ATOM      9  C   UNL A   1      30.563  26.654  24.493  1.00  0.00     0.144 C 
ATOM     10  C   UNL A   1      28.114  29.978  23.346  1.00  0.00     0.257 C 
ATOM     11  O   UNL A   1      26.908  29.735  23.485  1.00  0.00    -0.269 OA
ATOM     12  N   UNL A   1      29.060  28.958  23.480  1.00  0.00    -0.338 N 
ATOM     13  C   UNL A   1      28.668  27.632  23.031  1.00  0.00     0.123 C 
ATOM     14  C   UNL A   1      30.450  29.176  23.851  1.00  0.00     0.123 C 
ATOM     15  C   UNL A   1      29.129  26.500  23.930  1.00  0.00     0.062 C 
ATOM     16  C   UNL A   1      30.983  28.118  24.806  1.00  0.00     0.062 C 
BRANCH  10  17
ATOM     17  C   UNL A   1      28.544  31.321  22.977  1.00  0.00     0.081 A 
ATOM     18  C   UNL A   1      27.991  31.556  20.393  1.00  0.00     0.088 C 
ATOM     19  C   UNL A   1      28.465  31.945  21.738  1.00  0.00     0.113 A 
ATOM     20  O   UNL A   1      28.868  33.245  21.833  1.00  0.00    -0.469 OA
ATOM     21  C   UNL A   1      29.153  33.485  23.135  1.00  0.00     0.196 A 
ATOM     22  C   UNL A   1      28.963  32.347  23.879  1.00  0.00     0.056 A 
ENDBRANCH  10  17
BRANCH   9  23
ATOM     23  N   UNL A   1      31.498  26.100  23.454  1.00  0.00    -0.257 N 
ATOM     24  C   UNL A   1      31.507  24.819  22.937  1.00  0.00     0.110 A 
ATOM     25  N   UNL A   1      32.550  26.802  22.987  1.00  0.00    -0.181 NA
ATOM     26  C   UNL A   1      32.554  24.741  22.051  1.00  0.00     0.042 A 
ATOM     27  C   UNL A   1      33.152  26.002  22.112  1.00  0.00     0.135 A 
ENDBRANCH   9  23
ENDBRANCH   6   9
ENDBRANCH   4   5
ENDBRANCH   3   4
ENDBRANCH   2   3
ENDBRANCH   1   2
BRANCH   1  28
ATOM     28  C   UNL A   1      36.039  22.237  24.042  1.00  0.00     0.021 C 
BRANCH  28  29
ATOM     29  C   UNL A   1      36.363  21.828  25.477  1.00  0.00     0.116 C 
BRANCH  29  30
ATOM     30  N   UNL A   1      37.322  20.737  25.545  1.00  0.00    -0.352 N 
ATOM     31  C   UNL A   1      38.656  20.776  25.869  1.00  0.00     0.251 C 
ATOM     32  H   UNL A   1      36.964  19.846  25.331  1.00  0.00     0.163 HD
ATOM     33  O   UNL A   1      39.346  19.768  25.738  1.00  0.00    -0.269 OA
BRANCH  31  34
ATOM     34  C   UNL A   1      39.271  22.035  26.349  1.00  0.00     0.039 A 
ATOM     35  C   UNL A   1      40.437  21.965  27.118  1.00  0.00     0.014 A 
ATOM     36  C   UNL A   1      38.699  23.276  26.056  1.00  0.00     0.014 A 
ATOM     37  C   UNL A   1      41.062  23.141  27.543  1.00  0.00     0.010 A 
ATOM     38  C   UNL A   1      39.352  24.448  26.436  1.00  0.00     0.010 A 
ATOM     39  C   UNL A   1      40.538  24.393  27.183  1.00  0.00    -0.014 A 
BRANCH  39  40
ATOM     40  C   UNL A   1      41.225  25.655  27.562  1.00  0.00     0.031 A 
ATOM     41  C   UNL A   1      40.482  26.732  28.303  1.00  0.00     0.074 A 
ATOM     42  C   UNL A   1      42.490  25.872  27.148  1.00  0.00     0.049 A 
ATOM     43  N   UNL A   1      40.898  27.920  28.664  1.00  0.00    -0.248 NA
ATOM     44  C   UNL A   1      39.082  26.453  28.666  1.00  0.00     0.031 C 
ATOM     45  C   UNL A   1      43.290  24.941  26.348  1.00  0.00     0.029 A 
ATOM     46  N   UNL A   1      43.313  26.958  27.314  1.00  0.00    -0.354 N 
ATOM     47  C   UNL A   1      39.803  28.543  29.251  1.00  0.00     0.074 A 
ATOM     48  C   UNL A   1      38.701  27.610  29.190  1.00  0.00     0.031 C 
ATOM     49  C   UNL A   1      44.483  25.501  26.085  1.00  0.00     0.029 A 
ATOM     50  C   UNL A   1      44.529  26.832  26.682  1.00  0.00     0.049 A 
ATOM     51  H   UNL A   1      43.057  27.753  27.836  1.00  0.00     0.167 HD
ATOM     52  C   UNL A   1      39.732  29.772  29.816  1.00  0.00     0.034 A 
ATOM     53  C   UNL A   1      45.563  27.691  26.594  1.00  0.00     0.034 A 
ATOM     54  C   UNL A   1      40.849  30.668  29.947  1.00  0.00     0.049 A 
ATOM     55  C   UNL A   1      45.479  29.017  27.301  1.00  0.00     0.074 A 
ATOM     56  C   UNL A   1      40.906  31.877  30.619  1.00  0.00     0.029 A 
ATOM     57  N   UNL A   1      42.102  30.455  29.397  1.00  0.00    -0.354 N 
ATOM     58  N   UNL A   1      44.500  29.505  28.022  1.00  0.00    -0.248 NA
ATOM     59  C   UNL A   1      46.656  29.896  27.215  1.00  0.00     0.031 C 
ATOM     60  C   UNL A   1      42.196  32.399  30.470  1.00  0.00     0.029 A 
ATOM     61  C   UNL A   1      42.939  31.513  29.708  1.00  0.00     0.049 A 
ATOM     62  H   UNL A   1      42.360  29.668  28.866  1.00  0.00     0.167 HD
ATOM     63  C   UNL A   1      44.955  30.727  28.505  1.00  0.00     0.074 A 
ATOM     64  C   UNL A   1      46.305  30.898  28.010  1.00  0.00     0.031 C 
ATOM     65  C   UNL A   1      44.305  31.637  29.271  1.00  0.00     0.034 A 
BRANCH  52  66
ATOM     66  C   UNL A   1      38.418  30.202  30.411  1.00  0.00     0.023 A 
ATOM     67  C   UNL A   1      38.151  29.917  31.764  1.00  0.00     0.012 A 
ATOM     68  C   UNL A   1      37.497  30.963  29.665  1.00  0.00     0.148 A 
ATOM     69  C   UNL A   1      36.976  30.369  32.364  1.00  0.00     0.002 A 
ATOM     70  C   UNL A   1      36.344  31.439  30.279  1.00  0.00     0.091 A 
ATOM     71  F   UNL A   1      37.764  31.204  28.374  1.00  0.00    -0.205 F 
ATOM     72  C   UNL A   1      36.081  31.137  31.626  1.00  0.00     0.022 A 
BRANCH  70  73
ATOM     73  S   UNL A   1      35.160  32.493  29.436  1.00  0.00     0.127 S 
ATOM     74  O   UNL A   1      34.297  32.910  30.541  1.00  0.00    -0.237 OA
ATOM     75  O   UNL A   1      36.015  33.552  28.900  1.00  0.00    -0.237 OA
ATOM     76  O   UNL A   1      34.523  31.657  28.428  1.00  0.00    -0.744 OA
ENDBRANCH  70  73
ENDBRANCH  52  66
BRANCH  53  77
ATOM     77  C   UNL A   1      46.806  27.291  25.875  1.00  0.00     0.023 A 
ATOM     78  C   UNL A   1      46.917  27.559  24.497  1.00  0.00     0.012 A 
ATOM     79  C   UNL A   1      47.878  26.669  26.541  1.00  0.00     0.148 A 
ATOM     80  C   UNL A   1      48.060  27.188  23.789  1.00  0.00     0.002 A 
ATOM     81  C   UNL A   1      49.036  26.347  25.839  1.00  0.00     0.091 A 
ATOM     82  F   UNL A   1      47.752  26.400  27.848  1.00  0.00    -0.205 F 
ATOM     83  C   UNL A   1      49.124  26.591  24.460  1.00  0.00     0.022 A 
BRANCH  81  84
ATOM     84  S   UNL A   1      50.485  25.698  26.680  1.00  0.00     0.127 S 
ATOM     85  O   UNL A   1      49.978  24.452  27.243  1.00  0.00    -0.237 OA
ATOM     86  O   UNL A   1      51.442  25.533  25.585  1.00  0.00    -0.237 OA
ATOM     87  O   UNL A   1      50.856  26.737  27.634  1.00  0.00    -0.744 OA
ENDBRANCH  81  84
ENDBRANCH  53  77
BRANCH  65  88
ATOM     88  C   UNL A   1      45.044  32.891  29.651  1.00  0.00     0.023 A 
ATOM     89  C   UNL A   1      45.833  32.901  30.818  1.00  0.00     0.012 A 
ATOM     90  C   UNL A   1      45.026  34.024  28.816  1.00  0.00     0.148 A 
ATOM     91  C   UNL A   1      46.578  34.028  31.158  1.00  0.00     0.002 A 
ATOM     92  C   UNL A   1      45.804  35.130  29.140  1.00  0.00     0.091 A 
ATOM     93  F   UNL A   1      44.251  34.003  27.722  1.00  0.00    -0.205 F 
ATOM     94  C   UNL A   1      46.574  35.137  30.315  1.00  0.00     0.022 A 
BRANCH  92  95
ATOM     95  S   UNL A   1      45.919  36.560  28.059  1.00  0.00     0.127 S 
ATOM     96  O   UNL A   1      47.030  37.299  28.654  1.00  0.00    -0.237 OA
ATOM     97  O   UNL A   1      46.218  35.952  26.760  1.00  0.00    -0.237 OA
ATOM     98  O   UNL A   1      44.616  37.209  28.128  1.00  0.00    -0.744 OA
ENDBRANCH  92  95
ENDBRANCH  65  88
ENDBRANCH  39  40
ENDBRANCH  31  34
ENDBRANCH  29  30
ENDBRANCH  28  29
ENDBRANCH   1  28
TORSDOF 18
ENDMDL
MODEL 3
REMARK VINA RESULT:     -12.5      5.571      8.275
REMARK SMILES Cc1occc1C(=O)N1CCC(C(=O)NCCCCCCNC(=O)c2ccc(-c3c4nc(c(-c5cccc(S(=O)(=O)[O-])c5F)c5ccc([nH]5)c(-c5cccc(S(=O)(=O)[O-])c5F)c5nc(c(-c6cccc(S(=O)(=O)[O-])c6F)c6ccc3[nH]6)C=C5)C=C4)cc2)(n2cccn2)CC1
REMARK SMILES IDX 19 1 18 2 17 3 16 4 15 5 13 6 14 7 12 9 7 10 8 11 9 12 10 13
REMARK SMILES IDX 94 14 11 15 93 16 6 17 1 18 2 19 3 20 4 21 5 22 88 23 89 24
REMARK SMILES IDX 92 25 90 26 91 27 20 28 21 29 22 30 23 31 24 33 25 34 26 35
REMARK SMILES IDX 87 36 27 37 86 38 28 39 29 40 30 41 80 42 31 43 85 44 79 45
REMARK SMILES IDX 81 46 32 47 84 48 78 49 77 50 33 52 65 53 45 54 64 55 46 56
REMARK SMILES IDX 49 57 63 58 82 59 47 60 48 61 62 63 83 64 50 65 34 66 35 67
REMARK SMILES IDX 43 68 36 69 38 70 44 71 37 72 39 73 40 74 41 75 42 76 66 77
REMARK SMILES IDX 67 78 75 79 68 80 70 81 76 82 69 83 71 84 72 85 73 86 74 87
REMARK SMILES IDX 51 88 52 89 60 90 53 91 55 92 61 93 54 94 56 95 57 96 58 97
REMARK SMILES IDX 59 98
REMARK H PARENT 15 8 22 32 81 51 49 62
REMARK Flexibility Score: inf
ROOT
ATOM      1  C   UNL A   1      33.825  31.190  27.763  1.00  0.00     0.002 C 
ENDROOT
BRANCH   1   2
ATOM      2  C   UNL A   1      33.412  29.739  27.493  1.00  0.00     0.002 C 
BRANCH   2   3
ATOM      3  C   UNL A   1      34.443  28.880  26.751  1.00  0.00     0.021 C 
BRANCH   3   4
ATOM      4  C   UNL A   1      33.857  27.750  25.903  1.00  0.00     0.116 C 
BRANCH   4   5
ATOM      5  N   UNL A   1      32.638  27.212  26.491  1.00  0.00    -0.354 N 
ATOM      6  C   UNL A   1      31.404  26.882  25.991  1.00  0.00     0.248 C 
ATOM      7  O   UNL A   1      30.698  26.305  26.821  1.00  0.00    -0.272 OA
ATOM      8  H   UNL A   1      32.717  27.049  27.459  1.00  0.00     0.163 HD
BRANCH   6   9
ATOM      9  C   UNL A   1      31.007  27.158  24.494  1.00  0.00     0.144 C 
ATOM     10  C   UNL A   1      27.851  29.601  22.934  1.00  0.00     0.257 C 
ATOM     11  O   UNL A   1      26.742  29.252  23.358  1.00  0.00    -0.269 OA
ATOM     12  N   UNL A   1      28.979  28.810  23.172  1.00  0.00    -0.338 N 
ATOM     13  C   UNL A   1      28.781  27.370  23.196  1.00  0.00     0.123 C 
ATOM     14  C   UNL A   1      30.342  29.318  23.200  1.00  0.00     0.123 C 
ATOM     15  C   UNL A   1      29.563  26.645  24.274  1.00  0.00     0.062 C 
ATOM     16  C   UNL A   1      31.187  28.689  24.298  1.00  0.00     0.062 C 
BRANCH  10  17
ATOM     17  C   UNL A   1      27.970  30.810  22.129  1.00  0.00     0.081 A 
ATOM     18  C   UNL A   1      28.888  32.672  23.781  1.00  0.00     0.088 C 
ATOM     19  C   UNL A   1      28.417  32.068  22.517  1.00  0.00     0.113 A 
ATOM     20  O   UNL A   1      28.488  32.901  21.440  1.00  0.00    -0.469 OA
ATOM     21  C   UNL A   1      28.146  32.178  20.347  1.00  0.00     0.196 A 
ATOM     22  C   UNL A   1      27.830  30.892  20.709  1.00  0.00     0.056 A 
ENDBRANCH  10  17
BRANCH   9  23
ATOM     23  N   UNL A   1      31.877  26.441  23.497  1.00  0.00    -0.257 N 
ATOM     24  C   UNL A   1      32.961  26.956  22.814  1.00  0.00     0.110 A 
ATOM     25  N   UNL A   1      31.595  25.196  23.063  1.00  0.00    -0.181 NA
ATOM     26  C   UNL A   1      33.427  25.969  21.980  1.00  0.00     0.042 A 
ATOM     27  C   UNL A   1      32.554  24.899  22.190  1.00  0.00     0.135 A 
ENDBRANCH   9  23
ENDBRANCH   6   9
ENDBRANCH   4   5
ENDBRANCH   3   4
ENDBRANCH   2   3
ENDBRANCH   1   2
BRANCH   1  28
ATOM     28  C   UNL A   1      32.711  32.231  27.635  1.00  0.00     0.021 C 
BRANCH  28  29
ATOM     29  C   UNL A   1      33.151  33.607  27.142  1.00  0.00     0.116 C 
BRANCH  29  30
ATOM     30  N   UNL A   1      32.730  34.680  28.028  1.00  0.00    -0.352 N 
ATOM     31  C   UNL A   1      33.183  34.991  29.287  1.00  0.00     0.251 C 
ATOM     32  H   UNL A   1      32.023  35.267  27.676  1.00  0.00     0.163 HD
ATOM     33  O   UNL A   1      32.609  35.855  29.947  1.00  0.00    -0.269 OA
BRANCH  31  34
ATOM     34  C   UNL A   1      34.342  34.271  29.862  1.00  0.00     0.039 A 
ATOM     35  C   UNL A   1      35.619  34.540  29.360  1.00  0.00     0.014 A 
ATOM     36  C   UNL A   1      34.175  33.326  30.879  1.00  0.00     0.014 A 
ATOM     37  C   UNL A   1      36.734  33.907  29.917  1.00  0.00     0.010 A 
ATOM     38  C   UNL A   1      35.292  32.736  31.469  1.00  0.00     0.010 A 
ATOM     39  C   UNL A   1      36.582  33.019  30.994  1.00  0.00    -0.014 A 
BRANCH  39  40
ATOM     40  C   UNL A   1      37.757  32.391  31.649  1.00  0.00     0.031 A 
ATOM     41  C   UNL A   1      38.492  31.263  30.976  1.00  0.00     0.074 A 
ATOM     42  C   UNL A   1      38.101  32.768  32.898  1.00  0.00     0.049 A 
ATOM     43  N   UNL A   1      39.499  30.556  31.421  1.00  0.00    -0.248 NA
ATOM     44  C   UNL A   1      38.020  30.859  29.641  1.00  0.00     0.031 C 
ATOM     45  C   UNL A   1      37.414  33.789  33.692  1.00  0.00     0.029 A 
ATOM     46  N   UNL A   1      39.093  32.312  33.730  1.00  0.00    -0.354 N 
ATOM     47  C   UNL A   1      39.750  29.598  30.446  1.00  0.00     0.074 A 
ATOM     48  C   UNL A   1      38.784  29.805  29.390  1.00  0.00     0.031 C 
ATOM     49  C   UNL A   1      38.000  33.875  34.899  1.00  0.00     0.029 A 
ATOM     50  C   UNL A   1      39.090  32.907  34.971  1.00  0.00     0.049 A 
ATOM     51  H   UNL A   1      39.746  31.624  33.464  1.00  0.00     0.167 HD
ATOM     52  C   UNL A   1      40.717  28.650  30.421  1.00  0.00     0.034 A 
ATOM     53  C   UNL A   1      39.877  32.697  36.045  1.00  0.00     0.034 A 
ATOM     54  C   UNL A   1      41.725  28.496  31.434  1.00  0.00     0.049 A 
ATOM     55  C   UNL A   1      40.992  31.690  35.953  1.00  0.00     0.074 A 
ATOM     56  C   UNL A   1      42.822  27.651  31.432  1.00  0.00     0.029 A 
ATOM     57  N   UNL A   1      41.762  29.198  32.626  1.00  0.00    -0.354 N 
ATOM     58  N   UNL A   1      41.335  30.932  34.941  1.00  0.00    -0.248 NA
ATOM     59  C   UNL A   1      41.852  31.537  37.136  1.00  0.00     0.031 C 
ATOM     60  C   UNL A   1      43.521  27.840  32.630  1.00  0.00     0.029 A 
ATOM     61  C   UNL A   1      42.859  28.804  33.373  1.00  0.00     0.049 A 
ATOM     62  H   UNL A   1      41.107  29.879  32.902  1.00  0.00     0.167 HD
ATOM     63  C   UNL A   1      42.470  30.240  35.352  1.00  0.00     0.074 A 
ATOM     64  C   UNL A   1      42.768  30.683  36.697  1.00  0.00     0.031 C 
ATOM     65  C   UNL A   1      43.187  29.305  34.682  1.00  0.00     0.034 A 
BRANCH  52  66
ATOM     66  C   UNL A   1      40.787  27.744  29.222  1.00  0.00     0.023 A 
ATOM     67  C   UNL A   1      39.895  26.656  29.129  1.00  0.00     0.012 A 
ATOM     68  C   UNL A   1      41.661  28.019  28.152  1.00  0.00     0.148 A 
ATOM     69  C   UNL A   1      39.884  25.845  27.995  1.00  0.00     0.002 A 
ATOM     70  C   UNL A   1      41.619  27.227  27.010  1.00  0.00     0.091 A 
ATOM     71  F   UNL A   1      42.513  29.047  28.271  1.00  0.00    -0.205 F 
ATOM     72  C   UNL A   1      40.737  26.137  26.935  1.00  0.00     0.022 A 
BRANCH  70  73
ATOM     73  S   UNL A   1      42.628  27.558  25.562  1.00  0.00     0.127 S 
ATOM     74  O   UNL A   1      42.350  26.385  24.734  1.00  0.00    -0.237 OA
ATOM     75  O   UNL A   1      42.051  28.806  25.062  1.00  0.00    -0.237 OA
ATOM     76  O   UNL A   1      43.998  27.671  26.043  1.00  0.00    -0.744 OA
ENDBRANCH  70  73
ENDBRANCH  52  66
BRANCH  53  77
ATOM     77  C   UNL A   1      39.693  33.517  37.275  1.00  0.00     0.023 A 
ATOM     78  C   UNL A   1      40.313  34.780  37.356  1.00  0.00     0.012 A 
ATOM     79  C   UNL A   1      38.903  33.072  38.351  1.00  0.00     0.148 A 
ATOM     80  C   UNL A   1      40.172  35.570  38.497  1.00  0.00     0.002 A 
ATOM     81  C   UNL A   1      38.727  33.887  39.466  1.00  0.00     0.091 A 
ATOM     82  F   UNL A   1      38.336  31.859  38.271  1.00  0.00    -0.205 F 
ATOM     83  C   UNL A   1      39.373  35.129  39.548  1.00  0.00     0.022 A 
BRANCH  81  84
ATOM     84  S   UNL A   1      37.601  33.425  40.788  1.00  0.00     0.127 S 
ATOM     85  O   UNL A   1      38.331  32.348  41.447  1.00  0.00    -0.237 OA
ATOM     86  O   UNL A   1      37.498  34.662  41.564  1.00  0.00    -0.237 OA
ATOM     87  O   UNL A   1      36.366  33.051  40.110  1.00  0.00    -0.744 OA
ENDBRANCH  81  84
ENDBRANCH  53  77
BRANCH  65  88
ATOM     88  C   UNL A   1      44.383  28.711  35.372  1.00  0.00     0.023 A 
ATOM     89  C   UNL A   1      45.666  29.228  35.102  1.00  0.00     0.012 A 
ATOM     90  C   UNL A   1      44.233  27.706  36.346  1.00  0.00     0.148 A 
ATOM     91  C   UNL A   1      46.783  28.739  35.776  1.00  0.00     0.002 A 
ATOM     92  C   UNL A   1      45.347  27.251  37.044  1.00  0.00     0.091 A 
ATOM     93  F   UNL A   1      43.008  27.210  36.573  1.00  0.00    -0.205 F 
ATOM     94  C   UNL A   1      46.623  27.760  36.755  1.00  0.00     0.022 A 
BRANCH  92  95
ATOM     95  S   UNL A   1      45.208  26.057  38.379  1.00  0.00     0.127 S 
ATOM     96  O   UNL A   1      44.128  26.627  39.182  1.00  0.00    -0.237 OA
ATOM     97  O   UNL A   1      44.854  24.826  37.669  1.00  0.00    -0.237 OA
ATOM     98  O   UNL A   1      46.520  26.024  39.013  1.00  0.00    -0.744 OA
ENDBRANCH  92  95
ENDBRANCH  65  88
ENDBRANCH  39  40
ENDBRANCH  31  34
ENDBRANCH  29  30
ENDBRANCH  28  29
ENDBRANCH   1  28
TORSDOF 18
ENDMDL
