MODEL 1
REMARK VINA RESULT:     -12.6      0.000      0.000
REMARK SMILES Cc1nn(C(C)C)c(C)c1S(=O)(=O)Nc1cccc(C(=O)NCCCCCCNC(=O)c2ccc(-c3c4nc(c(-c5cccc(S(=O)(=O)[O-])c5F)c5ccc([nH]5)c(-c5cccc(S(=O)(=O)[O-])c5F)c5nc(c(-c6cccc(S(=O)(=O)[O-])c6F)c6ccc3[nH]6)C=C5)C=C4)cc2)c1C
REMARK SMILES IDX 25 1 24 2 23 3 22 4 20 5 21 6 19 8 15 9 16 10 95 11 17 12
REMARK SMILES IDX 96 13 18 14 14 15 11 17 12 18 13 19 10 20 1 21 2 22 3 23
REMARK SMILES IDX 4 24 8 25 9 26 5 27 6 28 7 29 26 30 27 31 28 32 29 33 30 34
REMARK SMILES IDX 31 36 32 37 33 38 94 39 34 40 93 41 35 42 36 43 37 44 87 45
REMARK SMILES IDX 38 46 92 47 86 48 88 49 39 50 91 51 85 52 84 53 40 55 72 56
REMARK SMILES IDX 52 57 71 58 53 59 56 60 70 61 89 62 54 63 55 64 69 66 90 67
REMARK SMILES IDX 57 68 41 69 42 70 50 71 43 72 45 73 51 74 44 75 46 76 47 77
REMARK SMILES IDX 48 78 49 79 73 80 74 81 82 82 75 83 77 84 83 85 76 86 78 87
REMARK SMILES IDX 79 88 80 89 81 90 58 91 59 92 67 93 60 94 62 95 68 96 61 97
REMARK SMILES IDX 63 98 64 99 65 100 66 101
REMARK H PARENT 22 7 14 16 29 35 88 54 56 65
REMARK Flexibility Score: inf
ROOT
ATOM      1  C   UNL A   1      35.968  23.006  26.237  1.00  0.00     0.002 C 
ENDROOT
BRANCH   1   2
ATOM      2  C   UNL A   1      35.774  21.510  25.929  1.00  0.00     0.021 C 
BRANCH   2   3
ATOM      3  C   UNL A   1      35.097  21.207  24.590  1.00  0.00     0.116 C 
BRANCH   3   4
ATOM      4  N   UNL A   1      33.997  20.283  24.772  1.00  0.00    -0.352 N 
ATOM      5  C   UNL A   1      32.638  20.401  24.872  1.00  0.00     0.251 C 
ATOM      6  O   UNL A   1      32.036  19.336  25.010  1.00  0.00    -0.269 OA
ATOM      7  H   UNL A   1      34.299  19.348  24.841  1.00  0.00     0.163 HD
BRANCH   5   8
ATOM      8  C   UNL A   1      31.894  21.701  24.740  1.00  0.00     0.044 A 
ATOM      9  C   UNL A   1      31.440  23.735  23.468  1.00  0.00     0.053 A 
ATOM     10  C   UNL A   1      30.811  24.308  24.570  1.00  0.00     0.027 A 
ATOM     11  C   UNL A   1      31.847  22.378  23.495  1.00  0.00    -0.014 A 
ATOM     12  C   UNL A   1      30.700  23.575  25.749  1.00  0.00     0.003 A 
ATOM     13  C   UNL A   1      32.279  21.727  22.198  1.00  0.00     0.047 C 
ATOM     14  C   UNL A   1      31.253  22.293  25.837  1.00  0.00     0.014 A 
BRANCH   9  15
ATOM     15  N   UNL A   1      31.677  24.444  22.254  1.00  0.00    -0.279 N 
ATOM     16  H   UNL A   1      31.549  23.949  21.413  1.00  0.00     0.180 HD
BRANCH  15  17
ATOM     17  S   UNL A   1      32.152  26.034  22.134  1.00  0.00     0.265 S 
ATOM     18  O   UNL A   1      30.984  26.826  21.807  1.00  0.00    -0.201 OA
ATOM     19  O   UNL A   1      33.283  26.013  21.225  1.00  0.00    -0.201 OA
BRANCH  17  20
ATOM     20  C   UNL A   1      32.788  26.804  23.538  1.00  0.00     0.131 A 
ATOM     21  C   UNL A   1      34.545  25.141  24.634  1.00  0.00     0.070 C 
ATOM     22  C   UNL A   1      33.714  26.359  24.514  1.00  0.00     0.080 A 
ATOM     23  N   UNL A   1      33.837  27.257  25.503  1.00  0.00    -0.176 NA
ATOM     24  N   UNL A   1      33.063  28.289  25.137  1.00  0.00    -0.266 N 
ATOM     25  C   UNL A   1      32.449  28.098  23.930  1.00  0.00     0.056 A 
ATOM     26  C   UNL A   1      31.616  29.133  23.264  1.00  0.00     0.068 C 
BRANCH  24  27
ATOM     27  C   UNL A   1      32.968  29.449  26.023  1.00  0.00     0.101 C 
ATOM     28  C   UNL A   1      31.789  29.308  26.986  1.00  0.00     0.033 C 
ATOM     29  C   UNL A   1      34.276  29.695  26.777  1.00  0.00     0.033 C 
ENDBRANCH  24  27
ENDBRANCH  17  20
ENDBRANCH  15  17
ENDBRANCH   9  15
ENDBRANCH   5   8
ENDBRANCH   3   4
ENDBRANCH   2   3
ENDBRANCH   1   2
BRANCH   1  30
ATOM     30  C   UNL A   1      37.403  23.553  26.164  1.00  0.00     0.002 C 
BRANCH  30  31
ATOM     31  C   UNL A   1      38.448  22.653  25.503  1.00  0.00     0.021 C 
BRANCH  31  32
ATOM     32  C   UNL A   1      39.385  21.950  26.476  1.00  0.00     0.116 C 
BRANCH  32  33
ATOM     33  N   UNL A   1      40.788  22.268  26.275  1.00  0.00    -0.352 N 
ATOM     34  C   UNL A   1      41.416  23.497  26.283  1.00  0.00     0.251 C 
ATOM     35  H   UNL A   1      41.375  21.495  26.110  1.00  0.00     0.163 HD
ATOM     36  O   UNL A   1      42.593  23.560  25.925  1.00  0.00    -0.269 OA
BRANCH  34  37
ATOM     37  C   UNL A   1      40.721  24.687  26.834  1.00  0.00     0.039 A 
ATOM     38  C   UNL A   1      40.869  25.905  26.157  1.00  0.00     0.014 A 
ATOM     39  C   UNL A   1      40.113  24.661  28.088  1.00  0.00     0.014 A 
ATOM     40  C   UNL A   1      40.655  27.104  26.834  1.00  0.00     0.010 A 
ATOM     41  C   UNL A   1      39.973  25.840  28.788  1.00  0.00     0.010 A 
ATOM     42  C   UNL A   1      40.323  27.051  28.184  1.00  0.00    -0.014 A 
BRANCH  42  43
ATOM     43  C   UNL A   1      40.417  28.179  29.098  1.00  0.00     0.031 A 
ATOM     44  C   UNL A   1      39.523  29.337  28.967  1.00  0.00     0.074 A 
ATOM     45  C   UNL A   1      41.232  28.056  30.167  1.00  0.00     0.049 A 
ATOM     46  N   UNL A   1      39.710  30.468  29.556  1.00  0.00    -0.248 NA
ATOM     47  C   UNL A   1      38.349  29.308  28.111  1.00  0.00     0.031 C 
ATOM     48  C   UNL A   1      41.228  28.843  31.394  1.00  0.00     0.029 A 
ATOM     49  N   UNL A   1      42.415  27.314  30.240  1.00  0.00    -0.354 N 
ATOM     50  C   UNL A   1      38.553  31.204  29.407  1.00  0.00     0.074 A 
ATOM     51  C   UNL A   1      37.794  30.486  28.410  1.00  0.00     0.031 C 
ATOM     52  C   UNL A   1      42.449  28.775  31.947  1.00  0.00     0.029 A 
ATOM     53  C   UNL A   1      43.307  28.099  30.988  1.00  0.00     0.049 A 
ATOM     54  H   UNL A   1      42.586  26.426  29.850  1.00  0.00     0.167 HD
ATOM     55  C   UNL A   1      38.321  32.236  30.269  1.00  0.00     0.034 A 
ATOM     56  C   UNL A   1      44.475  28.594  30.482  1.00  0.00     0.034 A 
ATOM     57  C   UNL A   1      39.511  32.505  31.096  1.00  0.00     0.049 A 
ATOM     58  C   UNL A   1      44.588  30.104  30.596  1.00  0.00     0.074 A 
ATOM     59  C   UNL A   1      39.859  32.187  32.400  1.00  0.00     0.029 A 
ATOM     60  N   UNL A   1      40.672  32.970  30.488  1.00  0.00    -0.354 N 
ATOM     61  N   UNL A   1      43.612  30.897  30.944  1.00  0.00    -0.248 NA
ATOM     62  C   UNL A   1      45.812  30.840  30.295  1.00  0.00     0.031 C 
ATOM     63  C   UNL A   1      41.260  32.387  32.545  1.00  0.00     0.029 A 
ATOM     64  C   UNL A   1      41.760  32.855  31.341  1.00  0.00     0.049 A 
ATOM     65  H   UNL A   1      40.717  33.332  29.574  1.00  0.00     0.167 HD
ATOM     66  C   UNL A   1      43.996  32.207  30.793  1.00  0.00     0.074 A 
ATOM     67  C   UNL A   1      45.410  32.111  30.471  1.00  0.00     0.031 C 
ATOM     68  C   UNL A   1      43.095  33.239  30.884  1.00  0.00     0.034 A 
BRANCH  55  69
ATOM     69  C   UNL A   1      36.944  32.807  30.602  1.00  0.00     0.023 A 
ATOM     70  C   UNL A   1      36.374  32.441  31.845  1.00  0.00     0.012 A 
ATOM     71  C   UNL A   1      36.115  33.593  29.767  1.00  0.00     0.148 A 
ATOM     72  C   UNL A   1      35.047  32.732  32.187  1.00  0.00     0.002 A 
ATOM     73  C   UNL A   1      34.773  33.837  30.078  1.00  0.00     0.091 A 
ATOM     74  F   UNL A   1      36.625  34.190  28.692  1.00  0.00    -0.205 F 
ATOM     75  C   UNL A   1      34.233  33.401  31.287  1.00  0.00     0.022 A 
BRANCH  73  76
ATOM     76  S   UNL A   1      33.650  34.650  28.924  1.00  0.00     0.127 S 
ATOM     77  O   UNL A   1      33.370  33.581  27.963  1.00  0.00    -0.237 OA
ATOM     78  O   UNL A   1      32.521  35.005  29.783  1.00  0.00    -0.237 OA
ATOM     79  O   UNL A   1      34.385  35.777  28.360  1.00  0.00    -0.744 OA
ENDBRANCH  73  76
ENDBRANCH  55  69
BRANCH  56  80
ATOM     80  C   UNL A   1      45.049  27.772  29.373  1.00  0.00     0.023 A 
ATOM     81  C   UNL A   1      45.497  26.468  29.700  1.00  0.00     0.012 A 
ATOM     82  C   UNL A   1      44.813  28.082  28.023  1.00  0.00     0.148 A 
ATOM     83  C   UNL A   1      45.563  25.465  28.732  1.00  0.00     0.002 A 
ATOM     84  C   UNL A   1      44.897  27.077  27.058  1.00  0.00     0.091 A 
ATOM     85  F   UNL A   1      44.440  29.328  27.703  1.00  0.00    -0.205 F 
ATOM     86  C   UNL A   1      45.228  25.761  27.416  1.00  0.00     0.022 A 
BRANCH  84  87
ATOM     87  S   UNL A   1      44.461  27.401  25.343  1.00  0.00     0.127 S 
ATOM     88  O   UNL A   1      45.695  27.995  24.836  1.00  0.00    -0.237 OA
ATOM     89  O   UNL A   1      44.166  26.064  24.829  1.00  0.00    -0.237 OA
ATOM     90  O   UNL A   1      43.301  28.276  25.421  1.00  0.00    -0.744 OA
ENDBRANCH  84  87
ENDBRANCH  56  80
BRANCH  68  91
ATOM     91  C   UNL A   1      43.353  34.702  30.529  1.00  0.00     0.023 A 
ATOM     92  C   UNL A   1      43.742  35.664  31.481  1.00  0.00     0.012 A 
ATOM     93  C   UNL A   1      43.336  35.141  29.175  1.00  0.00     0.148 A 
ATOM     94  C   UNL A   1      44.047  36.986  31.132  1.00  0.00     0.002 A 
ATOM     95  C   UNL A   1      43.748  36.425  28.820  1.00  0.00     0.091 A 
ATOM     96  F   UNL A   1      42.893  34.323  28.210  1.00  0.00    -0.205 F 
ATOM     97  C   UNL A   1      44.076  37.362  29.799  1.00  0.00     0.022 A 
BRANCH  95  98
ATOM     98  S   UNL A   1      44.017  36.870  27.097  1.00  0.00     0.127 S 
ATOM     99  O   UNL A   1      42.660  36.836  26.557  1.00  0.00    -0.237 OA
ATOM    100  O   UNL A   1      44.596  38.211  27.203  1.00  0.00    -0.237 OA
ATOM    101  O   UNL A   1      44.941  35.865  26.589  1.00  0.00    -0.744 OA
ENDBRANCH  95  98
ENDBRANCH  68  91
ENDBRANCH  42  43
ENDBRANCH  34  37
ENDBRANCH  32  33
ENDBRANCH  31  32
ENDBRANCH  30  31
ENDBRANCH   1  30
TORSDOF 20
ENDMDL
MODEL 2
REMARK VINA RESULT:     -12.4      1.637      2.377
REMARK SMILES Cc1nn(C(C)C)c(C)c1S(=O)(=O)Nc1cccc(C(=O)NCCCCCCNC(=O)c2ccc(-c3c4nc(c(-c5cccc(S(=O)(=O)[O-])c5F)c5ccc([nH]5)c(-c5cccc(S(=O)(=O)[O-])c5F)c5nc(c(-c6cccc(S(=O)(=O)[O-])c6F)c6ccc3[nH]6)C=C5)C=C4)cc2)c1C
REMARK SMILES IDX 25 1 24 2 23 3 22 4 20 5 21 6 19 8 15 9 16 10 95 11 17 12
REMARK SMILES IDX 96 13 18 14 14 15 11 17 12 18 13 19 10 20 1 21 2 22 3 23
REMARK SMILES IDX 4 24 8 25 9 26 5 27 6 28 7 29 26 30 27 31 28 32 29 33 30 34
REMARK SMILES IDX 31 36 32 37 33 38 94 39 34 40 93 41 35 42 36 43 37 44 87 45
REMARK SMILES IDX 38 46 92 47 86 48 88 49 39 50 91 51 85 52 84 53 40 55 72 56
REMARK SMILES IDX 52 57 71 58 53 59 56 60 70 61 89 62 54 63 55 64 69 66 90 67
REMARK SMILES IDX 57 68 41 69 42 70 50 71 43 72 45 73 51 74 44 75 46 76 47 77
REMARK SMILES IDX 48 78 49 79 73 80 74 81 82 82 75 83 77 84 83 85 76 86 78 87
REMARK SMILES IDX 79 88 80 89 81 90 58 91 59 92 67 93 60 94 62 95 68 96 61 97
REMARK SMILES IDX 63 98 64 99 65 100 66 101
REMARK H PARENT 22 7 14 16 29 35 88 54 56 65
REMARK Flexibility Score: inf
ROOT
ATOM      1  C   UNL A   1      36.026  22.972  25.609  1.00  0.00     0.002 C 
ENDROOT
BRANCH   1   2
ATOM      2  C   UNL A   1      35.716  21.554  26.120  1.00  0.00     0.021 C 
BRANCH   2   3
ATOM      3  C   UNL A   1      35.259  20.565  25.046  1.00  0.00     0.116 C 
BRANCH   3   4
ATOM      4  N   UNL A   1      33.833  20.331  25.142  1.00  0.00    -0.352 N 
ATOM      5  C   UNL A   1      32.710  21.039  24.813  1.00  0.00     0.251 C 
ATOM      6  O   UNL A   1      31.648  20.463  25.048  1.00  0.00    -0.269 OA
ATOM      7  H   UNL A   1      33.621  19.455  25.539  1.00  0.00     0.163 HD
BRANCH   5   8
ATOM      8  C   UNL A   1      32.730  22.382  24.136  1.00  0.00     0.044 A 
ATOM      9  C   UNL A   1      32.148  24.754  24.169  1.00  0.00     0.053 A 
ATOM     10  C   UNL A   1      32.412  24.857  22.805  1.00  0.00     0.027 A 
ATOM     11  C   UNL A   1      32.451  23.562  24.873  1.00  0.00    -0.014 A 
ATOM     12  C   UNL A   1      32.857  23.736  22.110  1.00  0.00     0.003 A 
ATOM     13  C   UNL A   1      32.398  23.583  26.385  1.00  0.00     0.047 C 
ATOM     14  C   UNL A   1      32.996  22.508  22.766  1.00  0.00     0.014 A 
BRANCH   9  15
ATOM     15  N   UNL A   1      31.605  25.824  24.938  1.00  0.00    -0.279 N 
ATOM     16  H   UNL A   1      30.734  25.669  25.370  1.00  0.00     0.180 HD
BRANCH  15  17
ATOM     17  S   UNL A   1      32.314  27.311  25.170  1.00  0.00     0.265 S 
ATOM     18  O   UNL A   1      33.490  27.382  24.327  1.00  0.00    -0.201 OA
ATOM     19  O   UNL A   1      32.453  27.433  26.610  1.00  0.00    -0.201 OA
BRANCH  17  20
ATOM     20  C   UNL A   1      31.418  28.719  24.741  1.00  0.00     0.131 A 
ATOM     21  C   UNL A   1      32.103  30.648  26.434  1.00  0.00     0.070 C 
ATOM     22  C   UNL A   1      31.357  30.007  25.327  1.00  0.00     0.080 A 
ATOM     23  N   UNL A   1      30.434  30.767  24.721  1.00  0.00    -0.176 NA
ATOM     24  N   UNL A   1      29.960  30.011  23.720  1.00  0.00    -0.266 N 
ATOM     25  C   UNL A   1      30.558  28.783  23.647  1.00  0.00     0.056 A 
ATOM     26  C   UNL A   1      30.274  27.800  22.569  1.00  0.00     0.068 C 
BRANCH  24  27
ATOM     27  C   UNL A   1      28.911  30.556  22.859  1.00  0.00     0.101 C 
ATOM     28  C   UNL A   1      27.591  29.813  23.067  1.00  0.00     0.033 C 
ATOM     29  C   UNL A   1      28.738  32.062  23.060  1.00  0.00     0.033 C 
ENDBRANCH  24  27
ENDBRANCH  17  20
ENDBRANCH  15  17
ENDBRANCH   9  15
ENDBRANCH   5   8
ENDBRANCH   3   4
ENDBRANCH   2   3
ENDBRANCH   1   2
BRANCH   1  30
ATOM     30  C   UNL A   1      37.487  23.443  25.697  1.00  0.00     0.002 C 
BRANCH  30  31
ATOM     31  C   UNL A   1      38.565  22.384  25.460  1.00  0.00     0.021 C 
BRANCH  31  32
ATOM     32  C   UNL A   1      39.409  22.055  26.684  1.00  0.00     0.116 C 
BRANCH  32  33
ATOM     33  N   UNL A   1      40.816  22.381  26.532  1.00  0.00    -0.352 N 
ATOM     34  C   UNL A   1      41.427  23.619  26.488  1.00  0.00     0.251 C 
ATOM     35  H   UNL A   1      41.421  21.609  26.450  1.00  0.00     0.163 HD
ATOM     36  O   UNL A   1      42.620  23.676  26.186  1.00  0.00    -0.269 OA
BRANCH  34  37
ATOM     37  C   UNL A   1      40.689  24.832  26.920  1.00  0.00     0.039 A 
ATOM     38  C   UNL A   1      40.923  26.025  26.223  1.00  0.00     0.014 A 
ATOM     39  C   UNL A   1      39.950  24.852  28.102  1.00  0.00     0.014 A 
ATOM     40  C   UNL A   1      40.650  27.247  26.834  1.00  0.00     0.010 A 
ATOM     41  C   UNL A   1      39.748  26.056  28.743  1.00  0.00     0.010 A 
ATOM     42  C   UNL A   1      40.173  27.243  28.141  1.00  0.00    -0.014 A 
BRANCH  42  43
ATOM     43  C   UNL A   1      40.181  28.401  29.021  1.00  0.00     0.031 A 
ATOM     44  C   UNL A   1      39.314  29.558  28.760  1.00  0.00     0.074 A 
ATOM     45  C   UNL A   1      40.879  28.310  30.174  1.00  0.00     0.049 A 
ATOM     46  N   UNL A   1      39.447  30.707  29.327  1.00  0.00    -0.248 NA
ATOM     47  C   UNL A   1      38.235  29.505  27.786  1.00  0.00     0.031 C 
ATOM     48  C   UNL A   1      40.752  29.139  31.366  1.00  0.00     0.029 A 
ATOM     49  N   UNL A   1      42.041  27.566  30.394  1.00  0.00    -0.354 N 
ATOM     50  C   UNL A   1      38.318  31.443  29.033  1.00  0.00     0.074 A 
ATOM     51  C   UNL A   1      37.662  30.694  27.987  1.00  0.00     0.031 C 
ATOM     52  C   UNL A   1      41.909  29.084  32.046  1.00  0.00     0.029 A 
ATOM     53  C   UNL A   1      42.857  28.372  31.205  1.00  0.00     0.049 A 
ATOM     54  H   UNL A   1      42.245  26.665  30.054  1.00  0.00     0.167 HD
ATOM     55  C   UNL A   1      38.005  32.504  29.832  1.00  0.00     0.034 A 
ATOM     56  C   UNL A   1      44.075  28.845  30.807  1.00  0.00     0.034 A 
ATOM     57  C   UNL A   1      39.104  32.795  30.770  1.00  0.00     0.049 A 
ATOM     58  C   UNL A   1      44.187  30.358  30.883  1.00  0.00     0.074 A 
ATOM     59  C   UNL A   1      39.312  32.520  32.112  1.00  0.00     0.029 A 
ATOM     60  N   UNL A   1      40.327  33.235  30.271  1.00  0.00    -0.354 N 
ATOM     61  N   UNL A   1      43.187  31.166  31.101  1.00  0.00    -0.248 NA
ATOM     62  C   UNL A   1      45.442  31.077  30.687  1.00  0.00     0.031 C 
ATOM     63  C   UNL A   1      40.692  32.719  32.396  1.00  0.00     0.029 A 
ATOM     64  C   UNL A   1      41.318  33.145  31.236  1.00  0.00     0.049 A 
ATOM     65  H   UNL A   1      40.469  33.565  29.355  1.00  0.00     0.167 HD
ATOM     66  C   UNL A   1      43.594  32.469  30.947  1.00  0.00     0.074 A 
ATOM     67  C   UNL A   1      45.033  32.356  30.778  1.00  0.00     0.031 C 
ATOM     68  C   UNL A   1      42.696  33.507  30.909  1.00  0.00     0.034 A 
BRANCH  55  69
ATOM     69  C   UNL A   1      36.605  33.092  30.001  1.00  0.00     0.023 A 
ATOM     70  C   UNL A   1      36.036  33.741  28.879  1.00  0.00     0.012 A 
ATOM     71  C   UNL A   1      35.836  33.150  31.186  1.00  0.00     0.148 A 
ATOM     72  C   UNL A   1      34.853  34.487  28.954  1.00  0.00     0.002 A 
ATOM     73  C   UNL A   1      34.684  33.940  31.281  1.00  0.00     0.091 A 
ATOM     74  F   UNL A   1      36.151  32.381  32.226  1.00  0.00    -0.205 F 
ATOM     75  C   UNL A   1      34.193  34.617  30.166  1.00  0.00     0.022 A 
BRANCH  73  76
ATOM     76  S   UNL A   1      33.817  34.195  32.842  1.00  0.00     0.127 S 
ATOM     77  O   UNL A   1      34.879  34.720  33.702  1.00  0.00    -0.237 OA
ATOM     78  O   UNL A   1      32.793  35.172  32.475  1.00  0.00    -0.237 OA
ATOM     79  O   UNL A   1      33.315  32.888  33.251  1.00  0.00    -0.744 OA
ENDBRANCH  73  76
ENDBRANCH  55  69
BRANCH  56  80
ATOM     80  C   UNL A   1      44.756  27.983  29.792  1.00  0.00     0.023 A 
ATOM     81  C   UNL A   1      44.980  26.628  30.142  1.00  0.00     0.012 A 
ATOM     82  C   UNL A   1      44.821  28.349  28.437  1.00  0.00     0.148 A 
ATOM     83  C   UNL A   1      45.117  25.645  29.160  1.00  0.00     0.002 A 
ATOM     84  C   UNL A   1      44.975  27.361  27.462  1.00  0.00     0.091 A 
ATOM     85  F   UNL A   1      44.661  29.636  28.107  1.00  0.00    -0.205 F 
ATOM     86  C   UNL A   1      45.080  26.008  27.819  1.00  0.00     0.022 A 
BRANCH  84  87
ATOM     87  S   UNL A   1      44.919  27.771  25.712  1.00  0.00     0.127 S 
ATOM     88  O   UNL A   1      45.269  26.492  25.101  1.00  0.00    -0.237 OA
ATOM     89  O   UNL A   1      43.528  28.183  25.523  1.00  0.00    -0.237 OA
ATOM     90  O   UNL A   1      45.882  28.852  25.560  1.00  0.00    -0.744 OA
ENDBRANCH  84  87
ENDBRANCH  56  80
BRANCH  68  91
ATOM     91  C   UNL A   1      43.002  34.956  30.535  1.00  0.00     0.023 A 
ATOM     92  C   UNL A   1      43.376  35.929  31.481  1.00  0.00     0.012 A 
ATOM     93  C   UNL A   1      43.046  35.366  29.173  1.00  0.00     0.148 A 
ATOM     94  C   UNL A   1      43.725  37.237  31.117  1.00  0.00     0.002 A 
ATOM     95  C   UNL A   1      43.502  36.634  28.808  1.00  0.00     0.091 A 
ATOM     96  F   UNL A   1      42.622  34.538  28.208  1.00  0.00    -0.205 F 
ATOM     97  C   UNL A   1      43.813  37.583  29.780  1.00  0.00     0.022 A 
BRANCH  95  98
ATOM     98  S   UNL A   1      43.846  37.035  27.088  1.00  0.00     0.127 S 
ATOM     99  O   UNL A   1      44.850  36.034  26.735  1.00  0.00    -0.237 OA
ATOM    100  O   UNL A   1      42.543  36.840  26.450  1.00  0.00    -0.237 OA
ATOM    101  O   UNL A   1      44.294  38.421  27.108  1.00  0.00    -0.744 OA
ENDBRANCH  95  98
ENDBRANCH  68  91
ENDBRANCH  42  43
ENDBRANCH  34  37
ENDBRANCH  32  33
ENDBRANCH  31  32
ENDBRANCH  30  31
ENDBRANCH   1  30
TORSDOF 20
ENDMDL
MODEL 3
REMARK VINA RESULT:     -11.7      3.506      4.749
REMARK SMILES Cc1nn(C(C)C)c(C)c1S(=O)(=O)Nc1cccc(C(=O)NCCCCCCNC(=O)c2ccc(-c3c4nc(c(-c5cccc(S(=O)(=O)[O-])c5F)c5ccc([nH]5)c(-c5cccc(S(=O)(=O)[O-])c5F)c5nc(c(-c6cccc(S(=O)(=O)[O-])c6F)c6ccc3[nH]6)C=C5)C=C4)cc2)c1C
REMARK SMILES IDX 25 1 24 2 23 3 22 4 20 5 21 6 19 8 15 9 16 10 95 11 17 12
REMARK SMILES IDX 96 13 18 14 14 15 11 17 12 18 13 19 10 20 1 21 2 22 3 23
REMARK SMILES IDX 4 24 8 25 9 26 5 27 6 28 7 29 26 30 27 31 28 32 29 33 30 34
REMARK SMILES IDX 31 36 32 37 33 38 94 39 34 40 93 41 35 42 36 43 37 44 87 45
REMARK SMILES IDX 38 46 92 47 86 48 88 49 39 50 91 51 85 52 84 53 40 55 72 56
REMARK SMILES IDX 52 57 71 58 53 59 56 60 70 61 89 62 54 63 55 64 69 66 90 67
REMARK SMILES IDX 57 68 41 69 42 70 50 71 43 72 45 73 51 74 44 75 46 76 47 77
REMARK SMILES IDX 48 78 49 79 73 80 74 81 82 82 75 83 77 84 83 85 76 86 78 87
REMARK SMILES IDX 79 88 80 89 81 90 58 91 59 92 67 93 60 94 62 95 68 96 61 97
REMARK SMILES IDX 63 98 64 99 65 100 66 101
REMARK H PARENT 22 7 14 16 29 35 88 54 56 65
REMARK Flexibility Score: inf
ROOT
ATOM      1  C   UNL A   1      38.720  21.677  25.702  1.00  0.00     0.002 C 
ENDROOT
BRANCH   1   2
ATOM      2  C   UNL A   1      37.579  20.953  24.967  1.00  0.00     0.021 C 
BRANCH   2   3
ATOM      3  C   UNL A   1      36.169  21.364  25.398  1.00  0.00     0.116 C 
BRANCH   3   4
ATOM      4  N   UNL A   1      35.268  20.231  25.346  1.00  0.00    -0.352 N 
ATOM      5  C   UNL A   1      33.957  20.050  25.000  1.00  0.00     0.251 C 
ATOM      6  O   UNL A   1      33.557  18.888  25.080  1.00  0.00    -0.269 OA
ATOM      7  H   UNL A   1      35.701  19.393  25.627  1.00  0.00     0.163 HD
BRANCH   5   8
ATOM      8  C   UNL A   1      33.066  21.142  24.474  1.00  0.00     0.044 A 
ATOM      9  C   UNL A   1      31.305  22.785  24.878  1.00  0.00     0.053 A 
ATOM     10  C   UNL A   1      31.121  22.953  23.508  1.00  0.00     0.027 A 
ATOM     11  C   UNL A   1      32.377  21.999  25.370  1.00  0.00    -0.014 A 
ATOM     12  C   UNL A   1      31.921  22.239  22.620  1.00  0.00     0.003 A 
ATOM     13  C   UNL A   1      32.698  22.059  26.848  1.00  0.00     0.047 C 
ATOM     14  C   UNL A   1      32.869  21.329  23.099  1.00  0.00     0.014 A 
BRANCH   9  15
ATOM     15  N   UNL A   1      30.474  23.406  25.856  1.00  0.00    -0.279 N 
ATOM     16  H   UNL A   1      29.879  22.819  26.377  1.00  0.00     0.180 HD
BRANCH  15  17
ATOM     17  S   UNL A   1      30.420  25.035  26.192  1.00  0.00     0.265 S 
ATOM     18  O   UNL A   1      31.491  25.335  27.121  1.00  0.00    -0.201 OA
ATOM     19  O   UNL A   1      29.044  25.286  26.576  1.00  0.00    -0.201 OA
BRANCH  17  20
ATOM     20  C   UNL A   1      30.678  26.144  24.900  1.00  0.00     0.131 A 
ATOM     21  C   UNL A   1      28.301  26.754  23.884  1.00  0.00     0.070 C 
ATOM     22  C   UNL A   1      29.777  26.754  23.992  1.00  0.00     0.080 A 
ATOM     23  N   UNL A   1      30.435  27.472  23.071  1.00  0.00    -0.176 NA
ATOM     24  N   UNL A   1      31.728  27.386  23.418  1.00  0.00    -0.266 N 
ATOM     25  C   UNL A   1      31.931  26.644  24.549  1.00  0.00     0.056 A 
ATOM     26  C   UNL A   1      33.262  26.479  25.188  1.00  0.00     0.068 C 
BRANCH  24  27
ATOM     27  C   UNL A   1      32.727  28.064  22.592  1.00  0.00     0.101 C 
ATOM     28  C   UNL A   1      33.551  29.044  23.425  1.00  0.00     0.033 C 
ATOM     29  C   UNL A   1      33.624  27.068  21.856  1.00  0.00     0.033 C 
ENDBRANCH  24  27
ENDBRANCH  17  20
ENDBRANCH  15  17
ENDBRANCH   9  15
ENDBRANCH   5   8
ENDBRANCH   3   4
ENDBRANCH   2   3
ENDBRANCH   1   2
BRANCH   1  30
ATOM     30  C   UNL A   1      39.950  20.836  26.082  1.00  0.00     0.002 C 
BRANCH  30  31
ATOM     31  C   UNL A   1      40.830  21.377  27.210  1.00  0.00     0.021 C 
BRANCH  31  32
ATOM     32  C   UNL A   1      42.053  20.525  27.522  1.00  0.00     0.116 C 
BRANCH  32  33
ATOM     33  N   UNL A   1      42.697  19.968  26.346  1.00  0.00    -0.352 N 
ATOM     34  C   UNL A   1      43.482  20.595  25.399  1.00  0.00     0.251 C 
ATOM     35  H   UNL A   1      42.554  19.004  26.204  1.00  0.00     0.163 HD
ATOM     36  O   UNL A   1      43.795  19.970  24.385  1.00  0.00    -0.269 OA
BRANCH  34  37
ATOM     37  C   UNL A   1      44.037  21.946  25.664  1.00  0.00     0.039 A 
ATOM     38  C   UNL A   1      44.864  22.107  26.784  1.00  0.00     0.014 A 
ATOM     39  C   UNL A   1      43.594  23.066  24.962  1.00  0.00     0.014 A 
ATOM     40  C   UNL A   1      45.029  23.371  27.346  1.00  0.00     0.010 A 
ATOM     41  C   UNL A   1      43.689  24.307  25.555  1.00  0.00     0.010 A 
ATOM     42  C   UNL A   1      44.336  24.440  26.786  1.00  0.00    -0.014 A 
BRANCH  42  43
ATOM     43  C   UNL A   1      44.119  25.716  27.450  1.00  0.00     0.031 A 
ATOM     44  C   UNL A   1      42.818  26.394  27.384  1.00  0.00     0.074 A 
ATOM     45  C   UNL A   1      45.093  26.173  28.268  1.00  0.00     0.049 A 
ATOM     46  N   UNL A   1      42.623  27.624  27.715  1.00  0.00    -0.248 NA
ATOM     47  C   UNL A   1      41.627  25.723  26.890  1.00  0.00     0.031 C 
ATOM     48  C   UNL A   1      44.986  27.186  29.310  1.00  0.00     0.029 A 
ATOM     49  N   UNL A   1      46.468  25.959  28.136  1.00  0.00    -0.354 N 
ATOM     50  C   UNL A   1      41.259  27.823  27.768  1.00  0.00     0.074 A 
ATOM     51  C   UNL A   1      40.698  26.651  27.138  1.00  0.00     0.031 C 
ATOM     52  C   UNL A   1      46.204  27.711  29.519  1.00  0.00     0.029 A 
ATOM     53  C   UNL A   1      47.074  27.177  28.483  1.00  0.00     0.049 A 
ATOM     54  H   UNL A   1      46.917  25.127  27.859  1.00  0.00     0.167 HD
ATOM     55  C   UNL A   1      40.782  28.880  28.487  1.00  0.00     0.034 A 
ATOM     56  C   UNL A   1      47.817  27.920  27.611  1.00  0.00     0.034 A 
ATOM     57  C   UNL A   1      41.882  29.764  28.911  1.00  0.00     0.049 A 
ATOM     58  C   UNL A   1      47.311  29.343  27.451  1.00  0.00     0.074 A 
ATOM     59  C   UNL A   1      42.563  29.935  30.107  1.00  0.00     0.029 A 
ATOM     60  N   UNL A   1      42.613  30.452  27.948  1.00  0.00    -0.354 N 
ATOM     61  N   UNL A   1      46.177  29.785  27.919  1.00  0.00    -0.248 NA
ATOM     62  C   UNL A   1      48.042  30.374  26.720  1.00  0.00     0.031 C 
ATOM     63  C   UNL A   1      43.755  30.663  29.837  1.00  0.00     0.029 A 
ATOM     64  C   UNL A   1      43.785  30.962  28.484  1.00  0.00     0.049 A 
ATOM     65  H   UNL A   1      42.335  30.563  27.010  1.00  0.00     0.167 HD
ATOM     66  C   UNL A   1      45.947  31.061  27.465  1.00  0.00     0.074 A 
ATOM     67  C   UNL A   1      47.188  31.410  26.795  1.00  0.00     0.031 C 
ATOM     68  C   UNL A   1      44.732  31.679  27.631  1.00  0.00     0.034 A 
BRANCH  55  69
ATOM     69  C   UNL A   1      39.378  28.972  29.084  1.00  0.00     0.023 A 
ATOM     70  C   UNL A   1      38.295  29.076  28.179  1.00  0.00     0.012 A 
ATOM     71  C   UNL A   1      39.032  29.063  30.452  1.00  0.00     0.148 A 
ATOM     72  C   UNL A   1      36.987  29.362  28.590  1.00  0.00     0.002 A 
ATOM     73  C   UNL A   1      37.739  29.405  30.865  1.00  0.00     0.091 A 
ATOM     74  F   UNL A   1      39.921  28.743  31.390  1.00  0.00    -0.205 F 
ATOM     75  C   UNL A   1      36.714  29.562  29.934  1.00  0.00     0.022 A 
BRANCH  73  76
ATOM     76  S   UNL A   1      37.335  29.736  32.592  1.00  0.00     0.127 S 
ATOM     77  O   UNL A   1      36.045  30.420  32.480  1.00  0.00    -0.237 OA
ATOM     78  O   UNL A   1      37.262  28.391  33.160  1.00  0.00    -0.237 OA
ATOM     79  O   UNL A   1      38.408  30.577  33.111  1.00  0.00    -0.744 OA
ENDBRANCH  73  76
ENDBRANCH  55  69
BRANCH  56  80
ATOM     80  C   UNL A   1      48.467  27.113  26.532  1.00  0.00     0.023 A 
ATOM     81  C   UNL A   1      47.874  27.159  25.245  1.00  0.00     0.012 A 
ATOM     82  C   UNL A   1      49.790  26.655  26.647  1.00  0.00     0.148 A 
ATOM     83  C   UNL A   1      48.624  26.897  24.098  1.00  0.00     0.002 A 
ATOM     84  C   UNL A   1      50.529  26.380  25.495  1.00  0.00     0.091 A 
ATOM     85  F   UNL A   1      50.336  26.561  27.866  1.00  0.00    -0.205 F 
ATOM     86  C   UNL A   1      49.962  26.541  24.221  1.00  0.00     0.022 A 
BRANCH  84  87
ATOM     87  S   UNL A   1      52.267  25.930  25.595  1.00  0.00     0.127 S 
ATOM     88  O   UNL A   1      52.735  26.807  26.663  1.00  0.00    -0.237 OA
ATOM     89  O   UNL A   1      52.211  24.511  25.945  1.00  0.00    -0.237 OA
ATOM     90  O   UNL A   1      52.788  26.191  24.261  1.00  0.00    -0.744 OA
ENDBRANCH  84  87
ENDBRANCH  56  80
BRANCH  68  91
ATOM     91  C   UNL A   1      44.290  32.995  26.994  1.00  0.00     0.023 A 
ATOM     92  C   UNL A   1      44.122  33.155  25.605  1.00  0.00     0.012 A 
ATOM     93  C   UNL A   1      43.899  34.102  27.798  1.00  0.00     0.148 A 
ATOM     94  C   UNL A   1      43.645  34.344  25.038  1.00  0.00     0.002 A 
ATOM     95  C   UNL A   1      43.321  35.242  27.237  1.00  0.00     0.091 A 
ATOM     96  F   UNL A   1      44.106  34.077  29.122  1.00  0.00    -0.205 F 
ATOM     97  C   UNL A   1      43.221  35.380  25.854  1.00  0.00     0.022 A 
BRANCH  95  98
ATOM     98  S   UNL A   1      42.553  36.496  28.273  1.00  0.00     0.127 S 
ATOM     99  O   UNL A   1      41.642  35.701  29.093  1.00  0.00    -0.237 OA
ATOM    100  O   UNL A   1      43.697  37.052  29.000  1.00  0.00    -0.237 OA
ATOM    101  O   UNL A   1      41.936  37.429  27.340  1.00  0.00    -0.744 OA
ENDBRANCH  95  98
ENDBRANCH  68  91
ENDBRANCH  42  43
ENDBRANCH  34  37
ENDBRANCH  32  33
ENDBRANCH  31  32
ENDBRANCH  30  31
ENDBRANCH   1  30
TORSDOF 20
ENDMDL
