MODEL 1
REMARK VINA RESULT:      -8.6      0.000      0.000
REMARK SMILES O=C(CSc1ccnc(C(=O)NCCCCCCNC(=O)c2ccc(-c3c4nc(c(-c5cccc(S(=O)(=O)[O-])c5F)c5ccc([nH]5)c(-c5cccc(S(=O)(=O)[O-])c5F)c5nc(c(-c6cccc(S(=O)(=O)[O-])c6F)c6ccc3[nH]6)C=C5)C=C4)cc2)c1)NCC(F)(F)F
REMARK SMILES IDX 14 1 13 2 12 3 10 4 11 5 9 7 5 8 6 9 85 10 7 11 8 12 4 13
REMARK SMILES IDX 3 14 2 15 1 16 86 17 87 19 88 20 89 21 90 22 91 23 15 24
REMARK SMILES IDX 16 25 17 26 18 27 19 28 20 29 21 31 22 32 23 33 84 34 24 35
REMARK SMILES IDX 83 36 25 37 26 38 27 39 77 40 28 41 82 42 76 43 78 44 29 45
REMARK SMILES IDX 81 46 75 47 74 48 30 50 62 51 42 52 61 53 43 54 46 55 60 56
REMARK SMILES IDX 79 57 44 58 45 59 59 61 80 62 47 63 31 64 32 65 40 66 33 67
REMARK SMILES IDX 35 68 41 69 34 70 36 71 37 72 38 73 39 74 63 75 64 76 72 77
REMARK SMILES IDX 65 78 67 79 73 80 66 81 68 82 69 83 70 84 71 85 48 86 49 87
REMARK SMILES IDX 57 88 50 89 52 90 58 91 51 92 53 93 54 94 55 95 56 96
REMARK H PARENT 12 6 86 18 19 30 78 49 46 60
REMARK Flexibility Score: inf
ROOT
ATOM      1  C   UNL A   1      37.631  33.224  32.992  1.00  0.00     0.021 C 
ENDROOT
BRANCH   1   2
ATOM      2  C   UNL A   1      36.873  32.540  34.135  1.00  0.00     0.116 C 
BRANCH   2   3
ATOM      3  N   UNL A   1      37.645  31.436  34.669  1.00  0.00    -0.351 N 
ATOM      4  C   UNL A   1      38.305  31.222  35.859  1.00  0.00     0.269 C 
ATOM      5  O   UNL A   1      38.842  30.117  35.978  1.00  0.00    -0.268 OA
ATOM      6  H   UNL A   1      37.713  30.675  34.047  1.00  0.00     0.163 HD
BRANCH   4   7
ATOM      7  C   UNL A   1      38.384  32.213  36.997  1.00  0.00     0.129 A 
ATOM      8  C   UNL A   1      38.903  34.319  38.017  1.00  0.00     0.012 A 
ATOM      9  C   UNL A   1      38.362  33.859  39.211  1.00  0.00     0.035 A 
ATOM     10  C   UNL A   1      38.971  33.466  36.913  1.00  0.00     0.049 A 
ATOM     11  C   UNL A   1      37.868  32.571  39.239  1.00  0.00     0.113 A 
ATOM     12  N   UNL A   1      37.852  31.755  38.165  1.00  0.00    -0.251 NA
BRANCH   8  13
ATOM     13  S   UNL A   1      39.534  35.985  37.898  1.00  0.00    -0.116 SA
BRANCH  13  14
ATOM     14  C   UNL A   1      41.125  35.794  38.786  1.00  0.00     0.174 C 
BRANCH  14  15
ATOM     15  C   UNL A   1      41.530  37.097  39.449  1.00  0.00     0.230 C 
ATOM     16  O   UNL A   1      42.435  37.806  39.012  1.00  0.00    -0.274 OA
ATOM     17  N   UNL A   1      40.839  37.415  40.596  1.00  0.00    -0.346 N 
ATOM     18  H   UNL A   1      40.137  36.810  40.926  1.00  0.00     0.163 HD
BRANCH  17  19
ATOM     19  C   UNL A   1      41.140  38.643  41.331  1.00  0.00     0.231 C 
BRANCH  19  20
ATOM     20  C   UNL A   1      40.415  39.904  40.868  1.00  0.00     0.405 C 
ATOM     21  F   UNL A   1      41.264  40.707  40.186  1.00  0.00    -0.169 F 
ATOM     22  F   UNL A   1      39.403  39.582  40.030  1.00  0.00    -0.169 F 
ATOM     23  F   UNL A   1      39.911  40.596  41.902  1.00  0.00    -0.169 F 
ENDBRANCH  19  20
ENDBRANCH  17  19
ENDBRANCH  14  15
ENDBRANCH  13  14
ENDBRANCH   8  13
ENDBRANCH   4   7
ENDBRANCH   2   3
ENDBRANCH   1   2
BRANCH   1  24
ATOM     24  C   UNL A   1      36.836  33.295  31.677  1.00  0.00     0.002 C 
BRANCH  24  25
ATOM     25  C   UNL A   1      35.410  32.726  31.729  1.00  0.00     0.002 C 
BRANCH  25  26
ATOM     26  C   UNL A   1      34.429  33.306  30.707  1.00  0.00     0.021 C 
BRANCH  26  27
ATOM     27  C   UNL A   1      34.942  33.346  29.272  1.00  0.00     0.116 C 
BRANCH  27  28
ATOM     28  N   UNL A   1      34.259  32.376  28.433  1.00  0.00    -0.352 N 
ATOM     29  C   UNL A   1      34.720  31.187  27.921  1.00  0.00     0.251 C 
ATOM     30  H   UNL A   1      33.331  32.604  28.197  1.00  0.00     0.163 HD
ATOM     31  O   UNL A   1      34.080  30.623  27.036  1.00  0.00    -0.269 OA
BRANCH  29  32
ATOM     32  C   UNL A   1      35.978  30.583  28.421  1.00  0.00     0.039 A 
ATOM     33  C   UNL A   1      35.928  29.750  29.543  1.00  0.00     0.014 A 
ATOM     34  C   UNL A   1      37.210  30.875  27.829  1.00  0.00     0.014 A 
ATOM     35  C   UNL A   1      37.103  29.181  30.045  1.00  0.00     0.010 A 
ATOM     36  C   UNL A   1      38.371  30.253  28.287  1.00  0.00     0.010 A 
ATOM     37  C   UNL A   1      38.335  29.413  29.411  1.00  0.00    -0.014 A 
BRANCH  37  38
ATOM     38  C   UNL A   1      39.592  28.800  29.917  1.00  0.00     0.031 A 
ATOM     39  C   UNL A   1      40.279  29.364  31.133  1.00  0.00     0.074 A 
ATOM     40  C   UNL A   1      40.157  27.778  29.244  1.00  0.00     0.049 A 
ATOM     41  N   UNL A   1      41.402  28.994  31.694  1.00  0.00    -0.248 NA
ATOM     42  C   UNL A   1      39.636  30.515  31.789  1.00  0.00     0.031 C 
ATOM     43  C   UNL A   1      39.633  27.187  28.011  1.00  0.00     0.029 A 
ATOM     44  N   UNL A   1      41.310  27.073  29.487  1.00  0.00    -0.354 N 
ATOM     45  C   UNL A   1      41.617  29.882  32.741  1.00  0.00     0.074 A 
ATOM     46  C   UNL A   1      40.526  30.833  32.717  1.00  0.00     0.031 C 
ATOM     47  C   UNL A   1      40.458  26.206  27.609  1.00  0.00     0.029 A 
ATOM     48  C   UNL A   1      41.581  26.115  28.539  1.00  0.00     0.049 A 
ATOM     49  H   UNL A   1      41.887  27.238  30.267  1.00  0.00     0.167 HD
ATOM     50  C   UNL A   1      42.612  29.890  33.661  1.00  0.00     0.034 A 
ATOM     51  C   UNL A   1      42.618  25.261  28.426  1.00  0.00     0.034 A 
ATOM     52  C   UNL A   1      43.667  28.914  33.716  1.00  0.00     0.049 A 
ATOM     53  C   UNL A   1      43.688  25.260  29.486  1.00  0.00     0.074 A 
ATOM     54  C   UNL A   1      44.670  28.785  34.661  1.00  0.00     0.029 A 
ATOM     55  N   UNL A   1      43.861  27.904  32.787  1.00  0.00    -0.354 N 
ATOM     56  N   UNL A   1      43.788  26.007  30.558  1.00  0.00    -0.248 NA
ATOM     57  C   UNL A   1      44.767  24.272  29.341  1.00  0.00     0.031 C 
ATOM     58  C   UNL A   1      45.481  27.705  34.293  1.00  0.00     0.029 A 
ATOM     59  C   UNL A   1      44.971  27.150  33.130  1.00  0.00     0.049 A 
ATOM     60  H   UNL A   1      43.292  27.745  31.999  1.00  0.00     0.167 HD
ATOM     61  C   UNL A   1      44.918  25.560  31.232  1.00  0.00     0.074 A 
ATOM     62  C   UNL A   1      45.458  24.461  30.457  1.00  0.00     0.031 C 
ATOM     63  C   UNL A   1      45.468  26.025  32.381  1.00  0.00     0.034 A 
BRANCH  50  64
ATOM     64  C   UNL A   1      42.573  30.959  34.723  1.00  0.00     0.023 A 
ATOM     65  C   UNL A   1      42.076  30.644  36.006  1.00  0.00     0.012 A 
ATOM     66  C   UNL A   1      43.073  32.252  34.476  1.00  0.00     0.148 A 
ATOM     67  C   UNL A   1      42.042  31.608  37.011  1.00  0.00     0.002 A 
ATOM     68  C   UNL A   1      43.076  33.196  35.498  1.00  0.00     0.091 A 
ATOM     69  F   UNL A   1      43.523  32.541  33.246  1.00  0.00    -0.205 F 
ATOM     70  C   UNL A   1      42.550  32.879  36.761  1.00  0.00     0.022 A 
BRANCH  68  71
ATOM     71  S   UNL A   1      43.781  34.835  35.297  1.00  0.00     0.127 S 
ATOM     72  O   UNL A   1      42.695  35.543  34.621  1.00  0.00    -0.237 OA
ATOM     73  O   UNL A   1      44.008  35.249  36.682  1.00  0.00    -0.237 OA
ATOM     74  O   UNL A   1      44.996  34.655  34.513  1.00  0.00    -0.744 OA
ENDBRANCH  68  71
ENDBRANCH  50  64
BRANCH  51  75
ATOM     75  C   UNL A   1      42.653  24.283  27.302  1.00  0.00     0.023 A 
ATOM     76  C   UNL A   1      43.287  24.644  26.097  1.00  0.00     0.012 A 
ATOM     77  C   UNL A   1      42.099  22.996  27.430  1.00  0.00     0.148 A 
ATOM     78  C   UNL A   1      43.343  23.748  25.028  1.00  0.00     0.002 A 
ATOM     79  C   UNL A   1      42.205  22.089  26.381  1.00  0.00     0.091 A 
ATOM     80  F   UNL A   1      41.491  22.677  28.581  1.00  0.00    -0.205 F 
ATOM     81  C   UNL A   1      42.813  22.469  25.173  1.00  0.00     0.022 A 
BRANCH  79  82
ATOM     82  S   UNL A   1      41.663  20.383  26.521  1.00  0.00     0.127 S 
ATOM     83  O   UNL A   1      42.200  20.003  27.824  1.00  0.00    -0.237 OA
ATOM     84  O   UNL A   1      40.207  20.522  26.470  1.00  0.00    -0.237 OA
ATOM     85  O   UNL A   1      42.238  19.689  25.374  1.00  0.00    -0.744 OA
ENDBRANCH  79  82
ENDBRANCH  51  75
BRANCH  63  86
ATOM     86  C   UNL A   1      46.704  25.336  32.895  1.00  0.00     0.023 A 
ATOM     87  C   UNL A   1      47.977  25.821  32.533  1.00  0.00     0.012 A 
ATOM     88  C   UNL A   1      46.606  24.258  33.798  1.00  0.00     0.148 A 
ATOM     89  C   UNL A   1      49.133  25.226  33.038  1.00  0.00     0.002 A 
ATOM     90  C   UNL A   1      47.761  23.701  34.335  1.00  0.00     0.091 A 
ATOM     91  F   UNL A   1      45.387  23.800  34.115  1.00  0.00    -0.205 F 
ATOM     92  C   UNL A   1      49.024  24.175  33.947  1.00  0.00     0.022 A 
BRANCH  90  93
ATOM     93  S   UNL A   1      47.715  22.409  35.582  1.00  0.00     0.127 S 
ATOM     94  O   UNL A   1      47.081  21.312  34.852  1.00  0.00    -0.237 OA
ATOM     95  O   UNL A   1      49.136  22.207  35.873  1.00  0.00    -0.237 OA
ATOM     96  O   UNL A   1      46.945  22.952  36.693  1.00  0.00    -0.744 OA
ENDBRANCH  90  93
ENDBRANCH  63  86
ENDBRANCH  37  38
ENDBRANCH  29  32
ENDBRANCH  27  28
ENDBRANCH  26  27
ENDBRANCH  25  26
ENDBRANCH  24  25
ENDBRANCH   1  24
TORSDOF 21
ENDMDL
MODEL 2
REMARK VINA RESULT:      -8.6      2.494      3.245
REMARK SMILES O=C(CSc1ccnc(C(=O)NCCCCCCNC(=O)c2ccc(-c3c4nc(c(-c5cccc(S(=O)(=O)[O-])c5F)c5ccc([nH]5)c(-c5cccc(S(=O)(=O)[O-])c5F)c5nc(c(-c6cccc(S(=O)(=O)[O-])c6F)c6ccc3[nH]6)C=C5)C=C4)cc2)c1)NCC(F)(F)F
REMARK SMILES IDX 14 1 13 2 12 3 10 4 11 5 9 7 5 8 6 9 85 10 7 11 8 12 4 13
REMARK SMILES IDX 3 14 2 15 1 16 86 17 87 19 88 20 89 21 90 22 91 23 15 24
REMARK SMILES IDX 16 25 17 26 18 27 19 28 20 29 21 31 22 32 23 33 84 34 24 35
REMARK SMILES IDX 83 36 25 37 26 38 27 39 77 40 28 41 82 42 76 43 78 44 29 45
REMARK SMILES IDX 81 46 75 47 74 48 30 50 62 51 42 52 61 53 43 54 46 55 60 56
REMARK SMILES IDX 79 57 44 58 45 59 59 61 80 62 47 63 31 64 32 65 40 66 33 67
REMARK SMILES IDX 35 68 41 69 34 70 36 71 37 72 38 73 39 74 63 75 64 76 72 77
REMARK SMILES IDX 65 78 67 79 73 80 66 81 68 82 69 83 70 84 71 85 48 86 49 87
REMARK SMILES IDX 57 88 50 89 52 90 58 91 51 92 53 93 54 94 55 95 56 96
REMARK H PARENT 12 6 86 18 19 30 78 49 46 60
REMARK Flexibility Score: inf
ROOT
ATOM      1  C   UNL A   1      37.509  32.851  32.499  1.00  0.00     0.021 C 
ENDROOT
BRANCH   1   2
ATOM      2  C   UNL A   1      36.683  32.375  33.697  1.00  0.00     0.116 C 
BRANCH   2   3
ATOM      3  N   UNL A   1      37.369  31.308  34.399  1.00  0.00    -0.351 N 
ATOM      4  C   UNL A   1      38.074  31.243  35.580  1.00  0.00     0.269 C 
ATOM      5  O   UNL A   1      38.502  30.124  35.882  1.00  0.00    -0.268 OA
ATOM      6  H   UNL A   1      37.321  30.443  33.929  1.00  0.00     0.163 HD
BRANCH   4   7
ATOM      7  C   UNL A   1      38.323  32.409  36.506  1.00  0.00     0.129 A 
ATOM      8  C   UNL A   1      38.360  33.542  38.618  1.00  0.00     0.012 A 
ATOM      9  C   UNL A   1      38.923  34.652  37.998  1.00  0.00     0.035 A 
ATOM     10  C   UNL A   1      38.000  32.430  37.854  1.00  0.00     0.049 A 
ATOM     11  C   UNL A   1      39.143  34.584  36.637  1.00  0.00     0.113 A 
ATOM     12  N   UNL A   1      38.875  33.493  35.892  1.00  0.00    -0.251 NA
BRANCH   8  13
ATOM     13  S   UNL A   1      38.074  33.546  40.381  1.00  0.00    -0.116 SA
BRANCH  13  14
ATOM     14  C   UNL A   1      36.727  32.309  40.493  1.00  0.00     0.174 C 
BRANCH  14  15
ATOM     15  C   UNL A   1      36.458  31.939  41.940  1.00  0.00     0.230 C 
ATOM     16  O   UNL A   1      35.325  31.922  42.416  1.00  0.00    -0.274 OA
ATOM     17  N   UNL A   1      37.574  31.657  42.694  1.00  0.00    -0.346 N 
ATOM     18  H   UNL A   1      38.466  31.704  42.281  1.00  0.00     0.163 HD
BRANCH  17  19
ATOM     19  C   UNL A   1      37.447  31.291  44.105  1.00  0.00     0.231 C 
BRANCH  19  20
ATOM     20  C   UNL A   1      37.861  29.869  44.474  1.00  0.00     0.405 C 
ATOM     21  F   UNL A   1      38.847  29.895  45.400  1.00  0.00    -0.169 F 
ATOM     22  F   UNL A   1      36.815  29.202  45.017  1.00  0.00    -0.169 F 
ATOM     23  F   UNL A   1      38.296  29.185  43.405  1.00  0.00    -0.169 F 
ENDBRANCH  19  20
ENDBRANCH  17  19
ENDBRANCH  14  15
ENDBRANCH  13  14
ENDBRANCH   8  13
ENDBRANCH   4   7
ENDBRANCH   2   3
ENDBRANCH   1   2
BRANCH   1  24
ATOM     24  C   UNL A   1      36.673  33.118  31.236  1.00  0.00     0.002 C 
BRANCH  24  25
ATOM     25  C   UNL A   1      35.152  33.170  31.444  1.00  0.00     0.002 C 
BRANCH  25  26
ATOM     26  C   UNL A   1      34.328  33.529  30.205  1.00  0.00     0.021 C 
BRANCH  26  27
ATOM     27  C   UNL A   1      34.987  33.193  28.872  1.00  0.00     0.116 C 
BRANCH  27  28
ATOM     28  N   UNL A   1      34.254  32.160  28.158  1.00  0.00    -0.352 N 
ATOM     29  C   UNL A   1      34.673  30.917  27.747  1.00  0.00     0.251 C 
ATOM     30  H   UNL A   1      33.322  32.384  27.936  1.00  0.00     0.163 HD
ATOM     31  O   UNL A   1      33.988  30.284  26.947  1.00  0.00    -0.269 OA
BRANCH  29  32
ATOM     32  C   UNL A   1      35.939  30.338  28.256  1.00  0.00     0.039 A 
ATOM     33  C   UNL A   1      35.980  29.848  29.566  1.00  0.00     0.014 A 
ATOM     34  C   UNL A   1      37.098  30.325  27.476  1.00  0.00     0.014 A 
ATOM     35  C   UNL A   1      37.167  29.311  30.075  1.00  0.00     0.010 A 
ATOM     36  C   UNL A   1      38.261  29.727  27.960  1.00  0.00     0.010 A 
ATOM     37  C   UNL A   1      38.315  29.230  29.271  1.00  0.00    -0.014 A 
BRANCH  37  38
ATOM     38  C   UNL A   1      39.580  28.643  29.788  1.00  0.00     0.031 A 
ATOM     39  C   UNL A   1      40.262  29.242  30.991  1.00  0.00     0.074 A 
ATOM     40  C   UNL A   1      40.157  27.614  29.136  1.00  0.00     0.049 A 
ATOM     41  N   UNL A   1      41.390  28.897  31.558  1.00  0.00    -0.248 NA
ATOM     42  C   UNL A   1      39.606  30.399  31.623  1.00  0.00     0.031 C 
ATOM     43  C   UNL A   1      39.639  26.990  27.917  1.00  0.00     0.029 A 
ATOM     44  N   UNL A   1      41.319  26.929  29.393  1.00  0.00    -0.354 N 
ATOM     45  C   UNL A   1      41.595  29.810  32.586  1.00  0.00     0.074 A 
ATOM     46  C   UNL A   1      40.493  30.747  32.543  1.00  0.00     0.031 C 
ATOM     47  C   UNL A   1      40.476  26.011  27.535  1.00  0.00     0.029 A 
ATOM     48  C   UNL A   1      41.601  25.955  28.464  1.00  0.00     0.049 A 
ATOM     49  H   UNL A   1      41.896  27.117  30.168  1.00  0.00     0.167 HD
ATOM     50  C   UNL A   1      42.592  29.851  33.503  1.00  0.00     0.034 A 
ATOM     51  C   UNL A   1      42.649  25.111  28.368  1.00  0.00     0.034 A 
ATOM     52  C   UNL A   1      43.659  28.889  33.577  1.00  0.00     0.049 A 
ATOM     53  C   UNL A   1      43.719  25.145  29.427  1.00  0.00     0.074 A 
ATOM     54  C   UNL A   1      44.665  28.792  34.523  1.00  0.00     0.029 A 
ATOM     55  N   UNL A   1      43.864  27.862  32.670  1.00  0.00    -0.354 N 
ATOM     56  N   UNL A   1      43.811  25.917  30.482  1.00  0.00    -0.248 NA
ATOM     57  C   UNL A   1      44.810  24.168  29.301  1.00  0.00     0.031 C 
ATOM     58  C   UNL A   1      45.489  27.715  34.177  1.00  0.00     0.029 A 
ATOM     59  C   UNL A   1      44.984  27.129  33.027  1.00  0.00     0.049 A 
ATOM     60  H   UNL A   1      43.296  27.679  31.886  1.00  0.00     0.167 HD
ATOM     61  C   UNL A   1      44.948  25.498  31.164  1.00  0.00     0.074 A 
ATOM     62  C   UNL A   1      45.500  24.390  30.412  1.00  0.00     0.031 C 
ATOM     63  C   UNL A   1      45.494  25.995  32.301  1.00  0.00     0.034 A 
BRANCH  50  64
ATOM     64  C   UNL A   1      42.541  30.941  34.542  1.00  0.00     0.023 A 
ATOM     65  C   UNL A   1      41.970  30.671  35.804  1.00  0.00     0.012 A 
ATOM     66  C   UNL A   1      43.102  32.209  34.297  1.00  0.00     0.148 A 
ATOM     67  C   UNL A   1      41.922  31.656  36.788  1.00  0.00     0.002 A 
ATOM     68  C   UNL A   1      43.090  33.173  35.301  1.00  0.00     0.091 A 
ATOM     69  F   UNL A   1      43.623  32.456  33.087  1.00  0.00    -0.205 F 
ATOM     70  C   UNL A   1      42.491  32.902  36.541  1.00  0.00     0.022 A 
BRANCH  68  71
ATOM     71  S   UNL A   1      43.867  34.781  35.105  1.00  0.00     0.127 S 
ATOM     72  O   UNL A   1      43.515  35.433  36.366  1.00  0.00    -0.237 OA
ATOM     73  O   UNL A   1      45.281  34.429  34.975  1.00  0.00    -0.237 OA
ATOM     74  O   UNL A   1      43.276  35.367  33.910  1.00  0.00    -0.744 OA
ENDBRANCH  68  71
ENDBRANCH  50  64
BRANCH  51  75
ATOM     75  C   UNL A   1      42.694  24.110  27.266  1.00  0.00     0.023 A 
ATOM     76  C   UNL A   1      43.419  24.408  26.095  1.00  0.00     0.012 A 
ATOM     77  C   UNL A   1      42.059  22.859  27.381  1.00  0.00     0.148 A 
ATOM     78  C   UNL A   1      43.488  23.489  25.048  1.00  0.00     0.002 A 
ATOM     79  C   UNL A   1      42.175  21.926  26.356  1.00  0.00     0.091 A 
ATOM     80  F   UNL A   1      41.365  22.599  28.497  1.00  0.00    -0.205 F 
ATOM     81  C   UNL A   1      42.876  22.245  25.182  1.00  0.00     0.022 A 
BRANCH  79  82
ATOM     82  S   UNL A   1      41.527  20.257  26.492  1.00  0.00     0.127 S 
ATOM     83  O   UNL A   1      42.186  19.586  25.375  1.00  0.00    -0.237 OA
ATOM     84  O   UNL A   1      41.998  19.856  27.818  1.00  0.00    -0.237 OA
ATOM     85  O   UNL A   1      40.078  20.386  26.384  1.00  0.00    -0.744 OA
ENDBRANCH  79  82
ENDBRANCH  51  75
BRANCH  63  86
ATOM     86  C   UNL A   1      46.739  25.332  32.828  1.00  0.00     0.023 A 
ATOM     87  C   UNL A   1      48.003  25.762  32.378  1.00  0.00     0.012 A 
ATOM     88  C   UNL A   1      46.661  24.339  33.826  1.00  0.00     0.148 A 
ATOM     89  C   UNL A   1      49.170  25.193  32.890  1.00  0.00     0.002 A 
ATOM     90  C   UNL A   1      47.828  23.811  34.366  1.00  0.00     0.091 A 
ATOM     91  F   UNL A   1      45.449  23.931  34.227  1.00  0.00    -0.205 F 
ATOM     92  C   UNL A   1      49.082  24.228  33.892  1.00  0.00     0.022 A 
BRANCH  90  93
ATOM     93  S   UNL A   1      47.812  22.635  35.724  1.00  0.00     0.127 S 
ATOM     94  O   UNL A   1      47.476  23.494  36.859  1.00  0.00    -0.237 OA
ATOM     95  O   UNL A   1      46.749  21.712  35.323  1.00  0.00    -0.237 OA
ATOM     96  O   UNL A   1      49.143  22.043  35.757  1.00  0.00    -0.744 OA
ENDBRANCH  90  93
ENDBRANCH  63  86
ENDBRANCH  37  38
ENDBRANCH  29  32
ENDBRANCH  27  28
ENDBRANCH  26  27
ENDBRANCH  25  26
ENDBRANCH  24  25
ENDBRANCH   1  24
TORSDOF 21
ENDMDL
MODEL 3
REMARK VINA RESULT:      -8.5      2.921      8.432
REMARK SMILES O=C(CSc1ccnc(C(=O)NCCCCCCNC(=O)c2ccc(-c3c4nc(c(-c5cccc(S(=O)(=O)[O-])c5F)c5ccc([nH]5)c(-c5cccc(S(=O)(=O)[O-])c5F)c5nc(c(-c6cccc(S(=O)(=O)[O-])c6F)c6ccc3[nH]6)C=C5)C=C4)cc2)c1)NCC(F)(F)F
REMARK SMILES IDX 14 1 13 2 12 3 10 4 11 5 9 7 5 8 6 9 85 10 7 11 8 12 4 13
REMARK SMILES IDX 3 14 2 15 1 16 86 17 87 19 88 20 89 21 90 22 91 23 15 24
REMARK SMILES IDX 16 25 17 26 18 27 19 28 20 29 21 31 22 32 23 33 84 34 24 35
REMARK SMILES IDX 83 36 25 37 26 38 27 39 77 40 28 41 82 42 76 43 78 44 29 45
REMARK SMILES IDX 81 46 75 47 74 48 30 50 62 51 42 52 61 53 43 54 46 55 60 56
REMARK SMILES IDX 79 57 44 58 45 59 59 61 80 62 47 63 31 64 32 65 40 66 33 67
REMARK SMILES IDX 35 68 41 69 34 70 36 71 37 72 38 73 39 74 63 75 64 76 72 77
REMARK SMILES IDX 65 78 67 79 73 80 66 81 68 82 69 83 70 84 71 85 48 86 49 87
REMARK SMILES IDX 57 88 50 89 52 90 58 91 51 92 53 93 54 94 55 95 56 96
REMARK H PARENT 12 6 86 18 19 30 78 49 46 60
REMARK Flexibility Score: inf
ROOT
ATOM      1  C   UNL A   1      37.363  32.943  32.195  1.00  0.00     0.021 C 
ENDROOT
BRANCH   1   2
ATOM      2  C   UNL A   1      36.490  32.402  33.330  1.00  0.00     0.116 C 
BRANCH   2   3
ATOM      3  N   UNL A   1      37.189  31.364  34.062  1.00  0.00    -0.351 N 
ATOM      4  C   UNL A   1      38.055  31.371  35.133  1.00  0.00     0.269 C 
ATOM      5  O   UNL A   1      38.437  30.260  35.514  1.00  0.00    -0.268 OA
ATOM      6  H   UNL A   1      37.007  30.459  33.718  1.00  0.00     0.163 HD
BRANCH   4   7
ATOM      7  C   UNL A   1      38.526  32.609  35.858  1.00  0.00     0.129 A 
ATOM      8  C   UNL A   1      39.056  33.934  37.784  1.00  0.00     0.012 A 
ATOM      9  C   UNL A   1      39.484  34.957  36.946  1.00  0.00     0.035 A 
ATOM     10  C   UNL A   1      38.514  32.770  37.235  1.00  0.00     0.049 A 
ATOM     11  C   UNL A   1      39.392  34.752  35.584  1.00  0.00     0.113 A 
ATOM     12  N   UNL A   1      38.945  33.607  35.031  1.00  0.00    -0.251 NA
BRANCH   8  13
ATOM     13  S   UNL A   1      39.173  34.116  39.557  1.00  0.00    -0.116 SA
BRANCH  13  14
ATOM     14  C   UNL A   1      37.675  33.198  40.076  1.00  0.00     0.174 C 
BRANCH  14  15
ATOM     15  C   UNL A   1      37.833  32.668  41.489  1.00  0.00     0.230 C 
ATOM     16  O   UNL A   1      38.641  33.144  42.285  1.00  0.00    -0.274 OA
ATOM     17  N   UNL A   1      37.034  31.595  41.810  1.00  0.00    -0.346 N 
ATOM     18  H   UNL A   1      36.416  31.229  41.137  1.00  0.00     0.163 HD
BRANCH  17  19
ATOM     19  C   UNL A   1      37.097  30.990  43.140  1.00  0.00     0.231 C 
BRANCH  19  20
ATOM     20  C   UNL A   1      38.070  29.827  43.310  1.00  0.00     0.405 C 
ATOM     21  F   UNL A   1      39.299  30.290  43.635  1.00  0.00    -0.169 F 
ATOM     22  F   UNL A   1      37.665  29.018  44.316  1.00  0.00    -0.169 F 
ATOM     23  F   UNL A   1      38.171  29.096  42.188  1.00  0.00    -0.169 F 
ENDBRANCH  19  20
ENDBRANCH  17  19
ENDBRANCH  14  15
ENDBRANCH  13  14
ENDBRANCH   8  13
ENDBRANCH   4   7
ENDBRANCH   2   3
ENDBRANCH   1   2
BRANCH   1  24
ATOM     24  C   UNL A   1      36.594  33.194  30.887  1.00  0.00     0.002 C 
BRANCH  24  25
ATOM     25  C   UNL A   1      35.075  32.979  30.956  1.00  0.00     0.002 C 
BRANCH  25  26
ATOM     26  C   UNL A   1      34.287  33.423  29.721  1.00  0.00     0.021 C 
BRANCH  26  27
ATOM     27  C   UNL A   1      34.875  32.975  28.387  1.00  0.00     0.116 C 
BRANCH  27  28
ATOM     28  N   UNL A   1      34.164  31.828  27.847  1.00  0.00    -0.352 N 
ATOM     29  C   UNL A   1      34.624  30.560  27.584  1.00  0.00     0.251 C 
ATOM     30  H   UNL A   1      33.214  31.983  27.638  1.00  0.00     0.163 HD
ATOM     31  O   UNL A   1      33.939  29.799  26.904  1.00  0.00    -0.269 OA
BRANCH  29  32
ATOM     32  C   UNL A   1      35.934  30.105  28.108  1.00  0.00     0.039 A 
ATOM     33  C   UNL A   1      37.064  30.218  27.292  1.00  0.00     0.014 A 
ATOM     34  C   UNL A   1      36.047  29.519  29.372  1.00  0.00     0.014 A 
ATOM     35  C   UNL A   1      38.309  29.781  27.757  1.00  0.00     0.010 A 
ATOM     36  C   UNL A   1      37.300  29.148  29.861  1.00  0.00     0.010 A 
ATOM     37  C   UNL A   1      38.442  29.258  29.053  1.00  0.00    -0.014 A 
BRANCH  37  38
ATOM     38  C   UNL A   1      39.761  28.808  29.573  1.00  0.00     0.031 A 
ATOM     39  C   UNL A   1      40.490  27.665  28.914  1.00  0.00     0.074 A 
ATOM     40  C   UNL A   1      40.274  29.378  30.681  1.00  0.00     0.049 A 
ATOM     41  N   UNL A   1      41.624  27.105  29.251  1.00  0.00    -0.248 NA
ATOM     42  C   UNL A   1      39.846  27.052  27.741  1.00  0.00     0.031 C 
ATOM     43  C   UNL A   1      39.634  30.442  31.457  1.00  0.00     0.029 A 
ATOM     44  N   UNL A   1      41.440  29.125  31.362  1.00  0.00    -0.354 N 
ATOM     45  C   UNL A   1      41.812  26.057  28.357  1.00  0.00     0.074 A 
ATOM     46  C   UNL A   1      40.658  26.036  27.485  1.00  0.00     0.031 C 
ATOM     47  C   UNL A   1      40.417  30.754  32.503  1.00  0.00     0.029 A 
ATOM     48  C   UNL A   1      41.599  29.897  32.488  1.00  0.00     0.049 A 
ATOM     49  H   UNL A   1      42.098  28.453  31.071  1.00  0.00     0.167 HD
ATOM     50  C   UNL A   1      42.863  25.208  28.249  1.00  0.00     0.034 A 
ATOM     51  C   UNL A   1      42.584  29.913  33.409  1.00  0.00     0.034 A 
ATOM     52  C   UNL A   1      44.033  25.263  29.084  1.00  0.00     0.049 A 
ATOM     53  C   UNL A   1      43.763  28.991  33.240  1.00  0.00     0.074 A 
ATOM     54  C   UNL A   1      45.188  24.506  28.995  1.00  0.00     0.029 A 
ATOM     55  N   UNL A   1      44.198  26.118  30.162  1.00  0.00    -0.354 N 
ATOM     56  N   UNL A   1      43.995  28.114  32.294  1.00  0.00    -0.248 NA
ATOM     57  C   UNL A   1      44.832  29.088  34.244  1.00  0.00     0.031 C 
ATOM     58  C   UNL A   1      46.045  24.892  30.032  1.00  0.00     0.029 A 
ATOM     59  C   UNL A   1      45.431  25.904  30.753  1.00  0.00     0.049 A 
ATOM     60  H   UNL A   1      43.535  26.782  30.462  1.00  0.00     0.167 HD
ATOM     61  C   UNL A   1      45.248  27.579  32.569  1.00  0.00     0.074 A 
ATOM     62  C   UNL A   1      45.735  28.246  33.758  1.00  0.00     0.031 C 
ATOM     63  C   UNL A   1      45.928  26.611  31.905  1.00  0.00     0.034 A 
BRANCH  50  64
ATOM     64  C   UNL A   1      42.820  24.181  27.147  1.00  0.00     0.023 A 
ATOM     65  C   UNL A   1      43.421  24.472  25.904  1.00  0.00     0.012 A 
ATOM     66  C   UNL A   1      42.239  22.915  27.352  1.00  0.00     0.148 A 
ATOM     67  C   UNL A   1      43.409  23.536  24.872  1.00  0.00     0.002 A 
ATOM     68  C   UNL A   1      42.271  21.970  26.332  1.00  0.00     0.091 A 
ATOM     69  F   UNL A   1      41.655  22.661  28.532  1.00  0.00    -0.205 F 
ATOM     70  C   UNL A   1      42.844  22.282  25.089  1.00  0.00     0.022 A 
BRANCH  68  71
ATOM     71  S   UNL A   1      41.639  20.301  26.540  1.00  0.00     0.127 S 
ATOM     72  O   UNL A   1      40.195  20.528  26.522  1.00  0.00    -0.237 OA
ATOM     73  O   UNL A   1      42.164  19.620  25.356  1.00  0.00    -0.237 OA
ATOM     74  O   UNL A   1      42.183  19.823  27.804  1.00  0.00    -0.744 OA
ENDBRANCH  68  71
ENDBRANCH  50  64
BRANCH  51  75
ATOM     75  C   UNL A   1      42.532  30.890  34.532  1.00  0.00     0.023 A 
ATOM     76  C   UNL A   1      41.929  30.509  35.747  1.00  0.00     0.012 A 
ATOM     77  C   UNL A   1      43.101  32.172  34.419  1.00  0.00     0.148 A 
ATOM     78  C   UNL A   1      41.871  31.398  36.821  1.00  0.00     0.002 A 
ATOM     79  C   UNL A   1      43.086  33.035  35.510  1.00  0.00     0.091 A 
ATOM     80  F   UNL A   1      43.658  32.519  33.251  1.00  0.00    -0.205 F 
ATOM     81  C   UNL A   1      42.458  32.656  36.707  1.00  0.00     0.022 A 
BRANCH  79  82
ATOM     82  S   UNL A   1      43.924  34.623  35.496  1.00  0.00     0.127 S 
ATOM     83  O   UNL A   1      45.221  34.274  34.925  1.00  0.00    -0.237 OA
ATOM     84  O   UNL A   1      43.058  35.415  34.622  1.00  0.00    -0.237 OA
ATOM     85  O   UNL A   1      43.946  35.071  36.883  1.00  0.00    -0.744 OA
ENDBRANCH  79  82
ENDBRANCH  51  75
BRANCH  63  86
ATOM     86  C   UNL A   1      47.289  26.229  32.425  1.00  0.00     0.023 A 
ATOM     87  C   UNL A   1      47.407  25.209  33.391  1.00  0.00     0.012 A 
ATOM     88  C   UNL A   1      48.455  26.823  31.901  1.00  0.00     0.148 A 
ATOM     89  C   UNL A   1      48.662  24.808  33.849  1.00  0.00     0.002 A 
ATOM     90  C   UNL A   1      49.703  26.385  32.327  1.00  0.00     0.091 A 
ATOM     91  F   UNL A   1      48.321  27.804  30.997  1.00  0.00    -0.205 F 
ATOM     92  C   UNL A   1      49.808  25.387  33.309  1.00  0.00     0.022 A 
BRANCH  90  93
ATOM     93  S   UNL A   1      51.233  27.006  31.619  1.00  0.00     0.127 S 
ATOM     94  O   UNL A   1      52.227  26.143  32.255  1.00  0.00    -0.237 OA
ATOM     95  O   UNL A   1      51.037  26.760  30.190  1.00  0.00    -0.237 OA
ATOM     96  O   UNL A   1      51.301  28.415  31.984  1.00  0.00    -0.744 OA
ENDBRANCH  90  93
ENDBRANCH  63  86
ENDBRANCH  37  38
ENDBRANCH  29  32
ENDBRANCH  27  28
ENDBRANCH  26  27
ENDBRANCH  25  26
ENDBRANCH  24  25
ENDBRANCH   1  24
TORSDOF 21
ENDMDL
