MODEL 1
REMARK VINA RESULT:     -11.7      0.000      0.000
REMARK SMILES O=C(NCCCCCCNC(=O)[C@@]1([C@@H]2CCO[C@@]3(CCOC3)C2)CCOC1)c1ccc(-c2c3nc(c(-c4cccc(S(=O)(=O)[O-])c4F)c4ccc([nH]4)c(-c4cccc(S(=O)(=O)[O-])c4F)c4nc(c(-c5cccc(S(=O)(=O)[O-])c5F)c5ccc2[nH]5)C=C4)C=C3)cc1
REMARK SMILES IDX 5 1 4 2 3 3 1 4 2 5 28 7 29 8 90 9 30 10 89 11 31 12 32 13
REMARK SMILES IDX 33 14 83 15 34 16 88 17 82 18 84 19 35 20 87 21 81 22 80 23
REMARK SMILES IDX 36 25 68 26 48 27 67 28 49 29 52 30 66 31 85 32 50 33 51 34
REMARK SMILES IDX 65 36 86 37 53 38 37 39 38 40 46 41 39 42 41 43 47 44 40 45
REMARK SMILES IDX 42 46 43 47 44 48 45 49 69 50 70 51 78 52 71 53 73 54 79 55
REMARK SMILES IDX 72 56 74 57 75 58 76 59 77 60 54 61 55 62 63 63 56 64 58 65
REMARK SMILES IDX 64 66 57 67 59 68 60 69 61 70 62 71 6 72 7 73 8 74 9 75
REMARK SMILES IDX 10 76 11 77 12 79 13 80 24 81 27 82 25 83 26 84 14 85 15 86
REMARK SMILES IDX 23 87 16 88 18 89 17 90 19 91 22 92 20 93 21 94
REMARK H PARENT 3 6 84 24 52 35 10 78
REMARK Flexibility Score: inf
ROOT
ATOM      1  C   UNL A   1      31.580  32.026  26.743  1.00  0.00     0.021 C 
ENDROOT
BRANCH   1   2
ATOM      2  C   UNL A   1      32.834  32.792  27.136  1.00  0.00     0.116 C 
BRANCH   2   3
ATOM      3  N   UNL A   1      32.546  34.120  27.647  1.00  0.00    -0.352 N 
ATOM      4  O   UNL A   1      32.626  35.825  29.117  1.00  0.00    -0.269 OA
ATOM      5  C   UNL A   1      33.107  34.773  28.723  1.00  0.00     0.251 C 
ATOM      6  H   UNL A   1      31.854  34.621  27.160  1.00  0.00     0.163 HD
BRANCH   5   7
ATOM      7  C   UNL A   1      34.280  34.176  29.405  1.00  0.00     0.039 A 
ATOM      8  C   UNL A   1      34.107  33.328  30.501  1.00  0.00     0.014 A 
ATOM      9  C   UNL A   1      35.567  34.463  28.939  1.00  0.00     0.014 A 
ATOM     10  C   UNL A   1      35.212  32.880  31.213  1.00  0.00     0.010 A 
ATOM     11  C   UNL A   1      36.679  33.930  29.600  1.00  0.00     0.010 A 
ATOM     12  C   UNL A   1      36.511  33.146  30.752  1.00  0.00    -0.014 A 
BRANCH  12  13
ATOM     13  C   UNL A   1      37.660  32.479  31.416  1.00  0.00     0.031 A 
ATOM     14  C   UNL A   1      38.398  31.338  30.774  1.00  0.00     0.074 A 
ATOM     15  C   UNL A   1      38.026  32.924  32.636  1.00  0.00     0.049 A 
ATOM     16  N   UNL A   1      39.424  30.668  31.233  1.00  0.00    -0.248 NA
ATOM     17  C   UNL A   1      37.928  30.882  29.456  1.00  0.00     0.031 C 
ATOM     18  C   UNL A   1      37.350  33.994  33.378  1.00  0.00     0.029 A 
ATOM     19  N   UNL A   1      39.040  32.536  33.473  1.00  0.00    -0.354 N 
ATOM     20  C   UNL A   1      39.699  29.689  30.287  1.00  0.00     0.074 A 
ATOM     21  C   UNL A   1      38.733  29.853  29.220  1.00  0.00     0.031 C 
ATOM     22  C   UNL A   1      37.976  34.188  34.545  1.00  0.00     0.029 A 
ATOM     23  C   UNL A   1      39.052  33.215  34.669  1.00  0.00     0.049 A 
ATOM     24  H   UNL A   1      39.695  31.839  33.241  1.00  0.00     0.167 HD
ATOM     25  C   UNL A   1      40.671  28.745  30.309  1.00  0.00     0.034 A 
ATOM     26  C   UNL A   1      39.818  33.053  35.763  1.00  0.00     0.034 A 
ATOM     27  C   UNL A   1      41.644  28.608  31.363  1.00  0.00     0.049 A 
ATOM     28  C   UNL A   1      40.888  32.001  35.746  1.00  0.00     0.074 A 
ATOM     29  C   UNL A   1      42.718  27.736  31.431  1.00  0.00     0.029 A 
ATOM     30  N   UNL A   1      41.651  29.341  32.539  1.00  0.00    -0.354 N 
ATOM     31  N   UNL A   1      41.228  31.187  34.776  1.00  0.00    -0.248 NA
ATOM     32  C   UNL A   1      41.698  31.859  36.964  1.00  0.00     0.031 C 
ATOM     33  C   UNL A   1      43.347  27.911  32.667  1.00  0.00     0.029 A 
ATOM     34  C   UNL A   1      42.693  28.922  33.351  1.00  0.00     0.049 A 
ATOM     35  H   UNL A   1      41.011  30.053  32.765  1.00  0.00     0.167 HD
ATOM     36  C   UNL A   1      42.304  30.456  35.257  1.00  0.00     0.074 A 
ATOM     37  C   UNL A   1      42.584  30.949  36.590  1.00  0.00     0.031 C 
ATOM     38  C   UNL A   1      42.989  29.450  34.658  1.00  0.00     0.034 A 
BRANCH  25  39
ATOM     39  C   UNL A   1      40.765  27.781  29.153  1.00  0.00     0.023 A 
ATOM     40  C   UNL A   1      39.868  26.697  29.069  1.00  0.00     0.012 A 
ATOM     41  C   UNL A   1      41.656  28.026  28.088  1.00  0.00     0.148 A 
ATOM     42  C   UNL A   1      39.866  25.865  27.950  1.00  0.00     0.002 A 
ATOM     43  C   UNL A   1      41.617  27.217  26.958  1.00  0.00     0.091 A 
ATOM     44  F   UNL A   1      42.509  29.054  28.193  1.00  0.00    -0.205 F 
ATOM     45  C   UNL A   1      40.730  26.133  26.891  1.00  0.00     0.022 A 
BRANCH  43  46
ATOM     46  S   UNL A   1      42.629  27.527  25.504  1.00  0.00     0.127 S 
ATOM     47  O   UNL A   1      42.337  26.351  24.687  1.00  0.00    -0.237 OA
ATOM     48  O   UNL A   1      42.061  28.777  24.999  1.00  0.00    -0.237 OA
ATOM     49  O   UNL A   1      44.001  27.627  25.979  1.00  0.00    -0.744 OA
ENDBRANCH  43  46
ENDBRANCH  25  39
BRANCH  26  50
ATOM     50  C   UNL A   1      39.598  33.905  36.965  1.00  0.00     0.023 A 
ATOM     51  C   UNL A   1      39.988  35.257  36.947  1.00  0.00     0.012 A 
ATOM     52  C   UNL A   1      38.997  33.379  38.126  1.00  0.00     0.148 A 
ATOM     53  C   UNL A   1      39.823  36.058  38.077  1.00  0.00     0.002 A 
ATOM     54  C   UNL A   1      38.776  34.199  39.225  1.00  0.00     0.091 A 
ATOM     55  F   UNL A   1      38.644  32.085  38.131  1.00  0.00    -0.205 F 
ATOM     56  C   UNL A   1      39.209  35.533  39.211  1.00  0.00     0.022 A 
BRANCH  54  57
ATOM     57  S   UNL A   1      37.863  33.639  40.666  1.00  0.00     0.127 S 
ATOM     58  O   UNL A   1      38.728  32.579  41.174  1.00  0.00    -0.237 OA
ATOM     59  O   UNL A   1      37.821  34.849  41.489  1.00  0.00    -0.237 OA
ATOM     60  O   UNL A   1      36.563  33.216  40.163  1.00  0.00    -0.744 OA
ENDBRANCH  54  57
ENDBRANCH  26  50
BRANCH  38  61
ATOM     61  C   UNL A   1      44.129  28.837  35.426  1.00  0.00     0.023 A 
ATOM     62  C   UNL A   1      45.429  29.366  35.294  1.00  0.00     0.012 A 
ATOM     63  C   UNL A   1      43.903  27.770  36.315  1.00  0.00     0.148 A 
ATOM     64  C   UNL A   1      46.493  28.814  36.005  1.00  0.00     0.002 A 
ATOM     65  C   UNL A   1      44.959  27.261  37.062  1.00  0.00     0.091 A 
ATOM     66  F   UNL A   1      42.662  27.270  36.412  1.00  0.00    -0.205 F 
ATOM     67  C   UNL A   1      46.256  27.771  36.897  1.00  0.00     0.022 A 
BRANCH  65  68
ATOM     68  S   UNL A   1      44.733  25.983  38.303  1.00  0.00     0.127 S 
ATOM     69  O   UNL A   1      46.113  25.694  38.688  1.00  0.00    -0.237 OA
ATOM     70  O   UNL A   1      43.948  26.680  39.323  1.00  0.00    -0.237 OA
ATOM     71  O   UNL A   1      44.031  24.894  37.638  1.00  0.00    -0.744 OA
ENDBRANCH  65  68
ENDBRANCH  38  61
ENDBRANCH  12  13
ENDBRANCH   5   7
ENDBRANCH   2   3
ENDBRANCH   1   2
BRANCH   1  72
ATOM     72  C   UNL A   1      31.777  30.534  26.475  1.00  0.00     0.002 C 
BRANCH  72  73
ATOM     73  C   UNL A   1      32.723  29.783  27.418  1.00  0.00     0.002 C 
BRANCH  73  74
ATOM     74  C   UNL A   1      33.926  29.091  26.781  1.00  0.00     0.021 C 
BRANCH  74  75
ATOM     75  C   UNL A   1      33.715  27.669  26.284  1.00  0.00     0.116 C 
BRANCH  75  76
ATOM     76  N   UNL A   1      32.437  27.070  26.623  1.00  0.00    -0.356 N 
ATOM     77  C   UNL A   1      31.603  26.217  25.955  1.00  0.00     0.228 C 
ATOM     78  H   UNL A   1      32.103  27.329  27.511  1.00  0.00     0.163 HD
ATOM     79  O   UNL A   1      30.806  25.611  26.683  1.00  0.00    -0.274 OA
BRANCH  77  80
ATOM     80  C   UNL A   1      31.528  26.067  24.406  1.00  0.00     0.078 C 
ATOM     81  C   UNL A   1      32.788  25.391  23.856  1.00  0.00     0.048 C 
ATOM     82  C   UNL A   1      30.494  24.959  24.136  1.00  0.00     0.177 C 
ATOM     83  C   UNL A   1      32.299  24.497  22.737  1.00  0.00     0.161 C 
ATOM     84  O   UNL A   1      30.923  24.209  22.990  1.00  0.00    -0.380 OA
BRANCH  80  85
ATOM     85  C   UNL A   1      31.144  27.363  23.647  1.00  0.00     0.012 C 
ATOM     86  C   UNL A   1      32.207  28.405  23.281  1.00  0.00     0.033 C 
ATOM     87  C   UNL A   1      29.933  28.178  24.143  1.00  0.00     0.043 C 
ATOM     88  C   UNL A   1      31.688  29.183  22.061  1.00  0.00     0.161 C 
ATOM     89  C   UNL A   1      29.444  29.109  22.982  1.00  0.00     0.094 C 
ATOM     90  O   UNL A   1      30.288  28.968  21.825  1.00  0.00    -0.372 OA
ATOM     91  C   UNL A   1      28.021  28.748  22.571  1.00  0.00     0.066 C 
ATOM     92  C   UNL A   1      29.295  30.592  23.335  1.00  0.00     0.195 C 
ATOM     93  C   UNL A   1      27.146  29.710  23.337  1.00  0.00     0.163 C 
ATOM     94  O   UNL A   1      27.922  30.869  23.626  1.00  0.00    -0.378 OA
ENDBRANCH  80  85
ENDBRANCH  77  80
ENDBRANCH  75  76
ENDBRANCH  74  75
ENDBRANCH  73  74
ENDBRANCH  72  73
ENDBRANCH   1  72
TORSDOF 17
ENDMDL
MODEL 2
REMARK VINA RESULT:     -11.6      6.399     11.407
REMARK SMILES O=C(NCCCCCCNC(=O)[C@@]1([C@@H]2CCO[C@@]3(CCOC3)C2)CCOC1)c1ccc(-c2c3nc(c(-c4cccc(S(=O)(=O)[O-])c4F)c4ccc([nH]4)c(-c4cccc(S(=O)(=O)[O-])c4F)c4nc(c(-c5cccc(S(=O)(=O)[O-])c5F)c5ccc2[nH]5)C=C4)C=C3)cc1
REMARK SMILES IDX 5 1 4 2 3 3 1 4 2 5 28 7 29 8 90 9 30 10 89 11 31 12 32 13
REMARK SMILES IDX 33 14 83 15 34 16 88 17 82 18 84 19 35 20 87 21 81 22 80 23
REMARK SMILES IDX 36 25 68 26 48 27 67 28 49 29 52 30 66 31 85 32 50 33 51 34
REMARK SMILES IDX 65 36 86 37 53 38 37 39 38 40 46 41 39 42 41 43 47 44 40 45
REMARK SMILES IDX 42 46 43 47 44 48 45 49 69 50 70 51 78 52 71 53 73 54 79 55
REMARK SMILES IDX 72 56 74 57 75 58 76 59 77 60 54 61 55 62 63 63 56 64 58 65
REMARK SMILES IDX 64 66 57 67 59 68 60 69 61 70 62 71 6 72 7 73 8 74 9 75
REMARK SMILES IDX 10 76 11 77 12 79 13 80 24 81 27 82 25 83 26 84 14 85 15 86
REMARK SMILES IDX 23 87 16 88 18 89 17 90 19 91 22 92 20 93 21 94
REMARK H PARENT 3 6 84 24 52 35 10 78
REMARK Flexibility Score: inf
ROOT
ATOM      1  C   UNL A   1      38.211  19.489  24.985  1.00  0.00     0.021 C 
ENDROOT
BRANCH   1   2
ATOM      2  C   UNL A   1      39.185  19.814  26.107  1.00  0.00     0.116 C 
BRANCH   2   3
ATOM      3  N   UNL A   1      40.388  19.003  26.061  1.00  0.00    -0.352 N 
ATOM      4  O   UNL A   1      42.598  18.601  25.888  1.00  0.00    -0.269 OA
ATOM      5  C   UNL A   1      41.706  19.405  26.109  1.00  0.00     0.251 C 
ATOM      6  H   UNL A   1      40.243  18.033  25.982  1.00  0.00     0.163 HD
BRANCH   5   7
ATOM      7  C   UNL A   1      42.022  20.822  26.410  1.00  0.00     0.039 A 
ATOM      8  C   UNL A   1      42.305  21.222  27.718  1.00  0.00     0.014 A 
ATOM      9  C   UNL A   1      42.040  21.759  25.372  1.00  0.00     0.014 A 
ATOM     10  C   UNL A   1      42.469  22.571  28.011  1.00  0.00     0.010 A 
ATOM     11  C   UNL A   1      42.304  23.103  25.655  1.00  0.00     0.010 A 
ATOM     12  C   UNL A   1      42.505  23.523  26.979  1.00  0.00    -0.014 A 
BRANCH  12  13
ATOM     13  C   UNL A   1      42.890  24.920  27.306  1.00  0.00     0.031 A 
ATOM     14  C   UNL A   1      41.936  25.875  27.967  1.00  0.00     0.074 A 
ATOM     15  C   UNL A   1      44.136  25.321  26.980  1.00  0.00     0.049 A 
ATOM     16  N   UNL A   1      42.139  27.119  28.319  1.00  0.00    -0.248 NA
ATOM     17  C   UNL A   1      40.582  25.382  28.268  1.00  0.00     0.031 C 
ATOM     18  C   UNL A   1      45.133  24.494  26.290  1.00  0.00     0.029 A 
ATOM     19  N   UNL A   1      44.780  26.516  27.170  1.00  0.00    -0.354 N 
ATOM     20  C   UNL A   1      40.935  27.572  28.843  1.00  0.00     0.074 A 
ATOM     21  C   UNL A   1      40.003  26.466  28.769  1.00  0.00     0.031 C 
ATOM     22  C   UNL A   1      46.261  25.197  26.133  1.00  0.00     0.029 A 
ATOM     23  C   UNL A   1      46.051  26.543  26.646  1.00  0.00     0.049 A 
ATOM     24  H   UNL A   1      44.372  27.281  27.638  1.00  0.00     0.167 HD
ATOM     25  C   UNL A   1      40.641  28.797  29.343  1.00  0.00     0.034 A 
ATOM     26  C   UNL A   1      46.941  27.548  26.550  1.00  0.00     0.034 A 
ATOM     27  C   UNL A   1      41.585  29.881  29.437  1.00  0.00     0.049 A 
ATOM     28  C   UNL A   1      46.580  28.889  27.121  1.00  0.00     0.074 A 
ATOM     29  C   UNL A   1      41.402  31.130  30.006  1.00  0.00     0.029 A 
ATOM     30  N   UNL A   1      42.876  29.859  28.933  1.00  0.00    -0.354 N 
ATOM     31  N   UNL A   1      45.488  29.249  27.750  1.00  0.00    -0.248 NA
ATOM     32  C   UNL A   1      47.582  29.955  26.992  1.00  0.00     0.031 C 
ATOM     33  C   UNL A   1      42.566  31.878  29.806  1.00  0.00     0.029 A 
ATOM     34  C   UNL A   1      43.491  31.081  29.152  1.00  0.00     0.049 A 
ATOM     35  H   UNL A   1      43.295  29.089  28.485  1.00  0.00     0.167 HD
ATOM     36  C   UNL A   1      45.682  30.574  28.114  1.00  0.00     0.074 A 
ATOM     37  C   UNL A   1      47.010  30.941  27.667  1.00  0.00     0.031 C 
ATOM     38  C   UNL A   1      44.829  31.420  28.742  1.00  0.00     0.034 A 
BRANCH  25  39
ATOM     39  C   UNL A   1      39.246  29.049  29.855  1.00  0.00     0.023 A 
ATOM     40  C   UNL A   1      38.874  28.590  31.135  1.00  0.00     0.012 A 
ATOM     41  C   UNL A   1      38.349  29.853  29.122  1.00  0.00     0.148 A 
ATOM     42  C   UNL A   1      37.628  28.914  31.670  1.00  0.00     0.002 A 
ATOM     43  C   UNL A   1      37.126  30.207  29.680  1.00  0.00     0.091 A 
ATOM     44  F   UNL A   1      38.718  30.269  27.902  1.00  0.00    -0.205 F 
ATOM     45  C   UNL A   1      36.761  29.732  30.949  1.00  0.00     0.022 A 
BRANCH  43  46
ATOM     46  S   UNL A   1      35.974  31.324  28.870  1.00  0.00     0.127 S 
ATOM     47  O   UNL A   1      36.859  32.414  28.462  1.00  0.00    -0.237 OA
ATOM     48  O   UNL A   1      35.474  30.500  27.769  1.00  0.00    -0.237 OA
ATOM     49  O   UNL A   1      34.979  31.676  29.872  1.00  0.00    -0.744 OA
ENDBRANCH  43  46
ENDBRANCH  25  39
BRANCH  26  50
ATOM     50  C   UNL A   1      48.255  27.325  25.885  1.00  0.00     0.023 A 
ATOM     51  C   UNL A   1      49.370  26.938  26.651  1.00  0.00     0.012 A 
ATOM     52  C   UNL A   1      48.401  27.490  24.494  1.00  0.00     0.148 A 
ATOM     53  C   UNL A   1      50.617  26.762  26.050  1.00  0.00     0.002 A 
ATOM     54  C   UNL A   1      49.629  27.249  23.892  1.00  0.00     0.091 A 
ATOM     55  F   UNL A   1      47.331  27.873  23.782  1.00  0.00    -0.205 F 
ATOM     56  C   UNL A   1      50.744  26.907  24.671  1.00  0.00     0.022 A 
BRANCH  54  57
ATOM     57  S   UNL A   1      49.839  27.274  22.109  1.00  0.00     0.127 S 
ATOM     58  O   UNL A   1      48.816  26.330  21.674  1.00  0.00    -0.237 OA
ATOM     59  O   UNL A   1      49.562  28.676  21.790  1.00  0.00    -0.237 OA
ATOM     60  O   UNL A   1      51.220  26.873  21.875  1.00  0.00    -0.744 OA
ENDBRANCH  54  57
ENDBRANCH  26  50
BRANCH  38  61
ATOM     61  C   UNL A   1      45.318  32.818  29.014  1.00  0.00     0.023 A 
ATOM     62  C   UNL A   1      45.969  33.109  30.230  1.00  0.00     0.012 A 
ATOM     63  C   UNL A   1      45.177  33.829  28.045  1.00  0.00     0.148 A 
ATOM     64  C   UNL A   1      46.434  34.396  30.493  1.00  0.00     0.002 A 
ATOM     65  C   UNL A   1      45.692  35.095  28.292  1.00  0.00     0.091 A 
ATOM     66  F   UNL A   1      44.539  33.535  26.903  1.00  0.00    -0.205 F 
ATOM     67  C   UNL A   1      46.307  35.385  29.520  1.00  0.00     0.022 A 
BRANCH  65  68
ATOM     68  S   UNL A   1      45.660  36.404  27.063  1.00  0.00     0.127 S 
ATOM     69  O   UNL A   1      44.225  36.656  26.933  1.00  0.00    -0.237 OA
ATOM     70  O   UNL A   1      46.409  37.471  27.730  1.00  0.00    -0.237 OA
ATOM     71  O   UNL A   1      46.307  35.862  25.877  1.00  0.00    -0.744 OA
ENDBRANCH  65  68
ENDBRANCH  38  61
ENDBRANCH  12  13
ENDBRANCH   5   7
ENDBRANCH   2   3
ENDBRANCH   1   2
BRANCH   1  72
ATOM     72  C   UNL A   1      36.993  20.408  24.884  1.00  0.00     0.002 C 
BRANCH  72  73
ATOM     73  C   UNL A   1      37.232  21.808  24.308  1.00  0.00     0.002 C 
BRANCH  73  74
ATOM     74  C   UNL A   1      37.661  22.895  25.291  1.00  0.00     0.021 C 
BRANCH  74  75
ATOM     75  C   UNL A   1      36.583  23.862  25.756  1.00  0.00     0.116 C 
BRANCH  75  76
ATOM     76  N   UNL A   1      35.613  23.319  26.690  1.00  0.00    -0.356 N 
ATOM     77  C   UNL A   1      34.378  22.759  26.527  1.00  0.00     0.228 C 
ATOM     78  H   UNL A   1      35.904  23.362  27.629  1.00  0.00     0.163 HD
ATOM     79  O   UNL A   1      34.007  22.059  27.479  1.00  0.00    -0.274 OA
BRANCH  77  80
ATOM     80  C   UNL A   1      33.419  23.035  25.330  1.00  0.00     0.078 C 
ATOM     81  C   UNL A   1      33.807  22.195  24.109  1.00  0.00     0.048 C 
ATOM     82  C   UNL A   1      32.080  22.369  25.696  1.00  0.00     0.177 C 
ATOM     83  C   UNL A   1      32.493  21.790  23.477  1.00  0.00     0.161 C 
ATOM     84  O   UNL A   1      31.493  21.845  24.495  1.00  0.00    -0.380 OA
BRANCH  80  85
ATOM     85  C   UNL A   1      33.207  24.535  25.003  1.00  0.00     0.012 C 
ATOM     86  C   UNL A   1      33.987  25.212  23.870  1.00  0.00     0.033 C 
ATOM     87  C   UNL A   1      33.214  25.552  26.162  1.00  0.00     0.043 C 
ATOM     88  C   UNL A   1      33.153  26.411  23.389  1.00  0.00     0.161 C 
ATOM     89  C   UNL A   1      32.504  26.864  25.684  1.00  0.00     0.094 C 
ATOM     90  O   UNL A   1      32.103  26.753  24.306  1.00  0.00    -0.372 OA
ATOM     91  C   UNL A   1      31.254  27.129  26.516  1.00  0.00     0.066 C 
ATOM     92  C   UNL A   1      33.292  28.161  25.891  1.00  0.00     0.195 C 
ATOM     93  C   UNL A   1      31.705  28.093  27.586  1.00  0.00     0.163 C 
ATOM     94  O   UNL A   1      32.835  28.801  27.086  1.00  0.00    -0.378 OA
ENDBRANCH  80  85
ENDBRANCH  77  80
ENDBRANCH  75  76
ENDBRANCH  74  75
ENDBRANCH  73  74
ENDBRANCH  72  73
ENDBRANCH   1  72
TORSDOF 17
ENDMDL
MODEL 3
REMARK VINA RESULT:     -11.5      2.020      3.142
REMARK SMILES O=C(NCCCCCCNC(=O)[C@@]1([C@@H]2CCO[C@@]3(CCOC3)C2)CCOC1)c1ccc(-c2c3nc(c(-c4cccc(S(=O)(=O)[O-])c4F)c4ccc([nH]4)c(-c4cccc(S(=O)(=O)[O-])c4F)c4nc(c(-c5cccc(S(=O)(=O)[O-])c5F)c5ccc2[nH]5)C=C4)C=C3)cc1
REMARK SMILES IDX 5 1 4 2 3 3 1 4 2 5 28 7 29 8 90 9 30 10 89 11 31 12 32 13
REMARK SMILES IDX 33 14 83 15 34 16 88 17 82 18 84 19 35 20 87 21 81 22 80 23
REMARK SMILES IDX 36 25 68 26 48 27 67 28 49 29 52 30 66 31 85 32 50 33 51 34
REMARK SMILES IDX 65 36 86 37 53 38 37 39 38 40 46 41 39 42 41 43 47 44 40 45
REMARK SMILES IDX 42 46 43 47 44 48 45 49 69 50 70 51 78 52 71 53 73 54 79 55
REMARK SMILES IDX 72 56 74 57 75 58 76 59 77 60 54 61 55 62 63 63 56 64 58 65
REMARK SMILES IDX 64 66 57 67 59 68 60 69 61 70 62 71 6 72 7 73 8 74 9 75
REMARK SMILES IDX 10 76 11 77 12 79 13 80 24 81 27 82 25 83 26 84 14 85 15 86
REMARK SMILES IDX 23 87 16 88 18 89 17 90 19 91 22 92 20 93 21 94
REMARK H PARENT 3 6 84 24 52 35 10 78
REMARK Flexibility Score: inf
ROOT
ATOM      1  C   UNL A   1      31.296  31.888  26.524  1.00  0.00     0.021 C 
ENDROOT
BRANCH   1   2
ATOM      2  C   UNL A   1      32.610  32.586  26.844  1.00  0.00     0.116 C 
BRANCH   2   3
ATOM      3  N   UNL A   1      32.422  33.922  27.379  1.00  0.00    -0.352 N 
ATOM      4  O   UNL A   1      32.675  35.607  28.853  1.00  0.00    -0.269 OA
ATOM      5  C   UNL A   1      33.075  34.534  28.426  1.00  0.00     0.251 C 
ATOM      6  H   UNL A   1      31.733  34.464  26.933  1.00  0.00     0.163 HD
BRANCH   5   7
ATOM      7  C   UNL A   1      34.250  33.868  29.039  1.00  0.00     0.039 A 
ATOM      8  C   UNL A   1      34.080  32.778  29.894  1.00  0.00     0.014 A 
ATOM      9  C   UNL A   1      35.535  34.337  28.748  1.00  0.00     0.014 A 
ATOM     10  C   UNL A   1      35.174  32.246  30.566  1.00  0.00     0.010 A 
ATOM     11  C   UNL A   1      36.646  33.735  29.350  1.00  0.00     0.010 A 
ATOM     12  C   UNL A   1      36.473  32.694  30.276  1.00  0.00    -0.014 A 
BRANCH  12  13
ATOM     13  C   UNL A   1      37.630  31.963  30.853  1.00  0.00     0.031 A 
ATOM     14  C   UNL A   1      38.383  30.921  30.074  1.00  0.00     0.074 A 
ATOM     15  C   UNL A   1      37.989  32.254  32.121  1.00  0.00     0.049 A 
ATOM     16  N   UNL A   1      39.417  30.212  30.447  1.00  0.00    -0.248 NA
ATOM     17  C   UNL A   1      37.920  30.629  28.708  1.00  0.00     0.031 C 
ATOM     18  C   UNL A   1      37.299  33.214  32.990  1.00  0.00     0.029 A 
ATOM     19  N   UNL A   1      39.007  31.777  32.904  1.00  0.00    -0.354 N 
ATOM     20  C   UNL A   1      39.706  29.363  29.386  1.00  0.00     0.074 A 
ATOM     21  C   UNL A   1      38.739  29.648  28.346  1.00  0.00     0.031 C 
ATOM     22  C   UNL A   1      37.922  33.267  34.174  1.00  0.00     0.029 A 
ATOM     23  C   UNL A   1      39.010  32.300  34.176  1.00  0.00     0.049 A 
ATOM     24  H   UNL A   1      39.672  31.123  32.587  1.00  0.00     0.167 HD
ATOM     25  C   UNL A   1      40.690  28.437  29.290  1.00  0.00     0.034 A 
ATOM     26  C   UNL A   1      39.777  32.010  35.243  1.00  0.00     0.034 A 
ATOM     27  C   UNL A   1      41.663  28.180  30.321  1.00  0.00     0.049 A 
ATOM     28  C   UNL A   1      40.861  30.982  35.096  1.00  0.00     0.074 A 
ATOM     29  C   UNL A   1      42.748  27.320  30.280  1.00  0.00     0.029 A 
ATOM     30  N   UNL A   1      41.661  28.758  31.580  1.00  0.00    -0.354 N 
ATOM     31  N   UNL A   1      41.212  30.302  34.032  1.00  0.00    -0.248 NA
ATOM     32  C   UNL A   1      41.671  30.699  36.287  1.00  0.00     0.031 C 
ATOM     33  C   UNL A   1      43.375  27.346  31.530  1.00  0.00     0.029 A 
ATOM     34  C   UNL A   1      42.707  28.254  32.335  1.00  0.00     0.049 A 
ATOM     35  H   UNL A   1      41.011  29.428  31.893  1.00  0.00     0.167 HD
ATOM     36  C   UNL A   1      42.297  29.530  34.418  1.00  0.00     0.074 A 
ATOM     37  C   UNL A   1      42.570  29.854  35.803  1.00  0.00     0.031 C 
ATOM     38  C   UNL A   1      42.995  28.617  33.699  1.00  0.00     0.034 A 
BRANCH  25  39
ATOM     39  C   UNL A   1      40.797  27.628  28.022  1.00  0.00     0.023 A 
ATOM     40  C   UNL A   1      41.470  28.160  26.905  1.00  0.00     0.012 A 
ATOM     41  C   UNL A   1      40.343  26.293  27.985  1.00  0.00     0.148 A 
ATOM     42  C   UNL A   1      41.678  27.383  25.766  1.00  0.00     0.002 A 
ATOM     43  C   UNL A   1      40.592  25.512  26.862  1.00  0.00     0.091 A 
ATOM     44  F   UNL A   1      39.694  25.810  29.053  1.00  0.00    -0.205 F 
ATOM     45  C   UNL A   1      41.252  26.057  25.750  1.00  0.00     0.022 A 
BRANCH  43  46
ATOM     46  S   UNL A   1      40.159  23.770  26.774  1.00  0.00     0.127 S 
ATOM     47  O   UNL A   1      41.202  23.252  25.889  1.00  0.00    -0.237 OA
ATOM     48  O   UNL A   1      40.282  23.354  28.171  1.00  0.00    -0.237 OA
ATOM     49  O   UNL A   1      38.807  23.715  26.236  1.00  0.00    -0.744 OA
ENDBRANCH  43  46
ENDBRANCH  25  39
BRANCH  26  50
ATOM     50  C   UNL A   1      39.545  32.700  36.542  1.00  0.00     0.023 A 
ATOM     51  C   UNL A   1      40.308  33.835  36.879  1.00  0.00     0.012 A 
ATOM     52  C   UNL A   1      38.566  32.239  37.444  1.00  0.00     0.148 A 
ATOM     53  C   UNL A   1      40.129  34.470  38.108  1.00  0.00     0.002 A 
ATOM     54  C   UNL A   1      38.348  32.915  38.637  1.00  0.00     0.091 A 
ATOM     55  F   UNL A   1      37.859  31.148  37.113  1.00  0.00    -0.205 F 
ATOM     56  C   UNL A   1      39.144  34.017  38.981  1.00  0.00     0.022 A 
BRANCH  54  57
ATOM     57  S   UNL A   1      37.005  32.483  39.747  1.00  0.00     0.127 S 
ATOM     58  O   UNL A   1      35.845  32.590  38.868  1.00  0.00    -0.237 OA
ATOM     59  O   UNL A   1      37.360  31.118  40.138  1.00  0.00    -0.237 OA
ATOM     60  O   UNL A   1      37.072  33.450  40.835  1.00  0.00    -0.744 OA
ENDBRANCH  54  57
ENDBRANCH  26  50
BRANCH  38  61
ATOM     61  C   UNL A   1      44.143  27.926  34.386  1.00  0.00     0.023 A 
ATOM     62  C   UNL A   1      45.441  28.468  34.300  1.00  0.00     0.012 A 
ATOM     63  C   UNL A   1      43.926  26.769  35.157  1.00  0.00     0.148 A 
ATOM     64  C   UNL A   1      46.512  27.844  34.937  1.00  0.00     0.002 A 
ATOM     65  C   UNL A   1      44.988  26.184  35.835  1.00  0.00     0.091 A 
ATOM     66  F   UNL A   1      42.686  26.260  35.211  1.00  0.00    -0.205 F 
ATOM     67  C   UNL A   1      46.284  26.710  35.714  1.00  0.00     0.022 A 
BRANCH  65  68
ATOM     68  S   UNL A   1      44.774  24.780  36.933  1.00  0.00     0.127 S 
ATOM     69  O   UNL A   1      44.249  23.765  36.021  1.00  0.00    -0.237 OA
ATOM     70  O   UNL A   1      46.142  24.538  37.394  1.00  0.00    -0.237 OA
ATOM     71  O   UNL A   1      43.853  25.216  37.974  1.00  0.00    -0.744 OA
ENDBRANCH  65  68
ENDBRANCH  38  61
ENDBRANCH  12  13
ENDBRANCH   5   7
ENDBRANCH   2   3
ENDBRANCH   1   2
BRANCH   1  72
ATOM     72  C   UNL A   1      31.416  30.431  26.078  1.00  0.00     0.002 C 
BRANCH  72  73
ATOM     73  C   UNL A   1      31.710  29.397  27.169  1.00  0.00     0.002 C 
BRANCH  73  74
ATOM     74  C   UNL A   1      32.115  28.000  26.705  1.00  0.00     0.021 C 
BRANCH  74  75
ATOM     75  C   UNL A   1      33.602  27.749  26.501  1.00  0.00     0.116 C 
BRANCH  75  76
ATOM     76  N   UNL A   1      34.159  28.256  25.260  1.00  0.00    -0.356 N 
ATOM     77  C   UNL A   1      33.834  28.062  23.947  1.00  0.00     0.228 C 
ATOM     78  H   UNL A   1      34.924  28.861  25.389  1.00  0.00     0.163 HD
ATOM     79  O   UNL A   1      34.257  28.940  23.183  1.00  0.00    -0.274 OA
BRANCH  77  80
ATOM     80  C   UNL A   1      33.105  26.807  23.380  1.00  0.00     0.078 C 
ATOM     81  C   UNL A   1      31.643  27.122  23.049  1.00  0.00     0.048 C 
ATOM     82  C   UNL A   1      33.660  26.600  21.958  1.00  0.00     0.177 C 
ATOM     83  C   UNL A   1      31.350  26.347  21.782  1.00  0.00     0.161 C 
ATOM     84  O   UNL A   1      32.597  26.116  21.124  1.00  0.00    -0.380 OA
BRANCH  80  85
ATOM     85  C   UNL A   1      33.281  25.519  24.223  1.00  0.00     0.012 C 
ATOM     86  C   UNL A   1      34.415  24.531  23.926  1.00  0.00     0.033 C 
ATOM     87  C   UNL A   1      32.043  24.640  24.497  1.00  0.00     0.043 C 
ATOM     88  C   UNL A   1      34.714  23.768  25.226  1.00  0.00     0.161 C 
ATOM     89  C   UNL A   1      32.340  23.724  25.731  1.00  0.00     0.094 C 
ATOM     90  O   UNL A   1      33.681  23.932  26.210  1.00  0.00    -0.372 OA
ATOM     91  C   UNL A   1      31.380  24.038  26.874  1.00  0.00     0.066 C 
ATOM     92  C   UNL A   1      32.092  22.227  25.524  1.00  0.00     0.195 C 
ATOM     93  C   UNL A   1      30.275  23.020  26.736  1.00  0.00     0.163 C 
ATOM     94  O   UNL A   1      30.810  21.886  26.059  1.00  0.00    -0.378 OA
ENDBRANCH  80  85
ENDBRANCH  77  80
ENDBRANCH  75  76
ENDBRANCH  74  75
ENDBRANCH  73  74
ENDBRANCH  72  73
ENDBRANCH   1  72
TORSDOF 17
ENDMDL
