MODEL 1
REMARK VINA RESULT:     -11.9      0.000      0.000
REMARK SMILES O=C(CSc1ccc2ccccc2n1)NCc1ccc(C(=O)NCCCCCCNC(=O)c2ccc(-c3c4nc(c(-c5cccc(S(=O)(=O)[O-])c5F)c5ccc([nH]5)c(-c5cccc(S(=O)(=O)[O-])c5F)c5nc(c(-c6cccc(S(=O)(=O)[O-])c6F)c6ccc3[nH]6)C=C5)C=C4)cc2)cc1
REMARK SMILES IDX 25 1 24 2 23 3 21 4 22 5 20 7 17 8 18 9 97 10 19 11 96 12
REMARK SMILES IDX 16 13 15 14 1 15 2 16 3 18 4 19 5 20 6 21 14 22 7 23 13 24
REMARK SMILES IDX 8 25 12 26 9 27 11 28 10 29 26 30 27 31 28 32 29 33 30 34
REMARK SMILES IDX 31 35 32 37 33 38 34 39 95 40 35 41 94 42 36 43 37 44 38 45
REMARK SMILES IDX 88 46 39 47 93 48 87 49 89 50 40 51 92 52 86 53 85 54 41 56
REMARK SMILES IDX 73 57 53 58 72 59 54 60 57 61 71 62 90 63 55 64 56 65 70 67
REMARK SMILES IDX 91 68 58 69 42 70 43 71 51 72 44 73 46 74 52 75 45 76 47 77
REMARK SMILES IDX 48 78 49 79 50 80 74 81 75 82 83 83 76 84 78 85 84 86 77 87
REMARK SMILES IDX 79 88 80 89 81 90 82 91 59 92 60 93 68 94 61 95 63 96 69 97
REMARK SMILES IDX 62 98 64 99 65 100 66 101 67 102
REMARK H PARENT 23 6 15 17 30 36 89 55 57 66
REMARK Flexibility Score: inf
ROOT
ATOM      1  C   UNL A   1      31.580  28.413  23.792  1.00  0.00     0.021 C 
ENDROOT
BRANCH   1   2
ATOM      2  C   UNL A   1      31.074  26.973  23.672  1.00  0.00     0.116 C 
BRANCH   2   3
ATOM      3  N   UNL A   1      30.905  26.405  24.995  1.00  0.00    -0.352 N 
ATOM      4  C   UNL A   1      31.600  25.452  25.692  1.00  0.00     0.251 C 
ATOM      5  O   UNL A   1      31.184  25.153  26.812  1.00  0.00    -0.269 OA
ATOM      6  H   UNL A   1      30.141  26.778  25.491  1.00  0.00     0.163 HD
BRANCH   4   7
ATOM      7  C   UNL A   1      32.855  24.823  25.193  1.00  0.00     0.039 A 
ATOM      8  C   UNL A   1      35.109  23.403  24.228  1.00  0.00    -0.029 A 
ATOM      9  C   UNL A   1      33.823  23.093  23.771  1.00  0.00     0.006 A 
ATOM     10  C   UNL A   1      35.256  24.483  25.110  1.00  0.00     0.006 A 
ATOM     11  C   UNL A   1      32.710  23.785  24.261  1.00  0.00     0.014 A 
ATOM     12  C   UNL A   1      34.146  25.205  25.561  1.00  0.00     0.014 A 
BRANCH   8  13
ATOM     13  C   UNL A   1      36.347  22.684  23.749  1.00  0.00     0.151 C 
BRANCH  13  14
ATOM     14  N   UNL A   1      37.477  22.805  24.645  1.00  0.00    -0.351 N 
ATOM     15  O   UNL A   1      37.716  20.554  25.010  1.00  0.00    -0.274 OA
ATOM     16  C   UNL A   1      38.118  21.704  25.173  1.00  0.00     0.230 C 
ATOM     17  H   UNL A   1      37.798  23.703  24.887  1.00  0.00     0.163 HD
BRANCH  16  18
ATOM     18  C   UNL A   1      39.312  22.017  26.059  1.00  0.00     0.176 C 
BRANCH  18  19
ATOM     19  S   UNL A   1      40.148  20.509  26.638  1.00  0.00    -0.096 SA
BRANCH  19  20
ATOM     20  C   UNL A   1      41.807  20.878  26.097  1.00  0.00     0.097 A 
ATOM     21  C   UNL A   1      42.288  22.170  26.239  1.00  0.00     0.036 A 
ATOM     22  N   UNL A   1      42.552  19.854  25.624  1.00  0.00    -0.241 NA
ATOM     23  C   UNL A   1      43.605  22.430  25.878  1.00  0.00     0.013 A 
ATOM     24  C   UNL A   1      43.834  20.106  25.287  1.00  0.00     0.072 A 
ATOM     25  C   UNL A   1      44.409  21.390  25.404  1.00  0.00     0.000 A 
ATOM     26  C   UNL A   1      44.642  19.076  24.821  1.00  0.00     0.029 A 
ATOM     27  C   UNL A   1      45.756  21.604  25.063  1.00  0.00     0.010 A 
ATOM     28  C   UNL A   1      45.985  19.283  24.484  1.00  0.00     0.002 A 
ATOM     29  C   UNL A   1      46.543  20.551  24.608  1.00  0.00     0.001 A 
ENDBRANCH  19  20
ENDBRANCH  18  19
ENDBRANCH  16  18
ENDBRANCH  13  14
ENDBRANCH   8  13
ENDBRANCH   4   7
ENDBRANCH   2   3
ENDBRANCH   1   2
BRANCH   1  30
ATOM     30  C   UNL A   1      31.308  29.028  25.172  1.00  0.00     0.002 C 
BRANCH  30  31
ATOM     31  C   UNL A   1      32.411  29.967  25.680  1.00  0.00     0.002 C 
BRANCH  31  32
ATOM     32  C   UNL A   1      31.909  31.162  26.492  1.00  0.00     0.021 C 
BRANCH  32  33
ATOM     33  C   UNL A   1      32.976  31.806  27.372  1.00  0.00     0.116 C 
BRANCH  33  34
ATOM     34  N   UNL A   1      32.743  33.234  27.531  1.00  0.00    -0.352 N 
ATOM     35  C   UNL A   1      33.267  34.098  28.460  1.00  0.00     0.251 C 
ATOM     36  H   UNL A   1      32.122  33.636  26.882  1.00  0.00     0.163 HD
ATOM     37  O   UNL A   1      32.773  35.208  28.619  1.00  0.00    -0.269 OA
BRANCH  35  38
ATOM     38  C   UNL A   1      34.427  33.673  29.272  1.00  0.00     0.039 A 
ATOM     39  C   UNL A   1      34.224  32.816  30.354  1.00  0.00     0.014 A 
ATOM     40  C   UNL A   1      35.712  34.121  28.954  1.00  0.00     0.014 A 
ATOM     41  C   UNL A   1      35.322  32.354  31.081  1.00  0.00     0.010 A 
ATOM     42  C   UNL A   1      36.810  33.602  29.632  1.00  0.00     0.010 A 
ATOM     43  C   UNL A   1      36.627  32.714  30.703  1.00  0.00    -0.014 A 
BRANCH  43  44
ATOM     44  C   UNL A   1      37.813  32.154  31.397  1.00  0.00     0.031 A 
ATOM     45  C   UNL A   1      38.616  31.051  30.761  1.00  0.00     0.074 A 
ATOM     46  C   UNL A   1      38.113  32.577  32.641  1.00  0.00     0.049 A 
ATOM     47  N   UNL A   1      39.641  30.397  31.242  1.00  0.00    -0.248 NA
ATOM     48  C   UNL A   1      38.196  30.608  29.422  1.00  0.00     0.031 C 
ATOM     49  C   UNL A   1      37.366  33.588  33.392  1.00  0.00     0.029 A 
ATOM     50  N   UNL A   1      39.107  32.189  33.504  1.00  0.00    -0.354 N 
ATOM     51  C   UNL A   1      39.969  29.447  30.283  1.00  0.00     0.074 A 
ATOM     52  C   UNL A   1      39.012  29.585  29.207  1.00  0.00     0.031 C 
ATOM     53  C   UNL A   1      37.931  33.743  34.600  1.00  0.00     0.029 A 
ATOM     54  C   UNL A   1      39.053  32.819  34.726  1.00  0.00     0.049 A 
ATOM     55  H   UNL A   1      39.794  31.523  33.271  1.00  0.00     0.167 HD
ATOM     56  C   UNL A   1      40.990  28.557  30.285  1.00  0.00     0.034 A 
ATOM     57  C   UNL A   1      39.810  32.660  35.829  1.00  0.00     0.034 A 
ATOM     58  C   UNL A   1      41.956  28.441  31.344  1.00  0.00     0.049 A 
ATOM     59  C   UNL A   1      40.945  31.673  35.799  1.00  0.00     0.074 A 
ATOM     60  C   UNL A   1      43.077  27.632  31.402  1.00  0.00     0.029 A 
ATOM     61  N   UNL A   1      41.908  29.143  32.539  1.00  0.00    -0.354 N 
ATOM     62  N   UNL A   1      41.337  30.896  34.819  1.00  0.00    -0.248 NA
ATOM     63  C   UNL A   1      41.761  31.563  37.016  1.00  0.00     0.031 C 
ATOM     64  C   UNL A   1      43.685  27.816  32.647  1.00  0.00     0.029 A 
ATOM     65  C   UNL A   1      42.966  28.769  33.350  1.00  0.00     0.049 A 
ATOM     66  H   UNL A   1      41.223  29.808  32.776  1.00  0.00     0.167 HD
ATOM     67  C   UNL A   1      42.462  30.228  35.290  1.00  0.00     0.074 A 
ATOM     68  C   UNL A   1      42.703  30.713  36.633  1.00  0.00     0.031 C 
ATOM     69  C   UNL A   1      43.219  29.288  34.671  1.00  0.00     0.034 A 
BRANCH  56  70
ATOM     70  C   UNL A   1      41.138  27.660  29.082  1.00  0.00     0.023 A 
ATOM     71  C   UNL A   1      40.318  26.519  28.957  1.00  0.00     0.012 A 
ATOM     72  C   UNL A   1      42.045  27.973  28.051  1.00  0.00     0.148 A 
ATOM     73  C   UNL A   1      40.426  25.683  27.846  1.00  0.00     0.002 A 
ATOM     74  C   UNL A   1      42.113  27.163  26.925  1.00  0.00     0.091 A 
ATOM     75  F   UNL A   1      42.829  29.050  28.196  1.00  0.00    -0.205 F 
ATOM     76  C   UNL A   1      41.315  26.011  26.826  1.00  0.00     0.022 A 
BRANCH  74  77
ATOM     77  S   UNL A   1      43.166  27.540  25.520  1.00  0.00     0.127 S 
ATOM     78  O   UNL A   1      42.230  28.215  24.623  1.00  0.00    -0.237 OA
ATOM     79  O   UNL A   1      44.175  28.414  26.118  1.00  0.00    -0.237 OA
ATOM     80  O   UNL A   1      43.675  26.262  25.044  1.00  0.00    -0.744 OA
ENDBRANCH  74  77
ENDBRANCH  56  70
BRANCH  57  81
ATOM     81  C   UNL A   1      39.547  33.489  37.039  1.00  0.00     0.023 A 
ATOM     82  C   UNL A   1      40.036  34.808  37.095  1.00  0.00     0.012 A 
ATOM     83  C   UNL A   1      38.799  32.988  38.121  1.00  0.00     0.148 A 
ATOM     84  C   UNL A   1      39.815  35.601  38.220  1.00  0.00     0.002 A 
ATOM     85  C   UNL A   1      38.531  33.802  39.214  1.00  0.00     0.091 A 
ATOM     86  F   UNL A   1      38.349  31.727  38.051  1.00  0.00    -0.205 F 
ATOM     87  C   UNL A   1      39.055  35.103  39.275  1.00  0.00     0.022 A 
BRANCH  85  88
ATOM     88  S   UNL A   1      37.454  33.290  40.558  1.00  0.00     0.127 S 
ATOM     89  O   UNL A   1      36.254  32.872  39.837  1.00  0.00    -0.237 OA
ATOM     90  O   UNL A   1      38.222  32.202  41.162  1.00  0.00    -0.237 OA
ATOM     91  O   UNL A   1      37.301  34.461  41.409  1.00  0.00    -0.744 OA
ENDBRANCH  85  88
ENDBRANCH  57  81
BRANCH  69  92
ATOM     92  C   UNL A   1      44.399  28.733  35.426  1.00  0.00     0.023 A 
ATOM     93  C   UNL A   1      45.683  29.275  35.219  1.00  0.00     0.012 A 
ATOM     94  C   UNL A   1      44.224  27.723  36.393  1.00  0.00     0.148 A 
ATOM     95  C   UNL A   1      46.779  28.797  35.936  1.00  0.00     0.002 A 
ATOM     96  C   UNL A   1      45.311  27.289  37.141  1.00  0.00     0.091 A 
ATOM     97  F   UNL A   1      42.998  27.209  36.564  1.00  0.00    -0.205 F 
ATOM     98  C   UNL A   1      46.592  27.814  36.904  1.00  0.00     0.022 A 
BRANCH  96  99
ATOM     99  S   UNL A   1      45.152  26.097  38.475  1.00  0.00     0.127 S 
ATOM    100  O   UNL A   1      44.426  26.871  39.481  1.00  0.00    -0.237 OA
ATOM    101  O   UNL A   1      44.374  25.031  37.846  1.00  0.00    -0.237 OA
ATOM    102  O   UNL A   1      46.510  25.719  38.843  1.00  0.00    -0.744 OA
ENDBRANCH  96  99
ENDBRANCH  69  92
ENDBRANCH  43  44
ENDBRANCH  35  38
ENDBRANCH  33  34
ENDBRANCH  32  33
ENDBRANCH  31  32
ENDBRANCH  30  31
ENDBRANCH   1  30
TORSDOF 21
ENDMDL
MODEL 2
REMARK VINA RESULT:     -11.2      1.841      2.113
REMARK SMILES O=C(CSc1ccc2ccccc2n1)NCc1ccc(C(=O)NCCCCCCNC(=O)c2ccc(-c3c4nc(c(-c5cccc(S(=O)(=O)[O-])c5F)c5ccc([nH]5)c(-c5cccc(S(=O)(=O)[O-])c5F)c5nc(c(-c6cccc(S(=O)(=O)[O-])c6F)c6ccc3[nH]6)C=C5)C=C4)cc2)cc1
REMARK SMILES IDX 25 1 24 2 23 3 21 4 22 5 20 7 17 8 18 9 97 10 19 11 96 12
REMARK SMILES IDX 16 13 15 14 1 15 2 16 3 18 4 19 5 20 6 21 14 22 7 23 13 24
REMARK SMILES IDX 8 25 12 26 9 27 11 28 10 29 26 30 27 31 28 32 29 33 30 34
REMARK SMILES IDX 31 35 32 37 33 38 34 39 95 40 35 41 94 42 36 43 37 44 38 45
REMARK SMILES IDX 88 46 39 47 93 48 87 49 89 50 40 51 92 52 86 53 85 54 41 56
REMARK SMILES IDX 73 57 53 58 72 59 54 60 57 61 71 62 90 63 55 64 56 65 70 67
REMARK SMILES IDX 91 68 58 69 42 70 43 71 51 72 44 73 46 74 52 75 45 76 47 77
REMARK SMILES IDX 48 78 49 79 50 80 74 81 75 82 83 83 76 84 78 85 84 86 77 87
REMARK SMILES IDX 79 88 80 89 81 90 82 91 59 92 60 93 68 94 61 95 63 96 69 97
REMARK SMILES IDX 62 98 64 99 65 100 66 101 67 102
REMARK H PARENT 23 6 15 17 30 36 89 55 57 66
REMARK Flexibility Score: inf
ROOT
ATOM      1  C   UNL A   1      31.475  28.321  23.953  1.00  0.00     0.021 C 
ENDROOT
BRANCH   1   2
ATOM      2  C   UNL A   1      30.908  26.910  23.778  1.00  0.00     0.116 C 
BRANCH   2   3
ATOM      3  N   UNL A   1      30.668  26.318  25.080  1.00  0.00    -0.352 N 
ATOM      4  C   UNL A   1      31.304  25.328  25.781  1.00  0.00     0.251 C 
ATOM      5  O   UNL A   1      30.834  25.018  26.877  1.00  0.00    -0.269 OA
ATOM      6  H   UNL A   1      29.896  26.704  25.554  1.00  0.00     0.163 HD
BRANCH   4   7
ATOM      7  C   UNL A   1      32.559  24.671  25.318  1.00  0.00     0.039 A 
ATOM      8  C   UNL A   1      34.828  23.194  24.483  1.00  0.00    -0.029 A 
ATOM      9  C   UNL A   1      33.536  22.722  24.223  1.00  0.00     0.006 A 
ATOM     10  C   UNL A   1      34.965  24.450  25.092  1.00  0.00     0.006 A 
ATOM     11  C   UNL A   1      32.417  23.446  24.651  1.00  0.00     0.014 A 
ATOM     12  C   UNL A   1      33.843  25.194  25.474  1.00  0.00     0.014 A 
BRANCH   8  13
ATOM     13  C   UNL A   1      36.074  22.453  24.060  1.00  0.00     0.151 C 
BRANCH  13  14
ATOM     14  N   UNL A   1      37.218  22.702  24.909  1.00  0.00    -0.351 N 
ATOM     15  O   UNL A   1      37.880  20.511  25.043  1.00  0.00    -0.274 OA
ATOM     16  C   UNL A   1      38.078  21.696  25.297  1.00  0.00     0.230 C 
ATOM     17  H   UNL A   1      37.388  23.619  25.222  1.00  0.00     0.163 HD
BRANCH  16  18
ATOM     18  C   UNL A   1      39.251  22.146  26.152  1.00  0.00     0.176 C 
BRANCH  18  19
ATOM     19  S   UNL A   1      40.422  20.792  26.473  1.00  0.00    -0.096 SA
BRANCH  19  20
ATOM     20  C   UNL A   1      41.935  21.733  26.537  1.00  0.00     0.097 A 
ATOM     21  C   UNL A   1      42.346  22.264  27.750  1.00  0.00     0.036 A 
ATOM     22  N   UNL A   1      42.656  21.834  25.398  1.00  0.00    -0.241 NA
ATOM     23  C   UNL A   1      43.561  22.936  27.801  1.00  0.00     0.013 A 
ATOM     24  C   UNL A   1      43.841  22.476  25.453  1.00  0.00     0.072 A 
ATOM     25  C   UNL A   1      44.340  23.043  26.646  1.00  0.00     0.000 A 
ATOM     26  C   UNL A   1      44.625  22.581  24.310  1.00  0.00     0.029 A 
ATOM     27  C   UNL A   1      45.591  23.684  26.664  1.00  0.00     0.010 A 
ATOM     28  C   UNL A   1      45.874  23.214  24.324  1.00  0.00     0.002 A 
ATOM     29  C   UNL A   1      46.359  23.764  25.506  1.00  0.00     0.001 A 
ENDBRANCH  19  20
ENDBRANCH  18  19
ENDBRANCH  16  18
ENDBRANCH  13  14
ENDBRANCH   8  13
ENDBRANCH   4   7
ENDBRANCH   2   3
ENDBRANCH   1   2
BRANCH   1  30
ATOM     30  C   UNL A   1      31.411  28.816  25.404  1.00  0.00     0.002 C 
BRANCH  30  31
ATOM     31  C   UNL A   1      32.555  29.753  25.810  1.00  0.00     0.002 C 
BRANCH  31  32
ATOM     32  C   UNL A   1      32.112  31.032  26.523  1.00  0.00     0.021 C 
BRANCH  32  33
ATOM     33  C   UNL A   1      33.240  31.761  27.246  1.00  0.00     0.116 C 
BRANCH  33  34
ATOM     34  N   UNL A   1      32.883  33.145  27.528  1.00  0.00    -0.352 N 
ATOM     35  C   UNL A   1      33.371  33.983  28.500  1.00  0.00     0.251 C 
ATOM     36  H   UNL A   1      32.196  33.533  26.940  1.00  0.00     0.163 HD
ATOM     37  O   UNL A   1      32.785  35.025  28.767  1.00  0.00    -0.269 OA
BRANCH  35  38
ATOM     38  C   UNL A   1      34.605  33.613  29.225  1.00  0.00     0.039 A 
ATOM     39  C   UNL A   1      34.513  32.795  30.351  1.00  0.00     0.014 A 
ATOM     40  C   UNL A   1      35.848  34.071  28.781  1.00  0.00     0.014 A 
ATOM     41  C   UNL A   1      35.679  32.382  30.999  1.00  0.00     0.010 A 
ATOM     42  C   UNL A   1      37.011  33.600  29.381  1.00  0.00     0.010 A 
ATOM     43  C   UNL A   1      36.939  32.752  30.497  1.00  0.00    -0.014 A 
BRANCH  43  44
ATOM     44  C   UNL A   1      38.192  32.242  31.108  1.00  0.00     0.031 A 
ATOM     45  C   UNL A   1      38.911  31.067  30.500  1.00  0.00     0.074 A 
ATOM     46  C   UNL A   1      38.633  32.779  32.262  1.00  0.00     0.049 A 
ATOM     47  N   UNL A   1      39.979  30.446  30.927  1.00  0.00    -0.248 NA
ATOM     48  C   UNL A   1      38.341  30.502  29.266  1.00  0.00     0.031 C 
ATOM     49  C   UNL A   1      37.981  33.873  32.987  1.00  0.00     0.029 A 
ATOM     50  N   UNL A   1      39.715  32.461  33.044  1.00  0.00    -0.354 N 
ATOM     51  C   UNL A   1      40.191  29.401  30.037  1.00  0.00     0.074 A 
ATOM     52  C   UNL A   1      39.121  29.449  29.065  1.00  0.00     0.031 C 
ATOM     53  C   UNL A   1      38.678  34.136  34.103  1.00  0.00     0.029 A 
ATOM     54  C   UNL A   1      39.801  33.210  34.195  1.00  0.00     0.049 A 
ATOM     55  H   UNL A   1      40.367  31.764  32.804  1.00  0.00     0.167 HD
ATOM     56  C   UNL A   1      41.200  28.497  30.014  1.00  0.00     0.034 A 
ATOM     57  C   UNL A   1      40.676  33.146  35.218  1.00  0.00     0.034 A 
ATOM     58  C   UNL A   1      42.278  28.469  30.966  1.00  0.00     0.049 A 
ATOM     59  C   UNL A   1      41.794  32.141  35.161  1.00  0.00     0.074 A 
ATOM     60  C   UNL A   1      43.393  27.649  30.980  1.00  0.00     0.029 A 
ATOM     61  N   UNL A   1      42.369  29.285  32.083  1.00  0.00    -0.354 N 
ATOM     62  N   UNL A   1      42.069  31.264  34.226  1.00  0.00    -0.248 NA
ATOM     63  C   UNL A   1      42.742  32.137  36.285  1.00  0.00     0.031 C 
ATOM     64  C   UNL A   1      44.138  27.944  32.125  1.00  0.00     0.029 A 
ATOM     65  C   UNL A   1      43.509  28.975  32.805  1.00  0.00     0.049 A 
ATOM     66  H   UNL A   1      41.719  29.983  32.327  1.00  0.00     0.167 HD
ATOM     67  C   UNL A   1      43.236  30.626  34.633  1.00  0.00     0.074 A 
ATOM     68  C   UNL A   1      43.629  31.237  35.886  1.00  0.00     0.031 C 
ATOM     69  C   UNL A   1      43.911  29.616  34.031  1.00  0.00     0.034 A 
BRANCH  56  70
ATOM     70  C   UNL A   1      41.206  27.483  28.899  1.00  0.00     0.023 A 
ATOM     71  C   UNL A   1      40.287  26.413  28.922  1.00  0.00     0.012 A 
ATOM     72  C   UNL A   1      42.079  27.618  27.801  1.00  0.00     0.148 A 
ATOM     73  C   UNL A   1      40.265  25.472  27.893  1.00  0.00     0.002 A 
ATOM     74  C   UNL A   1      42.017  26.705  26.756  1.00  0.00     0.091 A 
ATOM     75  F   UNL A   1      42.957  28.630  27.804  1.00  0.00    -0.205 F 
ATOM     76  C   UNL A   1      41.120  25.624  26.806  1.00  0.00     0.022 A 
BRANCH  74  77
ATOM     77  S   UNL A   1      43.020  26.856  25.274  1.00  0.00     0.127 S 
ATOM     78  O   UNL A   1      42.744  25.588  24.600  1.00  0.00    -0.237 OA
ATOM     79  O   UNL A   1      42.435  28.030  24.626  1.00  0.00    -0.237 OA
ATOM     80  O   UNL A   1      44.390  27.035  25.732  1.00  0.00    -0.744 OA
ENDBRANCH  74  77
ENDBRANCH  56  70
BRANCH  57  81
ATOM     81  C   UNL A   1      40.557  34.095  36.361  1.00  0.00     0.023 A 
ATOM     82  C   UNL A   1      40.928  35.442  36.185  1.00  0.00     0.012 A 
ATOM     83  C   UNL A   1      40.058  33.677  37.609  1.00  0.00     0.148 A 
ATOM     84  C   UNL A   1      40.837  36.348  37.242  1.00  0.00     0.002 A 
ATOM     85  C   UNL A   1      39.914  34.596  38.641  1.00  0.00     0.091 A 
ATOM     86  F   UNL A   1      39.718  32.389  37.757  1.00  0.00    -0.205 F 
ATOM     87  C   UNL A   1      40.321  35.928  38.466  1.00  0.00     0.022 A 
BRANCH  85  88
ATOM     88  S   UNL A   1      39.139  34.177  40.206  1.00  0.00     0.127 S 
ATOM     89  O   UNL A   1      39.860  32.964  40.582  1.00  0.00    -0.237 OA
ATOM     90  O   UNL A   1      39.446  35.354  41.018  1.00  0.00    -0.237 OA
ATOM     91  O   UNL A   1      37.724  34.003  39.913  1.00  0.00    -0.744 OA
ENDBRANCH  85  88
ENDBRANCH  57  81
BRANCH  69  92
ATOM     92  C   UNL A   1      45.166  29.118  34.702  1.00  0.00     0.023 A 
ATOM     93  C   UNL A   1      45.097  28.045  35.613  1.00  0.00     0.012 A 
ATOM     94  C   UNL A   1      46.422  29.668  34.376  1.00  0.00     0.148 A 
ATOM     95  C   UNL A   1      46.253  27.551  36.215  1.00  0.00     0.002 A 
ATOM     96  C   UNL A   1      47.575  29.135  34.940  1.00  0.00     0.091 A 
ATOM     97  F   UNL A   1      46.466  30.699  33.521  1.00  0.00    -0.205 F 
ATOM     98  C   UNL A   1      47.491  28.087  35.871  1.00  0.00     0.022 A 
BRANCH  96  99
ATOM     99  S   UNL A   1      49.220  29.694  34.486  1.00  0.00     0.127 S 
ATOM    100  O   UNL A   1      49.891  29.731  35.784  1.00  0.00    -0.237 OA
ATOM    101  O   UNL A   1      49.673  28.627  33.594  1.00  0.00    -0.237 OA
ATOM    102  O   UNL A   1      49.043  30.988  33.841  1.00  0.00    -0.744 OA
ENDBRANCH  96  99
ENDBRANCH  69  92
ENDBRANCH  43  44
ENDBRANCH  35  38
ENDBRANCH  33  34
ENDBRANCH  32  33
ENDBRANCH  31  32
ENDBRANCH  30  31
ENDBRANCH   1  30
TORSDOF 21
ENDMDL
MODEL 3
REMARK VINA RESULT:     -11.1      2.130      3.290
REMARK SMILES O=C(CSc1ccc2ccccc2n1)NCc1ccc(C(=O)NCCCCCCNC(=O)c2ccc(-c3c4nc(c(-c5cccc(S(=O)(=O)[O-])c5F)c5ccc([nH]5)c(-c5cccc(S(=O)(=O)[O-])c5F)c5nc(c(-c6cccc(S(=O)(=O)[O-])c6F)c6ccc3[nH]6)C=C5)C=C4)cc2)cc1
REMARK SMILES IDX 25 1 24 2 23 3 21 4 22 5 20 7 17 8 18 9 97 10 19 11 96 12
REMARK SMILES IDX 16 13 15 14 1 15 2 16 3 18 4 19 5 20 6 21 14 22 7 23 13 24
REMARK SMILES IDX 8 25 12 26 9 27 11 28 10 29 26 30 27 31 28 32 29 33 30 34
REMARK SMILES IDX 31 35 32 37 33 38 34 39 95 40 35 41 94 42 36 43 37 44 38 45
REMARK SMILES IDX 88 46 39 47 93 48 87 49 89 50 40 51 92 52 86 53 85 54 41 56
REMARK SMILES IDX 73 57 53 58 72 59 54 60 57 61 71 62 90 63 55 64 56 65 70 67
REMARK SMILES IDX 91 68 58 69 42 70 43 71 51 72 44 73 46 74 52 75 45 76 47 77
REMARK SMILES IDX 48 78 49 79 50 80 74 81 75 82 83 83 76 84 78 85 84 86 77 87
REMARK SMILES IDX 79 88 80 89 81 90 82 91 59 92 60 93 68 94 61 95 63 96 69 97
REMARK SMILES IDX 62 98 64 99 65 100 66 101 67 102
REMARK H PARENT 23 6 15 17 30 36 89 55 57 66
REMARK Flexibility Score: inf
ROOT
ATOM      1  C   UNL A   1      33.452  27.838  24.728  1.00  0.00     0.021 C 
ENDROOT
BRANCH   1   2
ATOM      2  C   UNL A   1      32.414  26.840  24.210  1.00  0.00     0.116 C 
BRANCH   2   3
ATOM      3  N   UNL A   1      31.954  26.006  25.302  1.00  0.00    -0.352 N 
ATOM      4  C   UNL A   1      32.467  24.881  25.892  1.00  0.00     0.251 C 
ATOM      5  O   UNL A   1      31.813  24.369  26.802  1.00  0.00    -0.269 OA
ATOM      6  H   UNL A   1      31.103  26.307  25.699  1.00  0.00     0.163 HD
BRANCH   4   7
ATOM      7  C   UNL A   1      33.793  24.302  25.538  1.00  0.00     0.039 A 
ATOM      8  C   UNL A   1      36.193  22.971  24.830  1.00  0.00    -0.029 A 
ATOM      9  C   UNL A   1      34.980  22.623  24.224  1.00  0.00     0.006 A 
ATOM     10  C   UNL A   1      36.198  24.045  25.732  1.00  0.00     0.006 A 
ATOM     11  C   UNL A   1      33.794  23.271  24.586  1.00  0.00     0.014 A 
ATOM     12  C   UNL A   1      35.018  24.723  26.056  1.00  0.00     0.014 A 
BRANCH   8  13
ATOM     13  C   UNL A   1      37.502  22.301  24.492  1.00  0.00     0.151 C 
BRANCH  13  14
ATOM     14  N   UNL A   1      38.565  22.588  25.430  1.00  0.00    -0.351 N 
ATOM     15  O   UNL A   1      39.042  20.397  25.909  1.00  0.00    -0.274 OA
ATOM     16  C   UNL A   1      39.301  21.591  26.036  1.00  0.00     0.230 C 
ATOM     17  H   UNL A   1      38.769  23.527  25.645  1.00  0.00     0.163 HD
BRANCH  16  18
ATOM     18  C   UNL A   1      40.406  22.077  26.959  1.00  0.00     0.176 C 
BRANCH  18  19
ATOM     19  S   UNL A   1      41.834  22.722  26.035  1.00  0.00    -0.096 SA
BRANCH  19  20
ATOM     20  C   UNL A   1      41.540  24.469  26.240  1.00  0.00     0.097 A 
ATOM     21  C   UNL A   1      42.223  25.364  25.431  1.00  0.00     0.036 A 
ATOM     22  N   UNL A   1      40.608  24.844  27.143  1.00  0.00    -0.241 NA
ATOM     23  C   UNL A   1      41.936  26.718  25.552  1.00  0.00     0.013 A 
ATOM     24  C   UNL A   1      40.322  26.158  27.250  1.00  0.00     0.072 A 
ATOM     25  C   UNL A   1      40.963  27.139  26.463  1.00  0.00     0.000 A 
ATOM     26  C   UNL A   1      39.350  26.584  28.148  1.00  0.00     0.029 A 
ATOM     27  C   UNL A   1      40.618  28.496  26.589  1.00  0.00     0.010 A 
ATOM     28  C   UNL A   1      38.999  27.934  28.274  1.00  0.00     0.002 A 
ATOM     29  C   UNL A   1      39.634  28.891  27.491  1.00  0.00     0.001 A 
ENDBRANCH  19  20
ENDBRANCH  18  19
ENDBRANCH  16  18
ENDBRANCH  13  14
ENDBRANCH   8  13
ENDBRANCH   4   7
ENDBRANCH   2   3
ENDBRANCH   1   2
BRANCH   1  30
ATOM     30  C   UNL A   1      33.323  28.106  26.234  1.00  0.00     0.002 C 
BRANCH  30  31
ATOM     31  C   UNL A   1      34.291  29.164  26.779  1.00  0.00     0.002 C 
BRANCH  31  32
ATOM     32  C   UNL A   1      33.616  30.390  27.399  1.00  0.00     0.021 C 
BRANCH  32  33
ATOM     33  C   UNL A   1      34.593  31.467  27.862  1.00  0.00     0.116 C 
BRANCH  33  34
ATOM     34  N   UNL A   1      33.904  32.714  28.163  1.00  0.00    -0.352 N 
ATOM     35  C   UNL A   1      34.015  33.518  29.270  1.00  0.00     0.251 C 
ATOM     36  H   UNL A   1      33.270  33.023  27.477  1.00  0.00     0.163 HD
ATOM     37  O   UNL A   1      33.182  34.389  29.487  1.00  0.00    -0.269 OA
BRANCH  35  38
ATOM     38  C   UNL A   1      35.145  33.317  30.202  1.00  0.00     0.039 A 
ATOM     39  C   UNL A   1      35.041  32.348  31.200  1.00  0.00     0.014 A 
ATOM     40  C   UNL A   1      36.307  34.084  30.078  1.00  0.00     0.014 A 
ATOM     41  C   UNL A   1      36.130  32.103  32.038  1.00  0.00     0.010 A 
ATOM     42  C   UNL A   1      37.415  33.788  30.864  1.00  0.00     0.010 A 
ATOM     43  C   UNL A   1      37.339  32.796  31.853  1.00  0.00    -0.014 A 
BRANCH  43  44
ATOM     44  C   UNL A   1      38.541  32.479  32.664  1.00  0.00     0.031 A 
ATOM     45  C   UNL A   1      39.637  31.620  32.095  1.00  0.00     0.074 A 
ATOM     46  C   UNL A   1      38.602  32.892  33.945  1.00  0.00     0.049 A 
ATOM     47  N   UNL A   1      40.727  31.188  32.674  1.00  0.00    -0.248 NA
ATOM     48  C   UNL A   1      39.475  31.165  30.704  1.00  0.00     0.031 C 
ATOM     49  C   UNL A   1      37.568  33.669  34.632  1.00  0.00     0.029 A 
ATOM     50  N   UNL A   1      39.561  32.692  34.907  1.00  0.00    -0.354 N 
ATOM     51  C   UNL A   1      41.364  30.387  31.733  1.00  0.00     0.074 A 
ATOM     52  C   UNL A   1      40.521  30.364  30.558  1.00  0.00     0.031 C 
ATOM     53  C   UNL A   1      37.950  33.883  35.901  1.00  0.00     0.029 A 
ATOM     54  C   UNL A   1      39.234  33.229  36.130  1.00  0.00     0.049 A 
ATOM     55  H   UNL A   1      40.403  32.211  34.737  1.00  0.00     0.167 HD
ATOM     56  C   UNL A   1      42.555  29.749  31.829  1.00  0.00     0.034 A 
ATOM     57  C   UNL A   1      39.886  33.185  37.309  1.00  0.00     0.034 A 
ATOM     58  C   UNL A   1      43.404  29.797  32.989  1.00  0.00     0.049 A 
ATOM     59  C   UNL A   1      41.213  32.481  37.384  1.00  0.00     0.074 A 
ATOM     60  C   UNL A   1      44.667  29.258  33.154  1.00  0.00     0.029 A 
ATOM     61  N   UNL A   1      43.070  30.406  34.189  1.00  0.00    -0.354 N 
ATOM     62  N   UNL A   1      41.874  31.864  36.435  1.00  0.00    -0.248 NA
ATOM     63  C   UNL A   1      41.898  32.493  38.684  1.00  0.00     0.031 C 
ATOM     64  C   UNL A   1      45.081  29.507  34.466  1.00  0.00     0.029 A 
ATOM     65  C   UNL A   1      44.093  30.237  35.107  1.00  0.00     0.049 A 
ATOM     66  H   UNL A   1      42.229  30.887  34.364  1.00  0.00     0.167 HD
ATOM     67  C   UNL A   1      43.066  31.441  37.014  1.00  0.00     0.074 A 
ATOM     68  C   UNL A   1      43.045  31.896  38.389  1.00  0.00     0.031 C 
ATOM     69  C   UNL A   1      44.078  30.728  36.461  1.00  0.00     0.034 A 
BRANCH  56  70
ATOM     70  C   UNL A   1      43.031  28.973  30.628  1.00  0.00     0.023 A 
ATOM     71  C   UNL A   1      42.797  27.584  30.557  1.00  0.00     0.012 A 
ATOM     72  C   UNL A   1      43.659  29.623  29.546  1.00  0.00     0.148 A 
ATOM     73  C   UNL A   1      43.215  26.848  29.448  1.00  0.00     0.002 A 
ATOM     74  C   UNL A   1      44.028  28.891  28.424  1.00  0.00     0.091 A 
ATOM     75  F   UNL A   1      43.889  30.939  29.639  1.00  0.00    -0.205 F 
ATOM     76  C   UNL A   1      43.819  27.502  28.378  1.00  0.00     0.022 A 
BRANCH  74  77
ATOM     77  S   UNL A   1      44.741  29.651  26.961  1.00  0.00     0.127 S 
ATOM     78  O   UNL A   1      45.979  30.214  27.496  1.00  0.00    -0.237 OA
ATOM     79  O   UNL A   1      44.925  28.500  26.077  1.00  0.00    -0.237 OA
ATOM     80  O   UNL A   1      43.762  30.624  26.497  1.00  0.00    -0.744 OA
ENDBRANCH  74  77
ENDBRANCH  56  70
BRANCH  57  81
ATOM     81  C   UNL A   1      39.314  33.869  38.503  1.00  0.00     0.023 A 
ATOM     82  C   UNL A   1      39.683  35.199  38.783  1.00  0.00     0.012 A 
ATOM     83  C   UNL A   1      38.391  33.221  39.345  1.00  0.00     0.148 A 
ATOM     84  C   UNL A   1      39.171  35.859  39.900  1.00  0.00     0.002 A 
ATOM     85  C   UNL A   1      37.839  33.902  40.423  1.00  0.00     0.091 A 
ATOM     86  F   UNL A   1      38.058  31.953  39.065  1.00  0.00    -0.205 F 
ATOM     87  C   UNL A   1      38.243  35.215  40.714  1.00  0.00     0.022 A 
BRANCH  85  88
ATOM     88  S   UNL A   1      36.542  33.199  41.447  1.00  0.00     0.127 S 
ATOM     89  O   UNL A   1      36.088  34.367  42.199  1.00  0.00    -0.237 OA
ATOM     90  O   UNL A   1      35.599  32.707  40.443  1.00  0.00    -0.237 OA
ATOM     91  O   UNL A   1      37.181  32.154  42.233  1.00  0.00    -0.744 OA
ENDBRANCH  85  88
ENDBRANCH  57  81
BRANCH  69  92
ATOM     92  C   UNL A   1      45.267  30.414  37.333  1.00  0.00     0.023 A 
ATOM     93  C   UNL A   1      46.315  31.347  37.455  1.00  0.00     0.012 A 
ATOM     94  C   UNL A   1      45.312  29.223  38.085  1.00  0.00     0.148 A 
ATOM     95  C   UNL A   1      47.405  31.086  38.285  1.00  0.00     0.002 A 
ATOM     96  C   UNL A   1      46.374  28.993  38.950  1.00  0.00     0.091 A 
ATOM     97  F   UNL A   1      44.314  28.340  37.943  1.00  0.00    -0.205 F 
ATOM     98  C   UNL A   1      47.429  29.916  39.040  1.00  0.00     0.022 A 
BRANCH  96  99
ATOM     99  S   UNL A   1      46.447  27.563  40.034  1.00  0.00     0.127 S 
ATOM    100  O   UNL A   1      47.195  26.609  39.219  1.00  0.00    -0.237 OA
ATOM    101  O   UNL A   1      47.178  28.087  41.187  1.00  0.00    -0.237 OA
ATOM    102  O   UNL A   1      45.064  27.196  40.310  1.00  0.00    -0.744 OA
ENDBRANCH  96  99
ENDBRANCH  69  92
ENDBRANCH  43  44
ENDBRANCH  35  38
ENDBRANCH  33  34
ENDBRANCH  32  33
ENDBRANCH  31  32
ENDBRANCH  30  31
ENDBRANCH   1  30
TORSDOF 21
ENDMDL
