MODEL 1
REMARK VINA RESULT:     -11.0      0.000      0.000
REMARK SMILES CC(C)n1c(CCC(=O)NCCCCCCNC(=O)c2ccc(-c3c4nc(c(-c5cccc(S(=O)(=O)[O-])c5F)c5ccc([nH]5)c(-c5cccc(S(=O)(=O)[O-])c5F)c5nc(c(-c6cccc(S(=O)(=O)[O-])c6F)c6ccc3[nH]6)C=C5)C=C4)cc2)ccc1-c1ccc(F)cc1
REMARK SMILES IDX 13 1 12 2 11 3 10 4 8 5 9 6 7 8 6 9 5 10 4 11 85 12 83 13
REMARK SMILES IDX 84 14 2 15 1 16 3 17 86 18 87 19 92 20 88 21 91 22 89 23
REMARK SMILES IDX 90 24 14 25 15 26 16 27 17 28 18 29 19 31 20 32 21 33 82 34
REMARK SMILES IDX 22 35 81 36 23 37 24 38 25 39 75 40 26 41 80 42 74 43 76 44
REMARK SMILES IDX 27 45 79 46 73 47 72 48 28 50 60 51 40 52 59 53 41 54 44 55
REMARK SMILES IDX 58 56 77 57 42 58 43 59 57 61 78 62 45 63 29 64 30 65 38 66
REMARK SMILES IDX 31 67 33 68 39 69 32 70 34 71 35 72 36 73 37 74 61 75 62 76
REMARK SMILES IDX 70 77 63 78 65 79 71 80 64 81 66 82 67 83 68 84 69 85 46 86
REMARK SMILES IDX 47 87 55 88 48 89 50 90 56 91 49 92 51 93 52 94 53 95 54 96
REMARK H PARENT 10 7 17 30 76 49 44 60
REMARK Flexibility Score: inf
ROOT
ATOM      1  C   UNL A   1      37.999  22.042  25.458  1.00  0.00     0.002 C 
ENDROOT
BRANCH   1   2
ATOM      2  C   UNL A   1      37.189  23.314  25.746  1.00  0.00     0.021 C 
BRANCH   2   3
ATOM      3  C   UNL A   1      35.669  23.140  25.663  1.00  0.00     0.116 C 
BRANCH   3   4
ATOM      4  N   UNL A   1      35.105  23.523  24.379  1.00  0.00    -0.356 N 
ATOM      5  C   UNL A   1      34.370  24.619  24.032  1.00  0.00     0.220 C 
ATOM      6  O   UNL A   1      34.020  24.732  22.853  1.00  0.00    -0.275 OA
ATOM      7  H   UNL A   1      35.280  22.892  23.644  1.00  0.00     0.163 HD
BRANCH   5   8
ATOM      8  C   UNL A   1      34.021  25.682  25.050  1.00  0.00     0.106 C 
BRANCH   8   9
ATOM      9  C   UNL A   1      32.668  25.447  25.719  1.00  0.00     0.064 C 
BRANCH   9  10
ATOM     10  C   UNL A   1      31.491  25.848  24.874  1.00  0.00     0.019 A 
ATOM     11  N   UNL A   1      30.970  27.124  24.664  1.00  0.00    -0.342 N 
ATOM     12  C   UNL A   1      29.904  27.023  23.754  1.00  0.00     0.048 A 
ATOM     13  C   UNL A   1      30.679  24.956  24.189  1.00  0.00     0.024 A 
ATOM     14  C   UNL A   1      29.690  25.683  23.503  1.00  0.00     0.029 A 
BRANCH  11  15
ATOM     15  C   UNL A   1      31.362  28.416  25.249  1.00  0.00     0.081 C 
ATOM     16  C   UNL A   1      31.440  28.496  26.774  1.00  0.00     0.031 C 
ATOM     17  C   UNL A   1      32.646  28.991  24.644  1.00  0.00     0.031 C 
ENDBRANCH  11  15
BRANCH  12  18
ATOM     18  C   UNL A   1      29.248  28.164  23.106  1.00  0.00    -0.002 A 
ATOM     19  C   UNL A   1      27.914  28.502  23.319  1.00  0.00     0.013 A 
ATOM     20  C   UNL A   1      30.004  28.948  22.230  1.00  0.00     0.013 A 
ATOM     21  C   UNL A   1      27.380  29.648  22.711  1.00  0.00     0.040 A 
ATOM     22  C   UNL A   1      29.498  30.107  21.650  1.00  0.00     0.040 A 
ATOM     23  C   UNL A   1      28.182  30.452  21.904  1.00  0.00     0.123 A 
ATOM     24  F   UNL A   1      27.669  31.536  21.307  1.00  0.00    -0.207 F 
ENDBRANCH  12  18
ENDBRANCH   9  10
ENDBRANCH   8   9
ENDBRANCH   5   8
ENDBRANCH   3   4
ENDBRANCH   2   3
ENDBRANCH   1   2
BRANCH   1  25
ATOM     25  C   UNL A   1      39.336  21.788  26.209  1.00  0.00     0.002 C 
BRANCH  25  26
ATOM     26  C   UNL A   1      40.238  20.559  25.939  1.00  0.00     0.021 C 
BRANCH  26  27
ATOM     27  C   UNL A   1      41.697  20.572  26.460  1.00  0.00     0.116 C 
BRANCH  27  28
ATOM     28  N   UNL A   1      42.601  21.282  25.561  1.00  0.00    -0.352 N 
ATOM     29  C   UNL A   1      42.912  22.613  25.387  1.00  0.00     0.251 C 
ATOM     30  H   UNL A   1      43.090  20.684  24.950  1.00  0.00     0.163 HD
ATOM     31  O   UNL A   1      43.423  22.898  24.298  1.00  0.00    -0.269 OA
BRANCH  29  32
ATOM     32  C   UNL A   1      42.711  23.715  26.378  1.00  0.00     0.039 A 
ATOM     33  C   UNL A   1      43.112  25.009  25.998  1.00  0.00     0.014 A 
ATOM     34  C   UNL A   1      42.284  23.534  27.692  1.00  0.00     0.014 A 
ATOM     35  C   UNL A   1      43.033  26.093  26.887  1.00  0.00     0.010 A 
ATOM     36  C   UNL A   1      42.287  24.599  28.617  1.00  0.00     0.010 A 
ATOM     37  C   UNL A   1      42.591  25.901  28.202  1.00  0.00    -0.014 A 
BRANCH  37  38
ATOM     38  C   UNL A   1      42.113  27.096  28.979  1.00  0.00     0.031 A 
ATOM     39  C   UNL A   1      42.987  27.323  30.253  1.00  0.00     0.074 A 
ATOM     40  C   UNL A   1      40.992  27.768  28.566  1.00  0.00     0.049 A 
ATOM     41  N   UNL A   1      42.686  27.787  31.439  1.00  0.00    -0.248 NA
ATOM     42  C   UNL A   1      44.396  26.835  30.229  1.00  0.00     0.031 C 
ATOM     43  C   UNL A   1      40.277  27.549  27.289  1.00  0.00     0.029 A 
ATOM     44  N   UNL A   1      40.226  28.779  29.127  1.00  0.00    -0.354 N 
ATOM     45  C   UNL A   1      43.896  27.829  32.184  1.00  0.00     0.074 A 
ATOM     46  C   UNL A   1      44.861  27.084  31.449  1.00  0.00     0.031 C 
ATOM     47  C   UNL A   1      39.171  28.328  27.209  1.00  0.00     0.029 A 
ATOM     48  C   UNL A   1      39.049  29.134  28.412  1.00  0.00     0.049 A 
ATOM     49  H   UNL A   1      40.481  29.223  29.967  1.00  0.00     0.167 HD
ATOM     50  C   UNL A   1      44.113  28.610  33.282  1.00  0.00     0.034 A 
ATOM     51  C   UNL A   1      38.031  29.979  28.784  1.00  0.00     0.034 A 
ATOM     52  C   UNL A   1      42.951  29.363  33.609  1.00  0.00     0.049 A 
ATOM     53  C   UNL A   1      38.465  30.559  30.056  1.00  0.00     0.074 A 
ATOM     54  C   UNL A   1      41.882  29.252  34.458  1.00  0.00     0.029 A 
ATOM     55  N   UNL A   1      42.813  30.511  32.879  1.00  0.00    -0.354 N 
ATOM     56  N   UNL A   1      39.307  31.537  30.168  1.00  0.00    -0.248 NA
ATOM     57  C   UNL A   1      37.993  29.948  31.300  1.00  0.00     0.031 C 
ATOM     58  C   UNL A   1      41.003  30.305  34.100  1.00  0.00     0.029 A 
ATOM     59  C   UNL A   1      41.507  30.907  32.949  1.00  0.00     0.049 A 
ATOM     60  H   UNL A   1      43.530  30.972  32.387  1.00  0.00     0.167 HD
ATOM     61  C   UNL A   1      39.711  31.440  31.474  1.00  0.00     0.074 A 
ATOM     62  C   UNL A   1      38.701  30.666  32.165  1.00  0.00     0.031 C 
ATOM     63  C   UNL A   1      41.012  31.621  31.807  1.00  0.00     0.034 A 
BRANCH  50  64
ATOM     64  C   UNL A   1      45.394  29.040  33.996  1.00  0.00     0.023 A 
ATOM     65  C   UNL A   1      45.363  28.924  35.417  1.00  0.00     0.012 A 
ATOM     66  C   UNL A   1      46.447  29.803  33.452  1.00  0.00     0.148 A 
ATOM     67  C   UNL A   1      46.232  29.624  36.254  1.00  0.00     0.002 A 
ATOM     68  C   UNL A   1      47.361  30.450  34.297  1.00  0.00     0.091 A 
ATOM     69  F   UNL A   1      46.525  29.988  32.131  1.00  0.00    -0.205 F 
ATOM     70  C   UNL A   1      47.227  30.399  35.692  1.00  0.00     0.022 A 
BRANCH  68  71
ATOM     71  S   UNL A   1      48.769  31.388  33.684  1.00  0.00     0.127 S 
ATOM     72  O   UNL A   1      49.420  31.813  34.908  1.00  0.00    -0.237 OA
ATOM     73  O   UNL A   1      49.503  30.373  32.921  1.00  0.00    -0.237 OA
ATOM     74  O   UNL A   1      48.194  32.442  32.844  1.00  0.00    -0.744 OA
ENDBRANCH  68  71
ENDBRANCH  50  64
BRANCH  51  75
ATOM     75  C   UNL A   1      36.646  30.400  28.316  1.00  0.00     0.023 A 
ATOM     76  C   UNL A   1      35.649  29.506  27.905  1.00  0.00     0.012 A 
ATOM     77  C   UNL A   1      36.274  31.788  28.295  1.00  0.00     0.148 A 
ATOM     78  C   UNL A   1      34.348  29.956  27.576  1.00  0.00     0.002 A 
ATOM     79  C   UNL A   1      34.970  32.220  28.066  1.00  0.00     0.091 A 
ATOM     80  F   UNL A   1      37.205  32.730  28.475  1.00  0.00    -0.205 F 
ATOM     81  C   UNL A   1      33.997  31.301  27.693  1.00  0.00     0.022 A 
BRANCH  79  82
ATOM     82  S   UNL A   1      34.461  33.932  28.353  1.00  0.00     0.127 S 
ATOM     83  O   UNL A   1      35.014  34.210  29.676  1.00  0.00    -0.237 OA
ATOM     84  O   UNL A   1      35.131  34.624  27.251  1.00  0.00    -0.237 OA
ATOM     85  O   UNL A   1      33.005  33.952  28.281  1.00  0.00    -0.744 OA
ENDBRANCH  79  82
ENDBRANCH  51  75
BRANCH  63  86
ATOM     86  C   UNL A   1      41.862  32.188  30.677  1.00  0.00     0.023 A 
ATOM     87  C   UNL A   1      42.673  31.297  29.957  1.00  0.00     0.012 A 
ATOM     88  C   UNL A   1      41.992  33.576  30.404  1.00  0.00     0.148 A 
ATOM     89  C   UNL A   1      43.577  31.766  28.999  1.00  0.00     0.002 A 
ATOM     90  C   UNL A   1      42.897  34.044  29.452  1.00  0.00     0.091 A 
ATOM     91  F   UNL A   1      41.219  34.429  31.077  1.00  0.00    -0.205 F 
ATOM     92  C   UNL A   1      43.690  33.133  28.746  1.00  0.00     0.022 A 
BRANCH  90  93
ATOM     93  S   UNL A   1      43.157  35.794  29.088  1.00  0.00     0.127 S 
ATOM     94  O   UNL A   1      43.652  36.316  30.363  1.00  0.00    -0.237 OA
ATOM     95  O   UNL A   1      44.165  35.740  28.033  1.00  0.00    -0.237 OA
ATOM     96  O   UNL A   1      41.865  36.338  28.680  1.00  0.00    -0.744 OA
ENDBRANCH  90  93
ENDBRANCH  63  86
ENDBRANCH  37  38
ENDBRANCH  29  32
ENDBRANCH  27  28
ENDBRANCH  26  27
ENDBRANCH  25  26
ENDBRANCH   1  25
TORSDOF 20
ENDMDL
MODEL 2
REMARK VINA RESULT:     -10.8      3.835      9.068
REMARK SMILES CC(C)n1c(CCC(=O)NCCCCCCNC(=O)c2ccc(-c3c4nc(c(-c5cccc(S(=O)(=O)[O-])c5F)c5ccc([nH]5)c(-c5cccc(S(=O)(=O)[O-])c5F)c5nc(c(-c6cccc(S(=O)(=O)[O-])c6F)c6ccc3[nH]6)C=C5)C=C4)cc2)ccc1-c1ccc(F)cc1
REMARK SMILES IDX 13 1 12 2 11 3 10 4 8 5 9 6 7 8 6 9 5 10 4 11 85 12 83 13
REMARK SMILES IDX 84 14 2 15 1 16 3 17 86 18 87 19 92 20 88 21 91 22 89 23
REMARK SMILES IDX 90 24 14 25 15 26 16 27 17 28 18 29 19 31 20 32 21 33 82 34
REMARK SMILES IDX 22 35 81 36 23 37 24 38 25 39 75 40 26 41 80 42 74 43 76 44
REMARK SMILES IDX 27 45 79 46 73 47 72 48 28 50 60 51 40 52 59 53 41 54 44 55
REMARK SMILES IDX 58 56 77 57 42 58 43 59 57 61 78 62 45 63 29 64 30 65 38 66
REMARK SMILES IDX 31 67 33 68 39 69 32 70 34 71 35 72 36 73 37 74 61 75 62 76
REMARK SMILES IDX 70 77 63 78 65 79 71 80 64 81 66 82 67 83 68 84 69 85 46 86
REMARK SMILES IDX 47 87 55 88 48 89 50 90 56 91 49 92 51 93 52 94 53 95 54 96
REMARK H PARENT 10 7 17 30 76 49 44 60
REMARK Flexibility Score: inf
ROOT
ATOM      1  C   UNL A   1      32.063  28.519  24.548  1.00  0.00     0.002 C 
ENDROOT
BRANCH   1   2
ATOM      2  C   UNL A   1      31.619  28.961  23.145  1.00  0.00     0.021 C 
BRANCH   2   3
ATOM      3  C   UNL A   1      30.375  28.243  22.611  1.00  0.00     0.116 C 
BRANCH   3   4
ATOM      4  N   UNL A   1      29.585  27.593  23.642  1.00  0.00    -0.356 N 
ATOM      5  C   UNL A   1      29.432  26.268  23.932  1.00  0.00     0.220 C 
ATOM      6  O   UNL A   1      28.713  25.963  24.887  1.00  0.00    -0.275 OA
ATOM      7  H   UNL A   1      29.080  28.205  24.225  1.00  0.00     0.163 HD
BRANCH   5   8
ATOM      8  C   UNL A   1      30.148  25.204  23.129  1.00  0.00     0.106 C 
BRANCH   8   9
ATOM      9  C   UNL A   1      30.830  24.154  24.003  1.00  0.00     0.064 C 
BRANCH   9  10
ATOM     10  C   UNL A   1      32.330  24.255  24.022  1.00  0.00     0.019 A 
ATOM     11  N   UNL A   1      33.237  23.536  24.799  1.00  0.00    -0.342 N 
ATOM     12  C   UNL A   1      34.538  23.926  24.437  1.00  0.00     0.048 A 
ATOM     13  C   UNL A   1      33.063  25.163  23.272  1.00  0.00     0.024 A 
ATOM     14  C   UNL A   1      34.430  24.965  23.536  1.00  0.00     0.029 A 
BRANCH  11  15
ATOM     15  C   UNL A   1      32.998  22.541  25.856  1.00  0.00     0.081 C 
ATOM     16  C   UNL A   1      32.095  22.957  27.017  1.00  0.00     0.031 C 
ATOM     17  C   UNL A   1      32.540  21.182  25.317  1.00  0.00     0.031 C 
ENDBRANCH  11  15
BRANCH  12  18
ATOM     18  C   UNL A   1      35.763  23.240  24.860  1.00  0.00    -0.002 A 
ATOM     19  C   UNL A   1      36.108  21.959  24.437  1.00  0.00     0.013 A 
ATOM     20  C   UNL A   1      36.625  23.909  25.734  1.00  0.00     0.013 A 
ATOM     21  C   UNL A   1      37.331  21.399  24.836  1.00  0.00     0.040 A 
ATOM     22  C   UNL A   1      37.856  23.381  26.108  1.00  0.00     0.040 A 
ATOM     23  C   UNL A   1      38.203  22.123  25.645  1.00  0.00     0.123 A 
ATOM     24  F   UNL A   1      39.362  21.583  26.044  1.00  0.00    -0.207 F 
ENDBRANCH  12  18
ENDBRANCH   9  10
ENDBRANCH   8   9
ENDBRANCH   5   8
ENDBRANCH   3   4
ENDBRANCH   2   3
ENDBRANCH   1   2
BRANCH   1  25
ATOM     25  C   UNL A   1      32.679  29.556  25.528  1.00  0.00     0.002 C 
BRANCH  25  26
ATOM     26  C   UNL A   1      33.137  29.198  26.962  1.00  0.00     0.021 C 
BRANCH  26  27
ATOM     27  C   UNL A   1      34.653  29.144  27.274  1.00  0.00     0.116 C 
BRANCH  27  28
ATOM     28  N   UNL A   1      35.058  30.163  28.237  1.00  0.00    -0.352 N 
ATOM     29  C   UNL A   1      36.142  30.295  29.077  1.00  0.00     0.251 C 
ATOM     30  H   UNL A   1      34.422  30.911  28.301  1.00  0.00     0.163 HD
ATOM     31  O   UNL A   1      35.987  31.076  30.022  1.00  0.00    -0.269 OA
BRANCH  29  32
ATOM     32  C   UNL A   1      37.465  29.611  28.943  1.00  0.00     0.039 A 
ATOM     33  C   UNL A   1      38.132  29.725  27.707  1.00  0.00     0.014 A 
ATOM     34  C   UNL A   1      38.021  28.761  29.897  1.00  0.00     0.014 A 
ATOM     35  C   UNL A   1      39.341  29.056  27.462  1.00  0.00     0.010 A 
ATOM     36  C   UNL A   1      39.187  28.016  29.624  1.00  0.00     0.010 A 
ATOM     37  C   UNL A   1      39.897  28.213  28.433  1.00  0.00    -0.014 A 
BRANCH  37  38
ATOM     38  C   UNL A   1      41.354  27.863  28.330  1.00  0.00     0.031 A 
ATOM     39  C   UNL A   1      42.253  29.110  28.607  1.00  0.00     0.074 A 
ATOM     40  C   UNL A   1      41.722  26.598  27.952  1.00  0.00     0.049 A 
ATOM     41  N   UNL A   1      43.414  29.466  28.122  1.00  0.00    -0.248 NA
ATOM     42  C   UNL A   1      41.699  30.190  29.474  1.00  0.00     0.031 C 
ATOM     43  C   UNL A   1      40.808  25.443  27.802  1.00  0.00     0.029 A 
ATOM     44  N   UNL A   1      42.937  26.016  27.621  1.00  0.00    -0.354 N 
ATOM     45  C   UNL A   1      43.785  30.668  28.783  1.00  0.00     0.074 A 
ATOM     46  C   UNL A   1      42.628  31.140  29.466  1.00  0.00     0.031 C 
ATOM     47  C   UNL A   1      41.472  24.350  27.354  1.00  0.00     0.029 A 
ATOM     48  C   UNL A   1      42.877  24.670  27.167  1.00  0.00     0.049 A 
ATOM     49  H   UNL A   1      43.788  26.504  27.698  1.00  0.00     0.167 HD
ATOM     50  C   UNL A   1      45.060  31.143  28.889  1.00  0.00     0.034 A 
ATOM     51  C   UNL A   1      43.876  23.888  26.638  1.00  0.00     0.034 A 
ATOM     52  C   UNL A   1      45.979  30.286  28.221  1.00  0.00     0.049 A 
ATOM     53  C   UNL A   1      45.089  24.700  26.746  1.00  0.00     0.074 A 
ATOM     54  C   UNL A   1      46.588  30.218  26.996  1.00  0.00     0.029 A 
ATOM     55  N   UNL A   1      46.369  29.207  28.965  1.00  0.00    -0.354 N 
ATOM     56  N   UNL A   1      45.785  24.840  27.829  1.00  0.00    -0.248 NA
ATOM     57  C   UNL A   1      45.512  25.483  25.583  1.00  0.00     0.031 C 
ATOM     58  C   UNL A   1      47.244  28.962  26.968  1.00  0.00     0.029 A 
ATOM     59  C   UNL A   1      46.873  28.263  28.115  1.00  0.00     0.049 A 
ATOM     60  H   UNL A   1      46.300  29.124  29.942  1.00  0.00     0.167 HD
ATOM     61  C   UNL A   1      46.522  25.968  27.571  1.00  0.00     0.074 A 
ATOM     62  C   UNL A   1      46.527  26.141  26.133  1.00  0.00     0.031 C 
ATOM     63  C   UNL A   1      46.714  26.900  28.535  1.00  0.00     0.034 A 
BRANCH  50  64
ATOM     64  C   UNL A   1      45.690  32.191  29.806  1.00  0.00     0.023 A 
ATOM     65  C   UNL A   1      46.199  33.347  29.144  1.00  0.00     0.012 A 
ATOM     66  C   UNL A   1      46.091  32.009  31.145  1.00  0.00     0.148 A 
ATOM     67  C   UNL A   1      47.146  34.195  29.718  1.00  0.00     0.002 A 
ATOM     68  C   UNL A   1      46.991  32.904  31.742  1.00  0.00     0.091 A 
ATOM     69  F   UNL A   1      45.684  30.931  31.822  1.00  0.00    -0.205 F 
ATOM     70  C   UNL A   1      47.552  33.966  31.017  1.00  0.00     0.022 A 
BRANCH  68  71
ATOM     71  S   UNL A   1      47.500  32.780  33.463  1.00  0.00     0.127 S 
ATOM     72  O   UNL A   1      46.245  32.930  34.174  1.00  0.00    -0.237 OA
ATOM     73  O   UNL A   1      48.078  31.433  33.515  1.00  0.00    -0.237 OA
ATOM     74  O   UNL A   1      48.492  33.844  33.649  1.00  0.00    -0.744 OA
ENDBRANCH  68  71
ENDBRANCH  50  64
BRANCH  51  75
ATOM     75  C   UNL A   1      44.053  22.541  25.954  1.00  0.00     0.023 A 
ATOM     76  C   UNL A   1      45.119  22.224  25.103  1.00  0.00     0.012 A 
ATOM     77  C   UNL A   1      43.108  21.481  26.178  1.00  0.00     0.148 A 
ATOM     78  C   UNL A   1      45.278  20.919  24.579  1.00  0.00     0.002 A 
ATOM     79  C   UNL A   1      43.317  20.174  25.742  1.00  0.00     0.091 A 
ATOM     80  F   UNL A   1      41.957  21.736  26.808  1.00  0.00    -0.205 F 
ATOM     81  C   UNL A   1      44.405  19.888  24.927  1.00  0.00     0.022 A 
BRANCH  79  82
ATOM     82  S   UNL A   1      42.283  18.799  26.298  1.00  0.00     0.127 S 
ATOM     83  O   UNL A   1      42.983  17.636  25.755  1.00  0.00    -0.237 OA
ATOM     84  O   UNL A   1      42.367  18.940  27.752  1.00  0.00    -0.237 OA
ATOM     85  O   UNL A   1      40.953  19.026  25.746  1.00  0.00    -0.744 OA
ENDBRANCH  79  82
ENDBRANCH  51  75
BRANCH  63  86
ATOM     86  C   UNL A   1      46.286  26.444  29.924  1.00  0.00     0.023 A 
ATOM     87  C   UNL A   1      44.919  26.490  30.237  1.00  0.00     0.012 A 
ATOM     88  C   UNL A   1      47.195  26.114  30.964  1.00  0.00     0.148 A 
ATOM     89  C   UNL A   1      44.470  26.215  31.532  1.00  0.00     0.002 A 
ATOM     90  C   UNL A   1      46.749  25.845  32.258  1.00  0.00     0.091 A 
ATOM     91  F   UNL A   1      48.496  26.060  30.674  1.00  0.00    -0.205 F 
ATOM     92  C   UNL A   1      45.380  25.894  32.540  1.00  0.00     0.022 A 
BRANCH  90  93
ATOM     93  S   UNL A   1      47.847  25.471  33.642  1.00  0.00     0.127 S 
ATOM     94  O   UNL A   1      48.593  26.720  33.805  1.00  0.00    -0.237 OA
ATOM     95  O   UNL A   1      46.899  25.196  34.718  1.00  0.00    -0.237 OA
ATOM     96  O   UNL A   1      48.668  24.333  33.237  1.00  0.00    -0.744 OA
ENDBRANCH  90  93
ENDBRANCH  63  86
ENDBRANCH  37  38
ENDBRANCH  29  32
ENDBRANCH  27  28
ENDBRANCH  26  27
ENDBRANCH  25  26
ENDBRANCH   1  25
TORSDOF 20
ENDMDL
MODEL 3
REMARK VINA RESULT:     -10.6      3.393      8.611
REMARK SMILES CC(C)n1c(CCC(=O)NCCCCCCNC(=O)c2ccc(-c3c4nc(c(-c5cccc(S(=O)(=O)[O-])c5F)c5ccc([nH]5)c(-c5cccc(S(=O)(=O)[O-])c5F)c5nc(c(-c6cccc(S(=O)(=O)[O-])c6F)c6ccc3[nH]6)C=C5)C=C4)cc2)ccc1-c1ccc(F)cc1
REMARK SMILES IDX 13 1 12 2 11 3 10 4 8 5 9 6 7 8 6 9 5 10 4 11 85 12 83 13
REMARK SMILES IDX 84 14 2 15 1 16 3 17 86 18 87 19 92 20 88 21 91 22 89 23
REMARK SMILES IDX 90 24 14 25 15 26 16 27 17 28 18 29 19 31 20 32 21 33 82 34
REMARK SMILES IDX 22 35 81 36 23 37 24 38 25 39 75 40 26 41 80 42 74 43 76 44
REMARK SMILES IDX 27 45 79 46 73 47 72 48 28 50 60 51 40 52 59 53 41 54 44 55
REMARK SMILES IDX 58 56 77 57 42 58 43 59 57 61 78 62 45 63 29 64 30 65 38 66
REMARK SMILES IDX 31 67 33 68 39 69 32 70 34 71 35 72 36 73 37 74 61 75 62 76
REMARK SMILES IDX 70 77 63 78 65 79 71 80 64 81 66 82 67 83 68 84 69 85 46 86
REMARK SMILES IDX 47 87 55 88 48 89 50 90 56 91 49 92 51 93 52 94 53 95 54 96
REMARK H PARENT 10 7 17 30 76 49 44 60
REMARK Flexibility Score: inf
ROOT
ATOM      1  C   UNL A   1      38.611  20.783  25.418  1.00  0.00     0.002 C 
ENDROOT
BRANCH   1   2
ATOM      2  C   UNL A   1      37.553  19.748  25.008  1.00  0.00     0.021 C 
BRANCH   2   3
ATOM      3  C   UNL A   1      36.107  20.252  25.068  1.00  0.00     0.116 C 
BRANCH   3   4
ATOM      4  N   UNL A   1      35.122  19.256  24.681  1.00  0.00    -0.356 N 
ATOM      5  C   UNL A   1      33.762  19.340  24.618  1.00  0.00     0.220 C 
ATOM      6  O   UNL A   1      33.137  18.348  24.230  1.00  0.00    -0.275 OA
ATOM      7  H   UNL A   1      35.496  18.383  24.423  1.00  0.00     0.163 HD
BRANCH   5   8
ATOM      8  C   UNL A   1      33.039  20.619  24.978  1.00  0.00     0.106 C 
BRANCH   8   9
ATOM      9  C   UNL A   1      32.854  21.557  23.788  1.00  0.00     0.064 C 
BRANCH   9  10
ATOM     10  C   UNL A   1      32.296  22.905  24.152  1.00  0.00     0.019 A 
ATOM     11  N   UNL A   1      32.948  23.976  24.760  1.00  0.00    -0.342 N 
ATOM     12  C   UNL A   1      32.046  25.050  24.851  1.00  0.00     0.048 A 
ATOM     13  C   UNL A   1      30.972  23.278  23.976  1.00  0.00     0.024 A 
ATOM     14  C   UNL A   1      30.815  24.603  24.418  1.00  0.00     0.029 A 
BRANCH  11  15
ATOM     15  C   UNL A   1      34.321  24.078  25.280  1.00  0.00     0.081 C 
ATOM     16  C   UNL A   1      34.651  23.282  26.542  1.00  0.00     0.031 C 
ATOM     17  C   UNL A   1      35.392  23.814  24.217  1.00  0.00     0.031 C 
ENDBRANCH  11  15
BRANCH  12  18
ATOM     18  C   UNL A   1      32.415  26.421  25.219  1.00  0.00    -0.002 A 
ATOM     19  C   UNL A   1      32.541  26.852  26.537  1.00  0.00     0.013 A 
ATOM     20  C   UNL A   1      32.648  27.340  24.191  1.00  0.00     0.013 A 
ATOM     21  C   UNL A   1      32.962  28.164  26.804  1.00  0.00     0.040 A 
ATOM     22  C   UNL A   1      33.101  28.631  24.441  1.00  0.00     0.040 A 
ATOM     23  C   UNL A   1      33.261  29.031  25.756  1.00  0.00     0.123 A 
ATOM     24  F   UNL A   1      33.644  30.290  26.008  1.00  0.00    -0.207 F 
ENDBRANCH  12  18
ENDBRANCH   9  10
ENDBRANCH   8   9
ENDBRANCH   5   8
ENDBRANCH   3   4
ENDBRANCH   2   3
ENDBRANCH   1   2
BRANCH   1  25
ATOM     25  C   UNL A   1      39.925  20.316  26.107  1.00  0.00     0.002 C 
BRANCH  25  26
ATOM     26  C   UNL A   1      40.676  21.165  27.160  1.00  0.00     0.021 C 
BRANCH  26  27
ATOM     27  C   UNL A   1      40.913  22.670  26.878  1.00  0.00     0.116 C 
BRANCH  27  28
ATOM     28  N   UNL A   1      39.757  23.307  26.255  1.00  0.00    -0.352 N 
ATOM     29  C   UNL A   1      38.965  24.379  26.603  1.00  0.00     0.251 C 
ATOM     30  H   UNL A   1      39.487  22.879  25.411  1.00  0.00     0.163 HD
ATOM     31  O   UNL A   1      37.855  24.414  26.060  1.00  0.00    -0.269 OA
BRANCH  29  32
ATOM     32  C   UNL A   1      39.323  25.489  27.539  1.00  0.00     0.039 A 
ATOM     33  C   UNL A   1      40.234  26.458  27.077  1.00  0.00     0.014 A 
ATOM     34  C   UNL A   1      38.930  25.560  28.874  1.00  0.00     0.014 A 
ATOM     35  C   UNL A   1      40.688  27.494  27.910  1.00  0.00     0.010 A 
ATOM     36  C   UNL A   1      39.452  26.543  29.740  1.00  0.00     0.010 A 
ATOM     37  C   UNL A   1      40.277  27.562  29.247  1.00  0.00    -0.014 A 
BRANCH  37  38
ATOM     38  C   UNL A   1      40.417  28.869  29.974  1.00  0.00     0.031 A 
ATOM     39  C   UNL A   1      39.251  29.843  29.609  1.00  0.00     0.074 A 
ATOM     40  C   UNL A   1      41.515  29.090  30.765  1.00  0.00     0.049 A 
ATOM     41  N   UNL A   1      39.213  31.146  29.500  1.00  0.00    -0.248 NA
ATOM     42  C   UNL A   1      37.955  29.247  29.177  1.00  0.00     0.031 C 
ATOM     43  C   UNL A   1      42.527  28.077  31.138  1.00  0.00     0.029 A 
ATOM     44  N   UNL A   1      42.005  30.207  31.425  1.00  0.00    -0.354 N 
ATOM     45  C   UNL A   1      37.868  31.494  29.203  1.00  0.00     0.074 A 
ATOM     46  C   UNL A   1      37.194  30.289  28.856  1.00  0.00     0.031 C 
ATOM     47  C   UNL A   1      43.521  28.627  31.877  1.00  0.00     0.029 A 
ATOM     48  C   UNL A   1      43.265  30.046  32.065  1.00  0.00     0.049 A 
ATOM     49  H   UNL A   1      41.512  31.058  31.450  1.00  0.00     0.167 HD
ATOM     50  C   UNL A   1      37.312  32.722  29.414  1.00  0.00     0.034 A 
ATOM     51  C   UNL A   1      44.061  30.993  32.663  1.00  0.00     0.034 A 
ATOM     52  C   UNL A   1      38.269  33.629  29.948  1.00  0.00     0.049 A 
ATOM     53  C   UNL A   1      43.279  32.230  32.616  1.00  0.00     0.074 A 
ATOM     54  C   UNL A   1      39.118  34.595  29.477  1.00  0.00     0.029 A 
ATOM     55  N   UNL A   1      38.434  33.524  31.302  1.00  0.00    -0.354 N 
ATOM     56  N   UNL A   1      42.324  32.526  33.440  1.00  0.00    -0.248 NA
ATOM     57  C   UNL A   1      43.520  33.168  31.519  1.00  0.00     0.031 C 
ATOM     58  C   UNL A   1      39.925  34.964  30.583  1.00  0.00     0.029 A 
ATOM     59  C   UNL A   1      39.632  34.094  31.631  1.00  0.00     0.049 A 
ATOM     60  H   UNL A   1      37.801  33.109  31.930  1.00  0.00     0.167 HD
ATOM     61  C   UNL A   1      41.644  33.511  32.771  1.00  0.00     0.074 A 
ATOM     62  C   UNL A   1      42.551  34.041  31.775  1.00  0.00     0.031 C 
ATOM     63  C   UNL A   1      40.289  33.539  32.780  1.00  0.00     0.034 A 
BRANCH  50  64
ATOM     64  C   UNL A   1      35.858  33.192  29.477  1.00  0.00     0.023 A 
ATOM     65  C   UNL A   1      35.142  33.110  28.247  1.00  0.00     0.012 A 
ATOM     66  C   UNL A   1      35.264  33.959  30.499  1.00  0.00     0.148 A 
ATOM     67  C   UNL A   1      33.984  33.844  27.993  1.00  0.00     0.002 A 
ATOM     68  C   UNL A   1      34.062  34.641  30.261  1.00  0.00     0.091 A 
ATOM     69  F   UNL A   1      35.891  34.113  31.669  1.00  0.00    -0.205 F 
ATOM     70  C   UNL A   1      33.448  34.622  29.000  1.00  0.00     0.022 A 
BRANCH  68  71
ATOM     71  S   UNL A   1      33.205  35.588  31.530  1.00  0.00     0.127 S 
ATOM     72  O   UNL A   1      34.245  36.474  32.017  1.00  0.00    -0.237 OA
ATOM     73  O   UNL A   1      32.148  36.249  30.757  1.00  0.00    -0.237 OA
ATOM     74  O   UNL A   1      32.694  34.591  32.476  1.00  0.00    -0.744 OA
ENDBRANCH  68  71
ENDBRANCH  50  64
BRANCH  51  75
ATOM     75  C   UNL A   1      45.457  31.128  33.253  1.00  0.00     0.023 A 
ATOM     76  C   UNL A   1      46.588  31.509  32.521  1.00  0.00     0.012 A 
ATOM     77  C   UNL A   1      45.683  30.882  34.651  1.00  0.00     0.148 A 
ATOM     78  C   UNL A   1      47.838  31.712  33.151  1.00  0.00     0.002 A 
ATOM     79  C   UNL A   1      46.887  31.174  35.287  1.00  0.00     0.091 A 
ATOM     80  F   UNL A   1      44.722  30.325  35.394  1.00  0.00    -0.205 F 
ATOM     81  C   UNL A   1      47.980  31.584  34.534  1.00  0.00     0.022 A 
BRANCH  79  82
ATOM     82  S   UNL A   1      47.052  31.156  37.088  1.00  0.00     0.127 S 
ATOM     83  O   UNL A   1      46.022  32.102  37.511  1.00  0.00    -0.237 OA
ATOM     84  O   UNL A   1      46.758  29.755  37.393  1.00  0.00    -0.237 OA
ATOM     85  O   UNL A   1      48.419  31.565  37.387  1.00  0.00    -0.744 OA
ENDBRANCH  79  82
ENDBRANCH  51  75
BRANCH  63  86
ATOM     86  C   UNL A   1      39.662  32.581  33.786  1.00  0.00     0.023 A 
ATOM     87  C   UNL A   1      39.212  31.339  33.315  1.00  0.00     0.012 A 
ATOM     88  C   UNL A   1      39.374  32.926  35.133  1.00  0.00     0.148 A 
ATOM     89  C   UNL A   1      38.507  30.468  34.152  1.00  0.00     0.002 A 
ATOM     90  C   UNL A   1      38.667  32.060  35.967  1.00  0.00     0.091 A 
ATOM     91  F   UNL A   1      39.805  34.102  35.592  1.00  0.00    -0.205 F 
ATOM     92  C   UNL A   1      38.235  30.825  35.472  1.00  0.00     0.022 A 
BRANCH  90  93
ATOM     93  S   UNL A   1      38.219  32.449  37.673  1.00  0.00     0.127 S 
ATOM     94  O   UNL A   1      39.525  32.596  38.319  1.00  0.00    -0.237 OA
ATOM     95  O   UNL A   1      37.485  33.701  37.518  1.00  0.00    -0.237 OA
ATOM     96  O   UNL A   1      37.429  31.327  38.170  1.00  0.00    -0.744 OA
ENDBRANCH  90  93
ENDBRANCH  63  86
ENDBRANCH  37  38
ENDBRANCH  29  32
ENDBRANCH  27  28
ENDBRANCH  26  27
ENDBRANCH  25  26
ENDBRANCH   1  25
TORSDOF 20
ENDMDL
