MODEL 1
REMARK VINA RESULT:     -10.0      0.000      0.000
REMARK SMILES CC(C)(C)N(CC(=O)NCCCCCCNC(=O)c1ccc(-c2c3nc(c(-c4cccc(S(=O)(=O)[O-])c4F)c4ccc([nH]4)c(-c4cccc(S(=O)(=O)[O-])c4F)c4nc(c(-c5cccc(S(=O)(=O)[O-])c5F)c5ccc2[nH]5)C=C4)C=C3)cc1)C(=O)C1C[NH2+]C1
REMARK SMILES IDX 12 1 11 2 10 3 9 4 7 5 8 6 6 8 5 9 2 10 1 11 3 12 4 13 82 14
REMARK SMILES IDX 83 15 84 16 85 17 87 18 86 19 13 22 14 23 15 24 16 25 17 26
REMARK SMILES IDX 18 28 19 29 20 30 81 31 21 32 80 33 22 34 23 35 24 36 74 37
REMARK SMILES IDX 25 38 79 39 73 40 75 41 26 42 78 43 72 44 71 45 27 47 59 48
REMARK SMILES IDX 39 49 58 50 40 51 43 52 57 53 76 54 41 55 42 56 56 58 77 59
REMARK SMILES IDX 44 60 28 61 29 62 37 63 30 64 32 65 38 66 31 67 33 68 34 69
REMARK SMILES IDX 35 70 36 71 60 72 61 73 69 74 62 75 64 76 70 77 63 78 65 79
REMARK SMILES IDX 66 80 67 81 68 82 45 83 46 84 54 85 47 86 49 87 55 88 48 89
REMARK SMILES IDX 50 90 51 91 52 92 53 93
REMARK H PARENT 9 7 86 20 86 21 16 27 75 46 43 57
REMARK Flexibility Score: inf
ROOT
ATOM      1  C   UNL A   1      31.170  26.919  26.831  1.00  0.00     0.002 C 
ENDROOT
BRANCH   1   2
ATOM      2  C   UNL A   1      30.379  26.777  25.528  1.00  0.00     0.021 C 
BRANCH   2   3
ATOM      3  C   UNL A   1      29.559  25.494  25.440  1.00  0.00     0.116 C 
BRANCH   3   4
ATOM      4  N   UNL A   1      29.829  24.593  26.535  1.00  0.00    -0.355 N 
ATOM      5  C   UNL A   1      30.608  23.477  26.545  1.00  0.00     0.239 C 
ATOM      6  O   UNL A   1      30.851  22.958  27.639  1.00  0.00    -0.273 OA
ATOM      7  H   UNL A   1      29.391  24.816  27.389  1.00  0.00     0.163 HD
BRANCH   5   8
ATOM      8  C   UNL A   1      31.279  22.938  25.262  1.00  0.00     0.219 C 
BRANCH   8   9
ATOM      9  N   UNL A   1      32.720  23.200  25.061  1.00  0.00    -0.328 N 
BRANCH   9  10
ATOM     10  C   UNL A   1      33.721  22.052  25.012  1.00  0.00     0.035 C 
ATOM     11  C   UNL A   1      35.034  22.375  24.248  1.00  0.00     0.034 C 
ATOM     12  C   UNL A   1      33.126  20.797  24.328  1.00  0.00     0.034 C 
ATOM     13  C   UNL A   1      34.168  21.679  26.445  1.00  0.00     0.034 C 
ENDBRANCH   9  10
BRANCH   9  14
ATOM     14  C   UNL A   1      33.127  24.480  24.584  1.00  0.00     0.238 C 
ATOM     15  O   UNL A   1      33.951  25.160  25.209  1.00  0.00    -0.274 OA
BRANCH  14  16
ATOM     16  C   UNL A   1      32.535  25.019  23.258  1.00  0.00     0.188 C 
ATOM     17  C   UNL A   1      33.152  26.312  22.667  1.00  0.00     0.280 C 
ATOM     18  C   UNL A   1      33.028  24.389  21.935  1.00  0.00     0.280 C 
ATOM     19  N   UNL A   1      32.979  25.732  21.310  1.00  0.00    -0.345 N 
ATOM     20  H   UNL A   1      33.745  25.928  20.666  1.00  0.00     0.346 HD
ATOM     21  H   UNL A   1      32.206  26.012  20.707  1.00  0.00     0.346 HD
ENDBRANCH  14  16
ENDBRANCH   9  14
ENDBRANCH   8   9
ENDBRANCH   5   8
ENDBRANCH   3   4
ENDBRANCH   2   3
ENDBRANCH   1   2
BRANCH   1  22
ATOM     22  C   UNL A   1      32.174  28.078  26.857  1.00  0.00     0.002 C 
BRANCH  22  23
ATOM     23  C   UNL A   1      31.656  29.405  26.294  1.00  0.00     0.021 C 
BRANCH  23  24
ATOM     24  C   UNL A   1      32.748  30.391  25.890  1.00  0.00     0.116 C 
BRANCH  24  25
ATOM     25  N   UNL A   1      32.431  31.750  26.306  1.00  0.00    -0.352 N 
ATOM     26  C   UNL A   1      33.030  32.525  27.266  1.00  0.00     0.251 C 
ATOM     27  H   UNL A   1      31.681  32.173  25.829  1.00  0.00     0.163 HD
ATOM     28  O   UNL A   1      32.496  33.568  27.640  1.00  0.00    -0.269 OA
BRANCH  26  29
ATOM     29  C   UNL A   1      34.313  32.094  27.856  1.00  0.00     0.039 A 
ATOM     30  C   UNL A   1      35.369  33.006  27.941  1.00  0.00     0.014 A 
ATOM     31  C   UNL A   1      34.469  30.788  28.331  1.00  0.00     0.014 A 
ATOM     32  C   UNL A   1      36.562  32.626  28.560  1.00  0.00     0.010 A 
ATOM     33  C   UNL A   1      35.630  30.437  29.011  1.00  0.00     0.010 A 
ATOM     34  C   UNL A   1      36.689  31.349  29.131  1.00  0.00    -0.014 A 
BRANCH  34  35
ATOM     35  C   UNL A   1      37.917  30.937  29.858  1.00  0.00     0.031 A 
ATOM     36  C   UNL A   1      38.850  29.930  29.243  1.00  0.00     0.074 A 
ATOM     37  C   UNL A   1      38.137  31.391  31.109  1.00  0.00     0.049 A 
ATOM     38  N   UNL A   1      39.899  29.350  29.766  1.00  0.00    -0.248 NA
ATOM     39  C   UNL A   1      38.548  29.497  27.868  1.00  0.00     0.031 C 
ATOM     40  C   UNL A   1      37.276  32.326  31.836  1.00  0.00     0.029 A 
ATOM     41  N   UNL A   1      39.137  31.097  32.004  1.00  0.00    -0.354 N 
ATOM     42  C   UNL A   1      40.364  28.465  28.799  1.00  0.00     0.074 A 
ATOM     43  C   UNL A   1      39.460  28.555  27.675  1.00  0.00     0.031 C 
ATOM     44  C   UNL A   1      37.778  32.522  33.065  1.00  0.00     0.029 A 
ATOM     45  C   UNL A   1      38.972  31.699  33.231  1.00  0.00     0.049 A 
ATOM     46  H   UNL A   1      39.898  30.512  31.789  1.00  0.00     0.167 HD
ATOM     47  C   UNL A   1      41.460  27.671  28.832  1.00  0.00     0.034 A 
ATOM     48  C   UNL A   1      39.687  31.582  34.368  1.00  0.00     0.034 A 
ATOM     49  C   UNL A   1      42.372  27.607  29.943  1.00  0.00     0.049 A 
ATOM     50  C   UNL A   1      40.899  30.689  34.378  1.00  0.00     0.074 A 
ATOM     51  C   UNL A   1      43.542  26.877  30.052  1.00  0.00     0.029 A 
ATOM     52  N   UNL A   1      42.214  28.291  31.136  1.00  0.00    -0.354 N 
ATOM     53  N   UNL A   1      41.396  29.958  33.409  1.00  0.00    -0.248 NA
ATOM     54  C   UNL A   1      41.672  30.629  35.629  1.00  0.00     0.031 C 
ATOM     55  C   UNL A   1      44.079  27.101  31.323  1.00  0.00     0.029 A 
ATOM     56  C   UNL A   1      43.262  27.999  31.992  1.00  0.00     0.049 A 
ATOM     57  H   UNL A   1      41.467  28.897  31.346  1.00  0.00     0.167 HD
ATOM     58  C   UNL A   1      42.559  29.391  33.916  1.00  0.00     0.074 A 
ATOM     59  C   UNL A   1      42.702  29.873  35.274  1.00  0.00     0.031 C 
ATOM     60  C   UNL A   1      43.426  28.539  33.316  1.00  0.00     0.034 A 
BRANCH  47  61
ATOM     61  C   UNL A   1      41.764  26.845  27.610  1.00  0.00     0.023 A 
ATOM     62  C   UNL A   1      42.316  27.468  26.471  1.00  0.00     0.012 A 
ATOM     63  C   UNL A   1      41.565  25.450  27.605  1.00  0.00     0.148 A 
ATOM     64  C   UNL A   1      42.629  26.724  25.335  1.00  0.00     0.002 A 
ATOM     65  C   UNL A   1      41.925  24.709  26.485  1.00  0.00     0.091 A 
ATOM     66  F   UNL A   1      41.024  24.878  28.690  1.00  0.00    -0.205 F 
ATOM     67  C   UNL A   1      42.444  25.344  25.346  1.00  0.00     0.022 A 
BRANCH  65  68
ATOM     68  S   UNL A   1      41.803  22.918  26.426  1.00  0.00     0.127 S 
ATOM     69  O   UNL A   1      40.355  22.719  26.471  1.00  0.00    -0.237 OA
ATOM     70  O   UNL A   1      42.422  22.612  25.136  1.00  0.00    -0.237 OA
ATOM     71  O   UNL A   1      42.534  22.425  27.585  1.00  0.00    -0.744 OA
ENDBRANCH  65  68
ENDBRANCH  47  61
BRANCH  48  72
ATOM     72  C   UNL A   1      39.304  32.358  35.583  1.00  0.00     0.023 A 
ATOM     73  C   UNL A   1      38.451  31.772  36.538  1.00  0.00     0.012 A 
ATOM     74  C   UNL A   1      39.774  33.668  35.795  1.00  0.00     0.148 A 
ATOM     75  C   UNL A   1      38.036  32.493  37.659  1.00  0.00     0.002 A 
ATOM     76  C   UNL A   1      39.404  34.360  36.943  1.00  0.00     0.091 A 
ATOM     77  F   UNL A   1      40.577  34.213  34.871  1.00  0.00    -0.205 F 
ATOM     78  C   UNL A   1      38.518  33.782  37.865  1.00  0.00     0.022 A 
BRANCH  76  79
ATOM     79  S   UNL A   1      40.078  35.973  37.352  1.00  0.00     0.127 S 
ATOM     80  O   UNL A   1      41.494  35.668  37.539  1.00  0.00    -0.237 OA
ATOM     81  O   UNL A   1      39.768  36.745  36.147  1.00  0.00    -0.237 OA
ATOM     82  O   UNL A   1      39.360  36.410  38.542  1.00  0.00    -0.744 OA
ENDBRANCH  76  79
ENDBRANCH  48  72
BRANCH  60  83
ATOM     83  C   UNL A   1      44.647  28.115  34.090  1.00  0.00     0.023 A 
ATOM     84  C   UNL A   1      45.807  28.913  34.074  1.00  0.00     0.012 A 
ATOM     85  C   UNL A   1      44.606  26.968  34.907  1.00  0.00     0.148 A 
ATOM     86  C   UNL A   1      46.917  28.561  34.840  1.00  0.00     0.002 A 
ATOM     87  C   UNL A   1      45.695  26.652  35.707  1.00  0.00     0.091 A 
ATOM     88  F   UNL A   1      43.496  26.214  34.893  1.00  0.00    -0.205 F 
ATOM     89  C   UNL A   1      46.857  27.440  35.666  1.00  0.00     0.022 A 
BRANCH  87  90
ATOM     90  S   UNL A   1      45.673  25.289  36.877  1.00  0.00     0.127 S 
ATOM     91  O   UNL A   1      46.905  25.523  37.630  1.00  0.00    -0.237 OA
ATOM     92  O   UNL A   1      44.443  25.546  37.625  1.00  0.00    -0.237 OA
ATOM     93  O   UNL A   1      45.657  24.071  36.078  1.00  0.00    -0.744 OA
ENDBRANCH  87  90
ENDBRANCH  60  83
ENDBRANCH  34  35
ENDBRANCH  26  29
ENDBRANCH  24  25
ENDBRANCH  23  24
ENDBRANCH  22  23
ENDBRANCH   1  22
TORSDOF 20
ENDMDL
MODEL 2
REMARK VINA RESULT:      -9.9      2.261      8.405
REMARK SMILES CC(C)(C)N(CC(=O)NCCCCCCNC(=O)c1ccc(-c2c3nc(c(-c4cccc(S(=O)(=O)[O-])c4F)c4ccc([nH]4)c(-c4cccc(S(=O)(=O)[O-])c4F)c4nc(c(-c5cccc(S(=O)(=O)[O-])c5F)c5ccc2[nH]5)C=C4)C=C3)cc1)C(=O)C1C[NH2+]C1
REMARK SMILES IDX 12 1 11 2 10 3 9 4 7 5 8 6 6 8 5 9 2 10 1 11 3 12 4 13 82 14
REMARK SMILES IDX 83 15 84 16 85 17 87 18 86 19 13 22 14 23 15 24 16 25 17 26
REMARK SMILES IDX 18 28 19 29 20 30 81 31 21 32 80 33 22 34 23 35 24 36 74 37
REMARK SMILES IDX 25 38 79 39 73 40 75 41 26 42 78 43 72 44 71 45 27 47 59 48
REMARK SMILES IDX 39 49 58 50 40 51 43 52 57 53 76 54 41 55 42 56 56 58 77 59
REMARK SMILES IDX 44 60 28 61 29 62 37 63 30 64 32 65 38 66 31 67 33 68 34 69
REMARK SMILES IDX 35 70 36 71 60 72 61 73 69 74 62 75 64 76 70 77 63 78 65 79
REMARK SMILES IDX 66 80 67 81 68 82 45 83 46 84 54 85 47 86 49 87 55 88 48 89
REMARK SMILES IDX 50 90 51 91 52 92 53 93
REMARK H PARENT 9 7 86 20 86 21 16 27 75 46 43 57
REMARK Flexibility Score: inf
ROOT
ATOM      1  C   UNL A   1      31.254  27.817  26.900  1.00  0.00     0.002 C 
ENDROOT
BRANCH   1   2
ATOM      2  C   UNL A   1      31.180  27.262  25.474  1.00  0.00     0.021 C 
BRANCH   2   3
ATOM      3  C   UNL A   1      30.299  26.024  25.338  1.00  0.00     0.116 C 
BRANCH   3   4
ATOM      4  N   UNL A   1      30.411  25.143  26.475  1.00  0.00    -0.355 N 
ATOM      5  C   UNL A   1      30.800  23.838  26.504  1.00  0.00     0.239 C 
ATOM      6  O   UNL A   1      31.004  23.326  27.610  1.00  0.00    -0.273 OA
ATOM      7  H   UNL A   1      30.175  25.537  27.346  1.00  0.00     0.163 HD
BRANCH   5   8
ATOM      8  C   UNL A   1      31.104  23.047  25.213  1.00  0.00     0.219 C 
BRANCH   8   9
ATOM      9  N   UNL A   1      32.498  22.622  24.962  1.00  0.00    -0.328 N 
BRANCH   9  10
ATOM     10  C   UNL A   1      33.511  23.590  24.363  1.00  0.00     0.035 C 
ATOM     11  C   UNL A   1      32.944  24.500  23.240  1.00  0.00     0.034 C 
ATOM     12  C   UNL A   1      34.721  22.848  23.743  1.00  0.00     0.034 C 
ATOM     13  C   UNL A   1      34.022  24.562  25.453  1.00  0.00     0.034 C 
ENDBRANCH   9  10
BRANCH   9  14
ATOM     14  C   UNL A   1      32.976  21.431  25.581  1.00  0.00     0.238 C 
ATOM     15  O   UNL A   1      33.708  21.481  26.579  1.00  0.00    -0.274 OA
BRANCH  14  16
ATOM     16  C   UNL A   1      32.562  20.055  25.001  1.00  0.00     0.188 C 
ATOM     17  C   UNL A   1      32.371  19.948  23.467  1.00  0.00     0.280 C 
ATOM     18  C   UNL A   1      33.672  19.007  24.760  1.00  0.00     0.280 C 
ATOM     19  N   UNL A   1      32.970  18.590  23.523  1.00  0.00    -0.345 N 
ATOM     20  H   UNL A   1      33.586  18.366  22.741  1.00  0.00     0.346 HD
ATOM     21  H   UNL A   1      32.390  17.751  23.497  1.00  0.00     0.346 HD
ENDBRANCH  14  16
ENDBRANCH   9  14
ENDBRANCH   8   9
ENDBRANCH   5   8
ENDBRANCH   3   4
ENDBRANCH   2   3
ENDBRANCH   1   2
BRANCH   1  22
ATOM     22  C   UNL A   1      32.568  28.524  27.253  1.00  0.00     0.002 C 
BRANCH  22  23
ATOM     23  C   UNL A   1      33.561  28.676  26.097  1.00  0.00     0.021 C 
BRANCH  23  24
ATOM     24  C   UNL A   1      34.779  29.537  26.417  1.00  0.00     0.116 C 
BRANCH  24  25
ATOM     25  N   UNL A   1      34.407  30.776  27.083  1.00  0.00    -0.352 N 
ATOM     26  C   UNL A   1      34.911  31.327  28.234  1.00  0.00     0.251 C 
ATOM     27  H   UNL A   1      33.692  31.293  26.645  1.00  0.00     0.163 HD
ATOM     28  O   UNL A   1      34.330  32.267  28.775  1.00  0.00    -0.269 OA
BRANCH  26  29
ATOM     29  C   UNL A   1      36.146  30.776  28.827  1.00  0.00     0.039 A 
ATOM     30  C   UNL A   1      36.056  29.714  29.731  1.00  0.00     0.014 A 
ATOM     31  C   UNL A   1      37.392  31.307  28.483  1.00  0.00     0.014 A 
ATOM     32  C   UNL A   1      37.224  29.144  30.243  1.00  0.00     0.010 A 
ATOM     33  C   UNL A   1      38.553  30.690  28.936  1.00  0.00     0.010 A 
ATOM     34  C   UNL A   1      38.482  29.604  29.823  1.00  0.00    -0.014 A 
BRANCH  34  35
ATOM     35  C   UNL A   1      39.743  28.973  30.292  1.00  0.00     0.031 A 
ATOM     36  C   UNL A   1      40.454  29.527  31.498  1.00  0.00     0.074 A 
ATOM     37  C   UNL A   1      40.296  27.973  29.578  1.00  0.00     0.049 A 
ATOM     38  N   UNL A   1      41.621  29.201  31.989  1.00  0.00    -0.248 NA
ATOM     39  C   UNL A   1      39.774  30.607  32.232  1.00  0.00     0.031 C 
ATOM     40  C   UNL A   1      39.733  27.389  28.359  1.00  0.00     0.029 A 
ATOM     41  N   UNL A   1      41.478  27.295  29.754  1.00  0.00    -0.354 N 
ATOM     42  C   UNL A   1      41.830  30.053  33.067  1.00  0.00     0.074 A 
ATOM     43  C   UNL A   1      40.687  30.937  33.134  1.00  0.00     0.031 C 
ATOM     44  C   UNL A   1      40.570  26.447  27.894  1.00  0.00     0.029 A 
ATOM     45  C   UNL A   1      41.747  26.388  28.755  1.00  0.00     0.049 A 
ATOM     46  H   UNL A   1      42.075  27.443  30.522  1.00  0.00     0.167 HD
ATOM     47  C   UNL A   1      42.864  30.079  33.940  1.00  0.00     0.034 A 
ATOM     48  C   UNL A   1      42.831  25.614  28.542  1.00  0.00     0.034 A 
ATOM     49  C   UNL A   1      43.985  29.180  33.885  1.00  0.00     0.049 A 
ATOM     50  C   UNL A   1      43.968  25.666  29.526  1.00  0.00     0.074 A 
ATOM     51  C   UNL A   1      45.056  29.087  34.756  1.00  0.00     0.029 A 
ATOM     52  N   UNL A   1      44.183  28.222  32.904  1.00  0.00    -0.354 N 
ATOM     53  N   UNL A   1      44.088  26.389  30.614  1.00  0.00    -0.248 NA
ATOM     54  C   UNL A   1      45.109  24.771  29.274  1.00  0.00     0.031 C 
ATOM     55  C   UNL A   1      45.916  28.090  34.285  1.00  0.00     0.029 A 
ATOM     56  C   UNL A   1      45.361  27.537  33.143  1.00  0.00     0.049 A 
ATOM     57  H   UNL A   1      43.575  28.054  32.147  1.00  0.00     0.167 HD
ATOM     58  C   UNL A   1      45.289  26.003  31.198  1.00  0.00     0.074 A 
ATOM     59  C   UNL A   1      45.854  24.973  30.352  1.00  0.00     0.031 C 
ATOM     60  C   UNL A   1      45.877  26.467  32.328  1.00  0.00     0.034 A 
BRANCH  47  61
ATOM     61  C   UNL A   1      42.808  31.081  35.064  1.00  0.00     0.023 A 
ATOM     62  C   UNL A   1      42.267  30.698  36.309  1.00  0.00     0.012 A 
ATOM     63  C   UNL A   1      43.342  32.376  34.912  1.00  0.00     0.148 A 
ATOM     64  C   UNL A   1      42.224  31.598  37.373  1.00  0.00     0.002 A 
ATOM     65  C   UNL A   1      43.339  33.251  35.993  1.00  0.00     0.091 A 
ATOM     66  F   UNL A   1      43.837  32.729  33.717  1.00  0.00    -0.205 F 
ATOM     67  C   UNL A   1      42.770  32.869  37.218  1.00  0.00     0.022 A 
BRANCH  65  68
ATOM     68  S   UNL A   1      44.088  34.882  35.924  1.00  0.00     0.127 S 
ATOM     69  O   UNL A   1      43.284  35.533  34.891  1.00  0.00    -0.237 OA
ATOM     70  O   UNL A   1      43.859  35.381  37.281  1.00  0.00    -0.237 OA
ATOM     71  O   UNL A   1      45.487  34.670  35.581  1.00  0.00    -0.744 OA
ENDBRANCH  65  68
ENDBRANCH  47  61
BRANCH  48  72
ATOM     72  C   UNL A   1      42.880  24.693  27.370  1.00  0.00     0.023 A 
ATOM     73  C   UNL A   1      43.470  25.131  26.169  1.00  0.00     0.012 A 
ATOM     74  C   UNL A   1      42.346  23.392  27.437  1.00  0.00     0.148 A 
ATOM     75  C   UNL A   1      43.485  24.308  25.041  1.00  0.00     0.002 A 
ATOM     76  C   UNL A   1      42.417  22.556  26.328  1.00  0.00     0.091 A 
ATOM     77  F   UNL A   1      41.780  22.995  28.585  1.00  0.00    -0.205 F 
ATOM     78  C   UNL A   1      42.967  23.019  25.124  1.00  0.00     0.022 A 
BRANCH  76  79
ATOM     79  S   UNL A   1      41.890  20.839  26.384  1.00  0.00     0.127 S 
ATOM     80  O   UNL A   1      40.465  20.953  26.085  1.00  0.00    -0.237 OA
ATOM     81  O   UNL A   1      42.697  20.241  25.319  1.00  0.00    -0.237 OA
ATOM     82  O   UNL A   1      42.224  20.368  27.721  1.00  0.00    -0.744 OA
ENDBRANCH  76  79
ENDBRANCH  48  72
BRANCH  60  83
ATOM     83  C   UNL A   1      47.170  25.829  32.763  1.00  0.00     0.023 A 
ATOM     84  C   UNL A   1      48.402  26.377  32.357  1.00  0.00     0.012 A 
ATOM     85  C   UNL A   1      47.157  24.737  33.654  1.00  0.00     0.148 A 
ATOM     86  C   UNL A   1      49.602  25.831  32.810  1.00  0.00     0.002 A 
ATOM     87  C   UNL A   1      48.355  24.233  34.142  1.00  0.00     0.091 A 
ATOM     88  F   UNL A   1      45.973  24.221  34.014  1.00  0.00    -0.205 F 
ATOM     89  C   UNL A   1      49.579  24.770  33.712  1.00  0.00     0.022 A 
BRANCH  87  90
ATOM     90  S   UNL A   1      48.422  22.935  35.383  1.00  0.00     0.127 S 
ATOM     91  O   UNL A   1      49.865  22.759  35.551  1.00  0.00    -0.237 OA
ATOM     92  O   UNL A   1      47.749  23.562  36.520  1.00  0.00    -0.237 OA
ATOM     93  O   UNL A   1      47.720  21.793  34.813  1.00  0.00    -0.744 OA
ENDBRANCH  87  90
ENDBRANCH  60  83
ENDBRANCH  34  35
ENDBRANCH  26  29
ENDBRANCH  24  25
ENDBRANCH  23  24
ENDBRANCH  22  23
ENDBRANCH   1  22
TORSDOF 20
ENDMDL
MODEL 3
REMARK VINA RESULT:      -9.8      5.199      9.995
REMARK SMILES CC(C)(C)N(CC(=O)NCCCCCCNC(=O)c1ccc(-c2c3nc(c(-c4cccc(S(=O)(=O)[O-])c4F)c4ccc([nH]4)c(-c4cccc(S(=O)(=O)[O-])c4F)c4nc(c(-c5cccc(S(=O)(=O)[O-])c5F)c5ccc2[nH]5)C=C4)C=C3)cc1)C(=O)C1C[NH2+]C1
REMARK SMILES IDX 12 1 11 2 10 3 9 4 7 5 8 6 6 8 5 9 2 10 1 11 3 12 4 13 82 14
REMARK SMILES IDX 83 15 84 16 85 17 87 18 86 19 13 22 14 23 15 24 16 25 17 26
REMARK SMILES IDX 18 28 19 29 20 30 81 31 21 32 80 33 22 34 23 35 24 36 74 37
REMARK SMILES IDX 25 38 79 39 73 40 75 41 26 42 78 43 72 44 71 45 27 47 59 48
REMARK SMILES IDX 39 49 58 50 40 51 43 52 57 53 76 54 41 55 42 56 56 58 77 59
REMARK SMILES IDX 44 60 28 61 29 62 37 63 30 64 32 65 38 66 31 67 33 68 34 69
REMARK SMILES IDX 35 70 36 71 60 72 61 73 69 74 62 75 64 76 70 77 63 78 65 79
REMARK SMILES IDX 66 80 67 81 68 82 45 83 46 84 54 85 47 86 49 87 55 88 48 89
REMARK SMILES IDX 50 90 51 91 52 92 53 93
REMARK H PARENT 9 7 86 20 86 21 16 27 75 46 43 57
REMARK Flexibility Score: inf
ROOT
ATOM      1  C   UNL A   1      34.088  22.161  23.998  1.00  0.00     0.002 C 
ENDROOT
BRANCH   1   2
ATOM      2  C   UNL A   1      33.136  22.593  22.878  1.00  0.00     0.021 C 
BRANCH   2   3
ATOM      3  C   UNL A   1      31.953  23.425  23.361  1.00  0.00     0.116 C 
BRANCH   3   4
ATOM      4  N   UNL A   1      31.493  24.359  22.361  1.00  0.00    -0.355 N 
ATOM      5  C   UNL A   1      31.813  25.675  22.216  1.00  0.00     0.239 C 
ATOM      6  O   UNL A   1      31.452  26.241  21.179  1.00  0.00    -0.273 OA
ATOM      7  H   UNL A   1      30.865  23.997  21.695  1.00  0.00     0.163 HD
BRANCH   5   8
ATOM      8  C   UNL A   1      32.703  26.417  23.238  1.00  0.00     0.219 C 
BRANCH   8   9
ATOM      9  N   UNL A   1      32.044  27.219  24.291  1.00  0.00    -0.328 N 
BRANCH   9  10
ATOM     10  C   UNL A   1      31.850  26.653  25.693  1.00  0.00     0.035 C 
ATOM     11  C   UNL A   1      30.566  25.797  25.869  1.00  0.00     0.034 C 
ATOM     12  C   UNL A   1      31.768  27.772  26.760  1.00  0.00     0.034 C 
ATOM     13  C   UNL A   1      33.021  25.705  26.047  1.00  0.00     0.034 C 
ENDBRANCH   9  10
BRANCH   9  14
ATOM     14  C   UNL A   1      31.894  28.622  24.095  1.00  0.00     0.238 C 
ATOM     15  O   UNL A   1      32.848  29.394  24.259  1.00  0.00    -0.274 OA
BRANCH  14  16
ATOM     16  C   UNL A   1      30.518  29.184  23.660  1.00  0.00     0.188 C 
ATOM     17  C   UNL A   1      30.335  29.569  22.170  1.00  0.00     0.280 C 
ATOM     18  C   UNL A   1      29.386  28.176  23.356  1.00  0.00     0.280 C 
ATOM     19  N   UNL A   1      28.945  29.050  22.242  1.00  0.00    -0.345 N 
ATOM     20  H   UNL A   1      28.636  28.549  21.409  1.00  0.00     0.346 HD
ATOM     21  H   UNL A   1      28.147  29.677  22.340  1.00  0.00     0.346 HD
ENDBRANCH  14  16
ENDBRANCH   9  14
ENDBRANCH   8   9
ENDBRANCH   5   8
ENDBRANCH   3   4
ENDBRANCH   2   3
ENDBRANCH   1   2
BRANCH   1  22
ATOM     22  C   UNL A   1      35.545  22.602  23.815  1.00  0.00     0.002 C 
BRANCH  22  23
ATOM     23  C   UNL A   1      36.001  23.749  24.723  1.00  0.00     0.021 C 
BRANCH  23  24
ATOM     24  C   UNL A   1      36.455  23.315  26.113  1.00  0.00     0.116 C 
BRANCH  24  25
ATOM     25  N   UNL A   1      37.335  22.156  26.058  1.00  0.00    -0.352 N 
ATOM     26  C   UNL A   1      38.699  22.096  26.188  1.00  0.00     0.251 C 
ATOM     27  H   UNL A   1      36.886  21.292  25.908  1.00  0.00     0.163 HD
ATOM     28  O   UNL A   1      39.302  21.065  25.895  1.00  0.00    -0.269 OA
BRANCH  26  29
ATOM     29  C   UNL A   1      39.439  23.280  26.667  1.00  0.00     0.039 A 
ATOM     30  C   UNL A   1      40.320  23.147  27.744  1.00  0.00     0.014 A 
ATOM     31  C   UNL A   1      39.266  24.520  26.046  1.00  0.00     0.014 A 
ATOM     32  C   UNL A   1      41.074  24.247  28.159  1.00  0.00     0.010 A 
ATOM     33  C   UNL A   1      40.072  25.593  26.413  1.00  0.00     0.010 A 
ATOM     34  C   UNL A   1      40.982  25.470  27.474  1.00  0.00    -0.014 A 
BRANCH  34  35
ATOM     35  C   UNL A   1      41.821  26.638  27.844  1.00  0.00     0.031 A 
ATOM     36  C   UNL A   1      41.195  27.826  28.522  1.00  0.00     0.074 A 
ATOM     37  C   UNL A   1      43.119  26.670  27.479  1.00  0.00     0.049 A 
ATOM     38  N   UNL A   1      41.726  28.986  28.810  1.00  0.00    -0.248 NA
ATOM     39  C   UNL A   1      39.777  27.704  28.902  1.00  0.00     0.031 C 
ATOM     40  C   UNL A   1      43.827  25.605  26.766  1.00  0.00     0.029 A 
ATOM     41  N   UNL A   1      44.065  27.655  27.626  1.00  0.00    -0.354 N 
ATOM     42  C   UNL A   1      40.704  29.740  29.376  1.00  0.00     0.074 A 
ATOM     43  C   UNL A   1      39.513  28.922  29.353  1.00  0.00     0.031 C 
ATOM     44  C   UNL A   1      45.090  25.995  26.533  1.00  0.00     0.029 A 
ATOM     45  C   UNL A   1      45.272  27.352  27.039  1.00  0.00     0.049 A 
ATOM     46  H   UNL A   1      43.897  28.498  28.106  1.00  0.00     0.167 HD
ATOM     47  C   UNL A   1      40.759  30.990  29.894  1.00  0.00     0.034 A 
ATOM     48  C   UNL A   1      46.392  28.091  26.904  1.00  0.00     0.034 A 
ATOM     49  C   UNL A   1      41.953  31.789  29.939  1.00  0.00     0.049 A 
ATOM     50  C   UNL A   1      46.424  29.479  27.485  1.00  0.00     0.074 A 
ATOM     51  C   UNL A   1      42.126  33.045  30.493  1.00  0.00     0.029 A 
ATOM     52  N   UNL A   1      43.175  31.416  29.406  1.00  0.00    -0.354 N 
ATOM     53  N   UNL A   1      45.484  30.126  28.132  1.00  0.00    -0.248 NA
ATOM     54  C   UNL A   1      47.682  30.230  27.350  1.00  0.00     0.031 C 
ATOM     55  C   UNL A   1      43.448  33.442  30.272  1.00  0.00     0.029 A 
ATOM     56  C   UNL A   1      44.108  32.417  29.612  1.00  0.00     0.049 A 
ATOM     57  H   UNL A   1      43.355  30.563  28.946  1.00  0.00     0.167 HD
ATOM     58  C   UNL A   1      46.051  31.336  28.519  1.00  0.00     0.074 A 
ATOM     59  C   UNL A   1      47.418  31.327  28.047  1.00  0.00     0.031 C 
ATOM     60  C   UNL A   1      45.485  32.366  29.195  1.00  0.00     0.034 A 
BRANCH  47  61
ATOM     61  C   UNL A   1      39.500  31.552  30.502  1.00  0.00     0.023 A 
ATOM     62  C   UNL A   1      38.466  32.010  29.659  1.00  0.00     0.012 A 
ATOM     63  C   UNL A   1      39.311  31.571  31.899  1.00  0.00     0.148 A 
ATOM     64  C   UNL A   1      37.282  32.513  30.195  1.00  0.00     0.002 A 
ATOM     65  C   UNL A   1      38.108  32.029  32.423  1.00  0.00     0.091 A 
ATOM     66  F   UNL A   1      40.311  31.147  32.685  1.00  0.00    -0.205 F 
ATOM     67  C   UNL A   1      37.099  32.512  31.575  1.00  0.00     0.022 A 
BRANCH  65  68
ATOM     68  S   UNL A   1      37.739  31.995  34.181  1.00  0.00     0.127 S 
ATOM     69  O   UNL A   1      37.923  30.578  34.493  1.00  0.00    -0.237 OA
ATOM     70  O   UNL A   1      38.770  32.879  34.726  1.00  0.00    -0.237 OA
ATOM     71  O   UNL A   1      36.377  32.490  34.317  1.00  0.00    -0.744 OA
ENDBRANCH  65  68
ENDBRANCH  47  61
BRANCH  48  72
ATOM     72  C   UNL A   1      47.591  27.525  26.222  1.00  0.00     0.023 A 
ATOM     73  C   UNL A   1      47.796  27.782  24.853  1.00  0.00     0.012 A 
ATOM     74  C   UNL A   1      48.525  26.733  26.918  1.00  0.00     0.148 A 
ATOM     75  C   UNL A   1      48.883  27.223  24.178  1.00  0.00     0.002 A 
ATOM     76  C   UNL A   1      49.637  26.228  26.254  1.00  0.00     0.091 A 
ATOM     77  F   UNL A   1      48.309  26.490  28.218  1.00  0.00    -0.205 F 
ATOM     78  C   UNL A   1      49.807  26.454  24.880  1.00  0.00     0.022 A 
BRANCH  76  79
ATOM     79  S   UNL A   1      50.942  25.335  27.106  1.00  0.00     0.127 S 
ATOM     80  O   UNL A   1      51.803  24.931  25.998  1.00  0.00    -0.237 OA
ATOM     81  O   UNL A   1      51.501  26.374  27.974  1.00  0.00    -0.237 OA
ATOM     82  O   UNL A   1      50.278  24.254  27.822  1.00  0.00    -0.744 OA
ENDBRANCH  76  79
ENDBRANCH  48  72
BRANCH  60  83
ATOM     83  C   UNL A   1      46.353  33.550  29.529  1.00  0.00     0.023 A 
ATOM     84  C   UNL A   1      47.096  33.568  30.726  1.00  0.00     0.012 A 
ATOM     85  C   UNL A   1      46.501  34.604  28.606  1.00  0.00     0.148 A 
ATOM     86  C   UNL A   1      47.952  34.631  31.010  1.00  0.00     0.002 A 
ATOM     87  C   UNL A   1      47.395  35.632  28.872  1.00  0.00     0.091 A 
ATOM     88  F   UNL A   1      45.772  34.574  27.480  1.00  0.00    -0.205 F 
ATOM     89  C   UNL A   1      48.112  35.655  30.079  1.00  0.00     0.022 A 
BRANCH  87  90
ATOM     90  S   UNL A   1      47.744  36.939  27.689  1.00  0.00     0.127 S 
ATOM     91  O   UNL A   1      48.976  37.512  28.233  1.00  0.00    -0.237 OA
ATOM     92  O   UNL A   1      47.917  36.190  26.445  1.00  0.00    -0.237 OA
ATOM     93  O   UNL A   1      46.587  37.824  27.711  1.00  0.00    -0.744 OA
ENDBRANCH  87  90
ENDBRANCH  60  83
ENDBRANCH  34  35
ENDBRANCH  26  29
ENDBRANCH  24  25
ENDBRANCH  23  24
ENDBRANCH  22  23
ENDBRANCH   1  22
TORSDOF 20
ENDMDL
