MODEL 1
REMARK VINA RESULT:     -12.2      0.000      0.000
REMARK SMILES CCn1ncc(Br)c1C(=O)N[C@@H]1C(=O)N2C(C(=O)NCCCCCCNC(=O)c3ccc(-c4c5nc(c(-c6cccc(S(=O)(=O)[O-])c6F)c6ccc([nH]6)c(-c6cccc(S(=O)(=O)[O-])c6F)c6nc(c(-c7cccc(S(=O)(=O)[O-])c7F)c7ccc4[nH]7)C=C6)C=C5)cc3)=C(C)CS[C@H]12
REMARK SMILES IDX 22 1 21 2 20 3 19 4 17 5 18 6 16 8 12 9 13 10 96 11 14 12
REMARK SMILES IDX 15 13 95 14 94 15 92 16 93 17 11 18 9 19 10 20 8 22 3 23
REMARK SMILES IDX 4 24 5 25 6 26 7 27 2 28 1 29 23 30 24 31 25 32 26 33 27 34
REMARK SMILES IDX 28 36 29 37 30 38 91 39 31 40 90 41 32 42 33 43 34 44 84 45
REMARK SMILES IDX 35 46 89 47 83 48 85 49 36 50 88 51 82 52 81 53 37 55 69 56
REMARK SMILES IDX 49 57 68 58 50 59 53 60 67 61 86 62 51 63 52 64 66 66 87 67
REMARK SMILES IDX 54 68 38 69 39 70 47 71 40 72 42 73 48 74 41 75 43 76 44 77
REMARK SMILES IDX 45 78 46 79 70 80 71 81 79 82 72 83 74 84 80 85 73 86 75 87
REMARK SMILES IDX 76 88 77 89 78 90 55 91 56 92 64 93 57 94 59 95 65 96 58 97
REMARK SMILES IDX 60 98 61 99 62 100 63 101
REMARK H PARENT 19 7 11 21 26 35 85 54 53 65
REMARK Flexibility Score: inf
ROOT
ATOM      1  C   UNL A   1      37.430  22.482  25.395  1.00  0.00     0.002 C 
ENDROOT
BRANCH   1   2
ATOM      2  C   UNL A   1      36.108  21.873  25.862  1.00  0.00     0.021 C 
BRANCH   2   3
ATOM      3  C   UNL A   1      35.517  20.750  25.021  1.00  0.00     0.116 C 
BRANCH   3   4
ATOM      4  N   UNL A   1      34.403  19.998  25.575  1.00  0.00    -0.351 N 
ATOM      5  C   UNL A   1      33.066  20.077  25.239  1.00  0.00     0.268 C 
ATOM      6  O   UNL A   1      32.279  19.217  25.630  1.00  0.00    -0.268 OA
ATOM      7  H   UNL A   1      34.631  19.349  26.280  1.00  0.00     0.163 HD
BRANCH   5   8
ATOM      8  C   UNL A   1      32.588  21.268  24.457  1.00  0.00     0.110 C 
ATOM      9  C   UNL A   1      31.712  24.299  25.812  1.00  0.00     0.206 C 
ATOM     10  C   UNL A   1      32.502  23.046  26.324  1.00  0.00     0.253 C 
ATOM     11  C   UNL A   1      31.785  23.575  24.443  1.00  0.00     0.181 C 
ATOM     12  O   UNL A   1      33.025  22.716  27.376  1.00  0.00    -0.272 OA
ATOM     13  N   UNL A   1      32.328  22.434  25.137  1.00  0.00    -0.290 N 
ATOM     14  S   UNL A   1      33.105  23.922  23.230  1.00  0.00    -0.129 SA
ATOM     15  C   UNL A   1      32.560  22.496  22.246  1.00  0.00     0.104 C 
ATOM     16  C   UNL A   1      32.408  21.248  23.108  1.00  0.00    -0.034 C 
ATOM     17  C   UNL A   1      32.104  20.030  22.280  1.00  0.00     0.043 C 
BRANCH   9  18
ATOM     18  N   UNL A   1      32.238  25.706  25.855  1.00  0.00    -0.336 N 
ATOM     19  C   UNL A   1      31.420  26.761  26.239  1.00  0.00     0.271 C 
ATOM     20  O   UNL A   1      30.765  26.687  27.276  1.00  0.00    -0.267 OA
ATOM     21  H   UNL A   1      33.175  25.882  25.608  1.00  0.00     0.164 HD
BRANCH  19  22
ATOM     22  C   UNL A   1      31.323  27.896  25.336  1.00  0.00     0.140 A 
ATOM     23  N   UNL A   1      30.655  27.939  24.120  1.00  0.00    -0.259 N 
ATOM     24  N   UNL A   1      30.605  29.156  23.548  1.00  0.00    -0.180 NA
ATOM     25  C   UNL A   1      31.273  29.931  24.401  1.00  0.00     0.151 A 
ATOM     26  C   UNL A   1      31.689  29.214  25.531  1.00  0.00     0.069 A 
ATOM     27  Br  UNL A   1      32.559  30.002  26.986  1.00  0.00    -0.047 Br
BRANCH  23  28
ATOM     28  C   UNL A   1      29.937  26.847  23.512  1.00  0.00     0.142 C 
ATOM     29  C   UNL A   1      28.500  26.580  23.925  1.00  0.00     0.029 C 
ENDBRANCH  23  28
ENDBRANCH  19  22
ENDBRANCH   9  18
ENDBRANCH   5   8
ENDBRANCH   3   4
ENDBRANCH   2   3
ENDBRANCH   1   2
BRANCH   1  30
ATOM     30  C   UNL A   1      38.748  21.867  25.882  1.00  0.00     0.002 C 
BRANCH  30  31
ATOM     31  C   UNL A   1      39.195  20.507  25.330  1.00  0.00     0.021 C 
BRANCH  31  32
ATOM     32  C   UNL A   1      39.811  19.542  26.333  1.00  0.00     0.116 C 
BRANCH  32  33
ATOM     33  N   UNL A   1      41.062  18.938  25.872  1.00  0.00    -0.352 N 
ATOM     34  C   UNL A   1      42.296  19.539  25.707  1.00  0.00     0.251 C 
ATOM     35  H   UNL A   1      41.018  17.980  25.652  1.00  0.00     0.163 HD
ATOM     36  O   UNL A   1      43.157  19.014  25.007  1.00  0.00    -0.269 OA
BRANCH  34  37
ATOM     37  C   UNL A   1      42.562  20.830  26.371  1.00  0.00     0.039 A 
ATOM     38  C   UNL A   1      42.970  21.952  25.646  1.00  0.00     0.014 A 
ATOM     39  C   UNL A   1      42.344  20.917  27.741  1.00  0.00     0.014 A 
ATOM     40  C   UNL A   1      43.063  23.183  26.297  1.00  0.00     0.010 A 
ATOM     41  C   UNL A   1      42.266  22.150  28.337  1.00  0.00     0.010 A 
ATOM     42  C   UNL A   1      42.681  23.282  27.643  1.00  0.00    -0.014 A 
BRANCH  42  43
ATOM     43  C   UNL A   1      42.625  24.579  28.320  1.00  0.00     0.031 A 
ATOM     44  C   UNL A   1      41.414  25.397  28.040  1.00  0.00     0.074 A 
ATOM     45  C   UNL A   1      43.477  24.921  29.313  1.00  0.00     0.049 A 
ATOM     46  N   UNL A   1      41.353  26.532  27.425  1.00  0.00    -0.248 NA
ATOM     47  C   UNL A   1      40.099  24.838  28.390  1.00  0.00     0.031 C 
ATOM     48  C   UNL A   1      44.518  24.076  29.920  1.00  0.00     0.029 A 
ATOM     49  N   UNL A   1      43.489  26.031  30.108  1.00  0.00    -0.354 N 
ATOM     50  C   UNL A   1      40.025  26.944  27.533  1.00  0.00     0.074 A 
ATOM     51  C   UNL A   1      39.275  25.786  27.940  1.00  0.00     0.031 C 
ATOM     52  C   UNL A   1      44.844  24.567  31.133  1.00  0.00     0.029 A 
ATOM     53  C   UNL A   1      44.203  25.857  31.288  1.00  0.00     0.049 A 
ATOM     54  H   UNL A   1      43.035  26.871  29.868  1.00  0.00     0.167 HD
ATOM     55  C   UNL A   1      39.697  28.267  27.558  1.00  0.00     0.034 A 
ATOM     56  C   UNL A   1      44.267  26.700  32.342  1.00  0.00     0.034 A 
ATOM     57  C   UNL A   1      40.824  29.089  27.202  1.00  0.00     0.049 A 
ATOM     58  C   UNL A   1      43.917  28.047  31.856  1.00  0.00     0.074 A 
ATOM     59  C   UNL A   1      41.567  29.348  26.074  1.00  0.00     0.029 A 
ATOM     60  N   UNL A   1      41.540  29.543  28.279  1.00  0.00    -0.354 N 
ATOM     61  N   UNL A   1      44.649  28.712  31.005  1.00  0.00    -0.248 NA
ATOM     62  C   UNL A   1      42.575  28.569  32.067  1.00  0.00     0.031 C 
ATOM     63  C   UNL A   1      42.861  29.726  26.543  1.00  0.00     0.029 A 
ATOM     64  C   UNL A   1      42.853  29.707  27.939  1.00  0.00     0.049 A 
ATOM     65  H   UNL A   1      41.162  29.726  29.171  1.00  0.00     0.167 HD
ATOM     66  C   UNL A   1      43.727  29.419  30.252  1.00  0.00     0.074 A 
ATOM     67  C   UNL A   1      42.522  29.456  31.069  1.00  0.00     0.031 C 
ATOM     68  C   UNL A   1      43.920  29.612  28.916  1.00  0.00     0.034 A 
BRANCH  55  69
ATOM     69  C   UNL A   1      38.535  28.886  28.313  1.00  0.00     0.023 A 
ATOM     70  C   UNL A   1      37.615  29.655  27.560  1.00  0.00     0.012 A 
ATOM     71  C   UNL A   1      38.466  29.013  29.718  1.00  0.00     0.148 A 
ATOM     72  C   UNL A   1      36.716  30.540  28.167  1.00  0.00     0.002 A 
ATOM     73  C   UNL A   1      37.515  29.834  30.321  1.00  0.00     0.091 A 
ATOM     74  F   UNL A   1      39.406  28.462  30.489  1.00  0.00    -0.205 F 
ATOM     75  C   UNL A   1      36.659  30.623  29.551  1.00  0.00     0.022 A 
BRANCH  73  76
ATOM     76  S   UNL A   1      37.371  29.936  32.110  1.00  0.00     0.127 S 
ATOM     77  O   UNL A   1      38.678  30.471  32.479  1.00  0.00    -0.237 OA
ATOM     78  O   UNL A   1      36.251  30.864  32.270  1.00  0.00    -0.237 OA
ATOM     79  O   UNL A   1      37.082  28.576  32.550  1.00  0.00    -0.744 OA
ENDBRANCH  73  76
ENDBRANCH  55  69
BRANCH  56  80
ATOM     80  C   UNL A   1      44.506  26.401  33.766  1.00  0.00     0.023 A 
ATOM     81  C   UNL A   1      45.805  26.486  34.297  1.00  0.00     0.012 A 
ATOM     82  C   UNL A   1      43.418  26.281  34.660  1.00  0.00     0.148 A 
ATOM     83  C   UNL A   1      46.016  26.489  35.680  1.00  0.00     0.002 A 
ATOM     84  C   UNL A   1      43.630  26.285  36.034  1.00  0.00     0.091 A 
ATOM     85  F   UNL A   1      42.176  26.243  34.157  1.00  0.00    -0.205 F 
ATOM     86  C   UNL A   1      44.929  26.401  36.547  1.00  0.00     0.022 A 
BRANCH  84  87
ATOM     87  S   UNL A   1      42.279  26.210  37.218  1.00  0.00     0.127 S 
ATOM     88  O   UNL A   1      41.682  24.911  36.910  1.00  0.00    -0.237 OA
ATOM     89  O   UNL A   1      42.990  26.272  38.491  1.00  0.00    -0.237 OA
ATOM     90  O   UNL A   1      41.422  27.352  36.921  1.00  0.00    -0.744 OA
ENDBRANCH  84  87
ENDBRANCH  56  80
BRANCH  68  91
ATOM     91  C   UNL A   1      45.322  29.476  28.387  1.00  0.00     0.023 A 
ATOM     92  C   UNL A   1      46.290  30.491  28.534  1.00  0.00     0.012 A 
ATOM     93  C   UNL A   1      45.706  28.244  27.836  1.00  0.00     0.148 A 
ATOM     94  C   UNL A   1      47.607  30.287  28.114  1.00  0.00     0.002 A 
ATOM     95  C   UNL A   1      47.027  28.027  27.465  1.00  0.00     0.091 A 
ATOM     96  F   UNL A   1      44.773  27.289  27.702  1.00  0.00    -0.205 F 
ATOM     97  C   UNL A   1      47.979  29.051  27.591  1.00  0.00     0.022 A 
BRANCH  95  98
ATOM     98  S   UNL A   1      47.587  26.416  26.907  1.00  0.00     0.127 S 
ATOM     99  O   UNL A   1      46.870  26.262  25.644  1.00  0.00    -0.237 OA
ATOM    100  O   UNL A   1      49.032  26.613  26.771  1.00  0.00    -0.237 OA
ATOM    101  O   UNL A   1      47.215  25.481  27.962  1.00  0.00    -0.744 OA
ENDBRANCH  95  98
ENDBRANCH  68  91
ENDBRANCH  42  43
ENDBRANCH  34  37
ENDBRANCH  32  33
ENDBRANCH  31  32
ENDBRANCH  30  31
ENDBRANCH   1  30
TORSDOF 19
ENDMDL
MODEL 2
REMARK VINA RESULT:     -11.5      3.818      9.548
REMARK SMILES CCn1ncc(Br)c1C(=O)N[C@@H]1C(=O)N2C(C(=O)NCCCCCCNC(=O)c3ccc(-c4c5nc(c(-c6cccc(S(=O)(=O)[O-])c6F)c6ccc([nH]6)c(-c6cccc(S(=O)(=O)[O-])c6F)c6nc(c(-c7cccc(S(=O)(=O)[O-])c7F)c7ccc4[nH]7)C=C6)C=C5)cc3)=C(C)CS[C@H]12
REMARK SMILES IDX 22 1 21 2 20 3 19 4 17 5 18 6 16 8 12 9 13 10 96 11 14 12
REMARK SMILES IDX 15 13 95 14 94 15 92 16 93 17 11 18 9 19 10 20 8 22 3 23
REMARK SMILES IDX 4 24 5 25 6 26 7 27 2 28 1 29 23 30 24 31 25 32 26 33 27 34
REMARK SMILES IDX 28 36 29 37 30 38 91 39 31 40 90 41 32 42 33 43 34 44 84 45
REMARK SMILES IDX 35 46 89 47 83 48 85 49 36 50 88 51 82 52 81 53 37 55 69 56
REMARK SMILES IDX 49 57 68 58 50 59 53 60 67 61 86 62 51 63 52 64 66 66 87 67
REMARK SMILES IDX 54 68 38 69 39 70 47 71 40 72 42 73 48 74 41 75 43 76 44 77
REMARK SMILES IDX 45 78 46 79 70 80 71 81 79 82 72 83 74 84 80 85 73 86 75 87
REMARK SMILES IDX 76 88 77 89 78 90 55 91 56 92 64 93 57 94 59 95 65 96 58 97
REMARK SMILES IDX 60 98 61 99 62 100 63 101
REMARK H PARENT 19 7 11 21 26 35 85 54 53 65
REMARK Flexibility Score: inf
ROOT
ATOM      1  C   UNL A   1      34.012  29.526  27.195  1.00  0.00     0.002 C 
ENDROOT
BRANCH   1   2
ATOM      2  C   UNL A   1      33.216  29.186  25.935  1.00  0.00     0.021 C 
BRANCH   2   3
ATOM      3  C   UNL A   1      33.496  27.847  25.268  1.00  0.00     0.116 C 
BRANCH   3   4
ATOM      4  N   UNL A   1      34.011  27.857  23.908  1.00  0.00    -0.351 N 
ATOM      5  C   UNL A   1      33.444  27.309  22.775  1.00  0.00     0.268 C 
ATOM      6  O   UNL A   1      33.882  27.597  21.663  1.00  0.00    -0.268 OA
ATOM      7  H   UNL A   1      34.874  28.313  23.779  1.00  0.00     0.163 HD
BRANCH   5   8
ATOM      8  C   UNL A   1      32.339  26.301  22.935  1.00  0.00     0.110 C 
ATOM      9  C   UNL A   1      32.717  22.899  22.681  1.00  0.00     0.206 C 
ATOM     10  C   UNL A   1      33.696  24.108  22.863  1.00  0.00     0.253 C 
ATOM     11  C   UNL A   1      31.621  23.967  22.922  1.00  0.00     0.181 C 
ATOM     12  O   UNL A   1      34.907  24.248  22.929  1.00  0.00    -0.272 OA
ATOM     13  N   UNL A   1      32.658  24.966  22.861  1.00  0.00    -0.290 N 
ATOM     14  S   UNL A   1      30.915  24.279  24.578  1.00  0.00    -0.129 SA
ATOM     15  C   UNL A   1      30.079  25.756  23.931  1.00  0.00     0.104 C 
ATOM     16  C   UNL A   1      31.043  26.649  23.158  1.00  0.00    -0.034 C 
ATOM     17  C   UNL A   1      30.397  27.945  22.749  1.00  0.00     0.043 C 
BRANCH   9  18
ATOM     18  N   UNL A   1      32.687  21.693  23.578  1.00  0.00    -0.336 N 
ATOM     19  C   UNL A   1      33.542  21.595  24.669  1.00  0.00     0.271 C 
ATOM     20  O   UNL A   1      33.627  22.523  25.469  1.00  0.00    -0.267 OA
ATOM     21  H   UNL A   1      32.053  20.963  23.389  1.00  0.00     0.164 HD
BRANCH  19  22
ATOM     22  C   UNL A   1      34.364  20.400  24.769  1.00  0.00     0.140 A 
ATOM     23  N   UNL A   1      33.961  19.090  24.557  1.00  0.00    -0.259 N 
ATOM     24  N   UNL A   1      34.955  18.184  24.580  1.00  0.00    -0.180 NA
ATOM     25  C   UNL A   1      36.039  18.915  24.832  1.00  0.00     0.151 A 
ATOM     26  C   UNL A   1      35.733  20.280  24.909  1.00  0.00     0.069 A 
ATOM     27  Br  UNL A   1      37.025  21.612  25.142  1.00  0.00    -0.047 Br
BRANCH  23  28
ATOM     28  C   UNL A   1      32.629  18.663  24.208  1.00  0.00     0.142 C 
ATOM     29  C   UNL A   1      32.314  18.316  22.763  1.00  0.00     0.029 C 
ENDBRANCH  23  28
ENDBRANCH  19  22
ENDBRANCH   9  18
ENDBRANCH   5   8
ENDBRANCH   3   4
ENDBRANCH   2   3
ENDBRANCH   1   2
BRANCH   1  30
ATOM     30  C   UNL A   1      34.045  30.978  27.688  1.00  0.00     0.002 C 
BRANCH  30  31
ATOM     31  C   UNL A   1      32.747  31.794  27.717  1.00  0.00     0.021 C 
BRANCH  31  32
ATOM     32  C   UNL A   1      32.765  33.117  26.965  1.00  0.00     0.116 C 
BRANCH  32  33
ATOM     33  N   UNL A   1      32.421  34.270  27.798  1.00  0.00    -0.352 N 
ATOM     34  C   UNL A   1      33.006  34.678  28.983  1.00  0.00     0.251 C 
ATOM     35  H   UNL A   1      31.678  34.826  27.472  1.00  0.00     0.163 HD
ATOM     36  O   UNL A   1      32.415  35.444  29.738  1.00  0.00    -0.269 OA
BRANCH  34  37
ATOM     37  C   UNL A   1      34.343  34.167  29.337  1.00  0.00     0.039 A 
ATOM     38  C   UNL A   1      34.554  33.422  30.501  1.00  0.00     0.014 A 
ATOM     39  C   UNL A   1      35.389  34.402  28.452  1.00  0.00     0.014 A 
ATOM     40  C   UNL A   1      35.802  32.836  30.714  1.00  0.00     0.010 A 
ATOM     41  C   UNL A   1      36.553  33.687  28.574  1.00  0.00     0.010 A 
ATOM     42  C   UNL A   1      36.796  32.950  29.729  1.00  0.00    -0.014 A 
BRANCH  42  43
ATOM     43  C   UNL A   1      38.065  32.231  29.849  1.00  0.00     0.031 A 
ATOM     44  C   UNL A   1      38.078  30.854  29.285  1.00  0.00     0.074 A 
ATOM     45  C   UNL A   1      39.216  32.838  30.218  1.00  0.00     0.049 A 
ATOM     46  N   UNL A   1      38.221  29.740  29.926  1.00  0.00    -0.248 NA
ATOM     47  C   UNL A   1      37.789  30.684  27.852  1.00  0.00     0.031 C 
ATOM     48  C   UNL A   1      39.417  34.271  30.485  1.00  0.00     0.029 A 
ATOM     49  N   UNL A   1      40.485  32.341  30.271  1.00  0.00    -0.354 N 
ATOM     50  C   UNL A   1      38.290  28.751  28.944  1.00  0.00     0.074 A 
ATOM     51  C   UNL A   1      37.814  29.355  27.728  1.00  0.00     0.031 C 
ATOM     52  C   UNL A   1      40.728  34.567  30.381  1.00  0.00     0.029 A 
ATOM     53  C   UNL A   1      41.465  33.327  30.256  1.00  0.00     0.049 A 
ATOM     54  H   UNL A   1      40.687  31.378  30.315  1.00  0.00     0.167 HD
ATOM     55  C   UNL A   1      39.002  27.607  29.146  1.00  0.00     0.034 A 
ATOM     56  C   UNL A   1      42.800  33.157  30.138  1.00  0.00     0.034 A 
ATOM     57  C   UNL A   1      39.399  27.477  30.523  1.00  0.00     0.049 A 
ATOM     58  C   UNL A   1      43.114  31.780  30.562  1.00  0.00     0.074 A 
ATOM     59  C   UNL A   1      38.786  27.247  31.733  1.00  0.00     0.029 A 
ATOM     60  N   UNL A   1      40.656  27.960  30.784  1.00  0.00    -0.354 N 
ATOM     61  N   UNL A   1      42.951  31.354  31.784  1.00  0.00    -0.248 NA
ATOM     62  C   UNL A   1      43.325  30.744  29.562  1.00  0.00     0.031 C 
ATOM     63  C   UNL A   1      39.622  27.863  32.712  1.00  0.00     0.029 A 
ATOM     64  C   UNL A   1      40.726  28.425  32.068  1.00  0.00     0.049 A 
ATOM     65  H   UNL A   1      41.401  27.971  30.140  1.00  0.00     0.167 HD
ATOM     66  C   UNL A   1      42.577  30.031  31.630  1.00  0.00     0.074 A 
ATOM     67  C   UNL A   1      43.023  29.666  30.292  1.00  0.00     0.031 C 
ATOM     68  C   UNL A   1      41.655  29.465  32.461  1.00  0.00     0.034 A 
BRANCH  55  69
ATOM     69  C   UNL A   1      39.738  26.813  28.082  1.00  0.00     0.023 A 
ATOM     70  C   UNL A   1      39.504  25.417  28.045  1.00  0.00     0.012 A 
ATOM     71  C   UNL A   1      40.845  27.289  27.344  1.00  0.00     0.148 A 
ATOM     72  C   UNL A   1      40.353  24.540  27.358  1.00  0.00     0.002 A 
ATOM     73  C   UNL A   1      41.639  26.422  26.597  1.00  0.00     0.091 A 
ATOM     74  F   UNL A   1      41.237  28.558  27.468  1.00  0.00    -0.205 F 
ATOM     75  C   UNL A   1      41.418  25.045  26.625  1.00  0.00     0.022 A 
BRANCH  73  76
ATOM     76  S   UNL A   1      42.998  27.035  25.593  1.00  0.00     0.127 S 
ATOM     77  O   UNL A   1      42.308  27.950  24.691  1.00  0.00    -0.237 OA
ATOM     78  O   UNL A   1      43.850  27.675  26.597  1.00  0.00    -0.237 OA
ATOM     79  O   UNL A   1      43.589  25.850  24.983  1.00  0.00    -0.744 OA
ENDBRANCH  73  76
ENDBRANCH  55  69
BRANCH  56  80
ATOM     80  C   UNL A   1      43.815  34.072  29.581  1.00  0.00     0.023 A 
ATOM     81  C   UNL A   1      44.570  34.894  30.436  1.00  0.00     0.012 A 
ATOM     82  C   UNL A   1      44.217  33.950  28.231  1.00  0.00     0.148 A 
ATOM     83  C   UNL A   1      45.716  35.549  29.972  1.00  0.00     0.002 A 
ATOM     84  C   UNL A   1      45.357  34.602  27.774  1.00  0.00     0.091 A 
ATOM     85  F   UNL A   1      43.523  33.133  27.426  1.00  0.00    -0.205 F 
ATOM     86  C   UNL A   1      46.116  35.393  28.647  1.00  0.00     0.022 A 
BRANCH  84  87
ATOM     87  S   UNL A   1      45.957  34.424  26.088  1.00  0.00     0.127 S 
ATOM     88  O   UNL A   1      44.741  34.656  25.310  1.00  0.00    -0.237 OA
ATOM     89  O   UNL A   1      46.950  35.491  26.007  1.00  0.00    -0.237 OA
ATOM     90  O   UNL A   1      46.484  33.067  25.991  1.00  0.00    -0.744 OA
ENDBRANCH  84  87
ENDBRANCH  56  80
BRANCH  68  91
ATOM     91  C   UNL A   1      41.421  30.124  33.793  1.00  0.00     0.023 A 
ATOM     92  C   UNL A   1      42.337  30.025  34.861  1.00  0.00     0.012 A 
ATOM     93  C   UNL A   1      40.306  30.966  33.930  1.00  0.00     0.148 A 
ATOM     94  C   UNL A   1      42.128  30.730  36.048  1.00  0.00     0.002 A 
ATOM     95  C   UNL A   1      40.127  31.704  35.092  1.00  0.00     0.091 A 
ATOM     96  F   UNL A   1      39.443  31.048  32.905  1.00  0.00    -0.205 F 
ATOM     97  C   UNL A   1      41.030  31.580  36.160  1.00  0.00     0.022 A 
BRANCH  95  98
ATOM     98  S   UNL A   1      38.805  32.908  35.239  1.00  0.00     0.127 S 
ATOM     99  O   UNL A   1      38.750  33.469  33.891  1.00  0.00    -0.237 OA
ATOM    100  O   UNL A   1      37.657  32.075  35.603  1.00  0.00    -0.237 OA
ATOM    101  O   UNL A   1      39.223  33.829  36.290  1.00  0.00    -0.744 OA
ENDBRANCH  95  98
ENDBRANCH  68  91
ENDBRANCH  42  43
ENDBRANCH  34  37
ENDBRANCH  32  33
ENDBRANCH  31  32
ENDBRANCH  30  31
ENDBRANCH   1  30
TORSDOF 19
ENDMDL
MODEL 3
REMARK VINA RESULT:     -11.4      3.028      8.149
REMARK SMILES CCn1ncc(Br)c1C(=O)N[C@@H]1C(=O)N2C(C(=O)NCCCCCCNC(=O)c3ccc(-c4c5nc(c(-c6cccc(S(=O)(=O)[O-])c6F)c6ccc([nH]6)c(-c6cccc(S(=O)(=O)[O-])c6F)c6nc(c(-c7cccc(S(=O)(=O)[O-])c7F)c7ccc4[nH]7)C=C6)C=C5)cc3)=C(C)CS[C@H]12
REMARK SMILES IDX 22 1 21 2 20 3 19 4 17 5 18 6 16 8 12 9 13 10 96 11 14 12
REMARK SMILES IDX 15 13 95 14 94 15 92 16 93 17 11 18 9 19 10 20 8 22 3 23
REMARK SMILES IDX 4 24 5 25 6 26 7 27 2 28 1 29 23 30 24 31 25 32 26 33 27 34
REMARK SMILES IDX 28 36 29 37 30 38 91 39 31 40 90 41 32 42 33 43 34 44 84 45
REMARK SMILES IDX 35 46 89 47 83 48 85 49 36 50 88 51 82 52 81 53 37 55 69 56
REMARK SMILES IDX 49 57 68 58 50 59 53 60 67 61 86 62 51 63 52 64 66 66 87 67
REMARK SMILES IDX 54 68 38 69 39 70 47 71 40 72 42 73 48 74 41 75 43 76 44 77
REMARK SMILES IDX 45 78 46 79 70 80 71 81 79 82 72 83 74 84 80 85 73 86 75 87
REMARK SMILES IDX 76 88 77 89 78 90 55 91 56 92 64 93 57 94 59 95 65 96 58 97
REMARK SMILES IDX 60 98 61 99 62 100 63 101
REMARK H PARENT 19 7 11 21 26 35 85 54 53 65
REMARK Flexibility Score: inf
ROOT
ATOM      1  C   UNL A   1      32.829  28.704  26.280  1.00  0.00     0.002 C 
ENDROOT
BRANCH   1   2
ATOM      2  C   UNL A   1      32.550  29.672  25.131  1.00  0.00     0.021 C 
BRANCH   2   3
ATOM      3  C   UNL A   1      31.094  29.968  24.801  1.00  0.00     0.116 C 
BRANCH   3   4
ATOM      4  N   UNL A   1      30.707  30.013  23.400  1.00  0.00    -0.351 N 
ATOM      5  C   UNL A   1      30.183  28.997  22.625  1.00  0.00     0.268 C 
ATOM      6  O   UNL A   1      29.694  29.249  21.525  1.00  0.00    -0.268 OA
ATOM      7  H   UNL A   1      30.835  30.878  22.946  1.00  0.00     0.163 HD
BRANCH   5   8
ATOM      8  C   UNL A   1      30.296  27.581  23.118  1.00  0.00     0.110 C 
ATOM      9  C   UNL A   1      33.010  25.533  22.641  1.00  0.00     0.206 C 
ATOM     10  C   UNL A   1      32.754  27.075  22.519  1.00  0.00     0.253 C 
ATOM     11  C   UNL A   1      31.595  25.519  23.274  1.00  0.00     0.181 C 
ATOM     12  O   UNL A   1      33.412  28.043  22.176  1.00  0.00    -0.272 OA
ATOM     13  N   UNL A   1      31.472  26.905  22.897  1.00  0.00    -0.290 N 
ATOM     14  S   UNL A   1      31.337  25.611  25.080  1.00  0.00    -0.129 SA
ATOM     15  C   UNL A   1      29.557  25.845  24.802  1.00  0.00     0.104 C 
ATOM     16  C   UNL A   1      29.292  26.942  23.777  1.00  0.00    -0.034 C 
ATOM     17  C   UNL A   1      27.824  27.247  23.653  1.00  0.00     0.043 C 
BRANCH   9  18
ATOM     18  N   UNL A   1      34.115  24.922  23.456  1.00  0.00    -0.336 N 
ATOM     19  C   UNL A   1      34.450  23.582  23.311  1.00  0.00     0.271 C 
ATOM     20  O   UNL A   1      34.650  23.115  22.192  1.00  0.00    -0.267 OA
ATOM     21  H   UNL A   1      34.608  25.480  24.101  1.00  0.00     0.164 HD
BRANCH  19  22
ATOM     22  C   UNL A   1      34.475  22.764  24.513  1.00  0.00     0.140 A 
ATOM     23  N   UNL A   1      33.646  21.692  24.810  1.00  0.00    -0.259 N 
ATOM     24  N   UNL A   1      33.973  21.021  25.930  1.00  0.00    -0.180 NA
ATOM     25  C   UNL A   1      35.033  21.681  26.392  1.00  0.00     0.151 A 
ATOM     26  C   UNL A   1      35.405  22.725  25.535  1.00  0.00     0.069 A 
ATOM     27  Br  UNL A   1      36.913  23.795  25.810  1.00  0.00    -0.047 Br
BRANCH  23  28
ATOM     28  C   UNL A   1      32.582  21.191  23.976  1.00  0.00     0.142 C 
ATOM     29  C   UNL A   1      32.481  19.699  23.715  1.00  0.00     0.029 C 
ENDBRANCH  23  28
ENDBRANCH  19  22
ENDBRANCH   9  18
ENDBRANCH   5   8
ENDBRANCH   3   4
ENDBRANCH   2   3
ENDBRANCH   1   2
BRANCH   1  30
ATOM     30  C   UNL A   1      33.330  29.261  27.619  1.00  0.00     0.002 C 
BRANCH  30  31
ATOM     31  C   UNL A   1      34.586  30.140  27.648  1.00  0.00     0.021 C 
BRANCH  31  32
ATOM     32  C   UNL A   1      34.355  31.642  27.740  1.00  0.00     0.116 C 
BRANCH  32  33
ATOM     33  N   UNL A   1      34.301  32.143  29.114  1.00  0.00    -0.352 N 
ATOM     34  C   UNL A   1      35.123  31.822  30.178  1.00  0.00     0.251 C 
ATOM     35  H   UNL A   1      33.586  32.793  29.304  1.00  0.00     0.163 HD
ATOM     36  O   UNL A   1      34.767  32.047  31.331  1.00  0.00    -0.269 OA
BRANCH  34  37
ATOM     37  C   UNL A   1      36.429  31.190  29.912  1.00  0.00     0.039 A 
ATOM     38  C   UNL A   1      37.555  31.952  29.586  1.00  0.00     0.014 A 
ATOM     39  C   UNL A   1      36.527  29.810  30.044  1.00  0.00     0.014 A 
ATOM     40  C   UNL A   1      38.796  31.321  29.491  1.00  0.00     0.010 A 
ATOM     41  C   UNL A   1      37.764  29.223  30.123  1.00  0.00     0.010 A 
ATOM     42  C   UNL A   1      38.900  29.953  29.788  1.00  0.00    -0.014 A 
BRANCH  42  43
ATOM     43  C   UNL A   1      40.203  29.288  29.841  1.00  0.00     0.031 A 
ATOM     44  C   UNL A   1      40.758  29.073  31.205  1.00  0.00     0.074 A 
ATOM     45  C   UNL A   1      40.761  28.689  28.765  1.00  0.00     0.049 A 
ATOM     46  N   UNL A   1      41.820  29.602  31.717  1.00  0.00    -0.248 NA
ATOM     47  C   UNL A   1      39.983  28.256  32.153  1.00  0.00     0.031 C 
ATOM     48  C   UNL A   1      40.167  28.538  27.427  1.00  0.00     0.029 A 
ATOM     49  N   UNL A   1      41.900  27.944  28.675  1.00  0.00    -0.354 N 
ATOM     50  C   UNL A   1      41.980  28.990  32.960  1.00  0.00     0.074 A 
ATOM     51  C   UNL A   1      40.729  28.344  33.256  1.00  0.00     0.031 C 
ATOM     52  C   UNL A   1      40.786  27.534  26.773  1.00  0.00     0.029 A 
ATOM     53  C   UNL A   1      41.938  27.128  27.551  1.00  0.00     0.049 A 
ATOM     54  H   UNL A   1      42.623  27.980  29.343  1.00  0.00     0.167 HD
ATOM     55  C   UNL A   1      43.215  28.822  33.510  1.00  0.00     0.034 A 
ATOM     56  C   UNL A   1      42.842  26.166  27.263  1.00  0.00     0.034 A 
ATOM     57  C   UNL A   1      44.212  29.569  32.787  1.00  0.00     0.049 A 
ATOM     58  C   UNL A   1      44.067  26.461  28.030  1.00  0.00     0.074 A 
ATOM     59  C   UNL A   1      44.536  30.892  32.591  1.00  0.00     0.029 A 
ATOM     60  N   UNL A   1      44.860  28.840  31.824  1.00  0.00    -0.354 N 
ATOM     61  N   UNL A   1      44.803  27.517  27.820  1.00  0.00    -0.248 NA
ATOM     62  C   UNL A   1      44.337  25.747  29.269  1.00  0.00     0.031 C 
ATOM     63  C   UNL A   1      45.180  30.946  31.318  1.00  0.00     0.029 A 
ATOM     64  C   UNL A   1      45.247  29.653  30.796  1.00  0.00     0.049 A 
ATOM     65  H   UNL A   1      45.023  27.869  31.867  1.00  0.00     0.167 HD
ATOM     66  C   UNL A   1      45.274  27.852  29.078  1.00  0.00     0.074 A 
ATOM     67  C   UNL A   1      45.134  26.636  29.868  1.00  0.00     0.031 C 
ATOM     68  C   UNL A   1      45.417  29.158  29.444  1.00  0.00     0.034 A 
BRANCH  55  69
ATOM     69  C   UNL A   1      43.650  27.672  34.400  1.00  0.00     0.023 A 
ATOM     70  C   UNL A   1      44.270  28.008  35.628  1.00  0.00     0.012 A 
ATOM     71  C   UNL A   1      43.765  26.329  33.980  1.00  0.00     0.148 A 
ATOM     72  C   UNL A   1      45.007  27.075  36.367  1.00  0.00     0.002 A 
ATOM     73  C   UNL A   1      44.430  25.385  34.759  1.00  0.00     0.091 A 
ATOM     74  F   UNL A   1      43.363  25.971  32.758  1.00  0.00    -0.205 F 
ATOM     75  C   UNL A   1      45.080  25.757  35.936  1.00  0.00     0.022 A 
BRANCH  73  76
ATOM     76  S   UNL A   1      44.509  23.658  34.265  1.00  0.00     0.127 S 
ATOM     77  O   UNL A   1      45.159  23.754  32.963  1.00  0.00    -0.237 OA
ATOM     78  O   UNL A   1      45.330  23.077  35.329  1.00  0.00    -0.237 OA
ATOM     79  O   UNL A   1      43.126  23.195  34.265  1.00  0.00    -0.744 OA
ENDBRANCH  73  76
ENDBRANCH  55  69
BRANCH  56  80
ATOM     80  C   UNL A   1      42.684  24.944  26.451  1.00  0.00     0.023 A 
ATOM     81  C   UNL A   1      43.603  24.653  25.428  1.00  0.00     0.012 A 
ATOM     82  C   UNL A   1      41.777  23.938  26.851  1.00  0.00     0.148 A 
ATOM     83  C   UNL A   1      43.644  23.383  24.842  1.00  0.00     0.002 A 
ATOM     84  C   UNL A   1      41.821  22.676  26.267  1.00  0.00     0.091 A 
ATOM     85  F   UNL A   1      40.929  24.200  27.856  1.00  0.00    -0.205 F 
ATOM     86  C   UNL A   1      42.764  22.393  25.269  1.00  0.00     0.022 A 
BRANCH  84  87
ATOM     87  S   UNL A   1      40.742  21.335  26.788  1.00  0.00     0.127 S 
ATOM     88  O   UNL A   1      41.373  20.178  26.152  1.00  0.00    -0.237 OA
ATOM     89  O   UNL A   1      40.877  21.386  28.241  1.00  0.00    -0.237 OA
ATOM     90  O   UNL A   1      39.419  21.660  26.268  1.00  0.00    -0.744 OA
ENDBRANCH  84  87
ENDBRANCH  56  80
BRANCH  68  91
ATOM     91  C   UNL A   1      45.515  30.184  28.348  1.00  0.00     0.023 A 
ATOM     92  C   UNL A   1      44.382  30.696  27.684  1.00  0.00     0.012 A 
ATOM     93  C   UNL A   1      46.775  30.734  28.067  1.00  0.00     0.148 A 
ATOM     94  C   UNL A   1      44.509  31.717  26.739  1.00  0.00     0.002 A 
ATOM     95  C   UNL A   1      46.893  31.783  27.164  1.00  0.00     0.091 A 
ATOM     96  F   UNL A   1      47.845  30.235  28.707  1.00  0.00    -0.205 F 
ATOM     97  C   UNL A   1      45.763  32.269  26.488  1.00  0.00     0.022 A 
BRANCH  95  98
ATOM     98  S   UNL A   1      48.460  32.615  26.899  1.00  0.00     0.127 S 
ATOM     99  O   UNL A   1      48.110  33.616  25.894  1.00  0.00    -0.237 OA
ATOM    100  O   UNL A   1      48.758  33.159  28.226  1.00  0.00    -0.237 OA
ATOM    101  O   UNL A   1      49.390  31.580  26.463  1.00  0.00    -0.744 OA
ENDBRANCH  95  98
ENDBRANCH  68  91
ENDBRANCH  42  43
ENDBRANCH  34  37
ENDBRANCH  32  33
ENDBRANCH  31  32
ENDBRANCH  30  31
ENDBRANCH   1  30
TORSDOF 19
ENDMDL
