MODEL 1
REMARK VINA RESULT:     -12.6      0.000      0.000
REMARK SMILES O=C(NCCCCCCNC(=O)c1ccc(-c2c3nc(c(-c4cccc(S(=O)(=O)[O-])c4F)c4ccc([nH]4)c(-c4cccc(S(=O)(=O)[O-])c4F)c4nc(c(-c5cccc(S(=O)(=O)[O-])c5F)c5ccc2[nH]5)C=C4)C=C3)cc1)C1=Cc2c(ccc(Cl)c2-c2ccccc2)O[C@H]1C(F)(F)F
REMARK SMILES IDX 7 1 6 2 5 3 4 4 3 5 1 6 2 7 76 9 77 10 92 11 78 12 91 13
REMARK SMILES IDX 79 14 84 15 80 16 82 17 81 18 83 19 93 20 94 21 95 22 96 23
REMARK SMILES IDX 85 24 86 25 90 26 87 27 89 28 88 29 8 30 9 31 10 32 11 33
REMARK SMILES IDX 12 35 13 36 14 37 75 38 15 39 74 40 16 41 17 42 18 43 68 44
REMARK SMILES IDX 19 45 73 46 67 47 69 48 20 49 72 50 66 51 65 52 21 54 53 55
REMARK SMILES IDX 33 56 52 57 34 58 37 59 51 60 70 61 35 62 36 63 50 65 71 66
REMARK SMILES IDX 38 67 22 68 23 69 31 70 24 71 26 72 32 73 25 74 27 75 28 76
REMARK SMILES IDX 29 77 30 78 54 79 55 80 63 81 56 82 58 83 64 84 57 85 59 86
REMARK SMILES IDX 60 87 61 88 62 89 39 90 40 91 48 92 41 93 43 94 49 95 42 96
REMARK SMILES IDX 44 97 45 98 46 99 47 100
REMARK H PARENT 3 8 10 34 69 53 37 64
REMARK Flexibility Score: inf
ROOT
ATOM      1  C   UNL A   1      31.633  30.230  26.116  1.00  0.00     0.002 C 
ENDROOT
BRANCH   1   2
ATOM      2  C   UNL A   1      32.253  29.274  27.142  1.00  0.00     0.002 C 
BRANCH   2   3
ATOM      3  C   UNL A   1      31.488  27.984  27.459  1.00  0.00     0.021 C 
BRANCH   3   4
ATOM      4  C   UNL A   1      31.360  26.968  26.326  1.00  0.00     0.116 C 
BRANCH   4   5
ATOM      5  N   UNL A   1      30.523  25.818  26.620  1.00  0.00    -0.352 N 
ATOM      6  O   UNL A   1      29.974  23.649  26.842  1.00  0.00    -0.270 OA
ATOM      7  C   UNL A   1      30.844  24.487  26.615  1.00  0.00     0.251 C 
ATOM      8  H   UNL A   1      29.590  26.026  26.858  1.00  0.00     0.163 HD
BRANCH   7   9
ATOM      9  C   UNL A   1      32.228  24.031  26.367  1.00  0.00     0.067 C 
ATOM     10  C   UNL A   1      33.010  24.812  25.613  1.00  0.00     0.026 C 
ATOM     11  C   UNL A   1      32.640  22.604  26.538  1.00  0.00     0.314 C 
ATOM     12  C   UNL A   1      33.108  24.208  24.254  1.00  0.00     0.027 A 
ATOM     13  O   UNL A   1      33.004  21.982  25.255  1.00  0.00    -0.475 OA
ATOM     14  C   UNL A   1      33.083  22.807  24.154  1.00  0.00     0.128 A 
ATOM     15  C   UNL A   1      33.031  25.057  23.117  1.00  0.00     0.011 A 
ATOM     16  C   UNL A   1      32.990  22.219  22.900  1.00  0.00     0.049 A 
ATOM     17  C   UNL A   1      32.901  24.437  21.868  1.00  0.00     0.049 A 
ATOM     18  C   UNL A   1      32.885  23.032  21.763  1.00  0.00     0.025 A 
ATOM     19  Cl  UNL A   1      32.659  25.356  20.427  1.00  0.00    -0.084 Cl
BRANCH  11  20
ATOM     20  C   UNL A   1      33.788  22.457  27.567  1.00  0.00     0.429 C 
ATOM     21  F   UNL A   1      34.395  21.245  27.527  1.00  0.00    -0.167 F 
ATOM     22  F   UNL A   1      34.756  23.381  27.351  1.00  0.00    -0.167 F 
ATOM     23  F   UNL A   1      33.360  22.623  28.841  1.00  0.00    -0.167 F 
ENDBRANCH  11  20
BRANCH  15  24
ATOM     24  C   UNL A   1      32.910  26.510  23.390  1.00  0.00    -0.016 A 
ATOM     25  C   UNL A   1      34.076  27.287  23.477  1.00  0.00     0.009 A 
ATOM     26  C   UNL A   1      31.695  27.165  23.126  1.00  0.00     0.009 A 
ATOM     27  C   UNL A   1      34.065  28.638  23.134  1.00  0.00     0.001 A 
ATOM     28  C   UNL A   1      31.685  28.516  22.769  1.00  0.00     0.001 A 
ATOM     29  C   UNL A   1      32.875  29.240  22.737  1.00  0.00     0.000 A 
ENDBRANCH  15  24
ENDBRANCH   7   9
ENDBRANCH   4   5
ENDBRANCH   3   4
ENDBRANCH   2   3
ENDBRANCH   1   2
BRANCH   1  30
ATOM     30  C   UNL A   1      31.519  31.704  26.502  1.00  0.00     0.021 C 
BRANCH  30  31
ATOM     31  C   UNL A   1      32.743  32.312  27.176  1.00  0.00     0.116 C 
BRANCH  31  32
ATOM     32  N   UNL A   1      32.552  33.706  27.548  1.00  0.00    -0.352 N 
ATOM     33  C   UNL A   1      33.191  34.464  28.496  1.00  0.00     0.251 C 
ATOM     34  H   UNL A   1      31.854  34.178  27.039  1.00  0.00     0.163 HD
ATOM     35  O   UNL A   1      32.773  35.598  28.741  1.00  0.00    -0.269 OA
BRANCH  33  36
ATOM     36  C   UNL A   1      34.360  33.938  29.240  1.00  0.00     0.039 A 
ATOM     37  C   UNL A   1      34.142  33.027  30.279  1.00  0.00     0.014 A 
ATOM     38  C   UNL A   1      35.661  34.354  28.949  1.00  0.00     0.014 A 
ATOM     39  C   UNL A   1      35.226  32.498  30.985  1.00  0.00     0.010 A 
ATOM     40  C   UNL A   1      36.746  33.762  29.596  1.00  0.00     0.010 A 
ATOM     41  C   UNL A   1      36.541  32.838  30.631  1.00  0.00    -0.014 A 
BRANCH  41  42
ATOM     42  C   UNL A   1      37.709  32.245  31.336  1.00  0.00     0.031 A 
ATOM     43  C   UNL A   1      38.471  31.102  30.716  1.00  0.00     0.074 A 
ATOM     44  C   UNL A   1      38.039  32.680  32.568  1.00  0.00     0.049 A 
ATOM     45  N   UNL A   1      39.479  30.422  31.203  1.00  0.00    -0.248 NA
ATOM     46  C   UNL A   1      38.026  30.644  29.391  1.00  0.00     0.031 C 
ATOM     47  C   UNL A   1      37.332  33.722  33.313  1.00  0.00     0.029 A 
ATOM     48  N   UNL A   1      39.036  32.280  33.423  1.00  0.00    -0.354 N 
ATOM     49  C   UNL A   1      39.764  29.440  30.261  1.00  0.00     0.074 A 
ATOM     50  C   UNL A   1      38.796  29.585  29.196  1.00  0.00     0.031 C 
ATOM     51  C   UNL A   1      37.916  33.880  34.511  1.00  0.00     0.029 A 
ATOM     52  C   UNL A   1      39.017  32.930  34.634  1.00  0.00     0.049 A 
ATOM     53  H   UNL A   1      39.701  31.592  33.191  1.00  0.00     0.167 HD
ATOM     54  C   UNL A   1      40.762  28.523  30.262  1.00  0.00     0.034 A 
ATOM     55  C   UNL A   1      39.791  32.774  35.727  1.00  0.00     0.034 A 
ATOM     56  C   UNL A   1      41.744  28.403  31.306  1.00  0.00     0.049 A 
ATOM     57  C   UNL A   1      40.913  31.774  35.694  1.00  0.00     0.074 A 
ATOM     58  C   UNL A   1      42.840  27.560  31.365  1.00  0.00     0.029 A 
ATOM     59  N   UNL A   1      41.745  29.140  32.480  1.00  0.00    -0.354 N 
ATOM     60  N   UNL A   1      41.260  30.956  34.730  1.00  0.00    -0.248 NA
ATOM     61  C   UNL A   1      41.773  31.699  36.884  1.00  0.00     0.031 C 
ATOM     62  C   UNL A   1      43.487  27.769  32.588  1.00  0.00     0.029 A 
ATOM     63  C   UNL A   1      42.815  28.766  33.275  1.00  0.00     0.049 A 
ATOM     64  H   UNL A   1      41.082  29.830  32.715  1.00  0.00     0.167 HD
ATOM     65  C   UNL A   1      42.397  30.295  35.181  1.00  0.00     0.074 A 
ATOM     66  C   UNL A   1      42.691  30.823  36.497  1.00  0.00     0.031 C 
ATOM     67  C   UNL A   1      43.123  29.329  34.565  1.00  0.00     0.034 A 
BRANCH  54  68
ATOM     68  C   UNL A   1      40.866  27.606  29.068  1.00  0.00     0.023 A 
ATOM     69  C   UNL A   1      40.060  26.450  29.004  1.00  0.00     0.012 A 
ATOM     70  C   UNL A   1      41.728  27.904  27.994  1.00  0.00     0.148 A 
ATOM     71  C   UNL A   1      40.144  25.582  27.918  1.00  0.00     0.002 A 
ATOM     72  C   UNL A   1      41.770  27.059  26.890  1.00  0.00     0.091 A 
ATOM     73  F   UNL A   1      42.502  28.996  28.077  1.00  0.00    -0.205 F 
ATOM     74  C   UNL A   1      40.991  25.891  26.858  1.00  0.00     0.022 A 
BRANCH  72  75
ATOM     75  S   UNL A   1      42.767  27.411  25.439  1.00  0.00     0.127 S 
ATOM     76  O   UNL A   1      42.658  26.155  24.695  1.00  0.00    -0.237 OA
ATOM     77  O   UNL A   1      42.050  28.538  24.838  1.00  0.00    -0.237 OA
ATOM     78  O   UNL A   1      44.096  27.732  25.933  1.00  0.00    -0.744 OA
ENDBRANCH  72  75
ENDBRANCH  54  68
BRANCH  55  79
ATOM     79  C   UNL A   1      39.554  33.627  36.926  1.00  0.00     0.023 A 
ATOM     80  C   UNL A   1      39.959  34.976  36.913  1.00  0.00     0.012 A 
ATOM     81  C   UNL A   1      38.892  33.117  38.060  1.00  0.00     0.148 A 
ATOM     82  C   UNL A   1      39.733  35.795  38.021  1.00  0.00     0.002 A 
ATOM     83  C   UNL A   1      38.620  33.954  39.136  1.00  0.00     0.091 A 
ATOM     84  F   UNL A   1      38.525  31.829  38.055  1.00  0.00    -0.205 F 
ATOM     85  C   UNL A   1      39.054  35.289  39.125  1.00  0.00     0.022 A 
BRANCH  83  86
ATOM     86  S   UNL A   1      37.634  33.424  40.541  1.00  0.00     0.127 S 
ATOM     87  O   UNL A   1      37.522  34.662  41.310  1.00  0.00    -0.237 OA
ATOM     88  O   UNL A   1      36.396  32.989  39.892  1.00  0.00    -0.237 OA
ATOM     89  O   UNL A   1      38.389  32.355  41.173  1.00  0.00    -0.744 OA
ENDBRANCH  83  86
ENDBRANCH  55  79
BRANCH  67  90
ATOM     90  C   UNL A   1      44.334  28.797  35.288  1.00  0.00     0.023 A 
ATOM     91  C   UNL A   1      45.601  29.370  35.058  1.00  0.00     0.012 A 
ATOM     92  C   UNL A   1      44.203  27.775  36.249  1.00  0.00     0.148 A 
ATOM     93  C   UNL A   1      46.723  28.913  35.749  1.00  0.00     0.002 A 
ATOM     94  C   UNL A   1      45.315  27.360  36.971  1.00  0.00     0.091 A 
ATOM     95  F   UNL A   1      42.992  27.230  36.441  1.00  0.00    -0.205 F 
ATOM     96  C   UNL A   1      46.578  27.918  36.714  1.00  0.00     0.022 A 
BRANCH  94  97
ATOM     97  S   UNL A   1      45.208  26.156  38.300  1.00  0.00     0.127 S 
ATOM     98  O   UNL A   1      44.192  26.756  39.164  1.00  0.00    -0.237 OA
ATOM     99  O   UNL A   1      44.772  24.952  37.592  1.00  0.00    -0.237 OA
ATOM    100  O   UNL A   1      46.544  26.070  38.874  1.00  0.00    -0.744 OA
ENDBRANCH  94  97
ENDBRANCH  67  90
ENDBRANCH  41  42
ENDBRANCH  33  36
ENDBRANCH  31  32
ENDBRANCH  30  31
ENDBRANCH   1  30
TORSDOF 18
ENDMDL
MODEL 2
REMARK VINA RESULT:     -12.6      5.396      8.032
REMARK SMILES O=C(NCCCCCCNC(=O)c1ccc(-c2c3nc(c(-c4cccc(S(=O)(=O)[O-])c4F)c4ccc([nH]4)c(-c4cccc(S(=O)(=O)[O-])c4F)c4nc(c(-c5cccc(S(=O)(=O)[O-])c5F)c5ccc2[nH]5)C=C4)C=C3)cc1)C1=Cc2c(ccc(Cl)c2-c2ccccc2)O[C@H]1C(F)(F)F
REMARK SMILES IDX 7 1 6 2 5 3 4 4 3 5 1 6 2 7 76 9 77 10 92 11 78 12 91 13
REMARK SMILES IDX 79 14 84 15 80 16 82 17 81 18 83 19 93 20 94 21 95 22 96 23
REMARK SMILES IDX 85 24 86 25 90 26 87 27 89 28 88 29 8 30 9 31 10 32 11 33
REMARK SMILES IDX 12 35 13 36 14 37 75 38 15 39 74 40 16 41 17 42 18 43 68 44
REMARK SMILES IDX 19 45 73 46 67 47 69 48 20 49 72 50 66 51 65 52 21 54 53 55
REMARK SMILES IDX 33 56 52 57 34 58 37 59 51 60 70 61 35 62 36 63 50 65 71 66
REMARK SMILES IDX 38 67 22 68 23 69 31 70 24 71 26 72 32 73 25 74 27 75 28 76
REMARK SMILES IDX 29 77 30 78 54 79 55 80 63 81 56 82 58 83 64 84 57 85 59 86
REMARK SMILES IDX 60 87 61 88 62 89 39 90 40 91 48 92 41 93 43 94 49 95 42 96
REMARK SMILES IDX 44 97 45 98 46 99 47 100
REMARK H PARENT 3 8 10 34 69 53 37 64
REMARK Flexibility Score: inf
ROOT
ATOM      1  C   UNL A   1      35.022  22.687  26.054  1.00  0.00     0.002 C 
ENDROOT
BRANCH   1   2
ATOM      2  C   UNL A   1      34.757  22.546  27.558  1.00  0.00     0.002 C 
BRANCH   2   3
ATOM      3  C   UNL A   1      33.297  22.437  28.012  1.00  0.00     0.021 C 
BRANCH   3   4
ATOM      4  C   UNL A   1      32.234  22.492  26.916  1.00  0.00     0.116 C 
BRANCH   4   5
ATOM      5  N   UNL A   1      31.175  23.462  27.133  1.00  0.00    -0.352 N 
ATOM      6  O   UNL A   1      29.905  25.276  26.741  1.00  0.00    -0.270 OA
ATOM      7  C   UNL A   1      30.804  24.529  26.360  1.00  0.00     0.251 C 
ATOM      8  H   UNL A   1      30.647  23.333  27.954  1.00  0.00     0.163 HD
BRANCH   7   9
ATOM      9  C   UNL A   1      31.445  24.792  25.054  1.00  0.00     0.067 C 
ATOM     10  C   UNL A   1      32.262  25.849  24.969  1.00  0.00     0.026 C 
ATOM     11  C   UNL A   1      30.911  24.230  23.775  1.00  0.00     0.314 C 
ATOM     12  C   UNL A   1      31.540  26.946  24.264  1.00  0.00     0.027 A 
ATOM     13  O   UNL A   1      30.394  25.284  22.889  1.00  0.00    -0.475 OA
ATOM     14  C   UNL A   1      30.624  26.591  23.260  1.00  0.00     0.128 A 
ATOM     15  C   UNL A   1      31.661  28.274  24.753  1.00  0.00     0.011 A 
ATOM     16  C   UNL A   1      29.806  27.570  22.712  1.00  0.00     0.049 A 
ATOM     17  C   UNL A   1      30.798  29.234  24.208  1.00  0.00     0.049 A 
ATOM     18  C   UNL A   1      29.885  28.884  23.195  1.00  0.00     0.025 A 
ATOM     19  Cl  UNL A   1      30.750  30.849  24.815  1.00  0.00    -0.084 Cl
BRANCH  11  20
ATOM     20  C   UNL A   1      31.966  23.363  23.045  1.00  0.00     0.429 C 
ATOM     21  F   UNL A   1      32.975  22.950  23.852  1.00  0.00    -0.167 F 
ATOM     22  F   UNL A   1      31.402  22.243  22.529  1.00  0.00    -0.167 F 
ATOM     23  F   UNL A   1      32.550  24.022  22.016  1.00  0.00    -0.167 F 
ENDBRANCH  11  20
BRANCH  15  24
ATOM     24  C   UNL A   1      32.558  28.465  25.920  1.00  0.00    -0.016 A 
ATOM     25  C   UNL A   1      33.936  28.247  25.763  1.00  0.00     0.009 A 
ATOM     26  C   UNL A   1      32.130  29.255  27.000  1.00  0.00     0.009 A 
ATOM     27  C   UNL A   1      34.864  28.937  26.541  1.00  0.00     0.001 A 
ATOM     28  C   UNL A   1      33.059  29.958  27.771  1.00  0.00     0.001 A 
ATOM     29  C   UNL A   1      34.423  29.827  27.515  1.00  0.00     0.000 A 
ENDBRANCH  15  24
ENDBRANCH   7   9
ENDBRANCH   4   5
ENDBRANCH   3   4
ENDBRANCH   2   3
ENDBRANCH   1   2
BRANCH   1  30
ATOM     30  C   UNL A   1      35.862  23.878  25.593  1.00  0.00     0.021 C 
BRANCH  30  31
ATOM     31  C   UNL A   1      37.102  23.541  24.774  1.00  0.00     0.116 C 
BRANCH  31  32
ATOM     32  N   UNL A   1      37.952  22.548  25.413  1.00  0.00    -0.352 N 
ATOM     33  C   UNL A   1      39.028  22.711  26.250  1.00  0.00     0.251 C 
ATOM     34  H   UNL A   1      37.719  21.613  25.214  1.00  0.00     0.163 HD
ATOM     35  O   UNL A   1      39.695  21.725  26.570  1.00  0.00    -0.269 OA
BRANCH  33  36
ATOM     36  C   UNL A   1      39.410  24.050  26.756  1.00  0.00     0.039 A 
ATOM     37  C   UNL A   1      39.078  24.393  28.071  1.00  0.00     0.014 A 
ATOM     38  C   UNL A   1      40.063  24.982  25.944  1.00  0.00     0.014 A 
ATOM     39  C   UNL A   1      39.445  25.641  28.583  1.00  0.00     0.010 A 
ATOM     40  C   UNL A   1      40.502  26.191  26.482  1.00  0.00     0.010 A 
ATOM     41  C   UNL A   1      40.186  26.542  27.802  1.00  0.00    -0.014 A 
BRANCH  41  42
ATOM     42  C   UNL A   1      40.631  27.853  28.347  1.00  0.00     0.031 A 
ATOM     43  C   UNL A   1      42.097  28.136  28.546  1.00  0.00     0.074 A 
ATOM     44  C   UNL A   1      39.715  28.760  28.738  1.00  0.00     0.049 A 
ATOM     45  N   UNL A   1      42.671  29.196  29.057  1.00  0.00    -0.248 NA
ATOM     46  C   UNL A   1      43.041  27.081  28.144  1.00  0.00     0.031 C 
ATOM     47  C   UNL A   1      38.264  28.576  28.676  1.00  0.00     0.029 A 
ATOM     48  N   UNL A   1      39.867  30.008  29.290  1.00  0.00    -0.354 N 
ATOM     49  C   UNL A   1      44.034  28.922  29.068  1.00  0.00     0.074 A 
ATOM     50  C   UNL A   1      44.197  27.580  28.554  1.00  0.00     0.031 C 
ATOM     51  C   UNL A   1      37.660  29.669  29.170  1.00  0.00     0.029 A 
ATOM     52  C   UNL A   1      38.677  30.617  29.613  1.00  0.00     0.049 A 
ATOM     53  H   UNL A   1      40.746  30.426  29.442  1.00  0.00     0.167 HD
ATOM     54  C   UNL A   1      45.061  29.724  29.439  1.00  0.00     0.034 A 
ATOM     55  C   UNL A   1      38.430  31.800  30.208  1.00  0.00     0.034 A 
ATOM     56  C   UNL A   1      44.899  31.070  29.918  1.00  0.00     0.049 A 
ATOM     57  C   UNL A   1      39.584  32.689  30.581  1.00  0.00     0.074 A 
ATOM     58  C   UNL A   1      45.878  31.992  30.245  1.00  0.00     0.029 A 
ATOM     59  N   UNL A   1      43.679  31.687  30.149  1.00  0.00    -0.354 N 
ATOM     60  N   UNL A   1      40.869  32.472  30.444  1.00  0.00    -0.248 NA
ATOM     61  C   UNL A   1      39.255  34.002  31.156  1.00  0.00     0.031 C 
ATOM     62  C   UNL A   1      45.248  33.155  30.701  1.00  0.00     0.029 A 
ATOM     63  C   UNL A   1      43.878  32.972  30.624  1.00  0.00     0.049 A 
ATOM     64  H   UNL A   1      42.798  31.271  29.998  1.00  0.00     0.167 HD
ATOM     65  C   UNL A   1      41.501  33.630  30.882  1.00  0.00     0.074 A 
ATOM     66  C   UNL A   1      40.456  34.553  31.270  1.00  0.00     0.031 C 
ATOM     67  C   UNL A   1      42.829  33.898  30.967  1.00  0.00     0.034 A 
BRANCH  54  68
ATOM     68  C   UNL A   1      46.459  29.177  29.293  1.00  0.00     0.023 A 
ATOM     69  C   UNL A   1      47.075  28.536  30.388  1.00  0.00     0.012 A 
ATOM     70  C   UNL A   1      47.150  29.259  28.067  1.00  0.00     0.148 A 
ATOM     71  C   UNL A   1      48.370  28.030  30.282  1.00  0.00     0.002 A 
ATOM     72  C   UNL A   1      48.422  28.708  27.955  1.00  0.00     0.091 A 
ATOM     73  F   UNL A   1      46.559  29.887  27.040  1.00  0.00    -0.205 F 
ATOM     74  C   UNL A   1      49.038  28.108  29.065  1.00  0.00     0.022 A 
BRANCH  72  75
ATOM     75  S   UNL A   1      49.334  28.685  26.408  1.00  0.00     0.127 S 
ATOM     76  O   UNL A   1      49.879  30.043  26.367  1.00  0.00    -0.237 OA
ATOM     77  O   UNL A   1      50.327  27.637  26.652  1.00  0.00    -0.237 OA
ATOM     78  O   UNL A   1      48.362  28.370  25.374  1.00  0.00    -0.744 OA
ENDBRANCH  72  75
ENDBRANCH  54  68
BRANCH  55  79
ATOM     79  C   UNL A   1      37.021  32.230  30.441  1.00  0.00     0.023 A 
ATOM     80  C   UNL A   1      36.429  32.023  31.701  1.00  0.00     0.012 A 
ATOM     81  C   UNL A   1      36.284  32.879  29.432  1.00  0.00     0.148 A 
ATOM     82  C   UNL A   1      35.116  32.431  31.944  1.00  0.00     0.002 A 
ATOM     83  C   UNL A   1      34.998  33.335  29.699  1.00  0.00     0.091 A 
ATOM     84  F   UNL A   1      36.864  33.057  28.237  1.00  0.00    -0.205 F 
ATOM     85  C   UNL A   1      34.406  33.097  30.949  1.00  0.00     0.022 A 
BRANCH  83  86
ATOM     86  S   UNL A   1      34.063  34.318  28.522  1.00  0.00     0.127 S 
ATOM     87  O   UNL A   1      33.921  33.387  27.403  1.00  0.00    -0.237 OA
ATOM     88  O   UNL A   1      32.828  34.580  29.264  1.00  0.00    -0.237 OA
ATOM     89  O   UNL A   1      34.871  35.498  28.262  1.00  0.00    -0.744 OA
ENDBRANCH  83  86
ENDBRANCH  55  79
BRANCH  67  90
ATOM     90  C   UNL A   1      43.236  35.260  31.468  1.00  0.00     0.023 A 
ATOM     91  C   UNL A   1      43.441  35.472  32.846  1.00  0.00     0.012 A 
ATOM     92  C   UNL A   1      43.485  36.311  30.563  1.00  0.00     0.148 A 
ATOM     93  C   UNL A   1      43.856  36.717  33.318  1.00  0.00     0.002 A 
ATOM     94  C   UNL A   1      43.948  37.533  31.035  1.00  0.00     0.091 A 
ATOM     95  F   UNL A   1      43.267  36.095  29.257  1.00  0.00    -0.205 F 
ATOM     96  C   UNL A   1      44.121  37.742  32.413  1.00  0.00     0.022 A 
BRANCH  94  97
ATOM     97  S   UNL A   1      44.409  38.879  29.938  1.00  0.00     0.127 S 
ATOM     98  O   UNL A   1      43.129  39.203  29.311  1.00  0.00    -0.237 OA
ATOM     99  O   UNL A   1      44.902  39.888  30.876  1.00  0.00    -0.237 OA
ATOM    100  O   UNL A   1      45.424  38.339  29.044  1.00  0.00    -0.744 OA
ENDBRANCH  94  97
ENDBRANCH  67  90
ENDBRANCH  41  42
ENDBRANCH  33  36
ENDBRANCH  31  32
ENDBRANCH  30  31
ENDBRANCH   1  30
TORSDOF 18
ENDMDL
MODEL 3
REMARK VINA RESULT:     -12.5      2.762      8.003
REMARK SMILES O=C(NCCCCCCNC(=O)c1ccc(-c2c3nc(c(-c4cccc(S(=O)(=O)[O-])c4F)c4ccc([nH]4)c(-c4cccc(S(=O)(=O)[O-])c4F)c4nc(c(-c5cccc(S(=O)(=O)[O-])c5F)c5ccc2[nH]5)C=C4)C=C3)cc1)C1=Cc2c(ccc(Cl)c2-c2ccccc2)O[C@H]1C(F)(F)F
REMARK SMILES IDX 7 1 6 2 5 3 4 4 3 5 1 6 2 7 76 9 77 10 92 11 78 12 91 13
REMARK SMILES IDX 79 14 84 15 80 16 82 17 81 18 83 19 93 20 94 21 95 22 96 23
REMARK SMILES IDX 85 24 86 25 90 26 87 27 89 28 88 29 8 30 9 31 10 32 11 33
REMARK SMILES IDX 12 35 13 36 14 37 75 38 15 39 74 40 16 41 17 42 18 43 68 44
REMARK SMILES IDX 19 45 73 46 67 47 69 48 20 49 72 50 66 51 65 52 21 54 53 55
REMARK SMILES IDX 33 56 52 57 34 58 37 59 51 60 70 61 35 62 36 63 50 65 71 66
REMARK SMILES IDX 38 67 22 68 23 69 31 70 24 71 26 72 32 73 25 74 27 75 28 76
REMARK SMILES IDX 29 77 30 78 54 79 55 80 63 81 56 82 58 83 64 84 57 85 59 86
REMARK SMILES IDX 60 87 61 88 62 89 39 90 40 91 48 92 41 93 43 94 49 95 42 96
REMARK SMILES IDX 44 97 45 98 46 99 47 100
REMARK H PARENT 3 8 10 34 69 53 37 64
REMARK Flexibility Score: inf
ROOT
ATOM      1  C   UNL A   1      35.716  32.781  27.961  1.00  0.00     0.002 C 
ENDROOT
BRANCH   1   2
ATOM      2  C   UNL A   1      35.086  31.448  28.382  1.00  0.00     0.002 C 
BRANCH   2   3
ATOM      3  C   UNL A   1      35.528  30.188  27.630  1.00  0.00     0.021 C 
BRANCH   3   4
ATOM      4  C   UNL A   1      34.427  29.371  26.957  1.00  0.00     0.116 C 
BRANCH   4   5
ATOM      5  N   UNL A   1      33.142  30.038  26.849  1.00  0.00    -0.352 N 
ATOM      6  O   UNL A   1      31.154  30.591  25.953  1.00  0.00    -0.270 OA
ATOM      7  C   UNL A   1      32.163  29.890  25.903  1.00  0.00     0.251 C 
ATOM      8  H   UNL A   1      32.944  30.691  27.560  1.00  0.00     0.163 HD
BRANCH   7   9
ATOM      9  C   UNL A   1      32.279  28.880  24.830  1.00  0.00     0.067 C 
ATOM     10  C   UNL A   1      31.619  29.114  23.689  1.00  0.00     0.026 C 
ATOM     11  C   UNL A   1      32.712  27.475  25.099  1.00  0.00     0.314 C 
ATOM     12  C   UNL A   1      30.400  28.257  23.667  1.00  0.00     0.027 A 
ATOM     13  O   UNL A   1      31.626  26.512  24.858  1.00  0.00    -0.475 OA
ATOM     14  C   UNL A   1      30.473  26.993  24.276  1.00  0.00     0.128 A 
ATOM     15  C   UNL A   1      29.175  28.814  23.209  1.00  0.00     0.011 A 
ATOM     16  C   UNL A   1      29.313  26.248  24.434  1.00  0.00     0.049 A 
ATOM     17  C   UNL A   1      28.015  28.056  23.414  1.00  0.00     0.049 A 
ATOM     18  C   UNL A   1      28.087  26.785  24.016  1.00  0.00     0.025 A 
ATOM     19  Cl  UNL A   1      26.453  28.681  23.030  1.00  0.00    -0.084 Cl
BRANCH  11  20
ATOM     20  C   UNL A   1      33.974  27.097  24.284  1.00  0.00     0.429 C 
ATOM     21  F   UNL A   1      34.761  28.162  23.987  1.00  0.00    -0.167 F 
ATOM     22  F   UNL A   1      34.751  26.221  24.968  1.00  0.00    -0.167 F 
ATOM     23  F   UNL A   1      33.667  26.513  23.102  1.00  0.00    -0.167 F 
ENDBRANCH  11  20
BRANCH  15  24
ATOM     24  C   UNL A   1      29.231  30.218  22.733  1.00  0.00    -0.016 A 
ATOM     25  C   UNL A   1      29.111  30.476  21.358  1.00  0.00     0.009 A 
ATOM     26  C   UNL A   1      28.961  31.265  23.630  1.00  0.00     0.009 A 
ATOM     27  C   UNL A   1      28.567  31.675  20.898  1.00  0.00     0.001 A 
ATOM     28  C   UNL A   1      28.404  32.461  23.172  1.00  0.00     0.001 A 
ATOM     29  C   UNL A   1      28.172  32.649  21.810  1.00  0.00     0.000 A 
ENDBRANCH  15  24
ENDBRANCH   7   9
ENDBRANCH   4   5
ENDBRANCH   3   4
ENDBRANCH   2   3
ENDBRANCH   1   2
BRANCH   1  30
ATOM     30  C   UNL A   1      34.813  34.013  27.937  1.00  0.00     0.021 C 
BRANCH  30  31
ATOM     31  C   UNL A   1      33.394  33.810  28.454  1.00  0.00     0.116 C 
BRANCH  31  32
ATOM     32  N   UNL A   1      33.015  34.783  29.467  1.00  0.00    -0.352 N 
ATOM     33  C   UNL A   1      33.511  34.984  30.731  1.00  0.00     0.251 C 
ATOM     34  H   UNL A   1      32.288  35.392  29.204  1.00  0.00     0.163 HD
ATOM     35  O   UNL A   1      32.944  35.784  31.479  1.00  0.00    -0.269 OA
BRANCH  33  36
ATOM     36  C   UNL A   1      34.700  34.245  31.216  1.00  0.00     0.039 A 
ATOM     37  C   UNL A   1      34.518  32.994  31.813  1.00  0.00     0.014 A 
ATOM     38  C   UNL A   1      35.986  34.782  31.118  1.00  0.00     0.014 A 
ATOM     39  C   UNL A   1      35.623  32.264  32.261  1.00  0.00     0.010 A 
ATOM     40  C   UNL A   1      37.093  34.018  31.486  1.00  0.00     0.010 A 
ATOM     41  C   UNL A   1      36.925  32.757  32.076  1.00  0.00    -0.014 A 
BRANCH  41  42
ATOM     42  C   UNL A   1      38.115  31.971  32.498  1.00  0.00     0.031 A 
ATOM     43  C   UNL A   1      38.834  32.308  33.779  1.00  0.00     0.074 A 
ATOM     44  C   UNL A   1      38.600  31.006  31.693  1.00  0.00     0.049 A 
ATOM     45  N   UNL A   1      39.917  31.773  34.282  1.00  0.00    -0.248 NA
ATOM     46  C   UNL A   1      38.280  33.406  34.586  1.00  0.00     0.031 C 
ATOM     47  C   UNL A   1      38.047  30.638  30.388  1.00  0.00     0.029 A 
ATOM     48  N   UNL A   1      39.684  30.176  31.838  1.00  0.00    -0.354 N 
ATOM     49  C   UNL A   1      40.191  32.489  35.442  1.00  0.00     0.074 A 
ATOM     50  C   UNL A   1      39.186  33.524  35.544  1.00  0.00     0.031 C 
ATOM     51  C   UNL A   1      38.793  29.658  29.854  1.00  0.00     0.029 A 
ATOM     52  C   UNL A   1      39.895  29.350  30.760  1.00  0.00     0.049 A 
ATOM     53  H   UNL A   1      40.257  30.174  32.640  1.00  0.00     0.167 HD
ATOM     54  C   UNL A   1      41.168  32.285  36.359  1.00  0.00     0.034 A 
ATOM     55  C   UNL A   1      40.870  28.452  30.519  1.00  0.00     0.034 A 
ATOM     56  C   UNL A   1      42.146  31.234  36.273  1.00  0.00     0.049 A 
ATOM     57  C   UNL A   1      41.925  28.217  31.565  1.00  0.00     0.074 A 
ATOM     58  C   UNL A   1      43.127  30.893  37.187  1.00  0.00     0.029 A 
ATOM     59  N   UNL A   1      42.275  30.358  35.206  1.00  0.00    -0.354 N 
ATOM     60  N   UNL A   1      42.079  28.804  32.727  1.00  0.00    -0.248 NA
ATOM     61  C   UNL A   1      42.920  27.172  31.284  1.00  0.00     0.031 C 
ATOM     62  C   UNL A   1      43.868  29.830  36.658  1.00  0.00     0.029 A 
ATOM     63  C   UNL A   1      43.325  29.484  35.432  1.00  0.00     0.049 A 
ATOM     64  H   UNL A   1      41.703  30.357  34.403  1.00  0.00     0.167 HD
ATOM     65  C   UNL A   1      43.163  28.179  33.331  1.00  0.00     0.074 A 
ATOM     66  C   UNL A   1      43.616  27.153  32.414  1.00  0.00     0.031 C 
ATOM     67  C   UNL A   1      43.739  28.439  34.531  1.00  0.00     0.034 A 
BRANCH  54  68
ATOM     68  C   UNL A   1      41.194  33.193  37.563  1.00  0.00     0.023 A 
ATOM     69  C   UNL A   1      40.355  32.917  38.663  1.00  0.00     0.012 A 
ATOM     70  C   UNL A   1      42.071  34.294  37.627  1.00  0.00     0.148 A 
ATOM     71  C   UNL A   1      40.352  33.746  39.783  1.00  0.00     0.002 A 
ATOM     72  C   UNL A   1      42.098  35.088  38.768  1.00  0.00     0.091 A 
ATOM     73  F   UNL A   1      42.849  34.556  36.566  1.00  0.00    -0.205 F 
ATOM     74  C   UNL A   1      41.229  34.824  39.840  1.00  0.00     0.022 A 
BRANCH  72  75
ATOM     75  S   UNL A   1      43.249  36.451  38.972  1.00  0.00     0.127 S 
ATOM     76  O   UNL A   1      44.536  35.784  38.765  1.00  0.00    -0.237 OA
ATOM     77  O   UNL A   1      42.851  37.355  37.891  1.00  0.00    -0.237 OA
ATOM     78  O   UNL A   1      43.023  36.971  40.311  1.00  0.00    -0.744 OA
ENDBRANCH  72  75
ENDBRANCH  54  68
BRANCH  55  79
ATOM     79  C   UNL A   1      40.860  27.673  29.248  1.00  0.00     0.023 A 
ATOM     80  C   UNL A   1      39.941  26.618  29.085  1.00  0.00     0.012 A 
ATOM     81  C   UNL A   1      41.726  28.002  28.188  1.00  0.00     0.148 A 
ATOM     82  C   UNL A   1      39.905  25.886  27.897  1.00  0.00     0.002 A 
ATOM     83  C   UNL A   1      41.645  27.307  26.987  1.00  0.00     0.091 A 
ATOM     84  F   UNL A   1      42.599  29.003  28.369  1.00  0.00    -0.205 F 
ATOM     85  C   UNL A   1      40.746  26.238  26.845  1.00  0.00     0.022 A 
BRANCH  83  86
ATOM     86  S   UNL A   1      42.595  27.778  25.537  1.00  0.00     0.127 S 
ATOM     87  O   UNL A   1      42.340  26.654  24.637  1.00  0.00    -0.237 OA
ATOM     88  O   UNL A   1      41.949  29.034  25.150  1.00  0.00    -0.237 OA
ATOM     89  O   UNL A   1      43.967  27.923  25.993  1.00  0.00    -0.744 OA
ENDBRANCH  83  86
ENDBRANCH  55  79
BRANCH  67  90
ATOM     90  C   UNL A   1      44.907  27.581  34.947  1.00  0.00     0.023 A 
ATOM     91  C   UNL A   1      46.225  28.036  34.744  1.00  0.00     0.012 A 
ATOM     92  C   UNL A   1      44.694  26.353  35.606  1.00  0.00     0.148 A 
ATOM     93  C   UNL A   1      47.312  27.269  35.160  1.00  0.00     0.002 A 
ATOM     94  C   UNL A   1      45.780  25.619  36.064  1.00  0.00     0.091 A 
ATOM     95  F   UNL A   1      43.433  25.928  35.774  1.00  0.00    -0.205 F 
ATOM     96  C   UNL A   1      47.090  26.068  35.830  1.00  0.00     0.022 A 
BRANCH  94  97
ATOM     97  S   UNL A   1      45.591  24.111  37.022  1.00  0.00     0.127 S 
ATOM     98  O   UNL A   1      46.980  23.690  37.193  1.00  0.00    -0.237 OA
ATOM     99  O   UNL A   1      44.947  24.599  38.242  1.00  0.00    -0.237 OA
ATOM    100  O   UNL A   1      44.764  23.223  36.216  1.00  0.00    -0.744 OA
ENDBRANCH  94  97
ENDBRANCH  67  90
ENDBRANCH  41  42
ENDBRANCH  33  36
ENDBRANCH  31  32
ENDBRANCH  30  31
ENDBRANCH   1  30
TORSDOF 18
ENDMDL
