MODEL 1
REMARK VINA RESULT:     -11.1      0.000      0.000
REMARK SMILES COc1cc([C@@H]2CC[NH2+][C@@H]2C(=O)NCCCCCCNC(=O)c2ccc(-c3c4nc(c(-c5cccc(S(=O)(=O)[O-])c5F)c5ccc([nH]5)c(-c5cccc(S(=O)(=O)[O-])c5F)c5nc(c(-c6cccc(S(=O)(=O)[O-])c6F)c6ccc3[nH]6)C=C5)C=C4)cc2)cc(OC)c1OC
REMARK SMILES IDX 17 1 16 2 15 3 14 4 13 5 11 6 12 7 10 9 6 10 7 11 8 12 9 13
REMARK SMILES IDX 5 16 3 17 4 18 90 19 87 20 86 21 2 22 1 23 91 24 92 25 88 26
REMARK SMILES IDX 89 27 18 28 19 29 20 30 21 31 22 33 23 34 24 35 85 36 25 37
REMARK SMILES IDX 84 38 26 39 27 40 28 41 78 42 29 43 83 44 77 45 79 46 30 47
REMARK SMILES IDX 82 48 76 49 75 50 31 52 63 53 43 54 62 55 44 56 47 57 61 58
REMARK SMILES IDX 80 59 45 60 46 61 60 63 81 64 48 65 32 66 33 67 41 68 34 69
REMARK SMILES IDX 36 70 42 71 35 72 37 73 38 74 39 75 40 76 64 77 65 78 73 79
REMARK SMILES IDX 66 80 68 81 74 82 67 83 69 84 70 85 71 86 72 87 49 88 50 89
REMARK SMILES IDX 58 90 51 91 53 92 59 93 52 94 54 95 55 96 56 97 57 98
REMARK H PARENT 13 8 9 14 9 15 20 32 79 51 47 62
REMARK Flexibility Score: inf
ROOT
ATOM      1  C   UNL A   1      34.394  23.888  26.375  1.00  0.00     0.002 C 
ENDROOT
BRANCH   1   2
ATOM      2  C   UNL A   1      35.029  24.909  25.418  1.00  0.00     0.002 C 
BRANCH   2   3
ATOM      3  C   UNL A   1      34.060  25.600  24.451  1.00  0.00     0.021 C 
BRANCH   3   4
ATOM      4  C   UNL A   1      33.791  27.059  24.788  1.00  0.00     0.116 C 
BRANCH   4   5
ATOM      5  N   UNL A   1      33.112  27.283  26.033  1.00  0.00    -0.351 N 
ATOM      6  C   UNL A   1      31.766  27.282  26.258  1.00  0.00     0.278 C 
ATOM      7  O   UNL A   1      31.403  27.215  27.441  1.00  0.00    -0.268 OA
ATOM      8  H   UNL A   1      33.683  27.456  26.816  1.00  0.00     0.163 HD
BRANCH   6   9
ATOM      9  C   UNL A   1      30.709  27.478  25.137  1.00  0.00     0.280 C 
ATOM     10  C   UNL A   1      30.257  26.384  24.138  1.00  0.00     0.093 C 
ATOM     11  C   UNL A   1      30.453  27.022  22.753  1.00  0.00     0.076 C 
ATOM     12  C   UNL A   1      31.248  28.298  22.969  1.00  0.00     0.262 C 
ATOM     13  N   UNL A   1      31.036  28.707  24.353  1.00  0.00    -0.335 N 
ATOM     14  H   UNL A   1      30.262  29.370  24.407  1.00  0.00     0.346 HD
ATOM     15  H   UNL A   1      31.869  29.161  24.726  1.00  0.00     0.346 HD
BRANCH  10  16
ATOM     16  C   UNL A   1      30.677  24.938  24.350  1.00  0.00    -0.031 A 
ATOM     17  C   UNL A   1      30.858  23.027  25.888  1.00  0.00     0.164 A 
ATOM     18  C   UNL A   1      30.438  24.338  25.592  1.00  0.00     0.055 A 
ATOM     19  C   UNL A   1      31.604  22.285  24.948  1.00  0.00     0.203 A 
ATOM     20  C   UNL A   1      31.834  22.857  23.684  1.00  0.00     0.164 A 
ATOM     21  C   UNL A   1      31.303  24.138  23.388  1.00  0.00     0.055 A 
BRANCH  17  22
ATOM     22  O   UNL A   1      30.534  22.660  27.173  1.00  0.00    -0.493 OA
ATOM     23  C   UNL A   1      29.153  22.579  27.485  1.00  0.00     0.278 C 
ENDBRANCH  17  22
BRANCH  19  24
ATOM     24  O   UNL A   1      32.256  21.154  25.377  1.00  0.00    -0.490 OA
ATOM     25  C   UNL A   1      32.153  20.034  24.493  1.00  0.00     0.278 C 
ENDBRANCH  19  24
BRANCH  20  26
ATOM     26  O   UNL A   1      32.598  22.397  22.640  1.00  0.00    -0.493 OA
ATOM     27  C   UNL A   1      33.278  23.310  21.797  1.00  0.00     0.278 C 
ENDBRANCH  20  26
ENDBRANCH  10  16
ENDBRANCH   6   9
ENDBRANCH   4   5
ENDBRANCH   3   4
ENDBRANCH   2   3
ENDBRANCH   1   2
BRANCH   1  28
ATOM     28  C   UNL A   1      35.070  22.515  26.392  1.00  0.00     0.021 C 
BRANCH  28  29
ATOM     29  C   UNL A   1      35.862  22.192  25.137  1.00  0.00     0.116 C 
BRANCH  29  30
ATOM     30  N   UNL A   1      36.778  21.075  25.354  1.00  0.00    -0.352 N 
ATOM     31  C   UNL A   1      38.126  21.017  25.614  1.00  0.00     0.251 C 
ATOM     32  H   UNL A   1      36.344  20.192  25.305  1.00  0.00     0.163 HD
ATOM     33  O   UNL A   1      38.701  19.940  25.457  1.00  0.00    -0.269 OA
BRANCH  31  34
ATOM     34  C   UNL A   1      38.904  22.198  26.067  1.00  0.00     0.039 A 
ATOM     35  C   UNL A   1      40.016  22.002  26.899  1.00  0.00     0.014 A 
ATOM     36  C   UNL A   1      38.516  23.500  25.763  1.00  0.00     0.014 A 
ATOM     37  C   UNL A   1      40.749  23.098  27.373  1.00  0.00     0.010 A 
ATOM     38  C   UNL A   1      39.317  24.578  26.125  1.00  0.00     0.010 A 
ATOM     39  C   UNL A   1      40.427  24.400  26.961  1.00  0.00    -0.014 A 
BRANCH  39  40
ATOM     40  C   UNL A   1      41.194  25.597  27.406  1.00  0.00     0.031 A 
ATOM     41  C   UNL A   1      40.517  26.657  28.243  1.00  0.00     0.074 A 
ATOM     42  C   UNL A   1      42.453  25.795  26.963  1.00  0.00     0.049 A 
ATOM     43  N   UNL A   1      40.956  27.838  28.598  1.00  0.00    -0.248 NA
ATOM     44  C   UNL A   1      39.147  26.372  28.707  1.00  0.00     0.031 C 
ATOM     45  C   UNL A   1      43.199  24.884  26.093  1.00  0.00     0.029 A 
ATOM     46  N   UNL A   1      43.315  26.846  27.156  1.00  0.00    -0.354 N 
ATOM     47  C   UNL A   1      39.900  28.456  29.259  1.00  0.00     0.074 A 
ATOM     48  C   UNL A   1      38.788  27.533  29.235  1.00  0.00     0.031 C 
ATOM     49  C   UNL A   1      44.408  25.411  25.834  1.00  0.00     0.029 A 
ATOM     50  C   UNL A   1      44.506  26.716  26.479  1.00  0.00     0.049 A 
ATOM     51  H   UNL A   1      43.102  27.622  27.724  1.00  0.00     0.167 HD
ATOM     52  C   UNL A   1      39.864  29.671  29.855  1.00  0.00     0.034 A 
ATOM     53  C   UNL A   1      45.554  27.557  26.374  1.00  0.00     0.034 A 
ATOM     54  C   UNL A   1      40.996  30.550  29.949  1.00  0.00     0.049 A 
ATOM     55  C   UNL A   1      45.505  28.877  27.095  1.00  0.00     0.074 A 
ATOM     56  C   UNL A   1      41.100  31.746  30.639  1.00  0.00     0.029 A 
ATOM     57  N   UNL A   1      42.218  30.334  29.335  1.00  0.00    -0.354 N 
ATOM     58  N   UNL A   1      44.553  29.373  27.847  1.00  0.00    -0.248 NA
ATOM     59  C   UNL A   1      46.689  29.742  26.980  1.00  0.00     0.031 C 
ATOM     60  C   UNL A   1      42.376  32.269  30.414  1.00  0.00     0.029 A 
ATOM     61  C   UNL A   1      43.079  31.381  29.615  1.00  0.00     0.049 A 
ATOM     62  H   UNL A   1      42.441  29.552  28.780  1.00  0.00     0.167 HD
ATOM     63  C   UNL A   1      45.039  30.583  28.330  1.00  0.00     0.074 A 
ATOM     64  C   UNL A   1      46.377  30.738  27.798  1.00  0.00     0.031 C 
ATOM     65  C   UNL A   1      44.430  31.490  29.132  1.00  0.00     0.034 A 
BRANCH  52  66
ATOM     66  C   UNL A   1      38.573  30.110  30.498  1.00  0.00     0.023 A 
ATOM     67  C   UNL A   1      38.323  29.809  31.853  1.00  0.00     0.012 A 
ATOM     68  C   UNL A   1      37.642  30.890  29.783  1.00  0.00     0.148 A 
ATOM     69  C   UNL A   1      37.154  30.246  32.474  1.00  0.00     0.002 A 
ATOM     70  C   UNL A   1      36.502  31.363  30.423  1.00  0.00     0.091 A 
ATOM     71  F   UNL A   1      37.887  31.151  28.490  1.00  0.00    -0.205 F 
ATOM     72  C   UNL A   1      36.251  31.031  31.764  1.00  0.00     0.022 A 
BRANCH  70  73
ATOM     73  S   UNL A   1      35.321  32.454  29.621  1.00  0.00     0.127 S 
ATOM     74  O   UNL A   1      36.198  33.495  29.086  1.00  0.00    -0.237 OA
ATOM     75  O   UNL A   1      34.732  31.575  28.610  1.00  0.00    -0.237 OA
ATOM     76  O   UNL A   1      34.402  32.889  30.662  1.00  0.00    -0.744 OA
ENDBRANCH  70  73
ENDBRANCH  52  66
BRANCH  53  77
ATOM     77  C   UNL A   1      46.769  27.156  25.606  1.00  0.00     0.023 A 
ATOM     78  C   UNL A   1      47.711  26.301  26.210  1.00  0.00     0.012 A 
ATOM     79  C   UNL A   1      46.993  27.601  24.289  1.00  0.00     0.148 A 
ATOM     80  C   UNL A   1      48.875  25.930  25.535  1.00  0.00     0.002 A 
ATOM     81  C   UNL A   1      48.126  27.181  23.600  1.00  0.00     0.091 A 
ATOM     82  F   UNL A   1      46.091  28.421  23.732  1.00  0.00    -0.205 F 
ATOM     83  C   UNL A   1      49.078  26.363  24.228  1.00  0.00     0.022 A 
BRANCH  81  84
ATOM     84  S   UNL A   1      48.401  27.578  21.870  1.00  0.00     0.127 S 
ATOM     85  O   UNL A   1      49.575  28.447  21.945  1.00  0.00    -0.237 OA
ATOM     86  O   UNL A   1      48.653  26.254  21.293  1.00  0.00    -0.237 OA
ATOM     87  O   UNL A   1      47.175  28.206  21.409  1.00  0.00    -0.744 OA
ENDBRANCH  81  84
ENDBRANCH  53  77
BRANCH  65  88
ATOM     88  C   UNL A   1      45.213  32.710  29.538  1.00  0.00     0.023 A 
ATOM     89  C   UNL A   1      46.036  32.673  30.680  1.00  0.00     0.012 A 
ATOM     90  C   UNL A   1      45.200  33.865  28.731  1.00  0.00     0.148 A 
ATOM     91  C   UNL A   1      46.811  33.777  31.030  1.00  0.00     0.002 A 
ATOM     92  C   UNL A   1      46.015  34.942  29.055  1.00  0.00     0.091 A 
ATOM     93  F   UNL A   1      44.397  33.885  27.657  1.00  0.00    -0.205 F 
ATOM     94  C   UNL A   1      46.812  34.904  30.211  1.00  0.00     0.022 A 
BRANCH  92  95
ATOM     95  S   UNL A   1      46.159  36.391  28.006  1.00  0.00     0.127 S 
ATOM     96  O   UNL A   1      44.897  37.079  28.273  1.00  0.00    -0.237 OA
ATOM     97  O   UNL A   1      47.343  37.054  28.555  1.00  0.00    -0.237 OA
ATOM     98  O   UNL A   1      46.322  35.892  26.647  1.00  0.00    -0.744 OA
ENDBRANCH  92  95
ENDBRANCH  65  88
ENDBRANCH  39  40
ENDBRANCH  31  34
ENDBRANCH  29  30
ENDBRANCH  28  29
ENDBRANCH   1  28
TORSDOF 20
ENDMDL
MODEL 2
REMARK VINA RESULT:     -11.0      1.566      7.990
REMARK SMILES COc1cc([C@@H]2CC[NH2+][C@@H]2C(=O)NCCCCCCNC(=O)c2ccc(-c3c4nc(c(-c5cccc(S(=O)(=O)[O-])c5F)c5ccc([nH]5)c(-c5cccc(S(=O)(=O)[O-])c5F)c5nc(c(-c6cccc(S(=O)(=O)[O-])c6F)c6ccc3[nH]6)C=C5)C=C4)cc2)cc(OC)c1OC
REMARK SMILES IDX 17 1 16 2 15 3 14 4 13 5 11 6 12 7 10 9 6 10 7 11 8 12 9 13
REMARK SMILES IDX 5 16 3 17 4 18 90 19 87 20 86 21 2 22 1 23 91 24 92 25 88 26
REMARK SMILES IDX 89 27 18 28 19 29 20 30 21 31 22 33 23 34 24 35 85 36 25 37
REMARK SMILES IDX 84 38 26 39 27 40 28 41 78 42 29 43 83 44 77 45 79 46 30 47
REMARK SMILES IDX 82 48 76 49 75 50 31 52 63 53 43 54 62 55 44 56 47 57 61 58
REMARK SMILES IDX 80 59 45 60 46 61 60 63 81 64 48 65 32 66 33 67 41 68 34 69
REMARK SMILES IDX 36 70 42 71 35 72 37 73 38 74 39 75 40 76 64 77 65 78 73 79
REMARK SMILES IDX 66 80 68 81 74 82 67 83 69 84 70 85 71 86 72 87 49 88 50 89
REMARK SMILES IDX 58 90 51 91 53 92 59 93 52 94 54 95 55 96 56 97 57 98
REMARK H PARENT 13 8 9 14 9 15 20 32 79 51 47 62
REMARK Flexibility Score: inf
ROOT
ATOM      1  C   UNL A   1      34.694  21.776  24.837  1.00  0.00     0.002 C 
ENDROOT
BRANCH   1   2
ATOM      2  C   UNL A   1      34.953  22.738  23.666  1.00  0.00     0.002 C 
BRANCH   2   3
ATOM      3  C   UNL A   1      35.202  24.199  24.055  1.00  0.00     0.021 C 
BRANCH   3   4
ATOM      4  C   UNL A   1      33.968  25.082  23.953  1.00  0.00     0.116 C 
BRANCH   4   5
ATOM      5  N   UNL A   1      33.501  25.329  22.618  1.00  0.00    -0.351 N 
ATOM      6  C   UNL A   1      32.210  25.362  22.180  1.00  0.00     0.278 C 
ATOM      7  O   UNL A   1      32.016  25.865  21.064  1.00  0.00    -0.268 OA
ATOM      8  H   UNL A   1      34.195  25.494  21.938  1.00  0.00     0.163 HD
BRANCH   6   9
ATOM      9  C   UNL A   1      31.028  24.707  22.946  1.00  0.00     0.280 C 
ATOM     10  C   UNL A   1      30.370  25.277  24.228  1.00  0.00     0.093 C 
ATOM     11  C   UNL A   1      30.423  24.119  25.236  1.00  0.00     0.076 C 
ATOM     12  C   UNL A   1      31.327  23.056  24.635  1.00  0.00     0.262 C 
ATOM     13  N   UNL A   1      31.331  23.265  23.191  1.00  0.00    -0.335 N 
ATOM     14  H   UNL A   1      30.621  22.679  22.752  1.00  0.00     0.346 HD
ATOM     15  H   UNL A   1      32.237  23.015  22.795  1.00  0.00     0.346 HD
BRANCH  10  16
ATOM     16  C   UNL A   1      30.714  26.682  24.698  1.00  0.00    -0.031 A 
ATOM     17  C   UNL A   1      30.700  29.097  24.229  1.00  0.00     0.164 A 
ATOM     18  C   UNL A   1      30.358  27.772  23.895  1.00  0.00     0.055 A 
ATOM     19  C   UNL A   1      31.482  29.367  25.371  1.00  0.00     0.203 A 
ATOM     20  C   UNL A   1      31.830  28.292  26.208  1.00  0.00     0.164 A 
ATOM     21  C   UNL A   1      31.375  26.985  25.893  1.00  0.00     0.055 A 
BRANCH  17  22
ATOM     22  O   UNL A   1      30.267  29.994  23.282  1.00  0.00    -0.493 OA
ATOM     23  C   UNL A   1      28.992  30.580  23.493  1.00  0.00     0.278 C 
ENDBRANCH  17  22
BRANCH  19  24
ATOM     24  O   UNL A   1      32.053  30.611  25.493  1.00  0.00    -0.490 OA
ATOM     25  C   UNL A   1      31.439  31.458  26.468  1.00  0.00     0.278 C 
ENDBRANCH  19  24
BRANCH  20  26
ATOM     26  O   UNL A   1      32.649  28.266  27.309  1.00  0.00    -0.493 OA
ATOM     27  C   UNL A   1      34.031  28.545  27.177  1.00  0.00     0.278 C 
ENDBRANCH  20  26
ENDBRANCH  10  16
ENDBRANCH   6   9
ENDBRANCH   4   5
ENDBRANCH   3   4
ENDBRANCH   2   3
ENDBRANCH   1   2
BRANCH   1  28
ATOM     28  C   UNL A   1      35.951  21.296  25.566  1.00  0.00     0.021 C 
BRANCH  28  29
ATOM     29  C   UNL A   1      37.145  21.051  24.658  1.00  0.00     0.116 C 
BRANCH  29  30
ATOM     30  N   UNL A   1      38.115  20.155  25.281  1.00  0.00    -0.352 N 
ATOM     31  C   UNL A   1      39.381  20.357  25.777  1.00  0.00     0.251 C 
ATOM     32  H   UNL A   1      37.801  19.225  25.361  1.00  0.00     0.163 HD
ATOM     33  O   UNL A   1      40.092  19.372  25.974  1.00  0.00    -0.269 OA
BRANCH  31  34
ATOM     34  C   UNL A   1      39.915  21.710  26.076  1.00  0.00     0.039 A 
ATOM     35  C   UNL A   1      41.287  21.861  26.325  1.00  0.00     0.014 A 
ATOM     36  C   UNL A   1      39.086  22.821  26.202  1.00  0.00     0.014 A 
ATOM     37  C   UNL A   1      41.816  23.118  26.645  1.00  0.00     0.010 A 
ATOM     38  C   UNL A   1      39.628  24.089  26.390  1.00  0.00     0.010 A 
ATOM     39  C   UNL A   1      40.995  24.255  26.647  1.00  0.00    -0.014 A 
BRANCH  39  40
ATOM     40  C   UNL A   1      41.511  25.620  26.946  1.00  0.00     0.031 A 
ATOM     41  C   UNL A   1      42.885  26.027  26.469  1.00  0.00     0.074 A 
ATOM     42  C   UNL A   1      40.805  26.448  27.744  1.00  0.00     0.049 A 
ATOM     43  N   UNL A   1      43.577  27.101  26.754  1.00  0.00    -0.248 NA
ATOM     44  C   UNL A   1      43.597  25.084  25.588  1.00  0.00     0.031 C 
ATOM     45  C   UNL A   1      39.496  26.151  28.329  1.00  0.00     0.029 A 
ATOM     46  N   UNL A   1      41.107  27.697  28.229  1.00  0.00    -0.354 N 
ATOM     47  C   UNL A   1      44.818  26.929  26.152  1.00  0.00     0.074 A 
ATOM     48  C   UNL A   1      44.798  25.636  25.505  1.00  0.00     0.031 C 
ATOM     49  C   UNL A   1      39.104  27.190  29.085  1.00  0.00     0.029 A 
ATOM     50  C   UNL A   1      40.152  28.205  29.079  1.00  0.00     0.049 A 
ATOM     51  H   UNL A   1      41.930  28.183  27.992  1.00  0.00     0.167 HD
ATOM     52  C   UNL A   1      45.872  27.777  26.116  1.00  0.00     0.034 A 
ATOM     53  C   UNL A   1      40.127  29.352  29.788  1.00  0.00     0.034 A 
ATOM     54  C   UNL A   1      45.858  29.095  26.688  1.00  0.00     0.049 A 
ATOM     55  C   UNL A   1      41.291  30.301  29.682  1.00  0.00     0.074 A 
ATOM     56  C   UNL A   1      46.826  30.081  26.599  1.00  0.00     0.029 A 
ATOM     57  N   UNL A   1      44.829  29.613  27.458  1.00  0.00    -0.354 N 
ATOM     58  N   UNL A   1      42.390  30.185  28.978  1.00  0.00    -0.248 NA
ATOM     59  C   UNL A   1      41.198  31.554  30.445  1.00  0.00     0.031 C 
ATOM     60  C   UNL A   1      46.396  31.183  27.343  1.00  0.00     0.029 A 
ATOM     61  C   UNL A   1      45.143  30.897  27.864  1.00  0.00     0.049 A 
ATOM     62  H   UNL A   1      43.997  29.136  27.682  1.00  0.00     0.167 HD
ATOM     63  C   UNL A   1      43.096  31.366  29.175  1.00  0.00     0.074 A 
ATOM     64  C   UNL A   1      42.293  32.191  30.054  1.00  0.00     0.031 C 
ATOM     65  C   UNL A   1      44.306  31.731  28.684  1.00  0.00     0.034 A 
BRANCH  52  66
ATOM     66  C   UNL A   1      47.120  27.335  25.395  1.00  0.00     0.023 A 
ATOM     67  C   UNL A   1      48.037  26.477  26.036  1.00  0.00     0.012 A 
ATOM     68  C   UNL A   1      47.345  27.705  24.054  1.00  0.00     0.148 A 
ATOM     69  C   UNL A   1      49.174  26.024  25.368  1.00  0.00     0.002 A 
ATOM     70  C   UNL A   1      48.454  27.210  23.378  1.00  0.00     0.091 A 
ATOM     71  F   UNL A   1      46.472  28.536  23.465  1.00  0.00    -0.205 F 
ATOM     72  C   UNL A   1      49.376  26.380  24.038  1.00  0.00     0.022 A 
BRANCH  70  73
ATOM     73  S   UNL A   1      48.758  27.539  21.638  1.00  0.00     0.127 S 
ATOM     74  O   UNL A   1      47.399  27.730  21.133  1.00  0.00    -0.237 OA
ATOM     75  O   UNL A   1      49.564  28.759  21.695  1.00  0.00    -0.237 OA
ATOM     76  O   UNL A   1      49.456  26.371  21.122  1.00  0.00    -0.744 OA
ENDBRANCH  70  73
ENDBRANCH  52  66
BRANCH  53  77
ATOM     77  C   UNL A   1      38.935  29.701  30.614  1.00  0.00     0.023 A 
ATOM     78  C   UNL A   1      38.802  29.137  31.899  1.00  0.00     0.012 A 
ATOM     79  C   UNL A   1      37.944  30.586  30.150  1.00  0.00     0.148 A 
ATOM     80  C   UNL A   1      37.685  29.414  32.688  1.00  0.00     0.002 A 
ATOM     81  C   UNL A   1      36.862  30.905  30.964  1.00  0.00     0.091 A 
ATOM     82  F   UNL A   1      38.081  31.106  28.922  1.00  0.00    -0.205 F 
ATOM     83  C   UNL A   1      36.720  30.304  32.224  1.00  0.00     0.022 A 
BRANCH  81  84
ATOM     84  S   UNL A   1      35.644  32.142  30.505  1.00  0.00     0.127 S 
ATOM     85  O   UNL A   1      36.483  33.318  30.276  1.00  0.00    -0.237 OA
ATOM     86  O   UNL A   1      35.062  31.558  29.293  1.00  0.00    -0.237 OA
ATOM     87  O   UNL A   1      34.726  32.227  31.627  1.00  0.00    -0.744 OA
ENDBRANCH  81  84
ENDBRANCH  53  77
BRANCH  65  88
ATOM     88  C   UNL A   1      44.822  33.103  29.031  1.00  0.00     0.023 A 
ATOM     89  C   UNL A   1      45.630  33.286  30.169  1.00  0.00     0.012 A 
ATOM     90  C   UNL A   1      44.576  34.193  28.172  1.00  0.00     0.148 A 
ATOM     91  C   UNL A   1      46.161  34.541  30.465  1.00  0.00     0.002 A 
ATOM     92  C   UNL A   1      45.153  35.426  28.443  1.00  0.00     0.091 A 
ATOM     93  F   UNL A   1      43.791  33.999  27.102  1.00  0.00    -0.205 F 
ATOM     94  C   UNL A   1      45.934  35.606  29.595  1.00  0.00     0.022 A 
BRANCH  92  95
ATOM     95  S   UNL A   1      45.002  36.826  27.328  1.00  0.00     0.127 S 
ATOM     96  O   UNL A   1      43.588  36.763  26.960  1.00  0.00    -0.237 OA
ATOM     97  O   UNL A   1      45.358  37.951  28.194  1.00  0.00    -0.237 OA
ATOM     98  O   UNL A   1      45.941  36.579  26.241  1.00  0.00    -0.744 OA
ENDBRANCH  92  95
ENDBRANCH  65  88
ENDBRANCH  39  40
ENDBRANCH  31  34
ENDBRANCH  29  30
ENDBRANCH  28  29
ENDBRANCH   1  28
TORSDOF 20
ENDMDL
MODEL 3
REMARK VINA RESULT:     -11.0      2.487      8.411
REMARK SMILES COc1cc([C@@H]2CC[NH2+][C@@H]2C(=O)NCCCCCCNC(=O)c2ccc(-c3c4nc(c(-c5cccc(S(=O)(=O)[O-])c5F)c5ccc([nH]5)c(-c5cccc(S(=O)(=O)[O-])c5F)c5nc(c(-c6cccc(S(=O)(=O)[O-])c6F)c6ccc3[nH]6)C=C5)C=C4)cc2)cc(OC)c1OC
REMARK SMILES IDX 17 1 16 2 15 3 14 4 13 5 11 6 12 7 10 9 6 10 7 11 8 12 9 13
REMARK SMILES IDX 5 16 3 17 4 18 90 19 87 20 86 21 2 22 1 23 91 24 92 25 88 26
REMARK SMILES IDX 89 27 18 28 19 29 20 30 21 31 22 33 23 34 24 35 85 36 25 37
REMARK SMILES IDX 84 38 26 39 27 40 28 41 78 42 29 43 83 44 77 45 79 46 30 47
REMARK SMILES IDX 82 48 76 49 75 50 31 52 63 53 43 54 62 55 44 56 47 57 61 58
REMARK SMILES IDX 80 59 45 60 46 61 60 63 81 64 48 65 32 66 33 67 41 68 34 69
REMARK SMILES IDX 36 70 42 71 35 72 37 73 38 74 39 75 40 76 64 77 65 78 73 79
REMARK SMILES IDX 66 80 68 81 74 82 67 83 69 84 70 85 71 86 72 87 49 88 50 89
REMARK SMILES IDX 58 90 51 91 53 92 59 93 52 94 54 95 55 96 56 97 57 98
REMARK H PARENT 13 8 9 14 9 15 20 32 79 51 47 62
REMARK Flexibility Score: inf
ROOT
ATOM      1  C   UNL A   1      40.541  21.762  27.403  1.00  0.00     0.002 C 
ENDROOT
BRANCH   1   2
ATOM      2  C   UNL A   1      39.855  22.172  26.090  1.00  0.00     0.002 C 
BRANCH   2   3
ATOM      3  C   UNL A   1      38.608  23.051  26.241  1.00  0.00     0.021 C 
BRANCH   3   4
ATOM      4  C   UNL A   1      37.354  22.450  25.625  1.00  0.00     0.116 C 
BRANCH   4   5
ATOM      5  N   UNL A   1      36.238  22.318  26.518  1.00  0.00    -0.351 N 
ATOM      6  C   UNL A   1      35.120  21.555  26.346  1.00  0.00     0.278 C 
ATOM      7  O   UNL A   1      34.419  21.364  27.351  1.00  0.00    -0.268 OA
ATOM      8  H   UNL A   1      36.285  22.837  27.354  1.00  0.00     0.163 HD
BRANCH   6   9
ATOM      9  C   UNL A   1      34.641  21.035  24.963  1.00  0.00     0.280 C 
ATOM     10  C   UNL A   1      33.490  21.651  24.129  1.00  0.00     0.093 C 
ATOM     11  C   UNL A   1      32.551  20.470  23.836  1.00  0.00     0.076 C 
ATOM     12  C   UNL A   1      33.011  19.318  24.712  1.00  0.00     0.262 C 
ATOM     13  N   UNL A   1      34.412  19.560  25.038  1.00  0.00    -0.335 N 
ATOM     14  H   UNL A   1      35.014  19.080  24.369  1.00  0.00     0.346 HD
ATOM     15  H   UNL A   1      34.631  19.209  25.970  1.00  0.00     0.346 HD
BRANCH  10  16
ATOM     16  C   UNL A   1      32.891  22.989  24.531  1.00  0.00    -0.031 A 
ATOM     17  C   UNL A   1      31.382  24.230  26.027  1.00  0.00     0.164 A 
ATOM     18  C   UNL A   1      32.030  23.042  25.633  1.00  0.00     0.055 A 
ATOM     19  C   UNL A   1      31.533  25.411  25.271  1.00  0.00     0.203 A 
ATOM     20  C   UNL A   1      32.413  25.389  24.174  1.00  0.00     0.164 A 
ATOM     21  C   UNL A   1      33.128  24.202  23.874  1.00  0.00     0.055 A 
BRANCH  17  22
ATOM     22  O   UNL A   1      30.570  24.036  27.119  1.00  0.00    -0.493 OA
ATOM     23  C   UNL A   1      29.739  22.887  27.100  1.00  0.00     0.278 C 
ENDBRANCH  17  22
BRANCH  19  24
ATOM     24  O   UNL A   1      30.658  26.446  25.494  1.00  0.00    -0.490 OA
ATOM     25  C   UNL A   1      31.190  27.522  26.271  1.00  0.00     0.278 C 
ENDBRANCH  19  24
BRANCH  20  26
ATOM     26  O   UNL A   1      32.664  26.356  23.231  1.00  0.00    -0.493 OA
ATOM     27  C   UNL A   1      31.879  26.426  22.055  1.00  0.00     0.278 C 
ENDBRANCH  20  26
ENDBRANCH  10  16
ENDBRANCH   6   9
ENDBRANCH   4   5
ENDBRANCH   3   4
ENDBRANCH   2   3
ENDBRANCH   1   2
BRANCH   1  28
ATOM     28  C   UNL A   1      40.997  20.303  27.463  1.00  0.00     0.021 C 
BRANCH  28  29
ATOM     29  C   UNL A   1      40.945  19.577  26.129  1.00  0.00     0.116 C 
BRANCH  29  30
ATOM     30  N   UNL A   1      42.266  19.103  25.726  1.00  0.00    -0.352 N 
ATOM     31  C   UNL A   1      43.425  19.761  25.389  1.00  0.00     0.251 C 
ATOM     32  H   UNL A   1      42.341  18.122  25.689  1.00  0.00     0.163 HD
ATOM     33  O   UNL A   1      44.302  19.128  24.801  1.00  0.00    -0.269 OA
BRANCH  31  34
ATOM     34  C   UNL A   1      43.650  21.195  25.701  1.00  0.00     0.039 A 
ATOM     35  C   UNL A   1      43.337  22.160  24.733  1.00  0.00     0.014 A 
ATOM     36  C   UNL A   1      44.242  21.608  26.891  1.00  0.00     0.014 A 
ATOM     37  C   UNL A   1      43.572  23.519  24.984  1.00  0.00     0.010 A 
ATOM     38  C   UNL A   1      44.354  22.963  27.192  1.00  0.00     0.010 A 
ATOM     39  C   UNL A   1      44.052  23.938  26.233  1.00  0.00    -0.014 A 
BRANCH  39  40
ATOM     40  C   UNL A   1      44.286  25.371  26.565  1.00  0.00     0.031 A 
ATOM     41  C   UNL A   1      45.672  25.958  26.435  1.00  0.00     0.074 A 
ATOM     42  C   UNL A   1      43.291  26.113  27.096  1.00  0.00     0.049 A 
ATOM     43  N   UNL A   1      46.115  27.128  26.819  1.00  0.00    -0.248 NA
ATOM     44  C   UNL A   1      46.710  25.101  25.834  1.00  0.00     0.031 C 
ATOM     45  C   UNL A   1      41.924  25.648  27.339  1.00  0.00     0.029 A 
ATOM     46  N   UNL A   1      43.286  27.405  27.559  1.00  0.00    -0.354 N 
ATOM     47  C   UNL A   1      47.484  27.118  26.572  1.00  0.00     0.074 A 
ATOM     48  C   UNL A   1      47.807  25.818  26.030  1.00  0.00     0.031 C 
ATOM     49  C   UNL A   1      41.212  26.641  27.898  1.00  0.00     0.029 A 
ATOM     50  C   UNL A   1      42.081  27.795  28.096  1.00  0.00     0.049 A 
ATOM     51  H   UNL A   1      44.072  27.998  27.512  1.00  0.00     0.167 HD
ATOM     52  C   UNL A   1      48.389  28.108  26.755  1.00  0.00     0.034 A 
ATOM     53  C   UNL A   1      41.719  28.947  28.697  1.00  0.00     0.034 A 
ATOM     54  C   UNL A   1      48.051  29.427  27.216  1.00  0.00     0.049 A 
ATOM     55  C   UNL A   1      42.734  30.050  28.835  1.00  0.00     0.074 A 
ATOM     56  C   UNL A   1      48.869  30.538  27.316  1.00  0.00     0.029 A 
ATOM     57  N   UNL A   1      46.795  29.813  27.656  1.00  0.00    -0.354 N 
ATOM     58  N   UNL A   1      43.986  30.073  28.449  1.00  0.00    -0.248 NA
ATOM     59  C   UNL A   1      42.277  31.298  29.463  1.00  0.00     0.031 C 
ATOM     60  C   UNL A   1      48.116  31.588  27.848  1.00  0.00     0.029 A 
ATOM     61  C   UNL A   1      46.819  31.140  28.044  1.00  0.00     0.049 A 
ATOM     62  H   UNL A   1      46.004  29.228  27.688  1.00  0.00     0.167 HD
ATOM     63  C   UNL A   1      44.453  31.348  28.745  1.00  0.00     0.074 A 
ATOM     64  C   UNL A   1      43.344  32.074  29.328  1.00  0.00     0.031 C 
ATOM     65  C   UNL A   1      45.691  31.869  28.562  1.00  0.00     0.034 A 
BRANCH  52  66
ATOM     66  C   UNL A   1      49.830  27.829  26.414  1.00  0.00     0.023 A 
ATOM     67  C   UNL A   1      50.743  27.490  27.434  1.00  0.00     0.012 A 
ATOM     68  C   UNL A   1      50.264  27.825  25.073  1.00  0.00     0.148 A 
ATOM     69  C   UNL A   1      52.069  27.187  27.129  1.00  0.00     0.002 A 
ATOM     70  C   UNL A   1      51.575  27.473  24.772  1.00  0.00     0.091 A 
ATOM     71  F   UNL A   1      49.387  28.166  24.117  1.00  0.00    -0.205 F 
ATOM     72  C   UNL A   1      52.481  27.167  25.800  1.00  0.00     0.022 A 
BRANCH  70  73
ATOM     73  S   UNL A   1      52.180  27.332  23.087  1.00  0.00     0.127 S 
ATOM     74  O   UNL A   1      52.633  28.697  22.822  1.00  0.00    -0.237 OA
ATOM     75  O   UNL A   1      53.256  26.351  23.230  1.00  0.00    -0.237 OA
ATOM     76  O   UNL A   1      51.049  26.885  22.287  1.00  0.00    -0.744 OA
ENDBRANCH  70  73
ENDBRANCH  52  66
BRANCH  53  77
ATOM     77  C   UNL A   1      40.314  29.145  29.161  1.00  0.00     0.023 A 
ATOM     78  C   UNL A   1      39.323  29.486  28.219  1.00  0.00     0.012 A 
ATOM     79  C   UNL A   1      39.951  28.990  30.512  1.00  0.00     0.148 A 
ATOM     80  C   UNL A   1      38.005  29.712  28.620  1.00  0.00     0.002 A 
ATOM     81  C   UNL A   1      38.624  29.158  30.896  1.00  0.00     0.091 A 
ATOM     82  F   UNL A   1      40.908  28.673  31.396  1.00  0.00    -0.205 F 
ATOM     83  C   UNL A   1      37.655  29.539  29.956  1.00  0.00     0.022 A 
BRANCH  81  84
ATOM     84  S   UNL A   1      38.057  28.824  32.567  1.00  0.00     0.127 S 
ATOM     85  O   UNL A   1      38.279  27.383  32.677  1.00  0.00    -0.237 OA
ATOM     86  O   UNL A   1      38.969  29.649  33.365  1.00  0.00    -0.237 OA
ATOM     87  O   UNL A   1      36.671  29.258  32.607  1.00  0.00    -0.744 OA
ENDBRANCH  81  84
ENDBRANCH  53  77
BRANCH  65  88
ATOM     88  C   UNL A   1      45.912  33.310  28.939  1.00  0.00     0.023 A 
ATOM     89  C   UNL A   1      46.414  33.637  30.213  1.00  0.00     0.012 A 
ATOM     90  C   UNL A   1      45.704  34.332  27.992  1.00  0.00     0.148 A 
ATOM     91  C   UNL A   1      46.678  34.964  30.550  1.00  0.00     0.002 A 
ATOM     92  C   UNL A   1      46.020  35.645  28.315  1.00  0.00     0.091 A 
ATOM     93  F   UNL A   1      45.210  34.000  26.790  1.00  0.00    -0.205 F 
ATOM     94  C   UNL A   1      46.495  35.965  29.597  1.00  0.00     0.022 A 
BRANCH  92  95
ATOM     95  S   UNL A   1      45.915  36.984  27.123  1.00  0.00     0.127 S 
ATOM     96  O   UNL A   1      46.637  38.053  27.810  1.00  0.00    -0.237 OA
ATOM     97  O   UNL A   1      46.613  36.422  25.965  1.00  0.00    -0.237 OA
ATOM     98  O   UNL A   1      44.494  37.226  26.912  1.00  0.00    -0.744 OA
ENDBRANCH  92  95
ENDBRANCH  65  88
ENDBRANCH  39  40
ENDBRANCH  31  34
ENDBRANCH  29  30
ENDBRANCH  28  29
ENDBRANCH   1  28
TORSDOF 20
ENDMDL
