MODEL 1
REMARK VINA RESULT:     -11.9      0.000      0.000
REMARK SMILES O=C(NCCCCCCNC(=O)C1(n2ccnc2)CCN(C(=O)[C@@H]2CC(=O)N(C3CC3)C2)CC1)c1ccc(-c2c3nc(c(-c4cccc(S(=O)(=O)[O-])c4F)c4ccc([nH]4)c(-c4cccc(S(=O)(=O)[O-])c4F)c4nc(c(-c5cccc(S(=O)(=O)[O-])c5F)c5ccc2[nH]5)C=C4)C=C3)cc1
REMARK SMILES IDX 6 1 5 2 4 3 3 4 1 5 2 6 35 8 36 9 97 10 37 11 96 12 38 13
REMARK SMILES IDX 39 14 40 15 90 16 41 17 95 18 89 19 91 20 42 21 94 22 88 23
REMARK SMILES IDX 87 24 43 26 75 27 55 28 74 29 56 30 59 31 73 32 92 33 57 34
REMARK SMILES IDX 58 35 72 37 93 38 60 39 44 40 45 41 53 42 46 43 48 44 54 45
REMARK SMILES IDX 47 46 49 47 50 48 51 49 52 50 76 51 77 52 85 53 78 54 80 55
REMARK SMILES IDX 86 56 79 57 81 58 82 59 83 60 84 61 61 62 62 63 70 64 63 65
REMARK SMILES IDX 65 66 71 67 64 68 66 69 67 70 68 71 69 72 7 73 8 74 9 75
REMARK SMILES IDX 10 76 11 77 12 79 13 80 19 81 34 82 20 83 33 84 21 85 22 86
REMARK SMILES IDX 23 87 14 88 15 89 18 90 16 91 17 92 24 93 25 94 32 95 26 96
REMARK SMILES IDX 28 97 27 98 29 99 30 100 31 101
REMARK H PARENT 3 7 91 25 59 36 10 78
REMARK Flexibility Score: inf
ROOT
ATOM      1  C   UNL A   1      39.600  22.407  26.437  1.00  0.00     0.002 C 
ENDROOT
BRANCH   1   2
ATOM      2  C   UNL A   1      40.427  22.279  27.723  1.00  0.00     0.021 C 
BRANCH   2   3
ATOM      3  C   UNL A   1      41.875  21.841  27.509  1.00  0.00     0.116 C 
BRANCH   3   4
ATOM      4  N   UNL A   1      42.509  22.432  26.348  1.00  0.00    -0.352 N 
ATOM      5  O   UNL A   1      43.445  23.824  24.907  1.00  0.00    -0.269 OA
ATOM      6  C   UNL A   1      42.923  23.693  26.017  1.00  0.00     0.251 C 
ATOM      7  H   UNL A   1      42.680  21.776  25.634  1.00  0.00     0.163 HD
BRANCH   6   8
ATOM      8  C   UNL A   1      42.730  24.894  26.871  1.00  0.00     0.039 A 
ATOM      9  C   UNL A   1      43.632  25.343  27.838  1.00  0.00     0.014 A 
ATOM     10  C   UNL A   1      41.564  25.646  26.633  1.00  0.00     0.014 A 
ATOM     11  C   UNL A   1      43.337  26.464  28.607  1.00  0.00     0.010 A 
ATOM     12  C   UNL A   1      41.280  26.785  27.379  1.00  0.00     0.010 A 
ATOM     13  C   UNL A   1      42.157  27.181  28.384  1.00  0.00    -0.014 A 
BRANCH  13  14
ATOM     14  C   UNL A   1      41.987  28.458  29.078  1.00  0.00     0.031 A 
ATOM     15  C   UNL A   1      42.936  29.528  28.643  1.00  0.00     0.074 A 
ATOM     16  C   UNL A   1      40.967  28.728  29.916  1.00  0.00     0.049 A 
ATOM     17  N   UNL A   1      43.795  30.180  29.358  1.00  0.00    -0.248 NA
ATOM     18  C   UNL A   1      43.005  29.829  27.203  1.00  0.00     0.031 C 
ATOM     19  C   UNL A   1      39.796  27.892  30.192  1.00  0.00     0.029 A 
ATOM     20  N   UNL A   1      40.689  29.882  30.593  1.00  0.00    -0.354 N 
ATOM     21  C   UNL A   1      44.364  31.122  28.497  1.00  0.00     0.074 A 
ATOM     22  C   UNL A   1      43.962  30.755  27.165  1.00  0.00     0.031 C 
ATOM     23  C   UNL A   1      38.834  28.651  30.763  1.00  0.00     0.029 A 
ATOM     24  C   UNL A   1      39.364  29.980  31.010  1.00  0.00     0.049 A 
ATOM     25  H   UNL A   1      41.363  30.579  30.769  1.00  0.00     0.167 HD
ATOM     26  C   UNL A   1      44.944  32.265  28.953  1.00  0.00     0.034 A 
ATOM     27  C   UNL A   1      38.727  31.096  31.445  1.00  0.00     0.034 A 
ATOM     28  C   UNL A   1      45.271  32.185  30.349  1.00  0.00     0.049 A 
ATOM     29  C   UNL A   1      39.758  32.073  31.854  1.00  0.00     0.074 A 
ATOM     30  C   UNL A   1      46.068  31.368  31.125  1.00  0.00     0.029 A 
ATOM     31  N   UNL A   1      44.447  32.847  31.225  1.00  0.00    -0.354 N 
ATOM     32  N   UNL A   1      40.538  31.915  32.885  1.00  0.00    -0.248 NA
ATOM     33  C   UNL A   1      40.193  33.062  30.883  1.00  0.00     0.031 C 
ATOM     34  C   UNL A   1      45.356  31.219  32.350  1.00  0.00     0.029 A 
ATOM     35  C   UNL A   1      44.197  31.994  32.265  1.00  0.00     0.049 A 
ATOM     36  H   UNL A   1      44.101  33.763  31.124  1.00  0.00     0.167 HD
ATOM     37  C   UNL A   1      41.759  32.427  32.472  1.00  0.00     0.074 A 
ATOM     38  C   UNL A   1      41.455  33.223  31.287  1.00  0.00     0.031 C 
ATOM     39  C   UNL A   1      42.931  31.923  32.959  1.00  0.00     0.034 A 
BRANCH  26  40
ATOM     40  C   UNL A   1      44.917  33.590  28.224  1.00  0.00     0.023 A 
ATOM     41  C   UNL A   1      46.150  34.143  27.810  1.00  0.00     0.012 A 
ATOM     42  C   UNL A   1      43.786  34.437  28.168  1.00  0.00     0.148 A 
ATOM     43  C   UNL A   1      46.257  35.476  27.400  1.00  0.00     0.002 A 
ATOM     44  C   UNL A   1      43.882  35.736  27.680  1.00  0.00     0.091 A 
ATOM     45  F   UNL A   1      42.631  34.046  28.716  1.00  0.00    -0.205 F 
ATOM     46  C   UNL A   1      45.120  36.271  27.324  1.00  0.00     0.022 A 
BRANCH  44  47
ATOM     47  S   UNL A   1      42.432  36.782  27.503  1.00  0.00     0.127 S 
ATOM     48  O   UNL A   1      42.204  37.202  28.882  1.00  0.00    -0.237 OA
ATOM     49  O   UNL A   1      42.928  37.830  26.609  1.00  0.00    -0.237 OA
ATOM     50  O   UNL A   1      41.410  35.930  26.910  1.00  0.00    -0.744 OA
ENDBRANCH  44  47
ENDBRANCH  26  40
BRANCH  27  51
ATOM     51  C   UNL A   1      37.307  31.495  31.300  1.00  0.00     0.023 A 
ATOM     52  C   UNL A   1      36.503  31.654  32.447  1.00  0.00     0.012 A 
ATOM     53  C   UNL A   1      36.822  31.995  30.072  1.00  0.00     0.148 A 
ATOM     54  C   UNL A   1      35.271  32.317  32.379  1.00  0.00     0.002 A 
ATOM     55  C   UNL A   1      35.594  32.647  30.007  1.00  0.00     0.091 A 
ATOM     56  F   UNL A   1      37.606  31.918  28.989  1.00  0.00    -0.205 F 
ATOM     57  C   UNL A   1      34.821  32.821  31.162  1.00  0.00     0.022 A 
BRANCH  55  58
ATOM     58  S   UNL A   1      34.962  33.347  28.477  1.00  0.00     0.127 S 
ATOM     59  O   UNL A   1      35.831  34.512  28.297  1.00  0.00    -0.237 OA
ATOM     60  O   UNL A   1      35.190  32.260  27.530  1.00  0.00    -0.237 OA
ATOM     61  O   UNL A   1      33.567  33.678  28.739  1.00  0.00    -0.744 OA
ENDBRANCH  55  58
ENDBRANCH  27  51
BRANCH  39  62
ATOM     62  C   UNL A   1      42.868  30.992  34.144  1.00  0.00     0.023 A 
ATOM     63  C   UNL A   1      42.936  31.458  35.475  1.00  0.00     0.012 A 
ATOM     64  C   UNL A   1      42.562  29.640  33.914  1.00  0.00     0.148 A 
ATOM     65  C   UNL A   1      42.732  30.588  36.550  1.00  0.00     0.002 A 
ATOM     66  C   UNL A   1      42.310  28.790  34.984  1.00  0.00     0.091 A 
ATOM     67  F   UNL A   1      42.496  29.213  32.644  1.00  0.00    -0.205 F 
ATOM     68  C   UNL A   1      42.404  29.258  36.304  1.00  0.00     0.022 A 
BRANCH  66  69
ATOM     69  S   UNL A   1      41.752  27.104  34.729  1.00  0.00     0.127 S 
ATOM     70  O   UNL A   1      41.451  26.673  36.093  1.00  0.00    -0.237 OA
ATOM     71  O   UNL A   1      40.580  27.287  33.872  1.00  0.00    -0.237 OA
ATOM     72  O   UNL A   1      42.859  26.411  34.081  1.00  0.00    -0.744 OA
ENDBRANCH  66  69
ENDBRANCH  39  62
ENDBRANCH  13  14
ENDBRANCH   6   8
ENDBRANCH   3   4
ENDBRANCH   2   3
ENDBRANCH   1   2
BRANCH   1  73
ATOM     73  C   UNL A   1      38.628  23.592  26.375  1.00  0.00     0.002 C 
BRANCH  73  74
ATOM     74  C   UNL A   1      37.331  23.341  25.600  1.00  0.00     0.021 C 
BRANCH  74  75
ATOM     75  C   UNL A   1      36.868  21.882  25.571  1.00  0.00     0.116 C 
BRANCH  75  76
ATOM     76  N   UNL A   1      35.707  21.657  26.410  1.00  0.00    -0.354 N 
ATOM     77  C   UNL A   1      34.370  21.522  26.240  1.00  0.00     0.246 C 
ATOM     78  H   UNL A   1      35.957  21.582  27.359  1.00  0.00     0.163 HD
ATOM     79  O   UNL A   1      33.782  21.313  27.313  1.00  0.00    -0.272 OA
BRANCH  77  80
ATOM     80  C   UNL A   1      33.547  21.666  24.906  1.00  0.00     0.127 C 
ATOM     81  C   UNL A   1      34.215  22.465  23.760  1.00  0.00     0.061 C 
ATOM     82  C   UNL A   1      32.168  22.245  25.174  1.00  0.00     0.061 C 
ATOM     83  C   UNL A   1      33.961  23.979  23.665  1.00  0.00     0.122 C 
ATOM     84  C   UNL A   1      32.080  23.731  25.268  1.00  0.00     0.122 C 
ATOM     85  N   UNL A   1      32.689  24.478  24.207  1.00  0.00    -0.342 N 
ATOM     86  C   UNL A   1      32.287  25.773  23.870  1.00  0.00     0.227 C 
ATOM     87  O   UNL A   1      32.919  26.401  23.010  1.00  0.00    -0.274 OA
BRANCH  80  88
ATOM     88  N   UNL A   1      33.306  20.255  24.401  1.00  0.00    -0.322 N 
ATOM     89  C   UNL A   1      32.329  19.856  23.519  1.00  0.00     0.108 A 
ATOM     90  C   UNL A   1      34.044  19.126  24.682  1.00  0.00     0.200 A 
ATOM     91  C   UNL A   1      32.514  18.503  23.350  1.00  0.00     0.130 A 
ATOM     92  N   UNL A   1      33.562  18.053  24.100  1.00  0.00    -0.245 NA
ENDBRANCH  80  88
BRANCH  86  93
ATOM     93  C   UNL A   1      31.127  26.526  24.579  1.00  0.00     0.107 C 
ATOM     94  C   UNL A   1      30.237  27.313  23.621  1.00  0.00     0.115 C 
ATOM     95  C   UNL A   1      31.413  27.506  25.704  1.00  0.00     0.133 C 
ATOM     96  C   UNL A   1      30.576  28.756  23.898  1.00  0.00     0.223 C 
ATOM     97  N   UNL A   1      31.293  28.821  25.093  1.00  0.00    -0.339 N 
ATOM     98  O   UNL A   1      30.300  29.680  23.139  1.00  0.00    -0.275 OA
BRANCH  97  99
ATOM     99  C   UNL A   1      32.100  29.929  25.549  1.00  0.00     0.085 C 
ATOM    100  C   UNL A   1      31.458  31.148  26.185  1.00  0.00     0.027 C 
ATOM    101  C   UNL A   1      32.369  30.269  26.984  1.00  0.00     0.027 C 
ENDBRANCH  97  99
ENDBRANCH  86  93
ENDBRANCH  77  80
ENDBRANCH  75  76
ENDBRANCH  74  75
ENDBRANCH  73  74
ENDBRANCH   1  73
TORSDOF 19
ENDMDL
MODEL 2
REMARK VINA RESULT:     -11.2      2.361      2.712
REMARK SMILES O=C(NCCCCCCNC(=O)C1(n2ccnc2)CCN(C(=O)[C@@H]2CC(=O)N(C3CC3)C2)CC1)c1ccc(-c2c3nc(c(-c4cccc(S(=O)(=O)[O-])c4F)c4ccc([nH]4)c(-c4cccc(S(=O)(=O)[O-])c4F)c4nc(c(-c5cccc(S(=O)(=O)[O-])c5F)c5ccc2[nH]5)C=C4)C=C3)cc1
REMARK SMILES IDX 6 1 5 2 4 3 3 4 1 5 2 6 35 8 36 9 97 10 37 11 96 12 38 13
REMARK SMILES IDX 39 14 40 15 90 16 41 17 95 18 89 19 91 20 42 21 94 22 88 23
REMARK SMILES IDX 87 24 43 26 75 27 55 28 74 29 56 30 59 31 73 32 92 33 57 34
REMARK SMILES IDX 58 35 72 37 93 38 60 39 44 40 45 41 53 42 46 43 48 44 54 45
REMARK SMILES IDX 47 46 49 47 50 48 51 49 52 50 76 51 77 52 85 53 78 54 80 55
REMARK SMILES IDX 86 56 79 57 81 58 82 59 83 60 84 61 61 62 62 63 70 64 63 65
REMARK SMILES IDX 65 66 71 67 64 68 66 69 67 70 68 71 69 72 7 73 8 74 9 75
REMARK SMILES IDX 10 76 11 77 12 79 13 80 19 81 34 82 20 83 33 84 21 85 22 86
REMARK SMILES IDX 23 87 14 88 15 89 18 90 16 91 17 92 24 93 25 94 32 95 26 96
REMARK SMILES IDX 28 97 27 98 29 99 30 100 31 101
REMARK H PARENT 3 7 91 25 59 36 10 78
REMARK Flexibility Score: inf
ROOT
ATOM      1  C   UNL A   1      40.028  20.567  26.042  1.00  0.00     0.002 C 
ENDROOT
BRANCH   1   2
ATOM      2  C   UNL A   1      39.701  21.768  26.940  1.00  0.00     0.021 C 
BRANCH   2   3
ATOM      3  C   UNL A   1      40.917  22.568  27.403  1.00  0.00     0.116 C 
BRANCH   3   4
ATOM      4  N   UNL A   1      41.795  22.988  26.330  1.00  0.00    -0.352 N 
ATOM      5  O   UNL A   1      43.117  24.144  24.986  1.00  0.00    -0.269 OA
ATOM      6  C   UNL A   1      42.416  24.162  26.001  1.00  0.00     0.251 C 
ATOM      7  H   UNL A   1      41.987  22.264  25.691  1.00  0.00     0.163 HD
BRANCH   6   8
ATOM      8  C   UNL A   1      42.252  25.439  26.743  1.00  0.00     0.039 A 
ATOM      9  C   UNL A   1      43.002  25.820  27.858  1.00  0.00     0.014 A 
ATOM     10  C   UNL A   1      41.294  26.335  26.234  1.00  0.00     0.014 A 
ATOM     11  C   UNL A   1      42.743  27.027  28.500  1.00  0.00     0.010 A 
ATOM     12  C   UNL A   1      41.053  27.556  26.854  1.00  0.00     0.010 A 
ATOM     13  C   UNL A   1      41.763  27.892  28.003  1.00  0.00    -0.014 A 
BRANCH  13  14
ATOM     14  C   UNL A   1      41.665  29.228  28.592  1.00  0.00     0.031 A 
ATOM     15  C   UNL A   1      42.823  30.123  28.288  1.00  0.00     0.074 A 
ATOM     16  C   UNL A   1      40.564  29.698  29.212  1.00  0.00     0.049 A 
ATOM     17  N   UNL A   1      43.631  30.702  29.117  1.00  0.00    -0.248 NA
ATOM     18  C   UNL A   1      43.189  30.303  26.873  1.00  0.00     0.031 C 
ATOM     19  C   UNL A   1      39.252  29.053  29.307  1.00  0.00     0.029 A 
ATOM     20  N   UNL A   1      40.346  30.927  29.769  1.00  0.00    -0.354 N 
ATOM     21  C   UNL A   1      44.475  31.490  28.332  1.00  0.00     0.074 A 
ATOM     22  C   UNL A   1      44.265  31.084  26.968  1.00  0.00     0.031 C 
ATOM     23  C   UNL A   1      38.328  29.978  29.652  1.00  0.00     0.029 A 
ATOM     24  C   UNL A   1      38.997  31.237  29.928  1.00  0.00     0.049 A 
ATOM     25  H   UNL A   1      41.074  31.535  30.033  1.00  0.00     0.167 HD
ATOM     26  C   UNL A   1      45.129  32.574  28.832  1.00  0.00     0.034 A 
ATOM     27  C   UNL A   1      38.467  32.459  30.183  1.00  0.00     0.034 A 
ATOM     28  C   UNL A   1      45.190  32.554  30.267  1.00  0.00     0.049 A 
ATOM     29  C   UNL A   1      39.543  33.312  30.728  1.00  0.00     0.074 A 
ATOM     30  C   UNL A   1      45.708  31.696  31.215  1.00  0.00     0.029 A 
ATOM     31  N   UNL A   1      44.332  33.386  30.941  1.00  0.00    -0.354 N 
ATOM     32  N   UNL A   1      40.096  33.126  31.892  1.00  0.00    -0.248 NA
ATOM     33  C   UNL A   1      40.284  34.157  29.808  1.00  0.00     0.031 C 
ATOM     34  C   UNL A   1      44.776  31.737  32.293  1.00  0.00     0.029 A 
ATOM     35  C   UNL A   1      43.778  32.656  31.958  1.00  0.00     0.049 A 
ATOM     36  H   UNL A   1      44.149  34.331  30.734  1.00  0.00     0.167 HD
ATOM     37  C   UNL A   1      41.434  33.433  31.688  1.00  0.00     0.074 A 
ATOM     38  C   UNL A   1      41.465  34.173  30.430  1.00  0.00     0.031 C 
ATOM     39  C   UNL A   1      42.414  32.812  32.407  1.00  0.00     0.034 A 
BRANCH  26  40
ATOM     40  C   UNL A   1      45.428  33.832  28.047  1.00  0.00     0.023 A 
ATOM     41  C   UNL A   1      44.335  34.617  27.615  1.00  0.00     0.012 A 
ATOM     42  C   UNL A   1      46.691  34.130  27.486  1.00  0.00     0.148 A 
ATOM     43  C   UNL A   1      44.486  35.618  26.649  1.00  0.00     0.002 A 
ATOM     44  C   UNL A   1      46.851  35.183  26.590  1.00  0.00     0.091 A 
ATOM     45  F   UNL A   1      47.728  33.316  27.703  1.00  0.00    -0.205 F 
ATOM     46  C   UNL A   1      45.746  35.910  26.144  1.00  0.00     0.022 A 
BRANCH  44  47
ATOM     47  S   UNL A   1      48.468  35.638  25.956  1.00  0.00     0.127 S 
ATOM     48  O   UNL A   1      48.207  36.968  25.415  1.00  0.00    -0.237 OA
ATOM     49  O   UNL A   1      49.283  35.612  27.172  1.00  0.00    -0.237 OA
ATOM     50  O   UNL A   1      48.812  34.603  24.989  1.00  0.00    -0.744 OA
ENDBRANCH  44  47
ENDBRANCH  26  40
BRANCH  27  51
ATOM     51  C   UNL A   1      37.170  33.036  29.758  1.00  0.00     0.023 A 
ATOM     52  C   UNL A   1      36.643  32.719  28.489  1.00  0.00     0.012 A 
ATOM     53  C   UNL A   1      36.318  33.659  30.696  1.00  0.00     0.148 A 
ATOM     54  C   UNL A   1      35.304  32.985  28.176  1.00  0.00     0.002 A 
ATOM     55  C   UNL A   1      34.991  33.929  30.378  1.00  0.00     0.091 A 
ATOM     56  F   UNL A   1      36.782  33.899  31.929  1.00  0.00    -0.205 F 
ATOM     57  C   UNL A   1      34.476  33.582  29.123  1.00  0.00     0.022 A 
BRANCH  55  58
ATOM     58  S   UNL A   1      33.856  34.672  31.559  1.00  0.00     0.127 S 
ATOM     59  O   UNL A   1      32.688  34.950  30.721  1.00  0.00    -0.237 OA
ATOM     60  O   UNL A   1      33.674  33.591  32.523  1.00  0.00    -0.237 OA
ATOM     61  O   UNL A   1      34.529  35.863  32.060  1.00  0.00    -0.744 OA
ENDBRANCH  55  58
ENDBRANCH  27  51
BRANCH  39  62
ATOM     62  C   UNL A   1      42.005  31.988  33.604  1.00  0.00     0.023 A 
ATOM     63  C   UNL A   1      41.687  30.617  33.502  1.00  0.00     0.012 A 
ATOM     64  C   UNL A   1      42.111  32.567  34.879  1.00  0.00     0.148 A 
ATOM     65  C   UNL A   1      41.452  29.849  34.647  1.00  0.00     0.002 A 
ATOM     66  C   UNL A   1      41.927  31.790  36.016  1.00  0.00     0.091 A 
ATOM     67  F   UNL A   1      42.419  33.871  34.960  1.00  0.00    -0.205 F 
ATOM     68  C   UNL A   1      41.586  30.432  35.904  1.00  0.00     0.022 A 
BRANCH  66  69
ATOM     69  S   UNL A   1      42.217  32.448  37.659  1.00  0.00     0.127 S 
ATOM     70  O   UNL A   1      43.467  33.184  37.477  1.00  0.00    -0.237 OA
ATOM     71  O   UNL A   1      41.038  33.289  37.874  1.00  0.00    -0.237 OA
ATOM     72  O   UNL A   1      42.291  31.293  38.546  1.00  0.00    -0.744 OA
ENDBRANCH  66  69
ENDBRANCH  39  62
ENDBRANCH  13  14
ENDBRANCH   6   8
ENDBRANCH   3   4
ENDBRANCH   2   3
ENDBRANCH   1   2
BRANCH   1  73
ATOM     73  C   UNL A   1      38.877  20.042  25.173  1.00  0.00     0.002 C 
BRANCH  73  74
ATOM     74  C   UNL A   1      37.694  21.000  24.996  1.00  0.00     0.021 C 
BRANCH  74  75
ATOM     75  C   UNL A   1      36.316  20.333  25.008  1.00  0.00     0.116 C 
BRANCH  75  76
ATOM     76  N   UNL A   1      35.439  20.901  26.014  1.00  0.00    -0.354 N 
ATOM     77  C   UNL A   1      34.158  21.335  26.083  1.00  0.00     0.246 C 
ATOM     78  H   UNL A   1      35.899  20.998  26.879  1.00  0.00     0.163 HD
ATOM     79  O   UNL A   1      33.860  21.728  27.222  1.00  0.00    -0.272 OA
BRANCH  77  80
ATOM     80  C   UNL A   1      33.110  21.442  24.914  1.00  0.00     0.127 C 
ATOM     81  C   UNL A   1      33.591  22.123  23.609  1.00  0.00     0.061 C 
ATOM     82  C   UNL A   1      31.834  22.118  25.383  1.00  0.00     0.061 C 
ATOM     83  C   UNL A   1      33.396  23.641  23.449  1.00  0.00     0.122 C 
ATOM     84  C   UNL A   1      31.835  23.610  25.381  1.00  0.00     0.122 C 
ATOM     85  N   UNL A   1      32.271  24.250  24.174  1.00  0.00    -0.342 N 
ATOM     86  C   UNL A   1      31.876  25.542  23.820  1.00  0.00     0.227 C 
ATOM     87  O   UNL A   1      32.366  26.073  22.815  1.00  0.00    -0.274 OA
BRANCH  80  88
ATOM     88  N   UNL A   1      32.713  20.018  24.567  1.00  0.00    -0.322 N 
ATOM     89  C   UNL A   1      32.536  19.501  23.306  1.00  0.00     0.108 A 
ATOM     90  C   UNL A   1      32.509  18.969  25.437  1.00  0.00     0.200 A 
ATOM     91  C   UNL A   1      32.201  18.179  23.491  1.00  0.00     0.130 A 
ATOM     92  N   UNL A   1      32.157  17.865  24.819  1.00  0.00    -0.245 NA
ENDBRANCH  80  88
BRANCH  86  93
ATOM     93  C   UNL A   1      30.904  26.407  24.669  1.00  0.00     0.107 C 
ATOM     94  C   UNL A   1      30.035  27.344  23.835  1.00  0.00     0.115 C 
ATOM     95  C   UNL A   1      31.430  27.292  25.787  1.00  0.00     0.133 C 
ATOM     96  C   UNL A   1      30.591  28.717  24.117  1.00  0.00     0.223 C 
ATOM     97  N   UNL A   1      31.426  28.637  25.231  1.00  0.00    -0.339 N 
ATOM     98  O   UNL A   1      30.365  29.701  23.419  1.00  0.00    -0.275 OA
BRANCH  97  99
ATOM     99  C   UNL A   1      32.415  29.610  25.632  1.00  0.00     0.085 C 
ATOM    100  C   UNL A   1      32.038  30.782  26.520  1.00  0.00     0.027 C 
ATOM    101  C   UNL A   1      32.993  29.737  27.010  1.00  0.00     0.027 C 
ENDBRANCH  97  99
ENDBRANCH  86  93
ENDBRANCH  77  80
ENDBRANCH  75  76
ENDBRANCH  74  75
ENDBRANCH  73  74
ENDBRANCH   1  73
TORSDOF 19
ENDMDL
MODEL 3
REMARK VINA RESULT:     -11.1      3.369      9.434
REMARK SMILES O=C(NCCCCCCNC(=O)C1(n2ccnc2)CCN(C(=O)[C@@H]2CC(=O)N(C3CC3)C2)CC1)c1ccc(-c2c3nc(c(-c4cccc(S(=O)(=O)[O-])c4F)c4ccc([nH]4)c(-c4cccc(S(=O)(=O)[O-])c4F)c4nc(c(-c5cccc(S(=O)(=O)[O-])c5F)c5ccc2[nH]5)C=C4)C=C3)cc1
REMARK SMILES IDX 6 1 5 2 4 3 3 4 1 5 2 6 35 8 36 9 97 10 37 11 96 12 38 13
REMARK SMILES IDX 39 14 40 15 90 16 41 17 95 18 89 19 91 20 42 21 94 22 88 23
REMARK SMILES IDX 87 24 43 26 75 27 55 28 74 29 56 30 59 31 73 32 92 33 57 34
REMARK SMILES IDX 58 35 72 37 93 38 60 39 44 40 45 41 53 42 46 43 48 44 54 45
REMARK SMILES IDX 47 46 49 47 50 48 51 49 52 50 76 51 77 52 85 53 78 54 80 55
REMARK SMILES IDX 86 56 79 57 81 58 82 59 83 60 84 61 61 62 62 63 70 64 63 65
REMARK SMILES IDX 65 66 71 67 64 68 66 69 67 70 68 71 69 72 7 73 8 74 9 75
REMARK SMILES IDX 10 76 11 77 12 79 13 80 19 81 34 82 20 83 33 84 21 85 22 86
REMARK SMILES IDX 23 87 14 88 15 89 18 90 16 91 17 92 24 93 25 94 32 95 26 96
REMARK SMILES IDX 28 97 27 98 29 99 30 100 31 101
REMARK H PARENT 3 7 91 25 59 36 10 78
REMARK Flexibility Score: inf
ROOT
ATOM      1  C   UNL A   1      33.236  29.989  27.208  1.00  0.00     0.002 C 
ENDROOT
BRANCH   1   2
ATOM      2  C   UNL A   1      33.490  31.502  27.242  1.00  0.00     0.021 C 
BRANCH   2   3
ATOM      3  C   UNL A   1      34.763  31.918  27.979  1.00  0.00     0.116 C 
BRANCH   3   4
ATOM      4  N   UNL A   1      34.588  32.111  29.404  1.00  0.00    -0.352 N 
ATOM      5  O   UNL A   1      34.850  32.138  31.599  1.00  0.00    -0.269 OA
ATOM      6  C   UNL A   1      35.327  31.802  30.513  1.00  0.00     0.251 C 
ATOM      7  H   UNL A   1      33.744  32.568  29.624  1.00  0.00     0.163 HD
BRANCH   6   8
ATOM      8  C   UNL A   1      36.608  31.050  30.489  1.00  0.00     0.039 A 
ATOM      9  C   UNL A   1      36.725  29.671  30.298  1.00  0.00     0.014 A 
ATOM     10  C   UNL A   1      37.781  31.815  30.624  1.00  0.00     0.014 A 
ATOM     11  C   UNL A   1      37.975  29.061  30.327  1.00  0.00     0.010 A 
ATOM     12  C   UNL A   1      39.035  31.213  30.624  1.00  0.00     0.010 A 
ATOM     13  C   UNL A   1      39.130  29.830  30.498  1.00  0.00    -0.014 A 
BRANCH  13  14
ATOM     14  C   UNL A   1      40.426  29.172  30.325  1.00  0.00     0.031 A 
ATOM     15  C   UNL A   1      41.162  28.913  31.599  1.00  0.00     0.074 A 
ATOM     16  C   UNL A   1      40.866  28.676  29.151  1.00  0.00     0.049 A 
ATOM     17  N   UNL A   1      42.335  29.332  31.950  1.00  0.00    -0.248 NA
ATOM     18  C   UNL A   1      40.447  28.182  32.660  1.00  0.00     0.031 C 
ATOM     19  C   UNL A   1      40.124  28.576  27.892  1.00  0.00     0.029 A 
ATOM     20  N   UNL A   1      42.033  28.020  28.876  1.00  0.00    -0.354 N 
ATOM     21  C   UNL A   1      42.592  28.741  33.189  1.00  0.00     0.074 A 
ATOM     22  C   UNL A   1      41.346  28.182  33.643  1.00  0.00     0.031 C 
ATOM     23  C   UNL A   1      40.747  27.692  27.080  1.00  0.00     0.029 A 
ATOM     24  C   UNL A   1      41.989  27.270  27.703  1.00  0.00     0.049 A 
ATOM     25  H   UNL A   1      42.830  28.074  29.452  1.00  0.00     0.167 HD
ATOM     26  C   UNL A   1      43.857  28.557  33.657  1.00  0.00     0.034 A 
ATOM     27  C   UNL A   1      42.866  26.311  27.316  1.00  0.00     0.034 A 
ATOM     28  C   UNL A   1      44.812  29.383  32.972  1.00  0.00     0.049 A 
ATOM     29  C   UNL A   1      44.115  26.507  28.082  1.00  0.00     0.074 A 
ATOM     30  C   UNL A   1      44.983  30.740  32.791  1.00  0.00     0.029 A 
ATOM     31  N   UNL A   1      45.607  28.775  32.033  1.00  0.00    -0.354 N 
ATOM     32  N   UNL A   1      44.908  27.528  27.926  1.00  0.00    -0.248 NA
ATOM     33  C   UNL A   1      44.294  25.754  29.311  1.00  0.00     0.031 C 
ATOM     34  C   UNL A   1      45.475  30.872  31.460  1.00  0.00     0.029 A 
ATOM     35  C   UNL A   1      45.622  29.587  30.932  1.00  0.00     0.049 A 
ATOM     36  H   UNL A   1      46.078  27.916  32.133  1.00  0.00     0.167 HD
ATOM     37  C   UNL A   1      45.350  27.817  29.209  1.00  0.00     0.074 A 
ATOM     38  C   UNL A   1      45.038  26.626  29.995  1.00  0.00     0.031 C 
ATOM     39  C   UNL A   1      45.659  29.096  29.573  1.00  0.00     0.034 A 
BRANCH  26  40
ATOM     40  C   UNL A   1      44.293  27.385  34.507  1.00  0.00     0.023 A 
ATOM     41  C   UNL A   1      45.153  27.644  35.600  1.00  0.00     0.012 A 
ATOM     42  C   UNL A   1      44.128  26.032  34.132  1.00  0.00     0.148 A 
ATOM     43  C   UNL A   1      45.838  26.616  36.256  1.00  0.00     0.002 A 
ATOM     44  C   UNL A   1      44.744  25.006  34.841  1.00  0.00     0.091 A 
ATOM     45  F   UNL A   1      43.484  25.727  33.001  1.00  0.00    -0.205 F 
ATOM     46  C   UNL A   1      45.625  25.295  35.884  1.00  0.00     0.022 A 
BRANCH  44  47
ATOM     47  S   UNL A   1      44.453  23.280  34.440  1.00  0.00     0.127 S 
ATOM     48  O   UNL A   1      44.985  23.200  33.083  1.00  0.00    -0.237 OA
ATOM     49  O   UNL A   1      45.251  22.598  35.460  1.00  0.00    -0.237 OA
ATOM     50  O   UNL A   1      43.016  23.086  34.583  1.00  0.00    -0.744 OA
ENDBRANCH  44  47
ENDBRANCH  26  40
BRANCH  27  51
ATOM     51  C   UNL A   1      42.635  25.078  26.528  1.00  0.00     0.023 A 
ATOM     52  C   UNL A   1      43.370  24.854  25.345  1.00  0.00     0.012 A 
ATOM     53  C   UNL A   1      41.913  23.996  27.077  1.00  0.00     0.148 A 
ATOM     54  C   UNL A   1      43.410  23.587  24.749  1.00  0.00     0.002 A 
ATOM     55  C   UNL A   1      41.948  22.742  26.477  1.00  0.00     0.091 A 
ATOM     56  F   UNL A   1      41.270  24.174  28.239  1.00  0.00    -0.205 F 
ATOM     57  C   UNL A   1      42.707  22.529  25.319  1.00  0.00     0.022 A 
BRANCH  55  58
ATOM     58  S   UNL A   1      41.088  21.324  27.171  1.00  0.00     0.127 S 
ATOM     59  O   UNL A   1      42.166  20.339  27.278  1.00  0.00    -0.237 OA
ATOM     60  O   UNL A   1      40.614  21.853  28.446  1.00  0.00    -0.237 OA
ATOM     61  O   UNL A   1      40.054  20.975  26.205  1.00  0.00    -0.744 OA
ENDBRANCH  55  58
ENDBRANCH  27  51
BRANCH  39  62
ATOM     62  C   UNL A   1      45.768  30.138  28.488  1.00  0.00     0.023 A 
ATOM     63  C   UNL A   1      44.637  30.788  27.949  1.00  0.00     0.012 A 
ATOM     64  C   UNL A   1      47.047  30.593  28.126  1.00  0.00     0.148 A 
ATOM     65  C   UNL A   1      44.780  31.849  27.049  1.00  0.00     0.002 A 
ATOM     66  C   UNL A   1      47.186  31.679  27.271  1.00  0.00     0.091 A 
ATOM     67  F   UNL A   1      48.113  29.968  28.650  1.00  0.00    -0.205 F 
ATOM     68  C   UNL A   1      46.054  32.303  26.722  1.00  0.00     0.022 A 
BRANCH  66  69
ATOM     69  S   UNL A   1      48.792  32.396  26.919  1.00  0.00     0.127 S 
ATOM     70  O   UNL A   1      48.473  33.358  25.867  1.00  0.00    -0.237 OA
ATOM     71  O   UNL A   1      49.159  32.993  28.204  1.00  0.00    -0.237 OA
ATOM     72  O   UNL A   1      49.646  31.284  26.518  1.00  0.00    -0.744 OA
ENDBRANCH  66  69
ENDBRANCH  39  62
ENDBRANCH  13  14
ENDBRANCH   6   8
ENDBRANCH   3   4
ENDBRANCH   2   3
ENDBRANCH   1   2
BRANCH   1  73
ATOM     73  C   UNL A   1      31.770  29.556  27.063  1.00  0.00     0.002 C 
BRANCH  73  74
ATOM     74  C   UNL A   1      31.397  28.248  27.768  1.00  0.00     0.021 C 
BRANCH  74  75
ATOM     75  C   UNL A   1      31.659  26.978  26.954  1.00  0.00     0.116 C 
BRANCH  75  76
ATOM     76  N   UNL A   1      30.710  26.816  25.868  1.00  0.00    -0.354 N 
ATOM     77  C   UNL A   1      30.720  26.329  24.605  1.00  0.00     0.246 C 
ATOM     78  H   UNL A   1      29.818  27.150  26.117  1.00  0.00     0.163 HD
ATOM     79  O   UNL A   1      29.602  26.396  24.070  1.00  0.00    -0.272 OA
BRANCH  77  80
ATOM     80  C   UNL A   1      31.952  25.788  23.789  1.00  0.00     0.127 C 
ATOM     81  C   UNL A   1      31.637  24.893  22.565  1.00  0.00     0.061 C 
ATOM     82  C   UNL A   1      32.931  25.061  24.694  1.00  0.00     0.061 C 
ATOM     83  C   UNL A   1      31.549  23.370  22.764  1.00  0.00     0.122 C 
ATOM     84  C   UNL A   1      32.627  23.629  24.985  1.00  0.00     0.122 C 
ATOM     85  N   UNL A   1      32.342  22.791  23.858  1.00  0.00    -0.342 N 
ATOM     86  C   UNL A   1      32.533  21.408  23.879  1.00  0.00     0.227 C 
ATOM     87  O   UNL A   1      32.175  20.730  22.907  1.00  0.00    -0.274 OA
BRANCH  80  88
ATOM     88  N   UNL A   1      32.696  27.010  23.282  1.00  0.00    -0.322 N 
ATOM     89  C   UNL A   1      33.591  27.051  22.239  1.00  0.00     0.108 A 
ATOM     90  C   UNL A   1      32.579  28.308  23.729  1.00  0.00     0.200 A 
ATOM     91  C   UNL A   1      33.987  28.365  22.143  1.00  0.00     0.130 A 
ATOM     92  N   UNL A   1      33.376  29.133  23.091  1.00  0.00    -0.245 NA
ENDBRANCH  80  88
BRANCH  86  93
ATOM     93  C   UNL A   1      33.101  20.637  25.103  1.00  0.00     0.107 C 
ATOM     94  C   UNL A   1      34.563  20.959  25.401  1.00  0.00     0.115 C 
ATOM     95  C   UNL A   1      33.040  19.120  25.159  1.00  0.00     0.133 C 
ATOM     96  C   UNL A   1      35.309  19.712  24.996  1.00  0.00     0.223 C 
ATOM     97  N   UNL A   1      34.387  18.680  24.827  1.00  0.00    -0.339 N 
ATOM     98  O   UNL A   1      36.520  19.676  24.802  1.00  0.00    -0.275 OA
BRANCH  97  99
ATOM     99  C   UNL A   1      34.611  17.439  24.121  1.00  0.00     0.085 C 
ATOM    100  C   UNL A   1      34.802  16.138  24.879  1.00  0.00     0.027 C 
ATOM    101  C   UNL A   1      33.612  16.328  23.990  1.00  0.00     0.027 C 
ENDBRANCH  97  99
ENDBRANCH  86  93
ENDBRANCH  77  80
ENDBRANCH  75  76
ENDBRANCH  74  75
ENDBRANCH  73  74
ENDBRANCH   1  73
TORSDOF 19
ENDMDL
