MODEL 1
REMARK VINA RESULT:     -11.2      0.000      0.000
REMARK SMILES O=C(NCCCCCCNC(=O)[C@]12COc3ccccc3[C@H]1C[N@H+](CCO)C2)c1ccc(-c2c3nc(c(-c4cccc(S(=O)(=O)[O-])c4F)c4ccc([nH]4)c(-c4cccc(S(=O)(=O)[O-])c4F)c4nc(c(-c5cccc(S(=O)(=O)[O-])c5F)c5ccc2[nH]5)C=C4)C=C3)cc1
REMARK SMILES IDX 6 1 5 2 4 3 3 4 1 5 2 6 29 8 30 9 91 10 31 11 90 12 32 13
REMARK SMILES IDX 33 14 34 15 84 16 35 17 89 18 83 19 85 20 36 21 88 22 82 23
REMARK SMILES IDX 81 24 37 26 69 27 49 28 68 29 50 30 53 31 67 32 86 33 51 34
REMARK SMILES IDX 52 35 66 37 87 38 54 39 38 40 39 41 47 42 40 43 42 44 48 45
REMARK SMILES IDX 41 46 43 47 44 48 45 49 46 50 70 51 71 52 79 53 72 54 74 55
REMARK SMILES IDX 80 56 73 57 75 58 76 59 77 60 78 61 55 62 56 63 64 64 57 65
REMARK SMILES IDX 59 66 65 67 58 68 60 69 61 70 62 71 63 72 7 73 8 74 9 75
REMARK SMILES IDX 10 76 11 77 12 79 13 80 14 81 22 82 28 83 15 84 21 85 23 86
REMARK SMILES IDX 24 87 16 88 20 89 17 91 19 92 18 93 25 94 26 95 27 96
REMARK H PARENT 3 7 85 25 53 36 10 78 24 90 27 97
REMARK Flexibility Score: inf
ROOT
ATOM      1  C   UNL A   1      31.885  27.602  25.670  1.00  0.00     0.002 C 
ENDROOT
BRANCH   1   2
ATOM      2  C   UNL A   1      33.260  28.129  25.266  1.00  0.00     0.021 C 
BRANCH   2   3
ATOM      3  C   UNL A   1      34.169  28.504  26.423  1.00  0.00     0.116 C 
BRANCH   3   4
ATOM      4  N   UNL A   1      33.890  29.833  26.935  1.00  0.00    -0.352 N 
ATOM      5  O   UNL A   1      34.130  31.610  28.294  1.00  0.00    -0.269 OA
ATOM      6  C   UNL A   1      34.607  30.577  27.837  1.00  0.00     0.251 C 
ATOM      7  H   UNL A   1      33.073  30.258  26.587  1.00  0.00     0.163 HD
BRANCH   6   8
ATOM      8  C   UNL A   1      35.946  30.116  28.270  1.00  0.00     0.039 A 
ATOM      9  C   UNL A   1      36.081  29.532  29.530  1.00  0.00     0.014 A 
ATOM     10  C   UNL A   1      37.065  30.268  27.444  1.00  0.00     0.014 A 
ATOM     11  C   UNL A   1      37.333  29.085  29.950  1.00  0.00     0.010 A 
ATOM     12  C   UNL A   1      38.288  29.726  27.821  1.00  0.00     0.010 A 
ATOM     13  C   UNL A   1      38.447  29.165  29.095  1.00  0.00    -0.014 A 
BRANCH  13  14
ATOM     14  C   UNL A   1      39.791  28.731  29.552  1.00  0.00     0.031 A 
ATOM     15  C   UNL A   1      40.443  27.524  28.928  1.00  0.00     0.074 A 
ATOM     16  C   UNL A   1      40.421  29.410  30.532  1.00  0.00     0.049 A 
ATOM     17  N   UNL A   1      41.611  26.998  29.189  1.00  0.00    -0.248 NA
ATOM     18  C   UNL A   1      39.683  26.794  27.895  1.00  0.00     0.031 C 
ATOM     19  C   UNL A   1      39.862  30.547  31.267  1.00  0.00     0.029 A 
ATOM     20  N   UNL A   1      41.668  29.242  31.079  1.00  0.00    -0.354 N 
ATOM     21  C   UNL A   1      41.713  25.876  28.377  1.00  0.00     0.074 A 
ATOM     22  C   UNL A   1      40.472  25.760  27.648  1.00  0.00     0.031 C 
ATOM     23  C   UNL A   1      40.773  30.992  32.147  1.00  0.00     0.029 A 
ATOM     24  C   UNL A   1      41.969  30.159  32.059  1.00  0.00     0.049 A 
ATOM     25  H   UNL A   1      42.288  28.532  30.796  1.00  0.00     0.167 HD
ATOM     26  C   UNL A   1      42.764  25.044  28.212  1.00  0.00     0.034 A 
ATOM     27  C   UNL A   1      43.084  30.316  32.800  1.00  0.00     0.034 A 
ATOM     28  C   UNL A   1      44.024  25.203  28.876  1.00  0.00     0.049 A 
ATOM     29  C   UNL A   1      44.257  29.407  32.566  1.00  0.00     0.074 A 
ATOM     30  C   UNL A   1      45.174  24.452  28.713  1.00  0.00     0.029 A 
ATOM     31  N   UNL A   1      44.305  26.181  29.815  1.00  0.00    -0.354 N 
ATOM     32  N   UNL A   1      44.368  28.421  31.710  1.00  0.00    -0.248 NA
ATOM     33  C   UNL A   1      45.466  29.642  33.372  1.00  0.00     0.031 C 
ATOM     34  C   UNL A   1      46.152  24.974  29.560  1.00  0.00     0.029 A 
ATOM     35  C   UNL A   1      45.613  26.056  30.238  1.00  0.00     0.049 A 
ATOM     36  H   UNL A   1      43.668  26.862  30.131  1.00  0.00     0.167 HD
ATOM     37  C   UNL A   1      45.660  27.931  31.858  1.00  0.00     0.074 A 
ATOM     38  C   UNL A   1      46.301  28.734  32.878  1.00  0.00     0.031 C 
ATOM     39  C   UNL A   1      46.252  26.900  31.212  1.00  0.00     0.034 A 
BRANCH  26  40
ATOM     40  C   UNL A   1      42.648  23.937  27.202  1.00  0.00     0.023 A 
ATOM     41  C   UNL A   1      43.162  24.143  25.907  1.00  0.00     0.012 A 
ATOM     42  C   UNL A   1      42.158  22.670  27.566  1.00  0.00     0.148 A 
ATOM     43  C   UNL A   1      43.191  23.100  24.985  1.00  0.00     0.002 A 
ATOM     44  C   UNL A   1      42.217  21.626  26.651  1.00  0.00     0.091 A 
ATOM     45  F   UNL A   1      41.666  22.507  28.803  1.00  0.00    -0.205 F 
ATOM     46  C   UNL A   1      42.731  21.840  25.360  1.00  0.00     0.022 A 
BRANCH  44  47
ATOM     47  S   UNL A   1      41.702  19.952  27.046  1.00  0.00     0.127 S 
ATOM     48  O   UNL A   1      42.879  19.439  27.747  1.00  0.00    -0.237 OA
ATOM     49  O   UNL A   1      40.537  20.184  27.899  1.00  0.00    -0.237 OA
ATOM     50  O   UNL A   1      41.416  19.305  25.773  1.00  0.00    -0.744 OA
ENDBRANCH  44  47
ENDBRANCH  26  40
BRANCH  27  51
ATOM     51  C   UNL A   1      43.149  31.427  33.789  1.00  0.00     0.023 A 
ATOM     52  C   UNL A   1      43.655  32.680  33.395  1.00  0.00     0.012 A 
ATOM     53  C   UNL A   1      42.638  31.265  35.090  1.00  0.00     0.148 A 
ATOM     54  C   UNL A   1      43.658  33.754  34.286  1.00  0.00     0.002 A 
ATOM     55  C   UNL A   1      42.607  32.350  35.959  1.00  0.00     0.091 A 
ATOM     56  F   UNL A   1      42.163  30.062  35.438  1.00  0.00    -0.205 F 
ATOM     57  C   UNL A   1      43.125  33.593  35.562  1.00  0.00     0.022 A 
BRANCH  55  58
ATOM     58  S   UNL A   1      41.847  32.266  37.585  1.00  0.00     0.127 S 
ATOM     59  O   UNL A   1      40.461  31.949  37.250  1.00  0.00    -0.237 OA
ATOM     60  O   UNL A   1      42.597  31.176  38.210  1.00  0.00    -0.237 OA
ATOM     61  O   UNL A   1      42.061  33.573  38.192  1.00  0.00    -0.744 OA
ENDBRANCH  55  58
ENDBRANCH  27  51
BRANCH  39  62
ATOM     62  C   UNL A   1      47.675  26.556  31.545  1.00  0.00     0.023 A 
ATOM     63  C   UNL A   1      47.933  25.604  32.548  1.00  0.00     0.012 A 
ATOM     64  C   UNL A   1      48.724  27.009  30.721  1.00  0.00     0.148 A 
ATOM     65  C   UNL A   1      49.218  25.094  32.718  1.00  0.00     0.002 A 
ATOM     66  C   UNL A   1      49.995  26.472  30.875  1.00  0.00     0.091 A 
ATOM     67  F   UNL A   1      48.442  27.912  29.770  1.00  0.00    -0.205 F 
ATOM     68  C   UNL A   1      50.244  25.515  31.873  1.00  0.00     0.022 A 
BRANCH  66  69
ATOM     69  S   UNL A   1      51.362  26.885  29.785  1.00  0.00     0.127 S 
ATOM     70  O   UNL A   1      51.496  28.323  30.010  1.00  0.00    -0.237 OA
ATOM     71  O   UNL A   1      52.448  26.076  30.335  1.00  0.00    -0.237 OA
ATOM     72  O   UNL A   1      50.937  26.512  28.442  1.00  0.00    -0.744 OA
ENDBRANCH  66  69
ENDBRANCH  39  62
ENDBRANCH  13  14
ENDBRANCH   6   8
ENDBRANCH   3   4
ENDBRANCH   2   3
ENDBRANCH   1   2
BRANCH   1  73
ATOM     73  C   UNL A   1      31.875  26.321  26.509  1.00  0.00     0.002 C 
BRANCH  73  74
ATOM     74  C   UNL A   1      30.843  25.264  26.117  1.00  0.00     0.021 C 
BRANCH  74  75
ATOM     75  C   UNL A   1      31.399  24.047  25.398  1.00  0.00     0.116 C 
BRANCH  75  76
ATOM     76  N   UNL A   1      31.791  24.314  24.025  1.00  0.00    -0.355 N 
ATOM     77  C   UNL A   1      32.750  23.613  23.325  1.00  0.00     0.236 C 
ATOM     78  H   UNL A   1      31.336  25.053  23.559  1.00  0.00     0.163 HD
ATOM     79  O   UNL A   1      32.762  23.666  22.093  1.00  0.00    -0.274 OA
BRANCH  77  80
ATOM     80  C   UNL A   1      33.772  22.832  24.206  1.00  0.00     0.144 C 
ATOM     81  C   UNL A   1      34.683  24.121  23.945  1.00  0.00     0.253 C 
ATOM     82  C   UNL A   1      34.997  21.823  24.293  1.00  0.00     0.103 C 
ATOM     83  C   UNL A   1      32.957  21.587  23.529  1.00  0.00     0.283 C 
ATOM     84  O   UNL A   1      35.467  24.473  25.106  1.00  0.00    -0.492 OA
ATOM     85  C   UNL A   1      36.277  22.241  24.976  1.00  0.00     0.004 A 
ATOM     86  C   UNL A   1      34.421  20.598  25.025  1.00  0.00     0.272 C 
ATOM     87  N   UNL A   1      33.069  20.532  24.532  1.00  0.00    -0.331 N 
ATOM     88  C   UNL A   1      36.456  23.568  25.328  1.00  0.00     0.123 A 
ATOM     89  C   UNL A   1      37.327  21.338  25.206  1.00  0.00     0.008 A 
ATOM     90  H   UNL A   1      32.409  20.708  25.291  1.00  0.00     0.348 HD
ATOM     91  C   UNL A   1      37.636  24.008  25.921  1.00  0.00     0.047 A 
ATOM     92  C   UNL A   1      38.517  21.768  25.796  1.00  0.00     0.001 A 
ATOM     93  C   UNL A   1      38.674  23.106  26.149  1.00  0.00     0.004 A 
BRANCH  87  94
ATOM     94  C   UNL A   1      32.553  19.210  24.181  1.00  0.00     0.290 C 
BRANCH  94  95
ATOM     95  C   UNL A   1      32.811  18.044  25.152  1.00  0.00     0.217 C 
BRANCH  95  96
ATOM     96  O   UNL A   1      32.541  18.391  26.506  1.00  0.00    -0.391 OA
ATOM     97  H   UNL A   1      31.799  17.858  26.834  1.00  0.00     0.210 HD
ENDBRANCH  95  96
ENDBRANCH  94  95
ENDBRANCH  87  94
ENDBRANCH  77  80
ENDBRANCH  75  76
ENDBRANCH  74  75
ENDBRANCH  73  74
ENDBRANCH   1  73
TORSDOF 19
ENDMDL
MODEL 2
REMARK VINA RESULT:     -11.1      3.001      8.159
REMARK SMILES O=C(NCCCCCCNC(=O)[C@]12COc3ccccc3[C@H]1C[N@H+](CCO)C2)c1ccc(-c2c3nc(c(-c4cccc(S(=O)(=O)[O-])c4F)c4ccc([nH]4)c(-c4cccc(S(=O)(=O)[O-])c4F)c4nc(c(-c5cccc(S(=O)(=O)[O-])c5F)c5ccc2[nH]5)C=C4)C=C3)cc1
REMARK SMILES IDX 6 1 5 2 4 3 3 4 1 5 2 6 29 8 30 9 91 10 31 11 90 12 32 13
REMARK SMILES IDX 33 14 34 15 84 16 35 17 89 18 83 19 85 20 36 21 88 22 82 23
REMARK SMILES IDX 81 24 37 26 69 27 49 28 68 29 50 30 53 31 67 32 86 33 51 34
REMARK SMILES IDX 52 35 66 37 87 38 54 39 38 40 39 41 47 42 40 43 42 44 48 45
REMARK SMILES IDX 41 46 43 47 44 48 45 49 46 50 70 51 71 52 79 53 72 54 74 55
REMARK SMILES IDX 80 56 73 57 75 58 76 59 77 60 78 61 55 62 56 63 64 64 57 65
REMARK SMILES IDX 59 66 65 67 58 68 60 69 61 70 62 71 63 72 7 73 8 74 9 75
REMARK SMILES IDX 10 76 11 77 12 79 13 80 14 81 22 82 28 83 15 84 21 85 23 86
REMARK SMILES IDX 24 87 16 88 20 89 17 91 19 92 18 93 25 94 26 95 27 96
REMARK H PARENT 3 7 85 25 53 36 10 78 24 90 27 97
REMARK Flexibility Score: inf
ROOT
ATOM      1  C   UNL A   1      31.559  27.543  25.670  1.00  0.00     0.002 C 
ENDROOT
BRANCH   1   2
ATOM      2  C   UNL A   1      32.456  28.092  24.563  1.00  0.00     0.021 C 
BRANCH   2   3
ATOM      3  C   UNL A   1      33.471  29.128  25.013  1.00  0.00     0.116 C 
BRANCH   3   4
ATOM      4  N   UNL A   1      32.841  30.316  25.559  1.00  0.00    -0.352 N 
ATOM      5  O   UNL A   1      32.395  31.885  27.110  1.00  0.00    -0.269 OA
ATOM      6  C   UNL A   1      33.147  31.004  26.706  1.00  0.00     0.251 C 
ATOM      7  H   UNL A   1      32.090  30.677  25.035  1.00  0.00     0.163 HD
BRANCH   6   8
ATOM      8  C   UNL A   1      34.376  30.665  27.460  1.00  0.00     0.039 A 
ATOM      9  C   UNL A   1      35.341  31.655  27.651  1.00  0.00     0.014 A 
ATOM     10  C   UNL A   1      34.582  29.378  27.965  1.00  0.00     0.014 A 
ATOM     11  C   UNL A   1      36.501  31.355  28.365  1.00  0.00     0.010 A 
ATOM     12  C   UNL A   1      35.686  29.112  28.767  1.00  0.00     0.010 A 
ATOM     13  C   UNL A   1      36.679  30.085  28.942  1.00  0.00    -0.014 A 
BRANCH  13  14
ATOM     14  C   UNL A   1      37.930  29.746  29.666  1.00  0.00     0.031 A 
ATOM     15  C   UNL A   1      38.150  30.259  31.066  1.00  0.00     0.074 A 
ATOM     16  C   UNL A   1      38.871  28.990  29.066  1.00  0.00     0.049 A 
ATOM     17  N   UNL A   1      39.172  30.063  31.858  1.00  0.00    -0.248 NA
ATOM     18  C   UNL A   1      37.105  31.122  31.650  1.00  0.00     0.031 C 
ATOM     19  C   UNL A   1      38.810  28.498  27.688  1.00  0.00     0.029 A 
ATOM     20  N   UNL A   1      40.065  28.504  29.538  1.00  0.00    -0.354 N 
ATOM     21  C   UNL A   1      38.903  30.790  33.010  1.00  0.00     0.074 A 
ATOM     22  C   UNL A   1      37.649  31.475  32.805  1.00  0.00     0.031 C 
ATOM     23  C   UNL A   1      39.901  27.757  27.436  1.00  0.00     0.029 A 
ATOM     24  C   UNL A   1      40.752  27.742  28.623  1.00  0.00     0.049 A 
ATOM     25  H   UNL A   1      40.397  28.684  30.447  1.00  0.00     0.167 HD
ATOM     26  C   UNL A   1      39.610  30.844  34.160  1.00  0.00     0.034 A 
ATOM     27  C   UNL A   1      41.931  27.097  28.727  1.00  0.00     0.034 A 
ATOM     28  C   UNL A   1      40.815  30.104  34.396  1.00  0.00     0.049 A 
ATOM     29  C   UNL A   1      42.677  27.134  30.031  1.00  0.00     0.074 A 
ATOM     30  C   UNL A   1      41.559  30.036  35.559  1.00  0.00     0.029 A 
ATOM     31  N   UNL A   1      41.442  29.297  33.462  1.00  0.00    -0.354 N 
ATOM     32  N   UNL A   1      42.345  27.738  31.145  1.00  0.00    -0.248 NA
ATOM     33  C   UNL A   1      43.940  26.383  30.109  1.00  0.00     0.031 C 
ATOM     34  C   UNL A   1      42.644  29.191  35.327  1.00  0.00     0.029 A 
ATOM     35  C   UNL A   1      42.565  28.723  34.025  1.00  0.00     0.049 A 
ATOM     36  H   UNL A   1      41.133  29.154  32.538  1.00  0.00     0.167 HD
ATOM     37  C   UNL A   1      43.342  27.426  32.061  1.00  0.00     0.074 A 
ATOM     38  C   UNL A   1      44.289  26.570  31.377  1.00  0.00     0.031 C 
ATOM     39  C   UNL A   1      43.464  27.827  33.348  1.00  0.00     0.034 A 
BRANCH  26  40
ATOM     40  C   UNL A   1      39.058  31.651  35.301  1.00  0.00     0.023 A 
ATOM     41  C   UNL A   1      38.130  31.048  36.173  1.00  0.00     0.012 A 
ATOM     42  C   UNL A   1      39.548  32.939  35.584  1.00  0.00     0.148 A 
ATOM     43  C   UNL A   1      37.696  31.718  37.315  1.00  0.00     0.002 A 
ATOM     44  C   UNL A   1      39.134  33.588  36.740  1.00  0.00     0.091 A 
ATOM     45  F   UNL A   1      40.424  33.490  34.731  1.00  0.00    -0.205 F 
ATOM     46  C   UNL A   1      38.207  32.981  37.605  1.00  0.00     0.022 A 
BRANCH  44  47
ATOM     47  S   UNL A   1      39.768  35.193  37.238  1.00  0.00     0.127 S 
ATOM     48  O   UNL A   1      41.203  34.927  37.331  1.00  0.00    -0.237 OA
ATOM     49  O   UNL A   1      39.375  36.039  36.112  1.00  0.00    -0.237 OA
ATOM     50  O   UNL A   1      39.120  35.510  38.503  1.00  0.00    -0.744 OA
ENDBRANCH  44  47
ENDBRANCH  26  40
BRANCH  27  51
ATOM     51  C   UNL A   1      42.436  26.312  27.567  1.00  0.00     0.023 A 
ATOM     52  C   UNL A   1      43.123  26.969  26.530  1.00  0.00     0.012 A 
ATOM     53  C   UNL A   1      42.306  24.911  27.532  1.00  0.00     0.148 A 
ATOM     54  C   UNL A   1      43.666  26.244  25.469  1.00  0.00     0.002 A 
ATOM     55  C   UNL A   1      42.884  24.190  26.493  1.00  0.00     0.091 A 
ATOM     56  F   UNL A   1      41.647  24.311  28.532  1.00  0.00    -0.205 F 
ATOM     57  C   UNL A   1      43.557  24.855  25.456  1.00  0.00     0.022 A 
BRANCH  55  58
ATOM     58  S   UNL A   1      42.885  22.395  26.444  1.00  0.00     0.127 S 
ATOM     59  O   UNL A   1      42.017  22.127  25.300  1.00  0.00    -0.237 OA
ATOM     60  O   UNL A   1      44.302  22.102  26.226  1.00  0.00    -0.237 OA
ATOM     61  O   UNL A   1      42.370  21.961  27.736  1.00  0.00    -0.744 OA
ENDBRANCH  55  58
ENDBRANCH  27  51
BRANCH  39  62
ATOM     62  C   UNL A   1      44.642  27.351  34.147  1.00  0.00     0.023 A 
ATOM     63  C   UNL A   1      45.763  28.191  34.280  1.00  0.00     0.012 A 
ATOM     64  C   UNL A   1      44.540  26.186  34.933  1.00  0.00     0.148 A 
ATOM     65  C   UNL A   1      46.765  27.883  35.198  1.00  0.00     0.002 A 
ATOM     66  C   UNL A   1      45.527  25.904  35.868  1.00  0.00     0.091 A 
ATOM     67  F   UNL A   1      43.454  25.412  34.786  1.00  0.00    -0.205 F 
ATOM     68  C   UNL A   1      46.640  26.751  36.001  1.00  0.00     0.022 A 
BRANCH  66  69
ATOM     69  S   UNL A   1      45.416  24.520  37.007  1.00  0.00     0.127 S 
ATOM     70  O   UNL A   1      44.379  24.977  37.930  1.00  0.00    -0.237 OA
ATOM     71  O   UNL A   1      45.011  23.427  36.124  1.00  0.00    -0.237 OA
ATOM     72  O   UNL A   1      46.740  24.373  37.598  1.00  0.00    -0.744 OA
ENDBRANCH  66  69
ENDBRANCH  39  62
ENDBRANCH  13  14
ENDBRANCH   6   8
ENDBRANCH   3   4
ENDBRANCH   2   3
ENDBRANCH   1   2
BRANCH   1  73
ATOM     73  C   UNL A   1      32.016  26.234  26.319  1.00  0.00     0.002 C 
BRANCH  73  74
ATOM     74  C   UNL A   1      31.080  25.036  26.154  1.00  0.00     0.021 C 
BRANCH  74  75
ATOM     75  C   UNL A   1      31.712  23.795  25.547  1.00  0.00     0.116 C 
BRANCH  75  76
ATOM     76  N   UNL A   1      32.032  23.940  24.137  1.00  0.00    -0.355 N 
ATOM     77  C   UNL A   1      33.003  23.223  23.470  1.00  0.00     0.236 C 
ATOM     78  H   UNL A   1      31.517  24.600  23.620  1.00  0.00     0.163 HD
ATOM     79  O   UNL A   1      32.963  23.149  22.239  1.00  0.00    -0.274 OA
BRANCH  77  80
ATOM     80  C   UNL A   1      34.105  22.596  24.377  1.00  0.00     0.144 C 
ATOM     81  C   UNL A   1      34.819  24.009  24.153  1.00  0.00     0.253 C 
ATOM     82  C   UNL A   1      35.464  21.781  24.498  1.00  0.00     0.103 C 
ATOM     83  C   UNL A   1      33.507  21.249  23.668  1.00  0.00     0.283 C 
ATOM     84  O   UNL A   1      35.505  24.463  25.340  1.00  0.00    -0.492 OA
ATOM     85  C   UNL A   1      36.646  22.380  25.223  1.00  0.00     0.004 A 
ATOM     86  C   UNL A   1      35.057  20.477  25.205  1.00  0.00     0.272 C 
ATOM     87  N   UNL A   1      33.745  20.213  24.669  1.00  0.00    -0.331 N 
ATOM     88  C   UNL A   1      36.611  23.715  25.588  1.00  0.00     0.123 A 
ATOM     89  C   UNL A   1      37.812  21.643  25.481  1.00  0.00     0.008 A 
ATOM     90  H   UNL A   1      33.045  20.281  25.407  1.00  0.00     0.348 HD
ATOM     91  C   UNL A   1      37.694  24.321  26.220  1.00  0.00     0.047 A 
ATOM     92  C   UNL A   1      38.905  22.240  26.110  1.00  0.00     0.001 A 
ATOM     93  C   UNL A   1      38.848  23.583  26.476  1.00  0.00     0.004 A 
BRANCH  87  94
ATOM     94  C   UNL A   1      33.446  18.832  24.294  1.00  0.00     0.290 C 
BRANCH  94  95
ATOM     95  C   UNL A   1      32.367  18.077  25.091  1.00  0.00     0.217 C 
BRANCH  95  96
ATOM     96  O   UNL A   1      32.548  18.191  26.498  1.00  0.00    -0.391 OA
ATOM     97  H   UNL A   1      32.189  17.402  26.935  1.00  0.00     0.210 HD
ENDBRANCH  95  96
ENDBRANCH  94  95
ENDBRANCH  87  94
ENDBRANCH  77  80
ENDBRANCH  75  76
ENDBRANCH  74  75
ENDBRANCH  73  74
ENDBRANCH   1  73
TORSDOF 19
ENDMDL
MODEL 3
REMARK VINA RESULT:     -11.1      4.456      8.863
REMARK SMILES O=C(NCCCCCCNC(=O)[C@]12COc3ccccc3[C@H]1C[N@H+](CCO)C2)c1ccc(-c2c3nc(c(-c4cccc(S(=O)(=O)[O-])c4F)c4ccc([nH]4)c(-c4cccc(S(=O)(=O)[O-])c4F)c4nc(c(-c5cccc(S(=O)(=O)[O-])c5F)c5ccc2[nH]5)C=C4)C=C3)cc1
REMARK SMILES IDX 6 1 5 2 4 3 3 4 1 5 2 6 29 8 30 9 91 10 31 11 90 12 32 13
REMARK SMILES IDX 33 14 34 15 84 16 35 17 89 18 83 19 85 20 36 21 88 22 82 23
REMARK SMILES IDX 81 24 37 26 69 27 49 28 68 29 50 30 53 31 67 32 86 33 51 34
REMARK SMILES IDX 52 35 66 37 87 38 54 39 38 40 39 41 47 42 40 43 42 44 48 45
REMARK SMILES IDX 41 46 43 47 44 48 45 49 46 50 70 51 71 52 79 53 72 54 74 55
REMARK SMILES IDX 80 56 73 57 75 58 76 59 77 60 78 61 55 62 56 63 64 64 57 65
REMARK SMILES IDX 59 66 65 67 58 68 60 69 61 70 62 71 63 72 7 73 8 74 9 75
REMARK SMILES IDX 10 76 11 77 12 79 13 80 14 81 22 82 28 83 15 84 21 85 23 86
REMARK SMILES IDX 24 87 16 88 20 89 17 91 19 92 18 93 25 94 26 95 27 96
REMARK H PARENT 3 7 85 25 53 36 10 78 24 90 27 97
REMARK Flexibility Score: inf
ROOT
ATOM      1  C   UNL A   1      34.208  24.170  26.102  1.00  0.00     0.002 C 
ENDROOT
BRANCH   1   2
ATOM      2  C   UNL A   1      35.263  23.066  26.099  1.00  0.00     0.021 C 
BRANCH   2   3
ATOM      3  C   UNL A   1      36.654  23.509  25.682  1.00  0.00     0.116 C 
BRANCH   3   4
ATOM      4  N   UNL A   1      37.667  22.520  26.001  1.00  0.00    -0.352 N 
ATOM      5  O   UNL A   1      39.718  21.772  26.545  1.00  0.00    -0.269 OA
ATOM      6  C   UNL A   1      38.929  22.710  26.504  1.00  0.00     0.251 C 
ATOM      7  H   UNL A   1      37.412  21.584  25.833  1.00  0.00     0.163 HD
BRANCH   6   8
ATOM      8  C   UNL A   1      39.338  24.053  26.974  1.00  0.00     0.039 A 
ATOM      9  C   UNL A   1      39.961  24.918  26.075  1.00  0.00     0.014 A 
ATOM     10  C   UNL A   1      39.119  24.453  28.296  1.00  0.00     0.014 A 
ATOM     11  C   UNL A   1      40.346  26.191  26.500  1.00  0.00     0.010 A 
ATOM     12  C   UNL A   1      39.405  25.757  28.686  1.00  0.00     0.010 A 
ATOM     13  C   UNL A   1      40.059  26.627  27.805  1.00  0.00    -0.014 A 
BRANCH  13  14
ATOM     14  C   UNL A   1      40.504  27.963  28.276  1.00  0.00     0.031 A 
ATOM     15  C   UNL A   1      41.966  28.329  28.226  1.00  0.00     0.074 A 
ATOM     16  C   UNL A   1      39.603  28.842  28.758  1.00  0.00     0.049 A 
ATOM     17  N   UNL A   1      42.542  29.446  28.585  1.00  0.00    -0.248 NA
ATOM     18  C   UNL A   1      42.909  27.307  27.735  1.00  0.00     0.031 C 
ATOM     19  C   UNL A   1      38.172  28.578  28.929  1.00  0.00     0.029 A 
ATOM     20  N   UNL A   1      39.755  30.134  29.193  1.00  0.00    -0.354 N 
ATOM     21  C   UNL A   1      43.903  29.252  28.385  1.00  0.00     0.074 A 
ATOM     22  C   UNL A   1      44.080  27.897  27.921  1.00  0.00     0.031 C 
ATOM     23  C   UNL A   1      37.574  29.683  29.404  1.00  0.00     0.029 A 
ATOM     24  C   UNL A   1      38.580  30.724  29.597  1.00  0.00     0.049 A 
ATOM     25  H   UNL A   1      40.624  30.596  29.214  1.00  0.00     0.167 HD
ATOM     26  C   UNL A   1      44.912  30.139  28.524  1.00  0.00     0.034 A 
ATOM     27  C   UNL A   1      38.336  31.965  30.064  1.00  0.00     0.034 A 
ATOM     28  C   UNL A   1      44.730  31.508  28.909  1.00  0.00     0.049 A 
ATOM     29  C   UNL A   1      39.468  32.947  30.166  1.00  0.00     0.074 A 
ATOM     30  C   UNL A   1      45.687  32.501  29.001  1.00  0.00     0.029 A 
ATOM     31  N   UNL A   1      43.516  32.078  29.249  1.00  0.00    -0.354 N 
ATOM     32  N   UNL A   1      40.731  32.773  29.863  1.00  0.00    -0.248 NA
ATOM     33  C   UNL A   1      39.147  34.301  30.645  1.00  0.00     0.031 C 
ATOM     34  C   UNL A   1      45.051  33.675  29.406  1.00  0.00     0.029 A 
ATOM     35  C   UNL A   1      43.698  33.413  29.550  1.00  0.00     0.049 A 
ATOM     36  H   UNL A   1      42.653  31.603  29.273  1.00  0.00     0.167 HD
ATOM     37  C   UNL A   1      41.351  33.995  30.093  1.00  0.00     0.074 A 
ATOM     38  C   UNL A   1      40.325  34.908  30.552  1.00  0.00     0.031 C 
ATOM     39  C   UNL A   1      42.656  34.321  29.948  1.00  0.00     0.034 A 
BRANCH  26  40
ATOM     40  C   UNL A   1      46.304  29.700  28.164  1.00  0.00     0.023 A 
ATOM     41  C   UNL A   1      46.779  29.949  26.862  1.00  0.00     0.012 A 
ATOM     42  C   UNL A   1      47.172  29.169  29.135  1.00  0.00     0.148 A 
ATOM     43  C   UNL A   1      48.104  29.676  26.530  1.00  0.00     0.002 A 
ATOM     44  C   UNL A   1      48.499  28.927  28.806  1.00  0.00     0.091 A 
ATOM     45  F   UNL A   1      46.688  28.934  30.364  1.00  0.00    -0.205 F 
ATOM     46  C   UNL A   1      48.966  29.177  27.504  1.00  0.00     0.022 A 
BRANCH  44  47
ATOM     47  S   UNL A   1      49.708  28.336  29.995  1.00  0.00     0.127 S 
ATOM     48  O   UNL A   1      49.576  29.325  31.065  1.00  0.00    -0.237 OA
ATOM     49  O   UNL A   1      49.190  27.008  30.323  1.00  0.00    -0.237 OA
ATOM     50  O   UNL A   1      50.991  28.345  29.307  1.00  0.00    -0.744 OA
ENDBRANCH  44  47
ENDBRANCH  26  40
BRANCH  27  51
ATOM     51  C   UNL A   1      36.941  32.351  30.408  1.00  0.00     0.023 A 
ATOM     52  C   UNL A   1      36.468  32.153  31.719  1.00  0.00     0.012 A 
ATOM     53  C   UNL A   1      36.112  32.985  29.463  1.00  0.00     0.148 A 
ATOM     54  C   UNL A   1      35.188  32.573  32.081  1.00  0.00     0.002 A 
ATOM     55  C   UNL A   1      34.853  33.437  29.841  1.00  0.00     0.091 A 
ATOM     56  F   UNL A   1      36.587  33.160  28.222  1.00  0.00    -0.205 F 
ATOM     57  C   UNL A   1      34.386  33.224  31.147  1.00  0.00     0.022 A 
BRANCH  55  58
ATOM     58  S   UNL A   1      33.791  34.376  28.738  1.00  0.00     0.127 S 
ATOM     59  O   UNL A   1      33.429  33.369  27.743  1.00  0.00    -0.237 OA
ATOM     60  O   UNL A   1      32.706  34.775  29.635  1.00  0.00    -0.237 OA
ATOM     61  O   UNL A   1      34.605  35.479  28.245  1.00  0.00    -0.744 OA
ENDBRANCH  55  58
ENDBRANCH  27  51
BRANCH  39  62
ATOM     62  C   UNL A   1      43.092  35.724  30.260  1.00  0.00     0.023 A 
ATOM     63  C   UNL A   1      43.685  35.995  31.507  1.00  0.00     0.012 A 
ATOM     64  C   UNL A   1      43.113  36.701  29.245  1.00  0.00     0.148 A 
ATOM     65  C   UNL A   1      44.308  37.220  31.736  1.00  0.00     0.002 A 
ATOM     66  C   UNL A   1      43.764  37.906  29.471  1.00  0.00     0.091 A 
ATOM     67  F   UNL A   1      42.545  36.407  28.067  1.00  0.00    -0.205 F 
ATOM     68  C   UNL A   1      44.361  38.168  30.715  1.00  0.00     0.022 A 
BRANCH  66  69
ATOM     69  S   UNL A   1      43.961  39.155  28.195  1.00  0.00     0.127 S 
ATOM     70  O   UNL A   1      44.694  40.198  28.911  1.00  0.00    -0.237 OA
ATOM     71  O   UNL A   1      44.742  38.443  27.185  1.00  0.00    -0.237 OA
ATOM     72  O   UNL A   1      42.615  39.529  27.780  1.00  0.00    -0.744 OA
ENDBRANCH  66  69
ENDBRANCH  39  62
ENDBRANCH  13  14
ENDBRANCH   6   8
ENDBRANCH   3   4
ENDBRANCH   2   3
ENDBRANCH   1   2
BRANCH   1  73
ATOM     73  C   UNL A   1      32.769  23.725  26.378  1.00  0.00     0.002 C 
BRANCH  73  74
ATOM     74  C   UNL A   1      31.915  23.399  25.152  1.00  0.00     0.021 C 
BRANCH  74  75
ATOM     75  C   UNL A   1      31.341  24.601  24.421  1.00  0.00     0.116 C 
BRANCH  75  76
ATOM     76  N   UNL A   1      32.148  25.032  23.293  1.00  0.00    -0.355 N 
ATOM     77  C   UNL A   1      32.575  26.324  23.074  1.00  0.00     0.236 C 
ATOM     78  H   UNL A   1      32.410  24.348  22.634  1.00  0.00     0.163 HD
ATOM     79  O   UNL A   1      33.527  26.529  22.317  1.00  0.00    -0.274 OA
BRANCH  77  80
ATOM     80  C   UNL A   1      31.752  27.427  23.808  1.00  0.00     0.144 C 
ATOM     81  C   UNL A   1      30.935  27.455  22.433  1.00  0.00     0.253 C 
ATOM     82  C   UNL A   1      31.525  28.967  24.126  1.00  0.00     0.103 C 
ATOM     83  C   UNL A   1      33.208  27.621  24.526  1.00  0.00     0.283 C 
ATOM     84  O   UNL A   1      29.522  27.662  22.648  1.00  0.00    -0.492 OA
ATOM     85  C   UNL A   1      30.198  29.619  23.818  1.00  0.00     0.004 A 
ATOM     86  C   UNL A   1      31.795  29.080  25.637  1.00  0.00     0.272 C 
ATOM     87  N   UNL A   1      32.860  28.134  25.848  1.00  0.00    -0.331 N 
ATOM     88  C   UNL A   1      29.264  28.929  23.063  1.00  0.00     0.123 A 
ATOM     89  C   UNL A   1      29.904  30.933  24.215  1.00  0.00     0.008 A 
ATOM     90  H   UNL A   1      32.537  27.368  26.439  1.00  0.00     0.348 HD
ATOM     91  C   UNL A   1      28.045  29.506  22.718  1.00  0.00     0.047 A 
ATOM     92  C   UNL A   1      28.687  31.522  23.871  1.00  0.00     0.001 A 
ATOM     93  C   UNL A   1      27.757  30.810  23.117  1.00  0.00     0.004 A 
BRANCH  87  94
ATOM     94  C   UNL A   1      33.958  28.551  26.719  1.00  0.00     0.290 C 
BRANCH  94  95
ATOM     95  C   UNL A   1      33.862  29.925  27.406  1.00  0.00     0.217 C 
BRANCH  95  96
ATOM     96  O   UNL A   1      34.790  30.866  26.878  1.00  0.00    -0.391 OA
ATOM     97  H   UNL A   1      35.211  31.349  27.606  1.00  0.00     0.210 HD
ENDBRANCH  95  96
ENDBRANCH  94  95
ENDBRANCH  87  94
ENDBRANCH  77  80
ENDBRANCH  75  76
ENDBRANCH  74  75
ENDBRANCH  73  74
ENDBRANCH   1  73
TORSDOF 19
ENDMDL
