MODEL 1
REMARK VINA RESULT:     -11.2      0.000      0.000
REMARK SMILES C[C@@H]1C[C@@H](C)CN(C(=O)CCn2ccc(C(=O)NCCCCCCNC(=O)c3ccc(-c4c5nc(c(-c6cccc(S(=O)(=O)[O-])c6F)c6ccc([nH]6)c(-c6cccc(S(=O)(=O)[O-])c6F)c6nc(c(-c7cccc(S(=O)(=O)[O-])c7F)c7ccc4[nH]7)C=C6)C=C5)cc3)n2)C1
REMARK SMILES IDX 21 1 20 2 19 3 18 4 16 5 17 6 15 8 12 9 13 10 91 11 14 12
REMARK SMILES IDX 11 13 10 14 8 15 1 16 2 17 3 18 92 19 4 20 7 21 6 22 5 23
REMARK SMILES IDX 9 24 22 25 23 26 24 27 25 28 26 29 27 31 28 32 29 33 90 34
REMARK SMILES IDX 30 35 89 36 31 37 32 38 33 39 83 40 34 41 88 42 82 43 84 44
REMARK SMILES IDX 35 45 87 46 81 47 80 48 36 50 68 51 48 52 67 53 49 54 52 55
REMARK SMILES IDX 66 56 85 57 50 58 51 59 65 61 86 62 53 63 37 64 38 65 46 66
REMARK SMILES IDX 39 67 41 68 47 69 40 70 42 71 43 72 44 73 45 74 69 75 70 76
REMARK SMILES IDX 78 77 71 78 73 79 79 80 72 81 74 82 75 83 76 84 77 85 54 86
REMARK SMILES IDX 55 87 63 88 56 89 58 90 64 91 57 92 59 93 60 94 61 95 62 96
REMARK H PARENT 18 7 25 30 84 49 52 60
REMARK Flexibility Score: inf
ROOT
ATOM      1  C   UNL A   1      37.603  22.647  25.644  1.00  0.00     0.002 C 
ENDROOT
BRANCH   1   2
ATOM      2  C   UNL A   1      36.456  21.756  25.189  1.00  0.00     0.021 C 
BRANCH   2   3
ATOM      3  C   UNL A   1      35.290  21.522  26.143  1.00  0.00     0.116 C 
BRANCH   3   4
ATOM      4  N   UNL A   1      34.368  20.503  25.681  1.00  0.00    -0.351 N 
ATOM      5  C   UNL A   1      33.263  20.588  24.861  1.00  0.00     0.271 C 
ATOM      6  O   UNL A   1      32.758  19.516  24.507  1.00  0.00    -0.267 OA
ATOM      7  H   UNL A   1      34.564  19.596  26.011  1.00  0.00     0.163 HD
BRANCH   5   8
ATOM      8  C   UNL A   1      32.636  21.874  24.479  1.00  0.00     0.150 A 
ATOM      9  N   UNL A   1      31.561  23.712  24.633  1.00  0.00    -0.271 N 
ATOM     10  C   UNL A   1      31.381  23.332  23.334  1.00  0.00     0.109 A 
ATOM     11  N   UNL A   1      32.435  22.928  25.292  1.00  0.00    -0.168 NA
ATOM     12  C   UNL A   1      32.041  22.134  23.206  1.00  0.00     0.056 A 
BRANCH   9  13
ATOM     13  C   UNL A   1      30.923  24.831  25.307  1.00  0.00     0.154 C 
BRANCH  13  14
ATOM     14  C   UNL A   1      31.613  25.245  26.605  1.00  0.00     0.124 C 
BRANCH  14  15
ATOM     15  C   UNL A   1      31.956  26.715  26.585  1.00  0.00     0.224 C 
ATOM     16  C   UNL A   1      31.084  29.366  24.794  1.00  0.00     0.009 C 
ATOM     17  C   UNL A   1      32.591  29.294  24.551  1.00  0.00     0.006 C 
ATOM     18  C   UNL A   1      33.059  28.619  23.245  1.00  0.00     0.010 C 
ATOM     19  C   UNL A   1      33.253  28.609  25.748  1.00  0.00     0.122 C 
ATOM     20  C   UNL A   1      32.998  27.085  23.281  1.00  0.00     0.006 C 
ATOM     21  N   UNL A   1      32.933  27.182  25.726  1.00  0.00    -0.342 N 
ATOM     22  C   UNL A   1      33.536  26.495  24.594  1.00  0.00     0.122 C 
ATOM     23  C   UNL A   1      33.705  26.468  22.073  1.00  0.00     0.009 C 
ATOM     24  O   UNL A   1      31.327  27.445  27.355  1.00  0.00    -0.275 OA
ENDBRANCH  14  15
ENDBRANCH  13  14
ENDBRANCH   9  13
ENDBRANCH   5   8
ENDBRANCH   3   4
ENDBRANCH   2   3
ENDBRANCH   1   2
BRANCH   1  25
ATOM     25  C   UNL A   1      38.873  21.913  26.082  1.00  0.00     0.002 C 
BRANCH  25  26
ATOM     26  C   UNL A   1      39.202  20.611  25.335  1.00  0.00     0.021 C 
BRANCH  26  27
ATOM     27  C   UNL A   1      39.776  19.530  26.229  1.00  0.00     0.116 C 
BRANCH  27  28
ATOM     28  N   UNL A   1      41.121  19.113  25.819  1.00  0.00    -0.352 N 
ATOM     29  C   UNL A   1      42.276  19.865  25.790  1.00  0.00     0.251 C 
ATOM     30  H   UNL A   1      41.211  18.177  25.526  1.00  0.00     0.163 HD
ATOM     31  O   UNL A   1      43.253  19.490  25.131  1.00  0.00    -0.269 OA
BRANCH  29  32
ATOM     32  C   UNL A   1      42.346  21.101  26.584  1.00  0.00     0.039 A 
ATOM     33  C   UNL A   1      42.141  21.130  27.968  1.00  0.00     0.014 A 
ATOM     34  C   UNL A   1      42.595  22.280  25.887  1.00  0.00     0.014 A 
ATOM     35  C   UNL A   1      42.183  22.360  28.623  1.00  0.00     0.010 A 
ATOM     36  C   UNL A   1      42.891  23.424  26.553  1.00  0.00     0.010 A 
ATOM     37  C   UNL A   1      42.536  23.497  27.888  1.00  0.00    -0.014 A 
BRANCH  37  38
ATOM     38  C   UNL A   1      42.590  24.833  28.444  1.00  0.00     0.031 A 
ATOM     39  C   UNL A   1      41.356  25.614  28.205  1.00  0.00     0.074 A 
ATOM     40  C   UNL A   1      43.532  25.149  29.363  1.00  0.00     0.049 A 
ATOM     41  N   UNL A   1      41.217  26.629  27.420  1.00  0.00    -0.248 NA
ATOM     42  C   UNL A   1      40.083  25.083  28.721  1.00  0.00     0.031 C 
ATOM     43  C   UNL A   1      44.577  24.281  29.931  1.00  0.00     0.029 A 
ATOM     44  N   UNL A   1      43.642  26.267  30.124  1.00  0.00    -0.354 N 
ATOM     45  C   UNL A   1      39.888  27.022  27.567  1.00  0.00     0.074 A 
ATOM     46  C   UNL A   1      39.205  25.885  28.116  1.00  0.00     0.031 C 
ATOM     47  C   UNL A   1      45.023  24.811  31.092  1.00  0.00     0.029 A 
ATOM     48  C   UNL A   1      44.399  26.109  31.284  1.00  0.00     0.049 A 
ATOM     49  H   UNL A   1      43.221  27.121  29.876  1.00  0.00     0.167 HD
ATOM     50  C   UNL A   1      39.540  28.339  27.528  1.00  0.00     0.034 A 
ATOM     51  C   UNL A   1      44.435  26.955  32.348  1.00  0.00     0.034 A 
ATOM     52  C   UNL A   1      40.654  29.139  27.066  1.00  0.00     0.049 A 
ATOM     53  C   UNL A   1      43.894  28.254  31.879  1.00  0.00     0.074 A 
ATOM     54  C   UNL A   1      41.438  29.157  25.930  1.00  0.00     0.029 A 
ATOM     55  N   UNL A   1      41.370  29.807  28.035  1.00  0.00    -0.354 N 
ATOM     56  N   UNL A   1      44.501  28.997  30.996  1.00  0.00    -0.248 NA
ATOM     57  C   UNL A   1      42.461  28.476  32.010  1.00  0.00     0.031 C 
ATOM     58  C   UNL A   1      42.760  29.397  26.405  1.00  0.00     0.029 A 
ATOM     59  C   UNL A   1      42.701  29.610  27.783  1.00  0.00     0.049 A 
ATOM     60  H   UNL A   1      40.992  30.332  28.776  1.00  0.00     0.167 HD
ATOM     61  C   UNL A   1      43.484  29.407  30.143  1.00  0.00     0.074 A 
ATOM     62  C   UNL A   1      42.242  29.153  30.878  1.00  0.00     0.031 C 
ATOM     63  C   UNL A   1      43.718  29.597  28.812  1.00  0.00     0.034 A 
BRANCH  50  64
ATOM     64  C   UNL A   1      38.387  28.985  28.274  1.00  0.00     0.023 A 
ATOM     65  C   UNL A   1      37.497  29.762  27.494  1.00  0.00     0.012 A 
ATOM     66  C   UNL A   1      38.271  29.115  29.677  1.00  0.00     0.148 A 
ATOM     67  C   UNL A   1      36.624  30.690  28.068  1.00  0.00     0.002 A 
ATOM     68  C   UNL A   1      37.356  29.993  30.248  1.00  0.00     0.091 A 
ATOM     69  F   UNL A   1      39.114  28.482  30.492  1.00  0.00    -0.205 F 
ATOM     70  C   UNL A   1      36.557  30.810  29.448  1.00  0.00     0.022 A 
BRANCH  68  71
ATOM     71  S   UNL A   1      37.199  30.166  32.033  1.00  0.00     0.127 S 
ATOM     72  O   UNL A   1      38.431  30.876  32.365  1.00  0.00    -0.237 OA
ATOM     73  O   UNL A   1      35.975  30.960  32.149  1.00  0.00    -0.237 OA
ATOM     74  O   UNL A   1      37.082  28.811  32.555  1.00  0.00    -0.744 OA
ENDBRANCH  68  71
ENDBRANCH  50  64
BRANCH  51  75
ATOM     75  C   UNL A   1      44.655  26.680  33.791  1.00  0.00     0.023 A 
ATOM     76  C   UNL A   1      45.915  26.909  34.383  1.00  0.00     0.012 A 
ATOM     77  C   UNL A   1      43.566  26.450  34.652  1.00  0.00     0.148 A 
ATOM     78  C   UNL A   1      46.075  26.938  35.778  1.00  0.00     0.002 A 
ATOM     79  C   UNL A   1      43.738  26.454  36.034  1.00  0.00     0.091 A 
ATOM     80  F   UNL A   1      42.341  26.330  34.124  1.00  0.00    -0.205 F 
ATOM     81  C   UNL A   1      44.983  26.718  36.606  1.00  0.00     0.022 A 
BRANCH  79  82
ATOM     82  S   UNL A   1      42.378  26.181  37.150  1.00  0.00     0.127 S 
ATOM     83  O   UNL A   1      42.986  26.366  38.467  1.00  0.00    -0.237 OA
ATOM     84  O   UNL A   1      41.446  27.235  36.758  1.00  0.00    -0.237 OA
ATOM     85  O   UNL A   1      41.950  24.818  36.888  1.00  0.00    -0.744 OA
ENDBRANCH  79  82
ENDBRANCH  51  75
BRANCH  63  86
ATOM     86  C   UNL A   1      45.146  29.543  28.322  1.00  0.00     0.023 A 
ATOM     87  C   UNL A   1      46.054  30.609  28.502  1.00  0.00     0.012 A 
ATOM     88  C   UNL A   1      45.634  28.311  27.868  1.00  0.00     0.148 A 
ATOM     89  C   UNL A   1      47.415  30.451  28.227  1.00  0.00     0.002 A 
ATOM     90  C   UNL A   1      46.994  28.141  27.643  1.00  0.00     0.091 A 
ATOM     91  F   UNL A   1      44.759  27.307  27.703  1.00  0.00    -0.205 F 
ATOM     92  C   UNL A   1      47.888  29.209  27.813  1.00  0.00     0.022 A 
BRANCH  90  93
ATOM     93  S   UNL A   1      47.676  26.530  27.250  1.00  0.00     0.127 S 
ATOM     94  O   UNL A   1      46.816  26.097  26.150  1.00  0.00    -0.237 OA
ATOM     95  O   UNL A   1      49.049  26.854  26.864  1.00  0.00    -0.237 OA
ATOM     96  O   UNL A   1      47.574  25.742  28.474  1.00  0.00    -0.744 OA
ENDBRANCH  90  93
ENDBRANCH  63  86
ENDBRANCH  37  38
ENDBRANCH  29  32
ENDBRANCH  27  28
ENDBRANCH  26  27
ENDBRANCH  25  26
ENDBRANCH   1  25
TORSDOF 19
ENDMDL
MODEL 2
REMARK VINA RESULT:     -10.8      3.122      6.831
REMARK SMILES C[C@@H]1C[C@@H](C)CN(C(=O)CCn2ccc(C(=O)NCCCCCCNC(=O)c3ccc(-c4c5nc(c(-c6cccc(S(=O)(=O)[O-])c6F)c6ccc([nH]6)c(-c6cccc(S(=O)(=O)[O-])c6F)c6nc(c(-c7cccc(S(=O)(=O)[O-])c7F)c7ccc4[nH]7)C=C6)C=C5)cc3)n2)C1
REMARK SMILES IDX 21 1 20 2 19 3 18 4 16 5 17 6 15 8 12 9 13 10 91 11 14 12
REMARK SMILES IDX 11 13 10 14 8 15 1 16 2 17 3 18 92 19 4 20 7 21 6 22 5 23
REMARK SMILES IDX 9 24 22 25 23 26 24 27 25 28 26 29 27 31 28 32 29 33 90 34
REMARK SMILES IDX 30 35 89 36 31 37 32 38 33 39 83 40 34 41 88 42 82 43 84 44
REMARK SMILES IDX 35 45 87 46 81 47 80 48 36 50 68 51 48 52 67 53 49 54 52 55
REMARK SMILES IDX 66 56 85 57 50 58 51 59 65 61 86 62 53 63 37 64 38 65 46 66
REMARK SMILES IDX 39 67 41 68 47 69 40 70 42 71 43 72 44 73 45 74 69 75 70 76
REMARK SMILES IDX 78 77 71 78 73 79 79 80 72 81 74 82 75 83 76 84 77 85 54 86
REMARK SMILES IDX 55 87 63 88 56 89 58 90 64 91 57 92 59 93 60 94 61 95 62 96
REMARK H PARENT 18 7 25 30 84 49 52 60
REMARK Flexibility Score: inf
ROOT
ATOM      1  C   UNL A   1      38.211  23.600  25.715  1.00  0.00     0.002 C 
ENDROOT
BRANCH   1   2
ATOM      2  C   UNL A   1      36.688  23.576  25.678  1.00  0.00     0.021 C 
BRANCH   2   3
ATOM      3  C   UNL A   1      35.973  22.250  25.910  1.00  0.00     0.116 C 
BRANCH   3   4
ATOM      4  N   UNL A   1      35.075  22.275  27.048  1.00  0.00    -0.351 N 
ATOM      5  C   UNL A   1      33.703  22.387  27.115  1.00  0.00     0.271 C 
ATOM      6  O   UNL A   1      33.191  22.216  28.228  1.00  0.00    -0.267 OA
ATOM      7  H   UNL A   1      35.523  22.200  27.922  1.00  0.00     0.163 HD
BRANCH   5   8
ATOM      8  C   UNL A   1      32.865  22.777  25.957  1.00  0.00     0.150 A 
ATOM      9  N   UNL A   1      31.943  23.984  24.458  1.00  0.00    -0.271 N 
ATOM     10  C   UNL A   1      31.057  22.963  24.650  1.00  0.00     0.109 A 
ATOM     11  N   UNL A   1      33.099  23.807  25.124  1.00  0.00    -0.168 NA
ATOM     12  C   UNL A   1      31.610  22.176  25.632  1.00  0.00     0.056 A 
BRANCH   9  13
ATOM     13  C   UNL A   1      31.739  25.167  23.638  1.00  0.00     0.154 C 
BRANCH  13  14
ATOM     14  C   UNL A   1      33.034  25.868  23.232  1.00  0.00     0.124 C 
BRANCH  14  15
ATOM     15  C   UNL A   1      33.299  27.062  24.116  1.00  0.00     0.224 C 
ATOM     16  C   UNL A   1      31.697  28.666  26.537  1.00  0.00     0.009 C 
ATOM     17  C   UNL A   1      31.866  29.758  25.483  1.00  0.00     0.006 C 
ATOM     18  C   UNL A   1      30.660  30.035  24.561  1.00  0.00     0.010 C 
ATOM     19  C   UNL A   1      33.098  29.442  24.634  1.00  0.00     0.122 C 
ATOM     20  C   UNL A   1      30.479  28.994  23.445  1.00  0.00     0.006 C 
ATOM     21  N   UNL A   1      32.805  28.303  23.763  1.00  0.00    -0.342 N 
ATOM     22  C   UNL A   1      31.801  28.617  22.758  1.00  0.00     0.122 C 
ATOM     23  C   UNL A   1      29.438  29.449  22.419  1.00  0.00     0.009 C 
ATOM     24  O   UNL A   1      33.957  26.862  25.140  1.00  0.00    -0.275 OA
ENDBRANCH  14  15
ENDBRANCH  13  14
ENDBRANCH   9  13
ENDBRANCH   5   8
ENDBRANCH   3   4
ENDBRANCH   2   3
ENDBRANCH   1   2
BRANCH   1  25
ATOM     25  C   UNL A   1      38.859  22.673  26.746  1.00  0.00     0.002 C 
BRANCH  25  26
ATOM     26  C   UNL A   1      39.797  21.587  26.195  1.00  0.00     0.021 C 
BRANCH  26  27
ATOM     27  C   UNL A   1      41.199  21.652  26.768  1.00  0.00     0.116 C 
BRANCH  27  28
ATOM     28  N   UNL A   1      42.217  21.902  25.742  1.00  0.00    -0.352 N 
ATOM     29  C   UNL A   1      42.663  23.114  25.259  1.00  0.00     0.251 C 
ATOM     30  H   UNL A   1      42.635  21.102  25.348  1.00  0.00     0.163 HD
ATOM     31  O   UNL A   1      43.280  23.174  24.188  1.00  0.00    -0.269 OA
BRANCH  29  32
ATOM     32  C   UNL A   1      42.431  24.330  26.052  1.00  0.00     0.039 A 
ATOM     33  C   UNL A   1      41.417  25.250  25.757  1.00  0.00     0.014 A 
ATOM     34  C   UNL A   1      43.301  24.561  27.114  1.00  0.00     0.014 A 
ATOM     35  C   UNL A   1      41.308  26.397  26.542  1.00  0.00     0.010 A 
ATOM     36  C   UNL A   1      43.032  25.531  28.023  1.00  0.00     0.010 A 
ATOM     37  C   UNL A   1      42.146  26.526  27.656  1.00  0.00    -0.014 A 
BRANCH  37  38
ATOM     38  C   UNL A   1      42.149  27.678  28.533  1.00  0.00     0.031 A 
ATOM     39  C   UNL A   1      43.125  28.714  28.131  1.00  0.00     0.074 A 
ATOM     40  C   UNL A   1      41.119  27.884  29.388  1.00  0.00     0.049 A 
ATOM     41  N   UNL A   1      44.215  29.037  28.742  1.00  0.00    -0.248 NA
ATOM     42  C   UNL A   1      42.998  29.310  26.789  1.00  0.00     0.031 C 
ATOM     43  C   UNL A   1      39.909  27.066  29.569  1.00  0.00     0.029 A 
ATOM     44  N   UNL A   1      40.848  28.972  30.151  1.00  0.00    -0.354 N 
ATOM     45  C   UNL A   1      44.761  30.074  27.989  1.00  0.00     0.074 A 
ATOM     46  C   UNL A   1      44.150  29.976  26.693  1.00  0.00     0.031 C 
ATOM     47  C   UNL A   1      38.951  27.804  30.174  1.00  0.00     0.029 A 
ATOM     48  C   UNL A   1      39.514  29.092  30.541  1.00  0.00     0.049 A 
ATOM     49  H   UNL A   1      41.538  29.625  30.410  1.00  0.00     0.167 HD
ATOM     50  C   UNL A   1      45.417  31.105  28.590  1.00  0.00     0.034 A 
ATOM     51  C   UNL A   1      38.917  30.203  31.049  1.00  0.00     0.034 A 
ATOM     52  C   UNL A   1      45.660  30.801  29.984  1.00  0.00     0.049 A 
ATOM     53  C   UNL A   1      40.004  31.093  31.523  1.00  0.00     0.074 A 
ATOM     54  C   UNL A   1      46.313  29.792  30.663  1.00  0.00     0.029 A 
ATOM     55  N   UNL A   1      44.808  31.385  30.895  1.00  0.00    -0.354 N 
ATOM     56  N   UNL A   1      40.781  30.792  32.526  1.00  0.00    -0.248 NA
ATOM     57  C   UNL A   1      40.541  32.064  30.580  1.00  0.00     0.031 C 
ATOM     58  C   UNL A   1      45.480  29.509  31.784  1.00  0.00     0.029 A 
ATOM     59  C   UNL A   1      44.422  30.421  31.786  1.00  0.00     0.049 A 
ATOM     60  H   UNL A   1      44.527  32.328  30.904  1.00  0.00     0.167 HD
ATOM     61  C   UNL A   1      42.051  31.140  32.085  1.00  0.00     0.074 A 
ATOM     62  C   UNL A   1      41.831  32.019  30.933  1.00  0.00     0.031 C 
ATOM     63  C   UNL A   1      43.150  30.429  32.475  1.00  0.00     0.034 A 
BRANCH  50  64
ATOM     64  C   UNL A   1      45.482  32.539  28.095  1.00  0.00     0.023 A 
ATOM     65  C   UNL A   1      46.763  33.142  28.101  1.00  0.00     0.012 A 
ATOM     66  C   UNL A   1      44.381  33.402  27.893  1.00  0.00     0.148 A 
ATOM     67  C   UNL A   1      46.930  34.528  28.023  1.00  0.00     0.002 A 
ATOM     68  C   UNL A   1      44.555  34.774  27.751  1.00  0.00     0.091 A 
ATOM     69  F   UNL A   1      43.133  32.938  27.945  1.00  0.00    -0.205 F 
ATOM     70  C   UNL A   1      45.824  35.347  27.854  1.00  0.00     0.022 A 
BRANCH  68  71
ATOM     71  S   UNL A   1      43.161  35.883  27.493  1.00  0.00     0.127 S 
ATOM     72  O   UNL A   1      43.824  37.184  27.476  1.00  0.00    -0.237 OA
ATOM     73  O   UNL A   1      42.654  35.428  26.198  1.00  0.00    -0.237 OA
ATOM     74  O   UNL A   1      42.253  35.644  28.606  1.00  0.00    -0.744 OA
ENDBRANCH  68  71
ENDBRANCH  50  64
BRANCH  51  75
ATOM     75  C   UNL A   1      37.514  30.679  30.938  1.00  0.00     0.023 A 
ATOM     76  C   UNL A   1      36.787  31.051  32.089  1.00  0.00     0.012 A 
ATOM     77  C   UNL A   1      36.972  31.029  29.688  1.00  0.00     0.148 A 
ATOM     78  C   UNL A   1      35.584  31.770  31.995  1.00  0.00     0.002 A 
ATOM     79  C   UNL A   1      35.764  31.717  29.602  1.00  0.00     0.091 A 
ATOM     80  F   UNL A   1      37.687  30.779  28.583  1.00  0.00    -0.205 F 
ATOM     81  C   UNL A   1      35.075  32.110  30.750  1.00  0.00     0.022 A 
BRANCH  79  82
ATOM     82  S   UNL A   1      35.060  32.186  28.036  1.00  0.00     0.127 S 
ATOM     83  O   UNL A   1      33.756  32.735  28.409  1.00  0.00    -0.237 OA
ATOM     84  O   UNL A   1      36.020  33.175  27.554  1.00  0.00    -0.237 OA
ATOM     85  O   UNL A   1      34.980  30.949  27.279  1.00  0.00    -0.744 OA
ENDBRANCH  79  82
ENDBRANCH  51  75
BRANCH  63  86
ATOM     86  C   UNL A   1      42.978  29.380  33.548  1.00  0.00     0.023 A 
ATOM     87  C   UNL A   1      42.487  28.085  33.276  1.00  0.00     0.012 A 
ATOM     88  C   UNL A   1      43.526  29.642  34.811  1.00  0.00     0.148 A 
ATOM     89  C   UNL A   1      42.534  27.078  34.245  1.00  0.00     0.002 A 
ATOM     90  C   UNL A   1      43.619  28.627  35.754  1.00  0.00     0.091 A 
ATOM     91  F   UNL A   1      43.990  30.878  35.054  1.00  0.00    -0.205 F 
ATOM     92  C   UNL A   1      43.117  27.345  35.480  1.00  0.00     0.022 A 
BRANCH  90  93
ATOM     93  S   UNL A   1      44.487  28.875  37.303  1.00  0.00     0.127 S 
ATOM     94  O   UNL A   1      44.259  27.603  37.986  1.00  0.00    -0.237 OA
ATOM     95  O   UNL A   1      45.865  29.095  36.861  1.00  0.00    -0.237 OA
ATOM     96  O   UNL A   1      43.871  30.041  37.926  1.00  0.00    -0.744 OA
ENDBRANCH  90  93
ENDBRANCH  63  86
ENDBRANCH  37  38
ENDBRANCH  29  32
ENDBRANCH  27  28
ENDBRANCH  26  27
ENDBRANCH  25  26
ENDBRANCH   1  25
TORSDOF 19
ENDMDL
MODEL 3
REMARK VINA RESULT:     -10.7      2.814      8.426
REMARK SMILES C[C@@H]1C[C@@H](C)CN(C(=O)CCn2ccc(C(=O)NCCCCCCNC(=O)c3ccc(-c4c5nc(c(-c6cccc(S(=O)(=O)[O-])c6F)c6ccc([nH]6)c(-c6cccc(S(=O)(=O)[O-])c6F)c6nc(c(-c7cccc(S(=O)(=O)[O-])c7F)c7ccc4[nH]7)C=C6)C=C5)cc3)n2)C1
REMARK SMILES IDX 21 1 20 2 19 3 18 4 16 5 17 6 15 8 12 9 13 10 91 11 14 12
REMARK SMILES IDX 11 13 10 14 8 15 1 16 2 17 3 18 92 19 4 20 7 21 6 22 5 23
REMARK SMILES IDX 9 24 22 25 23 26 24 27 25 28 26 29 27 31 28 32 29 33 90 34
REMARK SMILES IDX 30 35 89 36 31 37 32 38 33 39 83 40 34 41 88 42 82 43 84 44
REMARK SMILES IDX 35 45 87 46 81 47 80 48 36 50 68 51 48 52 67 53 49 54 52 55
REMARK SMILES IDX 66 56 85 57 50 58 51 59 65 61 86 62 53 63 37 64 38 65 46 66
REMARK SMILES IDX 39 67 41 68 47 69 40 70 42 71 43 72 44 73 45 74 69 75 70 76
REMARK SMILES IDX 78 77 71 78 73 79 79 80 72 81 74 82 75 83 76 84 77 85 54 86
REMARK SMILES IDX 55 87 63 88 56 89 58 90 64 91 57 92 59 93 60 94 61 95 62 96
REMARK H PARENT 18 7 25 30 84 49 52 60
REMARK Flexibility Score: inf
ROOT
ATOM      1  C   UNL A   1      36.558  29.714  27.836  1.00  0.00     0.002 C 
ENDROOT
BRANCH   1   2
ATOM      2  C   UNL A   1      35.078  29.983  27.603  1.00  0.00     0.021 C 
BRANCH   2   3
ATOM      3  C   UNL A   1      34.241  28.911  26.912  1.00  0.00     0.116 C 
BRANCH   3   4
ATOM      4  N   UNL A   1      33.016  28.597  27.620  1.00  0.00    -0.351 N 
ATOM      5  C   UNL A   1      31.788  28.172  27.160  1.00  0.00     0.271 C 
ATOM      6  O   UNL A   1      30.969  27.825  28.019  1.00  0.00    -0.267 OA
ATOM      7  H   UNL A   1      33.071  28.706  28.598  1.00  0.00     0.163 HD
BRANCH   5   8
ATOM      8  C   UNL A   1      31.406  28.202  25.729  1.00  0.00     0.150 A 
ATOM      9  N   UNL A   1      31.158  27.587  23.700  1.00  0.00    -0.271 N 
ATOM     10  C   UNL A   1      31.226  28.949  23.626  1.00  0.00     0.109 A 
ATOM     11  N   UNL A   1      31.113  27.133  24.966  1.00  0.00    -0.168 NA
ATOM     12  C   UNL A   1      31.412  29.378  24.918  1.00  0.00     0.056 A 
BRANCH   9  13
ATOM     13  C   UNL A   1      31.129  26.657  22.583  1.00  0.00     0.154 C 
BRANCH  13  14
ATOM     14  C   UNL A   1      32.292  25.667  22.573  1.00  0.00     0.124 C 
BRANCH  14  15
ATOM     15  C   UNL A   1      31.802  24.261  22.818  1.00  0.00     0.224 C 
ATOM     16  C   UNL A   1      31.766  22.134  25.363  1.00  0.00     0.009 C 
ATOM     17  C   UNL A   1      32.578  21.373  24.317  1.00  0.00     0.006 C 
ATOM     18  C   UNL A   1      34.114  21.431  24.444  1.00  0.00     0.010 C 
ATOM     19  C   UNL A   1      32.160  21.846  22.924  1.00  0.00     0.122 C 
ATOM     20  C   UNL A   1      34.729  22.750  23.952  1.00  0.00     0.006 C 
ATOM     21  N   UNL A   1      32.675  23.196  22.698  1.00  0.00    -0.342 N 
ATOM     22  C   UNL A   1      34.127  23.231  22.622  1.00  0.00     0.122 C 
ATOM     23  C   UNL A   1      36.254  22.658  23.862  1.00  0.00     0.009 C 
ATOM     24  O   UNL A   1      30.615  24.130  23.126  1.00  0.00    -0.275 OA
ENDBRANCH  14  15
ENDBRANCH  13  14
ENDBRANCH   9  13
ENDBRANCH   5   8
ENDBRANCH   3   4
ENDBRANCH   2   3
ENDBRANCH   1   2
BRANCH   1  25
ATOM     25  C   UNL A   1      37.428  30.955  28.043  1.00  0.00     0.002 C 
BRANCH  25  26
ATOM     26  C   UNL A   1      36.692  32.252  28.413  1.00  0.00     0.021 C 
BRANCH  26  27
ATOM     27  C   UNL A   1      37.349  33.019  29.544  1.00  0.00     0.116 C 
BRANCH  27  28
ATOM     28  N   UNL A   1      36.673  32.819  30.830  1.00  0.00    -0.352 N 
ATOM     29  C   UNL A   1      36.759  31.737  31.680  1.00  0.00     0.251 C 
ATOM     30  H   UNL A   1      36.083  33.550  31.124  1.00  0.00     0.163 HD
ATOM     31  O   UNL A   1      35.906  31.559  32.558  1.00  0.00    -0.269 OA
BRANCH  29  32
ATOM     32  C   UNL A   1      37.900  30.817  31.556  1.00  0.00     0.039 A 
ATOM     33  C   UNL A   1      37.750  29.443  31.329  1.00  0.00     0.014 A 
ATOM     34  C   UNL A   1      39.168  31.368  31.712  1.00  0.00     0.014 A 
ATOM     35  C   UNL A   1      38.893  28.648  31.273  1.00  0.00     0.010 A 
ATOM     36  C   UNL A   1      40.274  30.646  31.401  1.00  0.00     0.010 A 
ATOM     37  C   UNL A   1      40.145  29.271  31.337  1.00  0.00    -0.014 A 
BRANCH  37  38
ATOM     38  C   UNL A   1      41.404  28.556  31.315  1.00  0.00     0.031 A 
ATOM     39  C   UNL A   1      41.961  28.317  32.665  1.00  0.00     0.074 A 
ATOM     40  C   UNL A   1      41.796  27.903  30.196  1.00  0.00     0.049 A 
ATOM     41  N   UNL A   1      43.006  28.867  33.185  1.00  0.00    -0.248 NA
ATOM     42  C   UNL A   1      41.152  27.550  33.628  1.00  0.00     0.031 C 
ATOM     43  C   UNL A   1      41.085  27.791  28.912  1.00  0.00     0.029 A 
ATOM     44  N   UNL A   1      42.832  27.043  30.027  1.00  0.00    -0.354 N 
ATOM     45  C   UNL A   1      43.128  28.294  34.449  1.00  0.00     0.074 A 
ATOM     46  C   UNL A   1      41.833  27.754  34.757  1.00  0.00     0.031 C 
ATOM     47  C   UNL A   1      41.569  26.736  28.218  1.00  0.00     0.029 A 
ATOM     48  C   UNL A   1      42.702  26.181  28.939  1.00  0.00     0.049 A 
ATOM     49  H   UNL A   1      43.613  27.030  30.626  1.00  0.00     0.167 HD
ATOM     50  C   UNL A   1      44.353  28.033  34.984  1.00  0.00     0.034 A 
ATOM     51  C   UNL A   1      43.427  25.055  28.709  1.00  0.00     0.034 A 
ATOM     52  C   UNL A   1      45.390  28.662  34.194  1.00  0.00     0.049 A 
ATOM     53  C   UNL A   1      44.643  25.149  29.553  1.00  0.00     0.074 A 
ATOM     54  C   UNL A   1      45.669  29.957  33.804  1.00  0.00     0.029 A 
ATOM     55  N   UNL A   1      46.078  27.845  33.326  1.00  0.00    -0.354 N 
ATOM     56  N   UNL A   1      45.572  26.044  29.359  1.00  0.00    -0.248 NA
ATOM     57  C   UNL A   1      44.579  24.588  30.894  1.00  0.00     0.031 C 
ATOM     58  C   UNL A   1      46.103  29.843  32.451  1.00  0.00     0.029 A 
ATOM     59  C   UNL A   1      46.160  28.488  32.120  1.00  0.00     0.049 A 
ATOM     60  H   UNL A   1      46.446  26.956  33.534  1.00  0.00     0.167 HD
ATOM     61  C   UNL A   1      45.868  26.503  30.636  1.00  0.00     0.074 A 
ATOM     62  C   UNL A   1      45.314  25.496  31.545  1.00  0.00     0.031 C 
ATOM     63  C   UNL A   1      46.233  27.802  30.849  1.00  0.00     0.034 A 
BRANCH  50  64
ATOM     64  C   UNL A   1      44.694  26.903  35.938  1.00  0.00     0.023 A 
ATOM     65  C   UNL A   1      45.233  27.286  37.190  1.00  0.00     0.012 A 
ATOM     66  C   UNL A   1      44.784  25.532  35.607  1.00  0.00     0.148 A 
ATOM     67  C   UNL A   1      45.916  26.384  38.010  1.00  0.00     0.002 A 
ATOM     68  C   UNL A   1      45.409  24.623  36.455  1.00  0.00     0.091 A 
ATOM     69  F   UNL A   1      44.373  25.089  34.420  1.00  0.00    -0.205 F 
ATOM     70  C   UNL A   1      46.010  25.051  37.640  1.00  0.00     0.022 A 
BRANCH  68  71
ATOM     71  S   UNL A   1      45.530  22.875  36.045  1.00  0.00     0.127 S 
ATOM     72  O   UNL A   1      45.944  22.305  37.324  1.00  0.00    -0.237 OA
ATOM     73  O   UNL A   1      44.156  22.567  35.645  1.00  0.00    -0.237 OA
ATOM     74  O   UNL A   1      46.500  22.788  34.963  1.00  0.00    -0.744 OA
ENDBRANCH  68  71
ENDBRANCH  50  64
BRANCH  51  75
ATOM     75  C   UNL A   1      43.053  23.791  28.023  1.00  0.00     0.023 A 
ATOM     76  C   UNL A   1      41.763  23.242  28.181  1.00  0.00     0.012 A 
ATOM     77  C   UNL A   1      43.861  23.263  26.999  1.00  0.00     0.148 A 
ATOM     78  C   UNL A   1      41.288  22.228  27.332  1.00  0.00     0.002 A 
ATOM     79  C   UNL A   1      43.394  22.240  26.179  1.00  0.00     0.091 A 
ATOM     80  F   UNL A   1      45.050  23.832  26.760  1.00  0.00    -0.205 F 
ATOM     81  C   UNL A   1      42.103  21.731  26.324  1.00  0.00     0.022 A 
BRANCH  79  82
ATOM     82  S   UNL A   1      44.387  21.561  24.867  1.00  0.00     0.127 S 
ATOM     83  O   UNL A   1      43.772  20.255  24.627  1.00  0.00    -0.237 OA
ATOM     84  O   UNL A   1      44.185  22.534  23.797  1.00  0.00    -0.237 OA
ATOM     85  O   UNL A   1      45.729  21.484  25.418  1.00  0.00    -0.744 OA
ENDBRANCH  79  82
ENDBRANCH  51  75
BRANCH  63  86
ATOM     86  C   UNL A   1      46.497  28.676  29.645  1.00  0.00     0.023 A 
ATOM     87  C   UNL A   1      47.669  28.568  28.867  1.00  0.00     0.012 A 
ATOM     88  C   UNL A   1      45.442  29.467  29.170  1.00  0.00     0.148 A 
ATOM     89  C   UNL A   1      47.790  29.240  27.648  1.00  0.00     0.002 A 
ATOM     90  C   UNL A   1      45.544  30.093  27.935  1.00  0.00     0.091 A 
ATOM     91  F   UNL A   1      44.333  29.559  29.920  1.00  0.00    -0.205 F 
ATOM     92  C   UNL A   1      46.718  29.991  27.173  1.00  0.00     0.022 A 
BRANCH  90  93
ATOM     93  S   UNL A   1      44.146  30.951  27.210  1.00  0.00     0.127 S 
ATOM     94  O   UNL A   1      43.194  29.861  27.007  1.00  0.00    -0.237 OA
ATOM     95  O   UNL A   1      43.778  31.900  28.262  1.00  0.00    -0.237 OA
ATOM     96  O   UNL A   1      44.649  31.580  25.994  1.00  0.00    -0.744 OA
ENDBRANCH  90  93
ENDBRANCH  63  86
ENDBRANCH  37  38
ENDBRANCH  29  32
ENDBRANCH  27  28
ENDBRANCH  26  27
ENDBRANCH  25  26
ENDBRANCH   1  25
TORSDOF 19
ENDMDL
