MODEL 1
REMARK VINA RESULT:     -11.5      0.000      0.000
REMARK SMILES COc1cc(OC)cc(-c2cc3nc(C)c(CCC(=O)NCCCCCCNC(=O)c4ccc(-c5c6nc(c(-c7cccc(S(=O)(=O)[O-])c7F)c7ccc([nH]7)c(-c7cccc(S(=O)(=O)[O-])c7F)c7nc(c(-c8cccc(S(=O)(=O)[O-])c8F)c8ccc5[nH]8)C=C7)C=C6)cc4)c(C)n3n2)c1
REMARK SMILES IDX 24 1 23 2 22 3 21 4 19 5 20 6 18 8 17 9 16 10 10 11 11 12
REMARK SMILES IDX 97 13 12 14 96 15 13 16 94 17 14 18 95 19 15 20 9 21 3 22
REMARK SMILES IDX 4 23 98 24 5 25 8 26 2 27 1 28 6 29 7 30 25 31 26 32 27 33
REMARK SMILES IDX 28 34 29 35 30 37 31 38 32 39 93 40 33 41 92 42 34 43 35 44
REMARK SMILES IDX 36 45 86 46 37 47 91 48 85 49 87 50 38 51 90 52 84 53 83 54
REMARK SMILES IDX 39 56 71 57 51 58 70 59 52 60 55 61 69 62 88 63 53 64 54 65
REMARK SMILES IDX 68 67 89 68 56 69 40 70 41 71 49 72 42 73 44 74 50 75 43 76
REMARK SMILES IDX 45 77 46 78 47 79 48 80 72 81 73 82 81 83 74 84 76 85 82 86
REMARK SMILES IDX 75 87 77 88 78 89 79 90 80 91 57 92 58 93 66 94 59 95 61 96
REMARK SMILES IDX 67 97 60 98 62 99 63 100 64 101 65 102
REMARK H PARENT 21 7 28 36 87 55 55 66
REMARK Flexibility Score: inf
ROOT
ATOM      1  C   UNL A   1      36.463  30.594  27.860  1.00  0.00     0.002 C 
ENDROOT
BRANCH   1   2
ATOM      2  C   UNL A   1      35.409  29.526  28.065  1.00  0.00     0.021 C 
BRANCH   2   3
ATOM      3  C   UNL A   1      34.407  29.337  26.942  1.00  0.00     0.116 C 
BRANCH   3   4
ATOM      4  N   UNL A   1      33.401  30.394  26.967  1.00  0.00    -0.356 N 
ATOM      5  C   UNL A   1      32.138  30.425  26.445  1.00  0.00     0.220 C 
ATOM      6  O   UNL A   1      31.528  31.497  26.467  1.00  0.00    -0.275 OA
ATOM      7  H   UNL A   1      33.676  31.216  27.434  1.00  0.00     0.163 HD
BRANCH   5   8
ATOM      8  C   UNL A   1      31.481  29.166  25.904  1.00  0.00     0.105 C 
BRANCH   8   9
ATOM      9  C   UNL A   1      31.435  29.106  24.367  1.00  0.00     0.049 C 
BRANCH   9  10
ATOM     10  C   UNL A   1      31.424  27.695  23.834  1.00  0.00    -0.005 A 
ATOM     11  C   UNL A   1      32.544  23.324  23.756  1.00  0.00     0.095 A 
ATOM     12  C   UNL A   1      31.208  23.653  23.384  1.00  0.00     0.080 A 
ATOM     13  N   UNL A   1      33.258  24.465  23.804  1.00  0.00    -0.166 NA
ATOM     14  C   UNL A   1      31.083  25.006  23.343  1.00  0.00     0.156 A 
ATOM     15  N   UNL A   1      32.357  25.500  23.541  1.00  0.00    -0.219 N 
ATOM     16  N   UNL A   1      29.960  25.765  23.255  1.00  0.00    -0.234 NA
ATOM     17  C   UNL A   1      32.522  26.894  23.721  1.00  0.00     0.046 A 
ATOM     18  C   UNL A   1      30.097  27.037  23.487  1.00  0.00     0.045 A 
ATOM     19  C   UNL A   1      33.934  27.346  23.917  1.00  0.00     0.067 C 
ATOM     20  C   UNL A   1      28.811  27.847  23.394  1.00  0.00     0.067 C 
BRANCH  11  21
ATOM     21  C   UNL A   1      33.103  21.961  24.118  1.00  0.00     0.009 A 
ATOM     22  C   UNL A   1      34.984  20.528  24.867  1.00  0.00     0.123 A 
ATOM     23  C   UNL A   1      34.106  19.510  25.172  1.00  0.00     0.092 A 
ATOM     24  C   UNL A   1      34.484  21.742  24.369  1.00  0.00     0.057 A 
ATOM     25  C   UNL A   1      32.745  19.660  24.922  1.00  0.00     0.123 A 
ATOM     26  C   UNL A   1      32.251  20.859  24.360  1.00  0.00     0.057 A 
BRANCH  22  27
ATOM     27  O   UNL A   1      36.311  20.188  24.872  1.00  0.00    -0.497 OA
ATOM     28  C   UNL A   1      37.194  21.107  25.496  1.00  0.00     0.278 C 
ENDBRANCH  22  27
BRANCH  25  29
ATOM     29  O   UNL A   1      32.053  18.527  25.250  1.00  0.00    -0.497 OA
ATOM     30  C   UNL A   1      32.729  17.289  25.194  1.00  0.00     0.278 C 
ENDBRANCH  25  29
ENDBRANCH  11  21
ENDBRANCH   9  10
ENDBRANCH   8   9
ENDBRANCH   5   8
ENDBRANCH   3   4
ENDBRANCH   2   3
ENDBRANCH   1   2
BRANCH   1  31
ATOM     31  C   UNL A   1      36.062  32.076  27.976  1.00  0.00     0.002 C 
BRANCH  31  32
ATOM     32  C   UNL A   1      36.914  33.167  28.667  1.00  0.00     0.021 C 
BRANCH  32  33
ATOM     33  C   UNL A   1      36.583  33.858  30.023  1.00  0.00     0.116 C 
BRANCH  33  34
ATOM     34  N   UNL A   1      36.235  33.016  31.190  1.00  0.00    -0.352 N 
ATOM     35  C   UNL A   1      36.594  31.713  31.600  1.00  0.00     0.251 C 
ATOM     36  H   UNL A   1      35.620  33.461  31.817  1.00  0.00     0.163 HD
ATOM     37  O   UNL A   1      35.818  31.134  32.364  1.00  0.00    -0.269 OA
BRANCH  35  38
ATOM     38  C   UNL A   1      37.869  31.003  31.236  1.00  0.00     0.039 A 
ATOM     39  C   UNL A   1      39.104  31.607  30.963  1.00  0.00     0.014 A 
ATOM     40  C   UNL A   1      37.808  29.658  30.997  1.00  0.00     0.014 A 
ATOM     41  C   UNL A   1      40.213  30.829  30.525  1.00  0.00     0.010 A 
ATOM     42  C   UNL A   1      38.871  28.870  30.568  1.00  0.00     0.010 A 
ATOM     43  C   UNL A   1      40.091  29.445  30.317  1.00  0.00    -0.014 A 
BRANCH  43  44
ATOM     44  C   UNL A   1      41.225  28.510  30.198  1.00  0.00     0.031 A 
ATOM     45  C   UNL A   1      41.931  28.436  31.503  1.00  0.00     0.074 A 
ATOM     46  C   UNL A   1      41.447  27.527  29.288  1.00  0.00     0.049 A 
ATOM     47  N   UNL A   1      43.065  28.965  31.816  1.00  0.00    -0.248 NA
ATOM     48  C   UNL A   1      41.170  27.914  32.654  1.00  0.00     0.031 C 
ATOM     49  C   UNL A   1      40.598  27.095  28.177  1.00  0.00     0.029 A 
ATOM     50  N   UNL A   1      42.459  26.597  29.247  1.00  0.00    -0.354 N 
ATOM     51  C   UNL A   1      43.258  28.615  33.149  1.00  0.00     0.074 A 
ATOM     52  C   UNL A   1      41.967  28.254  33.665  1.00  0.00     0.031 C 
ATOM     53  C   UNL A   1      41.026  25.911  27.687  1.00  0.00     0.029 A 
ATOM     54  C   UNL A   1      42.229  25.520  28.387  1.00  0.00     0.049 A 
ATOM     55  H   UNL A   1      43.281  26.684  29.782  1.00  0.00     0.167 HD
ATOM     56  C   UNL A   1      44.497  28.333  33.633  1.00  0.00     0.034 A 
ATOM     57  C   UNL A   1      42.931  24.359  28.294  1.00  0.00     0.034 A 
ATOM     58  C   UNL A   1      45.525  28.749  32.710  1.00  0.00     0.049 A 
ATOM     59  C   UNL A   1      44.236  24.581  28.952  1.00  0.00     0.074 A 
ATOM     60  C   UNL A   1      45.856  29.933  32.081  1.00  0.00     0.029 A 
ATOM     61  N   UNL A   1      46.142  27.751  31.995  1.00  0.00    -0.354 N 
ATOM     62  N   UNL A   1      45.159  25.371  28.485  1.00  0.00    -0.248 NA
ATOM     63  C   UNL A   1      44.364  24.225  30.354  1.00  0.00     0.031 C 
ATOM     64  C   UNL A   1      46.262  29.552  30.769  1.00  0.00     0.029 A 
ATOM     65  C   UNL A   1      46.225  28.158  30.690  1.00  0.00     0.049 A 
ATOM     66  H   UNL A   1      46.467  26.896  32.355  1.00  0.00     0.167 HD
ATOM     67  C   UNL A   1      45.691  25.977  29.614  1.00  0.00     0.074 A 
ATOM     68  C   UNL A   1      45.259  25.141  30.730  1.00  0.00     0.031 C 
ATOM     69  C   UNL A   1      46.165  27.256  29.560  1.00  0.00     0.034 A 
BRANCH  56  70
ATOM     70  C   UNL A   1      44.781  27.334  34.733  1.00  0.00     0.023 A 
ATOM     71  C   UNL A   1      45.528  27.799  35.836  1.00  0.00     0.012 A 
ATOM     72  C   UNL A   1      44.594  25.933  34.636  1.00  0.00     0.148 A 
ATOM     73  C   UNL A   1      46.104  26.918  36.757  1.00  0.00     0.002 A 
ATOM     74  C   UNL A   1      45.087  25.070  35.605  1.00  0.00     0.091 A 
ATOM     75  F   UNL A   1      44.064  25.393  33.537  1.00  0.00    -0.205 F 
ATOM     76  C   UNL A   1      45.875  25.553  36.649  1.00  0.00     0.022 A 
BRANCH  74  77
ATOM     77  S   UNL A   1      44.757  23.303  35.537  1.00  0.00     0.127 S 
ATOM     78  O   UNL A   1      45.446  22.926  34.302  1.00  0.00    -0.237 OA
ATOM     79  O   UNL A   1      45.394  22.832  36.768  1.00  0.00    -0.237 OA
ATOM     80  O   UNL A   1      43.310  23.175  35.531  1.00  0.00    -0.744 OA
ENDBRANCH  74  77
ENDBRANCH  56  70
BRANCH  57  81
ATOM     81  C   UNL A   1      42.512  22.995  27.873  1.00  0.00     0.023 A 
ATOM     82  C   UNL A   1      41.189  22.563  28.108  1.00  0.00     0.012 A 
ATOM     83  C   UNL A   1      43.309  22.227  26.995  1.00  0.00     0.148 A 
ATOM     84  C   UNL A   1      40.666  21.433  27.461  1.00  0.00     0.002 A 
ATOM     85  C   UNL A   1      42.787  21.103  26.357  1.00  0.00     0.091 A 
ATOM     86  F   UNL A   1      44.547  22.651  26.711  1.00  0.00    -0.205 F 
ATOM     87  C   UNL A   1      41.461  20.710  26.578  1.00  0.00     0.022 A 
BRANCH  85  88
ATOM     88  S   UNL A   1      43.747  20.139  25.178  1.00  0.00     0.127 S 
ATOM     89  O   UNL A   1      44.864  19.675  26.003  1.00  0.00    -0.237 OA
ATOM     90  O   UNL A   1      42.796  19.095  24.797  1.00  0.00    -0.237 OA
ATOM     91  O   UNL A   1      44.126  21.062  24.120  1.00  0.00    -0.744 OA
ENDBRANCH  85  88
ENDBRANCH  57  81
BRANCH  69  92
ATOM     92  C   UNL A   1      46.395  27.872  28.202  1.00  0.00     0.023 A 
ATOM     93  C   UNL A   1      45.501  28.797  27.621  1.00  0.00     0.012 A 
ATOM     94  C   UNL A   1      47.631  27.639  27.574  1.00  0.00     0.148 A 
ATOM     95  C   UNL A   1      45.824  29.456  26.433  1.00  0.00     0.002 A 
ATOM     96  C   UNL A   1      47.971  28.335  26.423  1.00  0.00     0.091 A 
ATOM     97  F   UNL A   1      48.469  26.754  28.136  1.00  0.00    -0.205 F 
ATOM     98  C   UNL A   1      47.067  29.237  25.841  1.00  0.00     0.022 A 
BRANCH  96  99
ATOM     99  S   UNL A   1      49.605  28.193  25.696  1.00  0.00     0.127 S 
ATOM    100  O   UNL A   1      50.167  27.059  26.425  1.00  0.00    -0.237 OA
ATOM    101  O   UNL A   1      49.303  27.930  24.288  1.00  0.00    -0.237 OA
ATOM    102  O   UNL A   1      50.257  29.477  25.930  1.00  0.00    -0.744 OA
ENDBRANCH  96  99
ENDBRANCH  69  92
ENDBRANCH  43  44
ENDBRANCH  35  38
ENDBRANCH  33  34
ENDBRANCH  32  33
ENDBRANCH  31  32
ENDBRANCH   1  31
TORSDOF 21
ENDMDL
MODEL 2
REMARK VINA RESULT:     -11.3      1.909      2.212
REMARK SMILES COc1cc(OC)cc(-c2cc3nc(C)c(CCC(=O)NCCCCCCNC(=O)c4ccc(-c5c6nc(c(-c7cccc(S(=O)(=O)[O-])c7F)c7ccc([nH]7)c(-c7cccc(S(=O)(=O)[O-])c7F)c7nc(c(-c8cccc(S(=O)(=O)[O-])c8F)c8ccc5[nH]8)C=C7)C=C6)cc4)c(C)n3n2)c1
REMARK SMILES IDX 24 1 23 2 22 3 21 4 19 5 20 6 18 8 17 9 16 10 10 11 11 12
REMARK SMILES IDX 97 13 12 14 96 15 13 16 94 17 14 18 95 19 15 20 9 21 3 22
REMARK SMILES IDX 4 23 98 24 5 25 8 26 2 27 1 28 6 29 7 30 25 31 26 32 27 33
REMARK SMILES IDX 28 34 29 35 30 37 31 38 32 39 93 40 33 41 92 42 34 43 35 44
REMARK SMILES IDX 36 45 86 46 37 47 91 48 85 49 87 50 38 51 90 52 84 53 83 54
REMARK SMILES IDX 39 56 71 57 51 58 70 59 52 60 55 61 69 62 88 63 53 64 54 65
REMARK SMILES IDX 68 67 89 68 56 69 40 70 41 71 49 72 42 73 44 74 50 75 43 76
REMARK SMILES IDX 45 77 46 78 47 79 48 80 72 81 73 82 81 83 74 84 76 85 82 86
REMARK SMILES IDX 75 87 77 88 78 89 79 90 80 91 57 92 58 93 66 94 59 95 61 96
REMARK SMILES IDX 67 97 60 98 62 99 63 100 64 101 65 102
REMARK H PARENT 21 7 28 36 87 55 55 66
REMARK Flexibility Score: inf
ROOT
ATOM      1  C   UNL A   1      36.634  31.478  28.134  1.00  0.00     0.002 C 
ENDROOT
BRANCH   1   2
ATOM      2  C   UNL A   1      35.724  30.448  28.770  1.00  0.00     0.021 C 
BRANCH   2   3
ATOM      3  C   UNL A   1      34.647  29.852  27.883  1.00  0.00     0.116 C 
BRANCH   3   4
ATOM      4  N   UNL A   1      33.596  30.830  27.625  1.00  0.00    -0.356 N 
ATOM      5  C   UNL A   1      32.436  30.712  26.911  1.00  0.00     0.220 C 
ATOM      6  O   UNL A   1      31.773  31.733  26.710  1.00  0.00    -0.275 OA
ATOM      7  H   UNL A   1      33.745  31.715  28.028  1.00  0.00     0.163 HD
BRANCH   5   8
ATOM      8  C   UNL A   1      31.945  29.357  26.427  1.00  0.00     0.105 C 
BRANCH   8   9
ATOM      9  C   UNL A   1      31.362  29.386  25.003  1.00  0.00     0.049 C 
BRANCH   9  10
ATOM     10  C   UNL A   1      31.535  28.078  24.271  1.00  0.00    -0.005 A 
ATOM     11  C   UNL A   1      32.770  23.762  23.807  1.00  0.00     0.095 A 
ATOM     12  C   UNL A   1      31.570  24.163  23.152  1.00  0.00     0.080 A 
ATOM     13  N   UNL A   1      33.412  24.873  24.221  1.00  0.00    -0.166 NA
ATOM     14  C   UNL A   1      31.419  25.505  23.292  1.00  0.00     0.156 A 
ATOM     15  N   UNL A   1      32.580  25.947  23.895  1.00  0.00    -0.219 N 
ATOM     16  N   UNL A   1      30.335  26.283  23.030  1.00  0.00    -0.234 NA
ATOM     17  C   UNL A   1      32.648  27.292  24.329  1.00  0.00     0.046 A 
ATOM     18  C   UNL A   1      30.367  27.499  23.487  1.00  0.00     0.045 A 
ATOM     19  C   UNL A   1      33.944  27.690  24.959  1.00  0.00     0.067 C 
ATOM     20  C   UNL A   1      29.125  28.329  23.186  1.00  0.00     0.067 C 
BRANCH  11  21
ATOM     21  C   UNL A   1      33.257  22.352  24.085  1.00  0.00     0.009 A 
ATOM     22  C   UNL A   1      34.997  20.794  24.917  1.00  0.00     0.123 A 
ATOM     23  C   UNL A   1      34.073  19.773  24.982  1.00  0.00     0.092 A 
ATOM     24  C   UNL A   1      34.587  22.069  24.497  1.00  0.00     0.057 A 
ATOM     25  C   UNL A   1      32.762  19.987  24.566  1.00  0.00     0.123 A 
ATOM     26  C   UNL A   1      32.366  21.255  24.082  1.00  0.00     0.057 A 
BRANCH  22  27
ATOM     27  O   UNL A   1      36.307  20.418  25.066  1.00  0.00    -0.497 OA
ATOM     28  C   UNL A   1      37.283  21.368  24.670  1.00  0.00     0.278 C 
ENDBRANCH  22  27
BRANCH  25  29
ATOM     29  O   UNL A   1      32.017  18.845  24.666  1.00  0.00    -0.497 OA
ATOM     30  C   UNL A   1      32.654  17.607  24.436  1.00  0.00     0.278 C 
ENDBRANCH  25  29
ENDBRANCH  11  21
ENDBRANCH   9  10
ENDBRANCH   8   9
ENDBRANCH   5   8
ENDBRANCH   3   4
ENDBRANCH   2   3
ENDBRANCH   1   2
BRANCH   1  31
ATOM     31  C   UNL A   1      36.456  32.963  28.502  1.00  0.00     0.002 C 
BRANCH  31  32
ATOM     32  C   UNL A   1      37.456  33.785  29.350  1.00  0.00     0.021 C 
BRANCH  32  33
ATOM     33  C   UNL A   1      37.283  34.161  30.851  1.00  0.00     0.116 C 
BRANCH  33  34
ATOM     34  N   UNL A   1      36.730  33.153  31.784  1.00  0.00    -0.352 N 
ATOM     35  C   UNL A   1      37.012  31.791  32.033  1.00  0.00     0.251 C 
ATOM     36  H   UNL A   1      36.010  33.508  32.354  1.00  0.00     0.163 HD
ATOM     37  O   UNL A   1      36.110  31.119  32.541  1.00  0.00    -0.269 OA
BRANCH  35  38
ATOM     38  C   UNL A   1      38.333  31.115  31.795  1.00  0.00     0.039 A 
ATOM     39  C   UNL A   1      39.594  31.725  31.828  1.00  0.00     0.014 A 
ATOM     40  C   UNL A   1      38.320  29.819  31.357  1.00  0.00     0.014 A 
ATOM     41  C   UNL A   1      40.766  30.996  31.478  1.00  0.00     0.010 A 
ATOM     42  C   UNL A   1      39.444  29.078  31.006  1.00  0.00     0.010 A 
ATOM     43  C   UNL A   1      40.687  29.658  31.054  1.00  0.00    -0.014 A 
BRANCH  43  44
ATOM     44  C   UNL A   1      41.828  28.726  30.997  1.00  0.00     0.031 A 
ATOM     45  C   UNL A   1      42.324  28.483  32.376  1.00  0.00     0.074 A 
ATOM     46  C   UNL A   1      42.191  27.858  30.019  1.00  0.00     0.049 A 
ATOM     47  N   UNL A   1      43.395  28.952  32.923  1.00  0.00    -0.248 NA
ATOM     48  C   UNL A   1      41.396  27.837  33.324  1.00  0.00     0.031 C 
ATOM     49  C   UNL A   1      41.525  27.578  28.746  1.00  0.00     0.029 A 
ATOM     50  N   UNL A   1      43.200  26.924  30.020  1.00  0.00    -0.354 N 
ATOM     51  C   UNL A   1      43.381  28.439  34.216  1.00  0.00     0.074 A 
ATOM     52  C   UNL A   1      42.027  28.039  34.479  1.00  0.00     0.031 C 
ATOM     53  C   UNL A   1      42.027  26.456  28.186  1.00  0.00     0.029 A 
ATOM     54  C   UNL A   1      43.109  25.963  29.010  1.00  0.00     0.049 A 
ATOM     55  H   UNL A   1      43.929  26.932  30.682  1.00  0.00     0.167 HD
ATOM     56  C   UNL A   1      44.530  28.081  34.847  1.00  0.00     0.034 A 
ATOM     57  C   UNL A   1      43.821  24.811  28.884  1.00  0.00     0.034 A 
ATOM     58  C   UNL A   1      45.688  28.589  34.151  1.00  0.00     0.049 A 
ATOM     59  C   UNL A   1      45.007  24.931  29.757  1.00  0.00     0.074 A 
ATOM     60  C   UNL A   1      46.109  29.835  33.731  1.00  0.00     0.029 A 
ATOM     61  N   UNL A   1      46.411  27.676  33.422  1.00  0.00    -0.354 N 
ATOM     62  N   UNL A   1      45.989  25.756  29.537  1.00  0.00    -0.248 NA
ATOM     63  C   UNL A   1      44.918  24.405  31.107  1.00  0.00     0.031 C 
ATOM     64  C   UNL A   1      46.714  29.610  32.460  1.00  0.00     0.029 A 
ATOM     65  C   UNL A   1      46.694  28.237  32.205  1.00  0.00     0.049 A 
ATOM     66  H   UNL A   1      46.679  26.778  33.721  1.00  0.00     0.167 HD
ATOM     67  C   UNL A   1      46.338  26.212  30.801  1.00  0.00     0.074 A 
ATOM     68  C   UNL A   1      45.742  25.253  31.726  1.00  0.00     0.031 C 
ATOM     69  C   UNL A   1      46.811  27.480  30.977  1.00  0.00     0.034 A 
BRANCH  56  70
ATOM     70  C   UNL A   1      44.644  26.950  35.846  1.00  0.00     0.023 A 
ATOM     71  C   UNL A   1      44.214  25.677  35.416  1.00  0.00     0.012 A 
ATOM     72  C   UNL A   1      44.894  27.103  37.232  1.00  0.00     0.148 A 
ATOM     73  C   UNL A   1      43.989  24.633  36.319  1.00  0.00     0.002 A 
ATOM     74  C   UNL A   1      44.761  26.036  38.111  1.00  0.00     0.091 A 
ATOM     75  F   UNL A   1      45.123  28.310  37.752  1.00  0.00    -0.205 F 
ATOM     76  C   UNL A   1      44.273  24.808  37.666  1.00  0.00     0.022 A 
BRANCH  74  77
ATOM     77  S   UNL A   1      45.182  26.204  39.852  1.00  0.00     0.127 S 
ATOM     78  O   UNL A   1      45.156  24.808  40.293  1.00  0.00    -0.237 OA
ATOM     79  O   UNL A   1      46.516  26.803  39.780  1.00  0.00    -0.237 OA
ATOM     80  O   UNL A   1      44.168  27.076  40.418  1.00  0.00    -0.744 OA
ENDBRANCH  74  77
ENDBRANCH  56  70
BRANCH  57  81
ATOM     81  C   UNL A   1      43.475  23.515  28.239  1.00  0.00     0.023 A 
ATOM     82  C   UNL A   1      42.240  22.895  28.526  1.00  0.00     0.012 A 
ATOM     83  C   UNL A   1      44.216  23.030  27.139  1.00  0.00     0.148 A 
ATOM     84  C   UNL A   1      41.741  21.860  27.721  1.00  0.00     0.002 A 
ATOM     85  C   UNL A   1      43.719  21.998  26.343  1.00  0.00     0.091 A 
ATOM     86  F   UNL A   1      45.361  23.642  26.813  1.00  0.00    -0.205 F 
ATOM     87  C   UNL A   1      42.475  21.419  26.625  1.00  0.00     0.022 A 
BRANCH  85  88
ATOM     88  S   UNL A   1      44.598  21.400  24.892  1.00  0.00     0.127 S 
ATOM     89  O   UNL A   1      43.987  20.085  24.686  1.00  0.00    -0.237 OA
ATOM     90  O   UNL A   1      44.241  22.402  23.888  1.00  0.00    -0.237 OA
ATOM     91  O   UNL A   1      46.004  21.355  25.263  1.00  0.00    -0.744 OA
ENDBRANCH  85  88
ENDBRANCH  57  81
BRANCH  69  92
ATOM     92  C   UNL A   1      47.247  28.253  29.757  1.00  0.00     0.023 A 
ATOM     93  C   UNL A   1      48.524  28.106  29.176  1.00  0.00     0.012 A 
ATOM     94  C   UNL A   1      46.281  29.021  29.085  1.00  0.00     0.148 A 
ATOM     95  C   UNL A   1      48.835  28.727  27.964  1.00  0.00     0.002 A 
ATOM     96  C   UNL A   1      46.576  29.593  27.855  1.00  0.00     0.091 A 
ATOM     97  F   UNL A   1      45.072  29.156  29.651  1.00  0.00    -0.205 F 
ATOM     98  C   UNL A   1      47.855  29.458  27.294  1.00  0.00     0.022 A 
BRANCH  96  99
ATOM     99  S   UNL A   1      45.317  30.428  26.888  1.00  0.00     0.127 S 
ATOM    100  O   UNL A   1      46.065  30.838  25.701  1.00  0.00    -0.237 OA
ATOM    101  O   UNL A   1      44.337  29.365  26.659  1.00  0.00    -0.237 OA
ATOM    102  O   UNL A   1      44.825  31.514  27.728  1.00  0.00    -0.744 OA
ENDBRANCH  96  99
ENDBRANCH  69  92
ENDBRANCH  43  44
ENDBRANCH  35  38
ENDBRANCH  33  34
ENDBRANCH  32  33
ENDBRANCH  31  32
ENDBRANCH   1  31
TORSDOF 21
ENDMDL
MODEL 3
REMARK VINA RESULT:     -11.2      3.247      9.527
REMARK SMILES COc1cc(OC)cc(-c2cc3nc(C)c(CCC(=O)NCCCCCCNC(=O)c4ccc(-c5c6nc(c(-c7cccc(S(=O)(=O)[O-])c7F)c7ccc([nH]7)c(-c7cccc(S(=O)(=O)[O-])c7F)c7nc(c(-c8cccc(S(=O)(=O)[O-])c8F)c8ccc5[nH]8)C=C7)C=C6)cc4)c(C)n3n2)c1
REMARK SMILES IDX 24 1 23 2 22 3 21 4 19 5 20 6 18 8 17 9 16 10 10 11 11 12
REMARK SMILES IDX 97 13 12 14 96 15 13 16 94 17 14 18 95 19 15 20 9 21 3 22
REMARK SMILES IDX 4 23 98 24 5 25 8 26 2 27 1 28 6 29 7 30 25 31 26 32 27 33
REMARK SMILES IDX 28 34 29 35 30 37 31 38 32 39 93 40 33 41 92 42 34 43 35 44
REMARK SMILES IDX 36 45 86 46 37 47 91 48 85 49 87 50 38 51 90 52 84 53 83 54
REMARK SMILES IDX 39 56 71 57 51 58 70 59 52 60 55 61 69 62 88 63 53 64 54 65
REMARK SMILES IDX 68 67 89 68 56 69 40 70 41 71 49 72 42 73 44 74 50 75 43 76
REMARK SMILES IDX 45 77 46 78 47 79 48 80 72 81 73 82 81 83 74 84 76 85 82 86
REMARK SMILES IDX 75 87 77 88 78 89 79 90 80 91 57 92 58 93 66 94 59 95 61 96
REMARK SMILES IDX 67 97 60 98 62 99 63 100 64 101 65 102
REMARK H PARENT 21 7 28 36 87 55 55 66
REMARK Flexibility Score: inf
ROOT
ATOM      1  C   UNL A   1      33.870  26.308  25.568  1.00  0.00     0.002 C 
ENDROOT
BRANCH   1   2
ATOM      2  C   UNL A   1      32.692  27.212  25.862  1.00  0.00     0.021 C 
BRANCH   2   3
ATOM      3  C   UNL A   1      32.978  28.458  26.679  1.00  0.00     0.116 C 
BRANCH   3   4
ATOM      4  N   UNL A   1      34.379  28.495  27.085  1.00  0.00    -0.356 N 
ATOM      5  C   UNL A   1      35.132  29.530  27.565  1.00  0.00     0.220 C 
ATOM      6  O   UNL A   1      36.345  29.350  27.701  1.00  0.00    -0.275 OA
ATOM      7  H   UNL A   1      34.857  27.639  27.001  1.00  0.00     0.163 HD
BRANCH   5   8
ATOM      8  C   UNL A   1      34.490  30.846  27.973  1.00  0.00     0.105 C 
BRANCH   8   9
ATOM      9  C   UNL A   1      35.499  31.891  28.486  1.00  0.00     0.049 C 
BRANCH   9  10
ATOM     10  C   UNL A   1      35.240  32.306  29.913  1.00  0.00    -0.005 A 
ATOM     11  C   UNL A   1      36.351  33.242  34.185  1.00  0.00     0.095 A 
ATOM     12  C   UNL A   1      35.342  34.054  33.589  1.00  0.00     0.080 A 
ATOM     13  N   UNL A   1      36.566  32.183  33.380  1.00  0.00    -0.166 NA
ATOM     14  C   UNL A   1      35.048  33.558  32.359  1.00  0.00     0.156 A 
ATOM     15  N   UNL A   1      35.756  32.376  32.259  1.00  0.00    -0.219 N 
ATOM     16  N   UNL A   1      34.323  34.117  31.355  1.00  0.00    -0.234 NA
ATOM     17  C   UNL A   1      35.785  31.709  31.011  1.00  0.00     0.046 A 
ATOM     18  C   UNL A   1      34.402  33.545  30.191  1.00  0.00     0.045 A 
ATOM     19  C   UNL A   1      36.562  30.431  30.993  1.00  0.00     0.067 C 
ATOM     20  C   UNL A   1      33.588  34.215  29.091  1.00  0.00     0.067 C 
BRANCH  11  21
ATOM     21  C   UNL A   1      37.132  33.508  35.458  1.00  0.00     0.009 A 
ATOM     22  C   UNL A   1      37.799  32.860  37.757  1.00  0.00     0.123 A 
ATOM     23  C   UNL A   1      38.857  33.743  37.715  1.00  0.00     0.092 A 
ATOM     24  C   UNL A   1      36.965  32.731  36.636  1.00  0.00     0.057 A 
ATOM     25  C   UNL A   1      39.053  34.549  36.597  1.00  0.00     0.123 A 
ATOM     26  C   UNL A   1      38.174  34.464  35.493  1.00  0.00     0.057 A 
BRANCH  22  27
ATOM     27  O   UNL A   1      37.518  32.332  38.990  1.00  0.00    -0.497 OA
ATOM     28  C   UNL A   1      36.201  32.538  39.477  1.00  0.00     0.278 C 
ENDBRANCH  22  27
BRANCH  25  29
ATOM     29  O   UNL A   1      40.123  35.383  36.768  1.00  0.00    -0.497 OA
ATOM     30  C   UNL A   1      40.412  36.321  35.755  1.00  0.00     0.278 C 
ENDBRANCH  25  29
ENDBRANCH  11  21
ENDBRANCH   9  10
ENDBRANCH   8   9
ENDBRANCH   5   8
ENDBRANCH   3   4
ENDBRANCH   2   3
ENDBRANCH   1   2
BRANCH   1  31
ATOM     31  C   UNL A   1      33.872  24.873  26.125  1.00  0.00     0.002 C 
BRANCH  31  32
ATOM     32  C   UNL A   1      34.070  23.597  25.271  1.00  0.00     0.021 C 
BRANCH  32  33
ATOM     33  C   UNL A   1      35.384  23.183  24.547  1.00  0.00     0.116 C 
BRANCH  33  34
ATOM     34  N   UNL A   1      36.079  21.946  24.973  1.00  0.00    -0.352 N 
ATOM     35  C   UNL A   1      37.401  21.656  25.378  1.00  0.00     0.251 C 
ATOM     36  H   UNL A   1      35.493  21.155  24.975  1.00  0.00     0.163 HD
ATOM     37  O   UNL A   1      37.780  20.489  25.246  1.00  0.00    -0.269 OA
BRANCH  35  38
ATOM     38  C   UNL A   1      38.354  22.629  26.014  1.00  0.00     0.039 A 
ATOM     39  C   UNL A   1      38.278  24.026  25.946  1.00  0.00     0.014 A 
ATOM     40  C   UNL A   1      39.489  22.130  26.590  1.00  0.00     0.014 A 
ATOM     41  C   UNL A   1      39.306  24.839  26.503  1.00  0.00     0.010 A 
ATOM     42  C   UNL A   1      40.512  22.894  27.142  1.00  0.00     0.010 A 
ATOM     43  C   UNL A   1      40.440  24.265  27.101  1.00  0.00    -0.014 A 
BRANCH  43  44
ATOM     44  C   UNL A   1      41.376  24.979  27.989  1.00  0.00     0.031 A 
ATOM     45  C   UNL A   1      40.814  26.317  28.309  1.00  0.00     0.074 A 
ATOM     46  C   UNL A   1      42.368  24.492  28.777  1.00  0.00     0.049 A 
ATOM     47  N   UNL A   1      41.188  27.461  27.843  1.00  0.00    -0.248 NA
ATOM     48  C   UNL A   1      39.537  26.354  29.048  1.00  0.00     0.031 C 
ATOM     49  C   UNL A   1      42.771  23.101  28.991  1.00  0.00     0.029 A 
ATOM     50  N   UNL A   1      43.167  25.159  29.675  1.00  0.00    -0.354 N 
ATOM     51  C   UNL A   1      40.332  28.379  28.443  1.00  0.00     0.074 A 
ATOM     52  C   UNL A   1      39.194  27.633  28.904  1.00  0.00     0.031 C 
ATOM     53  C   UNL A   1      43.598  23.007  30.056  1.00  0.00     0.029 A 
ATOM     54  C   UNL A   1      43.858  24.334  30.567  1.00  0.00     0.049 A 
ATOM     55  H   UNL A   1      43.247  26.140  29.688  1.00  0.00     0.167 HD
ATOM     56  C   UNL A   1      40.764  29.616  28.805  1.00  0.00     0.034 A 
ATOM     57  C   UNL A   1      44.543  24.699  31.685  1.00  0.00     0.034 A 
ATOM     58  C   UNL A   1      42.045  29.915  28.213  1.00  0.00     0.049 A 
ATOM     59  C   UNL A   1      44.803  26.150  31.585  1.00  0.00     0.074 A 
ATOM     60  C   UNL A   1      42.551  29.931  26.928  1.00  0.00     0.029 A 
ATOM     61  N   UNL A   1      43.133  29.855  29.050  1.00  0.00    -0.354 N 
ATOM     62  N   UNL A   1      45.610  26.685  30.715  1.00  0.00    -0.248 NA
ATOM     63  C   UNL A   1      43.854  27.059  32.204  1.00  0.00     0.031 C 
ATOM     64  C   UNL A   1      43.874  29.413  27.046  1.00  0.00     0.029 A 
ATOM     65  C   UNL A   1      44.129  29.177  28.399  1.00  0.00     0.049 A 
ATOM     66  H   UNL A   1      43.188  30.232  29.957  1.00  0.00     0.167 HD
ATOM     67  C   UNL A   1      44.970  27.856  30.334  1.00  0.00     0.074 A 
ATOM     68  C   UNL A   1      43.972  28.096  31.373  1.00  0.00     0.031 C 
ATOM     69  C   UNL A   1      45.105  28.343  29.066  1.00  0.00     0.034 A 
BRANCH  56  70
ATOM     70  C   UNL A   1      40.245  30.391  29.996  1.00  0.00     0.023 A 
ATOM     71  C   UNL A   1      39.922  31.748  29.779  1.00  0.00     0.012 A 
ATOM     72  C   UNL A   1      40.300  29.958  31.343  1.00  0.00     0.148 A 
ATOM     73  C   UNL A   1      39.723  32.635  30.841  1.00  0.00     0.002 A 
ATOM     74  C   UNL A   1      40.008  30.820  32.392  1.00  0.00     0.091 A 
ATOM     75  F   UNL A   1      40.775  28.749  31.649  1.00  0.00    -0.205 F 
ATOM     76  C   UNL A   1      39.754  32.170  32.149  1.00  0.00     0.022 A 
BRANCH  74  77
ATOM     77  S   UNL A   1      39.973  30.241  34.095  1.00  0.00     0.127 S 
ATOM     78  O   UNL A   1      39.762  31.493  34.823  1.00  0.00    -0.237 OA
ATOM     79  O   UNL A   1      38.824  29.335  34.079  1.00  0.00    -0.237 OA
ATOM     80  O   UNL A   1      41.248  29.580  34.309  1.00  0.00    -0.744 OA
ENDBRANCH  74  77
ENDBRANCH  56  70
BRANCH  57  81
ATOM     81  C   UNL A   1      44.822  23.958  32.944  1.00  0.00     0.023 A 
ATOM     82  C   UNL A   1      43.906  22.989  33.408  1.00  0.00     0.012 A 
ATOM     83  C   UNL A   1      46.104  23.989  33.538  1.00  0.00     0.148 A 
ATOM     84  C   UNL A   1      44.266  22.059  34.394  1.00  0.00     0.002 A 
ATOM     85  C   UNL A   1      46.457  23.066  34.521  1.00  0.00     0.091 A 
ATOM     86  F   UNL A   1      47.008  24.860  33.073  1.00  0.00    -0.205 F 
ATOM     87  C   UNL A   1      45.544  22.091  34.942  1.00  0.00     0.022 A 
BRANCH  85  88
ATOM     88  S   UNL A   1      48.101  23.027  35.251  1.00  0.00     0.127 S 
ATOM     89  O   UNL A   1      48.125  24.277  36.013  1.00  0.00    -0.237 OA
ATOM     90  O   UNL A   1      48.040  21.816  36.069  1.00  0.00    -0.237 OA
ATOM     91  O   UNL A   1      49.035  22.986  34.137  1.00  0.00    -0.744 OA
ENDBRANCH  85  88
ENDBRANCH  57  81
BRANCH  69  92
ATOM     92  C   UNL A   1      46.200  27.773  28.198  1.00  0.00     0.023 A 
ATOM     93  C   UNL A   1      47.555  28.138  28.342  1.00  0.00     0.012 A 
ATOM     94  C   UNL A   1      45.870  26.718  27.330  1.00  0.00     0.148 A 
ATOM     95  C   UNL A   1      48.554  27.479  27.621  1.00  0.00     0.002 A 
ATOM     96  C   UNL A   1      46.870  26.031  26.656  1.00  0.00     0.091 A 
ATOM     97  F   UNL A   1      44.577  26.386  27.200  1.00  0.00    -0.205 F 
ATOM     98  C   UNL A   1      48.213  26.414  26.789  1.00  0.00     0.022 A 
BRANCH  96  99
ATOM     99  S   UNL A   1      46.503  24.571  25.680  1.00  0.00     0.127 S 
ATOM    100  O   UNL A   1      45.216  24.918  25.082  1.00  0.00    -0.237 OA
ATOM    101  O   UNL A   1      47.625  24.529  24.741  1.00  0.00    -0.237 OA
ATOM    102  O   UNL A   1      46.479  23.458  26.623  1.00  0.00    -0.744 OA
ENDBRANCH  96  99
ENDBRANCH  69  92
ENDBRANCH  43  44
ENDBRANCH  35  38
ENDBRANCH  33  34
ENDBRANCH  32  33
ENDBRANCH  31  32
ENDBRANCH   1  31
TORSDOF 21
ENDMDL
