MODEL 1
REMARK VINA RESULT:     -11.1      0.000      0.000
REMARK SMILES CC(C)C[C@H](CNC(=O)N[C@@H](C)c1ccsc1)C(=O)NCCCCCCNC(=O)c1ccc(-c2c3nc(c(-c4cccc(S(=O)(=O)[O-])c4F)c4ccc([nH]4)c(-c4cccc(S(=O)(=O)[O-])c4F)c4nc(c(-c5cccc(S(=O)(=O)[O-])c5F)c5ccc2[nH]5)C=C4)C=C3)cc1
REMARK SMILES IDX 23 1 22 2 21 3 20 4 18 5 19 6 5 8 4 9 2 10 1 11 3 12 6 13
REMARK SMILES IDX 7 14 8 15 9 17 10 18 11 20 12 21 13 22 14 23 17 24 15 25
REMARK SMILES IDX 16 26 24 27 25 28 26 29 27 30 28 31 29 33 30 34 31 35 92 36
REMARK SMILES IDX 32 37 91 38 33 39 34 40 35 41 85 42 36 43 90 44 84 45 86 46
REMARK SMILES IDX 37 47 89 48 83 49 82 50 38 52 70 53 50 54 69 55 51 56 54 57
REMARK SMILES IDX 68 58 87 59 52 60 53 61 67 63 88 64 55 65 39 66 40 67 48 68
REMARK SMILES IDX 41 69 43 70 49 71 42 72 44 73 45 74 46 75 47 76 71 77 72 78
REMARK SMILES IDX 80 79 73 80 75 81 81 82 74 83 76 84 77 85 78 86 79 87 56 88
REMARK SMILES IDX 57 89 65 90 58 91 60 92 66 93 59 94 61 95 62 96 63 97 64 98
REMARK H PARENT 20 7 7 16 10 19 27 32 86 51 54 62
REMARK Flexibility Score: inf
ROOT
ATOM      1  C   UNL A   1      37.026  22.036  25.023  1.00  0.00     0.002 C 
ENDROOT
BRANCH   1   2
ATOM      2  C   UNL A   1      36.533  22.834  23.814  1.00  0.00     0.021 C 
BRANCH   2   3
ATOM      3  C   UNL A   1      35.077  23.261  23.928  1.00  0.00     0.116 C 
BRANCH   3   4
ATOM      4  N   UNL A   1      34.198  22.210  23.470  1.00  0.00    -0.356 N 
ATOM      5  C   UNL A   1      32.848  22.133  23.499  1.00  0.00     0.224 C 
ATOM      6  O   UNL A   1      32.330  21.098  23.065  1.00  0.00    -0.275 OA
ATOM      7  H   UNL A   1      34.650  21.430  23.076  1.00  0.00     0.163 HD
BRANCH   5   8
ATOM      8  C   UNL A   1      31.972  23.235  24.073  1.00  0.00     0.098 C 
BRANCH   8   9
ATOM      9  C   UNL A   1      31.037  22.947  25.270  1.00  0.00     0.018 C 
BRANCH   9  10
ATOM     10  C   UNL A   1      31.311  23.505  26.682  1.00  0.00    -0.017 C 
ATOM     11  C   UNL A   1      32.519  22.908  27.397  1.00  0.00     0.007 C 
ATOM     12  C   UNL A   1      31.488  25.030  26.591  1.00  0.00     0.007 C 
ENDBRANCH   9  10
ENDBRANCH   8   9
BRANCH   8  13
ATOM     13  C   UNL A   1      31.384  24.122  22.947  1.00  0.00     0.131 C 
BRANCH  13  14
ATOM     14  N   UNL A   1      32.310  24.698  21.977  1.00  0.00    -0.337 N 
ATOM     15  C   UNL A   1      32.314  25.794  21.205  1.00  0.00     0.315 C 
ATOM     16  H   UNL A   1      33.121  24.152  21.862  1.00  0.00     0.165 HD
ATOM     17  O   UNL A   1      32.986  25.762  20.173  1.00  0.00    -0.249 OA
ATOM     18  N   UNL A   1      31.608  26.895  21.486  1.00  0.00    -0.332 N 
ATOM     19  H   UNL A   1      31.259  27.379  20.702  1.00  0.00     0.165 HD
BRANCH  18  20
ATOM     20  C   UNL A   1      31.281  27.480  22.767  1.00  0.00     0.112 C 
ATOM     21  C   UNL A   1      32.523  28.094  23.411  1.00  0.00     0.036 C 
BRANCH  20  22
ATOM     22  C   UNL A   1      30.148  28.447  22.554  1.00  0.00    -0.015 A 
ATOM     23  C   UNL A   1      28.806  28.310  23.048  1.00  0.00     0.017 A 
ATOM     24  C   UNL A   1      30.279  29.636  21.854  1.00  0.00     0.070 A 
ATOM     25  C   UNL A   1      27.997  29.370  22.698  1.00  0.00     0.065 A 
ATOM     26  S   UNL A   1      28.836  30.545  21.787  1.00  0.00    -0.152 S 
ENDBRANCH  20  22
ENDBRANCH  18  20
ENDBRANCH  13  14
ENDBRANCH   8  13
ENDBRANCH   5   8
ENDBRANCH   3   4
ENDBRANCH   2   3
ENDBRANCH   1   2
BRANCH   1  27
ATOM     27  C   UNL A   1      36.692  20.541  24.982  1.00  0.00     0.002 C 
BRANCH  27  28
ATOM     28  C   UNL A   1      37.908  19.611  24.984  1.00  0.00     0.021 C 
BRANCH  28  29
ATOM     29  C   UNL A   1      39.125  20.174  25.709  1.00  0.00     0.116 C 
BRANCH  29  30
ATOM     30  N   UNL A   1      40.142  19.154  25.914  1.00  0.00    -0.352 N 
ATOM     31  C   UNL A   1      41.490  19.309  26.107  1.00  0.00     0.251 C 
ATOM     32  H   UNL A   1      39.816  18.224  25.916  1.00  0.00     0.163 HD
ATOM     33  O   UNL A   1      42.242  18.346  26.027  1.00  0.00    -0.269 OA
BRANCH  31  34
ATOM     34  C   UNL A   1      42.021  20.655  26.404  1.00  0.00     0.039 A 
ATOM     35  C   UNL A   1      42.242  21.545  25.352  1.00  0.00     0.014 A 
ATOM     36  C   UNL A   1      42.289  21.031  27.723  1.00  0.00     0.014 A 
ATOM     37  C   UNL A   1      42.688  22.837  25.630  1.00  0.00     0.010 A 
ATOM     38  C   UNL A   1      42.658  22.342  28.002  1.00  0.00     0.010 A 
ATOM     39  C   UNL A   1      42.874  23.255  26.958  1.00  0.00    -0.014 A 
BRANCH  39  40
ATOM     40  C   UNL A   1      43.295  24.640  27.281  1.00  0.00     0.031 A 
ATOM     41  C   UNL A   1      42.311  25.599  27.898  1.00  0.00     0.074 A 
ATOM     42  C   UNL A   1      44.529  25.060  26.935  1.00  0.00     0.049 A 
ATOM     43  N   UNL A   1      42.467  26.864  28.188  1.00  0.00    -0.248 NA
ATOM     44  C   UNL A   1      40.968  25.076  28.210  1.00  0.00     0.031 C 
ATOM     45  C   UNL A   1      45.546  24.244  26.268  1.00  0.00     0.029 A 
ATOM     46  N   UNL A   1      45.127  26.288  27.068  1.00  0.00    -0.354 N 
ATOM     47  C   UNL A   1      41.235  27.299  28.663  1.00  0.00     0.074 A 
ATOM     48  C   UNL A   1      40.336  26.169  28.611  1.00  0.00     0.031 C 
ATOM     49  C   UNL A   1      46.639  24.992  26.051  1.00  0.00     0.029 A 
ATOM     50  C   UNL A   1      46.390  26.348  26.527  1.00  0.00     0.049 A 
ATOM     51  H   UNL A   1      44.693  27.054  27.509  1.00  0.00     0.167 HD
ATOM     52  C   UNL A   1      40.891  28.526  29.119  1.00  0.00     0.034 A 
ATOM     53  C   UNL A   1      47.244  27.385  26.412  1.00  0.00     0.034 A 
ATOM     54  C   UNL A   1      41.805  29.631  29.218  1.00  0.00     0.049 A 
ATOM     55  C   UNL A   1      46.839  28.728  26.961  1.00  0.00     0.074 A 
ATOM     56  C   UNL A   1      41.582  30.879  29.773  1.00  0.00     0.029 A 
ATOM     57  N   UNL A   1      43.104  29.630  28.736  1.00  0.00    -0.354 N 
ATOM     58  N   UNL A   1      45.730  29.071  27.569  1.00  0.00    -0.248 NA
ATOM     59  C   UNL A   1      47.816  29.819  26.836  1.00  0.00     0.031 C 
ATOM     60  C   UNL A   1      42.734  31.649  29.587  1.00  0.00     0.029 A 
ATOM     61  C   UNL A   1      43.688  30.864  28.960  1.00  0.00     0.049 A 
ATOM     62  H   UNL A   1      43.545  28.866  28.300  1.00  0.00     0.167 HD
ATOM     63  C   UNL A   1      45.897  30.400  27.943  1.00  0.00     0.074 A 
ATOM     64  C   UNL A   1      47.219  30.795  27.506  1.00  0.00     0.031 C 
ATOM     65  C   UNL A   1      45.028  31.223  28.578  1.00  0.00     0.034 A 
BRANCH  52  66
ATOM     66  C   UNL A   1      39.476  28.745  29.580  1.00  0.00     0.023 A 
ATOM     67  C   UNL A   1      39.110  28.432  30.904  1.00  0.00     0.012 A 
ATOM     68  C   UNL A   1      38.536  29.361  28.729  1.00  0.00     0.148 A 
ATOM     69  C   UNL A   1      37.824  28.708  31.368  1.00  0.00     0.002 A 
ATOM     70  C   UNL A   1      37.274  29.677  29.213  1.00  0.00     0.091 A 
ATOM     71  F   UNL A   1      38.900  29.633  27.468  1.00  0.00    -0.205 F 
ATOM     72  C   UNL A   1      36.913  29.342  30.528  1.00  0.00     0.022 A 
BRANCH  70  73
ATOM     73  S   UNL A   1      36.057  30.571  28.240  1.00  0.00     0.127 S 
ATOM     74  O   UNL A   1      34.966  30.726  29.201  1.00  0.00    -0.237 OA
ATOM     75  O   UNL A   1      36.771  31.809  27.923  1.00  0.00    -0.237 OA
ATOM     76  O   UNL A   1      35.757  29.728  27.092  1.00  0.00    -0.744 OA
ENDBRANCH  70  73
ENDBRANCH  52  66
BRANCH  53  77
ATOM     77  C   UNL A   1      48.586  27.197  25.787  1.00  0.00     0.023 A 
ATOM     78  C   UNL A   1      49.664  26.758  26.583  1.00  0.00     0.012 A 
ATOM     79  C   UNL A   1      48.808  27.471  24.425  1.00  0.00     0.148 A 
ATOM     80  C   UNL A   1      50.946  26.645  26.046  1.00  0.00     0.002 A 
ATOM     81  C   UNL A   1      50.076  27.300  23.882  1.00  0.00     0.091 A 
ATOM     82  F   UNL A   1      47.774  27.899  23.685  1.00  0.00    -0.205 F 
ATOM     83  C   UNL A   1      51.150  26.909  24.694  1.00  0.00     0.022 A 
BRANCH  81  84
ATOM     84  S   UNL A   1      50.403  27.496  22.126  1.00  0.00     0.127 S 
ATOM     85  O   UNL A   1      51.852  27.320  22.071  1.00  0.00    -0.237 OA
ATOM     86  O   UNL A   1      49.626  26.400  21.548  1.00  0.00    -0.237 OA
ATOM     87  O   UNL A   1      49.911  28.824  21.783  1.00  0.00    -0.744 OA
ENDBRANCH  81  84
ENDBRANCH  53  77
BRANCH  65  88
ATOM     88  C   UNL A   1      45.492  32.619  28.905  1.00  0.00     0.023 A 
ATOM     89  C   UNL A   1      46.190  32.870  30.102  1.00  0.00     0.012 A 
ATOM     90  C   UNL A   1      45.308  33.664  27.978  1.00  0.00     0.148 A 
ATOM     91  C   UNL A   1      46.670  34.148  30.387  1.00  0.00     0.002 A 
ATOM     92  C   UNL A   1      45.836  34.920  28.243  1.00  0.00     0.091 A 
ATOM     93  F   UNL A   1      44.627  33.407  26.852  1.00  0.00    -0.205 F 
ATOM     94  C   UNL A   1      46.505  35.169  29.452  1.00  0.00     0.022 A 
BRANCH  92  95
ATOM     95  S   UNL A   1      45.765  36.265  27.054  1.00  0.00     0.127 S 
ATOM     96  O   UNL A   1      44.324  36.484  26.939  1.00  0.00    -0.237 OA
ATOM     97  O   UNL A   1      46.491  37.330  27.749  1.00  0.00    -0.237 OA
ATOM     98  O   UNL A   1      46.419  35.774  25.849  1.00  0.00    -0.744 OA
ENDBRANCH  92  95
ENDBRANCH  65  88
ENDBRANCH  39  40
ENDBRANCH  31  34
ENDBRANCH  29  30
ENDBRANCH  28  29
ENDBRANCH  27  28
ENDBRANCH   1  27
TORSDOF 22
ENDMDL
MODEL 2
REMARK VINA RESULT:     -10.9      5.555     10.596
REMARK SMILES CC(C)C[C@H](CNC(=O)N[C@@H](C)c1ccsc1)C(=O)NCCCCCCNC(=O)c1ccc(-c2c3nc(c(-c4cccc(S(=O)(=O)[O-])c4F)c4ccc([nH]4)c(-c4cccc(S(=O)(=O)[O-])c4F)c4nc(c(-c5cccc(S(=O)(=O)[O-])c5F)c5ccc2[nH]5)C=C4)C=C3)cc1
REMARK SMILES IDX 23 1 22 2 21 3 20 4 18 5 19 6 5 8 4 9 2 10 1 11 3 12 6 13
REMARK SMILES IDX 7 14 8 15 9 17 10 18 11 20 12 21 13 22 14 23 17 24 15 25
REMARK SMILES IDX 16 26 24 27 25 28 26 29 27 30 28 31 29 33 30 34 31 35 92 36
REMARK SMILES IDX 32 37 91 38 33 39 34 40 35 41 85 42 36 43 90 44 84 45 86 46
REMARK SMILES IDX 37 47 89 48 83 49 82 50 38 52 70 53 50 54 69 55 51 56 54 57
REMARK SMILES IDX 68 58 87 59 52 60 53 61 67 63 88 64 55 65 39 66 40 67 48 68
REMARK SMILES IDX 41 69 43 70 49 71 42 72 44 73 45 74 46 75 47 76 71 77 72 78
REMARK SMILES IDX 80 79 73 80 75 81 81 82 74 83 76 84 77 85 78 86 79 87 56 88
REMARK SMILES IDX 57 89 65 90 58 91 60 92 66 93 59 94 61 95 62 96 63 97 64 98
REMARK H PARENT 20 7 7 16 10 19 27 32 86 51 54 62
REMARK Flexibility Score: inf
ROOT
ATOM      1  C   UNL A   1      32.185  29.237  26.896  1.00  0.00     0.002 C 
ENDROOT
BRANCH   1   2
ATOM      2  C   UNL A   1      33.572  28.814  26.409  1.00  0.00     0.021 C 
BRANCH   2   3
ATOM      3  C   UNL A   1      33.609  27.395  25.858  1.00  0.00     0.116 C 
BRANCH   3   4
ATOM      4  N   UNL A   1      32.598  26.576  26.484  1.00  0.00    -0.356 N 
ATOM      5  C   UNL A   1      32.197  25.317  26.192  1.00  0.00     0.224 C 
ATOM      6  O   UNL A   1      31.278  24.845  26.870  1.00  0.00    -0.275 OA
ATOM      7  H   UNL A   1      32.129  26.997  27.239  1.00  0.00     0.163 HD
BRANCH   5   8
ATOM      8  C   UNL A   1      32.798  24.504  25.058  1.00  0.00     0.098 C 
BRANCH   8   9
ATOM      9  C   UNL A   1      34.332  24.374  24.915  1.00  0.00     0.018 C 
BRANCH   9  10
ATOM     10  C   UNL A   1      35.049  23.008  24.949  1.00  0.00    -0.017 C 
ATOM     11  C   UNL A   1      34.326  21.873  24.231  1.00  0.00     0.007 C 
ATOM     12  C   UNL A   1      36.454  23.166  24.346  1.00  0.00     0.007 C 
ENDBRANCH   9  10
ENDBRANCH   8   9
BRANCH   8  13
ATOM     13  C   UNL A   1      32.008  24.717  23.741  1.00  0.00     0.131 C 
BRANCH  13  14
ATOM     14  N   UNL A   1      32.765  25.014  22.531  1.00  0.00    -0.337 N 
ATOM     15  C   UNL A   1      32.614  25.860  21.501  1.00  0.00     0.315 C 
ATOM     16  H   UNL A   1      33.577  24.462  22.450  1.00  0.00     0.165 HD
ATOM     17  O   UNL A   1      33.139  25.554  20.430  1.00  0.00    -0.249 OA
ATOM     18  N   UNL A   1      31.906  26.992  21.577  1.00  0.00    -0.332 N 
ATOM     19  H   UNL A   1      31.431  27.244  20.752  1.00  0.00     0.165 HD
BRANCH  18  20
ATOM     20  C   UNL A   1      31.732  27.900  22.689  1.00  0.00     0.112 C 
ATOM     21  C   UNL A   1      32.804  28.989  22.667  1.00  0.00     0.036 C 
BRANCH  20  22
ATOM     22  C   UNL A   1      30.319  28.416  22.643  1.00  0.00    -0.015 A 
ATOM     23  C   UNL A   1      29.168  27.805  23.246  1.00  0.00     0.017 A 
ATOM     24  C   UNL A   1      29.957  29.597  22.014  1.00  0.00     0.070 A 
ATOM     25  C   UNL A   1      28.011  28.525  23.042  1.00  0.00     0.065 A 
ATOM     26  S   UNL A   1      28.291  29.946  22.139  1.00  0.00    -0.152 S 
ENDBRANCH  20  22
ENDBRANCH  18  20
ENDBRANCH  13  14
ENDBRANCH   8  13
ENDBRANCH   5   8
ENDBRANCH   3   4
ENDBRANCH   2   3
ENDBRANCH   1   2
BRANCH   1  27
ATOM     27  C   UNL A   1      31.465  30.238  25.985  1.00  0.00     0.002 C 
BRANCH  27  28
ATOM     28  C   UNL A   1      31.344  31.653  26.556  1.00  0.00     0.021 C 
BRANCH  28  29
ATOM     29  C   UNL A   1      32.675  32.375  26.727  1.00  0.00     0.116 C 
BRANCH  29  30
ATOM     30  N   UNL A   1      32.494  33.697  27.306  1.00  0.00    -0.352 N 
ATOM     31  C   UNL A   1      33.137  34.265  28.375  1.00  0.00     0.251 C 
ATOM     32  H   UNL A   1      31.818  34.263  26.867  1.00  0.00     0.163 HD
ATOM     33  O   UNL A   1      32.706  35.292  28.883  1.00  0.00    -0.269 OA
BRANCH  31  34
ATOM     34  C   UNL A   1      34.351  33.615  28.909  1.00  0.00     0.039 A 
ATOM     35  C   UNL A   1      35.595  34.200  28.673  1.00  0.00     0.014 A 
ATOM     36  C   UNL A   1      34.249  32.433  29.649  1.00  0.00     0.014 A 
ATOM     37  C   UNL A   1      36.740  33.623  29.222  1.00  0.00     0.010 A 
ATOM     38  C   UNL A   1      35.381  31.905  30.259  1.00  0.00     0.010 A 
ATOM     39  C   UNL A   1      36.639  32.486  30.042  1.00  0.00    -0.014 A 
BRANCH  39  40
ATOM     40  C   UNL A   1      37.836  31.887  30.683  1.00  0.00     0.031 A 
ATOM     41  C   UNL A   1      38.634  30.841  29.951  1.00  0.00     0.074 A 
ATOM     42  C   UNL A   1      38.146  32.215  31.953  1.00  0.00     0.049 A 
ATOM     43  N   UNL A   1      39.665  30.152  30.368  1.00  0.00    -0.248 NA
ATOM     44  C   UNL A   1      38.207  30.505  28.581  1.00  0.00     0.031 C 
ATOM     45  C   UNL A   1      37.405  33.163  32.789  1.00  0.00     0.029 A 
ATOM     46  N   UNL A   1      39.148  31.765  32.775  1.00  0.00    -0.354 N 
ATOM     47  C   UNL A   1      39.974  29.271  29.339  1.00  0.00     0.074 A 
ATOM     48  C   UNL A   1      39.016  29.499  28.282  1.00  0.00     0.031 C 
ATOM     49  C   UNL A   1      37.977  33.224  34.002  1.00  0.00     0.029 A 
ATOM     50  C   UNL A   1      39.100  32.293  34.045  1.00  0.00     0.049 A 
ATOM     51  H   UNL A   1      39.837  31.124  32.484  1.00  0.00     0.167 HD
ATOM     52  C   UNL A   1      40.979  28.367  29.275  1.00  0.00     0.034 A 
ATOM     53  C   UNL A   1      39.864  32.041  35.127  1.00  0.00     0.034 A 
ATOM     54  C   UNL A   1      41.960  28.182  30.308  1.00  0.00     0.049 A 
ATOM     55  C   UNL A   1      40.994  31.053  35.007  1.00  0.00     0.074 A 
ATOM     56  C   UNL A   1      43.083  27.373  30.288  1.00  0.00     0.029 A 
ATOM     57  N   UNL A   1      41.929  28.796  31.549  1.00  0.00    -0.354 N 
ATOM     58  N   UNL A   1      41.379  30.360  33.963  1.00  0.00    -0.248 NA
ATOM     59  C   UNL A   1      41.816  30.834  36.206  1.00  0.00     0.031 C 
ATOM     60  C   UNL A   1      43.706  27.465  31.535  1.00  0.00     0.029 A 
ATOM     61  C   UNL A   1      42.999  28.367  32.313  1.00  0.00     0.049 A 
ATOM     62  H   UNL A   1      41.247  29.442  31.843  1.00  0.00     0.167 HD
ATOM     63  C   UNL A   1      42.513  29.664  34.365  1.00  0.00     0.074 A 
ATOM     64  C   UNL A   1      42.763  30.031  35.743  1.00  0.00     0.031 C 
ATOM     65  C   UNL A   1      43.272  28.790  33.661  1.00  0.00     0.034 A 
BRANCH  52  66
ATOM     66  C   UNL A   1      41.099  27.521  28.036  1.00  0.00     0.023 A 
ATOM     67  C   UNL A   1      41.668  28.061  26.866  1.00  0.00     0.012 A 
ATOM     68  C   UNL A   1      40.744  26.157  28.068  1.00  0.00     0.148 A 
ATOM     69  C   UNL A   1      41.862  27.264  25.739  1.00  0.00     0.002 A 
ATOM     70  C   UNL A   1      40.985  25.358  26.958  1.00  0.00     0.091 A 
ATOM     71  F   UNL A   1      40.187  25.668  29.185  1.00  0.00    -0.205 F 
ATOM     72  C   UNL A   1      41.534  25.911  25.790  1.00  0.00     0.022 A 
BRANCH  70  73
ATOM     73  S   UNL A   1      40.679  23.588  26.951  1.00  0.00     0.127 S 
ATOM     74  O   UNL A   1      41.174  23.198  28.271  1.00  0.00    -0.237 OA
ATOM     75  O   UNL A   1      39.224  23.530  26.805  1.00  0.00    -0.237 OA
ATOM     76  O   UNL A   1      41.428  23.052  25.824  1.00  0.00    -0.744 OA
ENDBRANCH  70  73
ENDBRANCH  52  66
BRANCH  53  77
ATOM     77  C   UNL A   1      39.622  32.761  36.411  1.00  0.00     0.023 A 
ATOM     78  C   UNL A   1      40.362  33.925  36.701  1.00  0.00     0.012 A 
ATOM     79  C   UNL A   1      38.687  32.291  37.352  1.00  0.00     0.148 A 
ATOM     80  C   UNL A   1      40.212  34.577  37.926  1.00  0.00     0.002 A 
ATOM     81  C   UNL A   1      38.500  32.979  38.545  1.00  0.00     0.091 A 
ATOM     82  F   UNL A   1      38.000  31.176  37.065  1.00  0.00    -0.205 F 
ATOM     83  C   UNL A   1      39.277  34.108  38.844  1.00  0.00     0.022 A 
BRANCH  81  84
ATOM     84  S   UNL A   1      37.231  32.519  39.730  1.00  0.00     0.127 S 
ATOM     85  O   UNL A   1      36.023  32.579  38.912  1.00  0.00    -0.237 OA
ATOM     86  O   UNL A   1      37.649  31.170  40.115  1.00  0.00    -0.237 OA
ATOM     87  O   UNL A   1      37.323  33.501  40.802  1.00  0.00    -0.744 OA
ENDBRANCH  81  84
ENDBRANCH  53  77
BRANCH  65  88
ATOM     88  C   UNL A   1      44.489  28.211  34.336  1.00  0.00     0.023 A 
ATOM     89  C   UNL A   1      44.401  26.984  35.022  1.00  0.00     0.012 A 
ATOM     90  C   UNL A   1      45.740  28.847  34.211  1.00  0.00     0.148 A 
ATOM     91  C   UNL A   1      45.534  26.415  35.602  1.00  0.00     0.002 A 
ATOM     92  C   UNL A   1      46.873  28.247  34.744  1.00  0.00     0.091 A 
ATOM     93  F   UNL A   1      45.799  30.021  33.567  1.00  0.00    -0.205 F 
ATOM     94  C   UNL A   1      46.771  27.039  35.451  1.00  0.00     0.022 A 
BRANCH  92  95
ATOM     95  S   UNL A   1      48.521  28.922  34.509  1.00  0.00     0.127 S 
ATOM     96  O   UNL A   1      48.532  29.184  33.070  1.00  0.00    -0.237 OA
ATOM     97  O   UNL A   1      48.486  30.122  35.347  1.00  0.00    -0.237 OA
ATOM     98  O   UNL A   1      49.447  27.894  34.961  1.00  0.00    -0.744 OA
ENDBRANCH  92  95
ENDBRANCH  65  88
ENDBRANCH  39  40
ENDBRANCH  31  34
ENDBRANCH  29  30
ENDBRANCH  28  29
ENDBRANCH  27  28
ENDBRANCH   1  27
TORSDOF 22
ENDMDL
MODEL 3
REMARK VINA RESULT:     -10.8      6.057     11.424
REMARK SMILES CC(C)C[C@H](CNC(=O)N[C@@H](C)c1ccsc1)C(=O)NCCCCCCNC(=O)c1ccc(-c2c3nc(c(-c4cccc(S(=O)(=O)[O-])c4F)c4ccc([nH]4)c(-c4cccc(S(=O)(=O)[O-])c4F)c4nc(c(-c5cccc(S(=O)(=O)[O-])c5F)c5ccc2[nH]5)C=C4)C=C3)cc1
REMARK SMILES IDX 23 1 22 2 21 3 20 4 18 5 19 6 5 8 4 9 2 10 1 11 3 12 6 13
REMARK SMILES IDX 7 14 8 15 9 17 10 18 11 20 12 21 13 22 14 23 17 24 15 25
REMARK SMILES IDX 16 26 24 27 25 28 26 29 27 30 28 31 29 33 30 34 31 35 92 36
REMARK SMILES IDX 32 37 91 38 33 39 34 40 35 41 85 42 36 43 90 44 84 45 86 46
REMARK SMILES IDX 37 47 89 48 83 49 82 50 38 52 70 53 50 54 69 55 51 56 54 57
REMARK SMILES IDX 68 58 87 59 52 60 53 61 67 63 88 64 55 65 39 66 40 67 48 68
REMARK SMILES IDX 41 69 43 70 49 71 42 72 44 73 45 74 46 75 47 76 71 77 72 78
REMARK SMILES IDX 80 79 73 80 75 81 81 82 74 83 76 84 77 85 78 86 79 87 56 88
REMARK SMILES IDX 57 89 65 90 58 91 60 92 66 93 59 94 61 95 62 96 63 97 64 98
REMARK H PARENT 20 7 7 16 10 19 27 32 86 51 54 62
REMARK Flexibility Score: inf
ROOT
ATOM      1  C   UNL A   1      32.347  30.120  27.184  1.00  0.00     0.002 C 
ENDROOT
BRANCH   1   2
ATOM      2  C   UNL A   1      33.653  29.610  26.571  1.00  0.00     0.021 C 
BRANCH   2   3
ATOM      3  C   UNL A   1      33.626  28.122  26.251  1.00  0.00     0.116 C 
BRANCH   3   4
ATOM      4  N   UNL A   1      32.426  27.508  26.769  1.00  0.00    -0.356 N 
ATOM      5  C   UNL A   1      31.411  26.898  26.115  1.00  0.00     0.224 C 
ATOM      6  O   UNL A   1      30.471  26.475  26.797  1.00  0.00    -0.275 OA
ATOM      7  H   UNL A   1      32.332  27.537  27.748  1.00  0.00     0.163 HD
BRANCH   5   8
ATOM      8  C   UNL A   1      31.372  26.760  24.601  1.00  0.00     0.098 C 
BRANCH   8   9
ATOM      9  C   UNL A   1      30.168  27.300  23.797  1.00  0.00     0.018 C 
BRANCH   9  10
ATOM     10  C   UNL A   1      30.265  28.569  22.923  1.00  0.00    -0.017 C 
ATOM     11  C   UNL A   1      29.445  29.760  23.410  1.00  0.00     0.007 C 
ATOM     12  C   UNL A   1      31.739  28.988  22.812  1.00  0.00     0.007 C 
ENDBRANCH   9  10
ENDBRANCH   8   9
BRANCH   8  13
ATOM     13  C   UNL A   1      31.927  25.383  24.155  1.00  0.00     0.131 C 
BRANCH  13  14
ATOM     14  N   UNL A   1      32.090  25.144  22.725  1.00  0.00    -0.337 N 
ATOM     15  C   UNL A   1      32.906  24.387  21.977  1.00  0.00     0.315 C 
ATOM     16  H   UNL A   1      31.452  25.662  22.182  1.00  0.00     0.165 HD
ATOM     17  O   UNL A   1      33.118  24.749  20.819  1.00  0.00    -0.249 OA
ATOM     18  N   UNL A   1      33.514  23.288  22.434  1.00  0.00    -0.332 N 
ATOM     19  H   UNL A   1      34.412  23.122  22.064  1.00  0.00     0.165 HD
BRANCH  18  20
ATOM     20  C   UNL A   1      33.052  22.306  23.390  1.00  0.00     0.112 C 
ATOM     21  C   UNL A   1      32.167  21.265  22.706  1.00  0.00     0.036 C 
BRANCH  20  22
ATOM     22  C   UNL A   1      34.259  21.737  24.085  1.00  0.00    -0.015 A 
ATOM     23  C   UNL A   1      34.413  20.393  24.566  1.00  0.00     0.017 A 
ATOM     24  C   UNL A   1      35.414  22.465  24.328  1.00  0.00     0.070 A 
ATOM     25  C   UNL A   1      35.643  20.170  25.147  1.00  0.00     0.065 A 
ATOM     26  S   UNL A   1      36.630  21.561  25.114  1.00  0.00    -0.152 S 
ENDBRANCH  20  22
ENDBRANCH  18  20
ENDBRANCH  13  14
ENDBRANCH   8  13
ENDBRANCH   5   8
ENDBRANCH   3   4
ENDBRANCH   2   3
ENDBRANCH   1   2
BRANCH   1  27
ATOM     27  C   UNL A   1      31.458  30.918  26.225  1.00  0.00     0.002 C 
BRANCH  27  28
ATOM     28  C   UNL A   1      31.370  32.416  26.525  1.00  0.00     0.021 C 
BRANCH  28  29
ATOM     29  C   UNL A   1      32.703  33.059  26.892  1.00  0.00     0.116 C 
BRANCH  29  30
ATOM     30  N   UNL A   1      32.511  34.311  27.608  1.00  0.00    -0.352 N 
ATOM     31  C   UNL A   1      33.111  34.745  28.761  1.00  0.00     0.251 C 
ATOM     32  H   UNL A   1      31.861  34.933  27.207  1.00  0.00     0.163 HD
ATOM     33  O   UNL A   1      32.669  35.714  29.363  1.00  0.00    -0.269 OA
BRANCH  31  34
ATOM     34  C   UNL A   1      34.293  34.018  29.270  1.00  0.00     0.039 A 
ATOM     35  C   UNL A   1      35.567  34.458  28.910  1.00  0.00     0.014 A 
ATOM     36  C   UNL A   1      34.132  32.912  30.109  1.00  0.00     0.014 A 
ATOM     37  C   UNL A   1      36.688  33.812  29.432  1.00  0.00     0.010 A 
ATOM     38  C   UNL A   1      35.249  32.322  30.689  1.00  0.00     0.010 A 
ATOM     39  C   UNL A   1      36.538  32.756  30.347  1.00  0.00    -0.014 A 
BRANCH  39  40
ATOM     40  C   UNL A   1      37.714  32.091  30.959  1.00  0.00     0.031 A 
ATOM     41  C   UNL A   1      38.452  31.022  30.199  1.00  0.00     0.074 A 
ATOM     42  C   UNL A   1      38.058  32.383  32.230  1.00  0.00     0.049 A 
ATOM     43  N   UNL A   1      39.455  30.279  30.588  1.00  0.00    -0.248 NA
ATOM     44  C   UNL A   1      37.990  30.730  28.829  1.00  0.00     0.031 C 
ATOM     45  C   UNL A   1      37.375  33.349  33.093  1.00  0.00     0.029 A 
ATOM     46  N   UNL A   1      39.050  31.872  33.029  1.00  0.00    -0.354 N 
ATOM     47  C   UNL A   1      39.708  29.402  29.540  1.00  0.00     0.074 A 
ATOM     48  C   UNL A   1      38.747  29.693  28.501  1.00  0.00     0.031 C 
ATOM     49  C   UNL A   1      37.967  33.362  34.298  1.00  0.00     0.029 A 
ATOM     50  C   UNL A   1      39.046  32.379  34.308  1.00  0.00     0.049 A 
ATOM     51  H   UNL A   1      39.704  31.204  32.717  1.00  0.00     0.167 HD
ATOM     52  C   UNL A   1      40.668  28.453  29.445  1.00  0.00     0.034 A 
ATOM     53  C   UNL A   1      39.813  32.074  35.373  1.00  0.00     0.034 A 
ATOM     54  C   UNL A   1      41.655  28.205  30.460  1.00  0.00     0.049 A 
ATOM     55  C   UNL A   1      40.893  31.036  35.220  1.00  0.00     0.074 A 
ATOM     56  C   UNL A   1      42.738  27.345  30.409  1.00  0.00     0.029 A 
ATOM     57  N   UNL A   1      41.671  28.799  31.711  1.00  0.00    -0.354 N 
ATOM     58  N   UNL A   1      41.230  30.344  34.159  1.00  0.00    -0.248 NA
ATOM     59  C   UNL A   1      41.722  30.758  36.403  1.00  0.00     0.031 C 
ATOM     60  C   UNL A   1      43.383  27.386  31.647  1.00  0.00     0.029 A 
ATOM     61  C   UNL A   1      42.731  28.306  32.451  1.00  0.00     0.049 A 
ATOM     62  H   UNL A   1      41.024  29.470  32.026  1.00  0.00     0.167 HD
ATOM     63  C   UNL A   1      42.336  29.589  34.532  1.00  0.00     0.074 A 
ATOM     64  C   UNL A   1      42.623  29.920  35.911  1.00  0.00     0.031 C 
ATOM     65  C   UNL A   1      43.043  28.693  33.801  1.00  0.00     0.034 A 
BRANCH  52  66
ATOM     66  C   UNL A   1      40.730  27.624  28.190  1.00  0.00     0.023 A 
ATOM     67  C   UNL A   1      41.439  28.096  27.068  1.00  0.00     0.012 A 
ATOM     68  C   UNL A   1      40.174  26.329  28.164  1.00  0.00     0.148 A 
ATOM     69  C   UNL A   1      41.575  27.301  25.931  1.00  0.00     0.002 A 
ATOM     70  C   UNL A   1      40.355  25.526  27.046  1.00  0.00     0.091 A 
ATOM     71  F   UNL A   1      39.488  25.908  29.235  1.00  0.00    -0.205 F 
ATOM     72  C   UNL A   1      41.046  26.014  25.925  1.00  0.00     0.022 A 
BRANCH  70  73
ATOM     73  S   UNL A   1      39.789  23.823  26.972  1.00  0.00     0.127 S 
ATOM     74  O   UNL A   1      38.337  23.991  27.036  1.00  0.00    -0.237 OA
ATOM     75  O   UNL A   1      40.295  23.389  25.670  1.00  0.00    -0.237 OA
ATOM     76  O   UNL A   1      40.385  23.148  28.116  1.00  0.00    -0.744 OA
ENDBRANCH  70  73
ENDBRANCH  52  66
BRANCH  53  77
ATOM     77  C   UNL A   1      39.624  32.781  36.673  1.00  0.00     0.023 A 
ATOM     78  C   UNL A   1      40.421  33.905  36.971  1.00  0.00     0.012 A 
ATOM     79  C   UNL A   1      38.682  32.339  37.620  1.00  0.00     0.148 A 
ATOM     80  C   UNL A   1      40.320  34.542  38.209  1.00  0.00     0.002 A 
ATOM     81  C   UNL A   1      38.545  33.014  38.828  1.00  0.00     0.091 A 
ATOM     82  F   UNL A   1      37.939  31.262  37.326  1.00  0.00    -0.205 F 
ATOM     83  C   UNL A   1      39.378  34.101  39.133  1.00  0.00     0.022 A 
BRANCH  81  84
ATOM     84  S   UNL A   1      37.273  32.593  40.025  1.00  0.00     0.127 S 
ATOM     85  O   UNL A   1      37.412  33.671  41.000  1.00  0.00    -0.237 OA
ATOM     86  O   UNL A   1      36.059  32.651  39.210  1.00  0.00    -0.237 OA
ATOM     87  O   UNL A   1      37.611  31.258  40.500  1.00  0.00    -0.744 OA
ENDBRANCH  81  84
ENDBRANCH  53  77
BRANCH  65  88
ATOM     88  C   UNL A   1      44.241  28.046  34.448  1.00  0.00     0.023 A 
ATOM     89  C   UNL A   1      45.501  28.673  34.389  1.00  0.00     0.012 A 
ATOM     90  C   UNL A   1      44.092  26.857  35.189  1.00  0.00     0.148 A 
ATOM     91  C   UNL A   1      46.602  28.108  35.030  1.00  0.00     0.002 A 
ATOM     92  C   UNL A   1      45.180  26.330  35.871  1.00  0.00     0.091 A 
ATOM     93  F   UNL A   1      42.887  26.269  35.220  1.00  0.00    -0.205 F 
ATOM     94  C   UNL A   1      46.439  26.946  35.782  1.00  0.00     0.022 A 
BRANCH  92  95
ATOM     95  S   UNL A   1      45.042  24.899  36.947  1.00  0.00     0.127 S 
ATOM     96  O   UNL A   1      46.371  24.854  37.554  1.00  0.00    -0.237 OA
ATOM     97  O   UNL A   1      43.968  25.301  37.858  1.00  0.00    -0.237 OA
ATOM     98  O   UNL A   1      44.713  23.774  36.084  1.00  0.00    -0.744 OA
ENDBRANCH  92  95
ENDBRANCH  65  88
ENDBRANCH  39  40
ENDBRANCH  31  34
ENDBRANCH  29  30
ENDBRANCH  28  29
ENDBRANCH  27  28
ENDBRANCH   1  27
TORSDOF 22
ENDMDL
