MODEL 1
REMARK VINA RESULT:     -12.2      0.000      0.000
REMARK SMILES O=C(NCCCCCCNC(=O)c1ccc(-c2c3nc(c(-c4cccc(S(=O)(=O)[O-])c4F)c4ccc([nH]4)c(-c4cccc(S(=O)(=O)[O-])c4F)c4nc(c(-c5cccc(S(=O)(=O)[O-])c5F)c5ccc2[nH]5)C=C4)C=C3)cc1)C1=Cc2cc(Cl)cc(-c3ccc(CO)cc3)c2O[C@@H]1C(F)(F)F
REMARK SMILES IDX 6 1 5 2 4 3 3 4 1 5 2 6 76 8 77 9 94 10 78 11 93 12 79 13
REMARK SMILES IDX 92 14 80 15 83 16 81 17 82 18 95 19 96 20 97 21 98 22 84 23
REMARK SMILES IDX 85 24 91 25 86 26 90 27 87 28 88 29 89 30 7 32 8 33 9 34
REMARK SMILES IDX 10 35 11 36 12 38 13 39 14 40 75 41 15 42 74 43 16 44 17 45
REMARK SMILES IDX 18 46 68 47 19 48 73 49 67 50 69 51 20 52 72 53 66 54 65 55
REMARK SMILES IDX 21 57 53 58 33 59 52 60 34 61 37 62 51 63 70 64 35 65 36 66
REMARK SMILES IDX 50 68 71 69 38 70 22 71 23 72 31 73 24 74 26 75 32 76 25 77
REMARK SMILES IDX 27 78 28 79 29 80 30 81 54 82 55 83 63 84 56 85 58 86 64 87
REMARK SMILES IDX 57 88 59 89 60 90 61 91 62 92 39 93 40 94 48 95 41 96 43 97
REMARK SMILES IDX 49 98 42 99 44 100 45 101 46 102 47 103
REMARK H PARENT 3 7 89 31 10 37 69 56 37 67
REMARK Flexibility Score: inf
ROOT
ATOM      1  C   UNL A   1      31.110  27.919  27.294  1.00  0.00     0.002 C 
ENDROOT
BRANCH   1   2
ATOM      2  C   UNL A   1      30.841  27.383  25.885  1.00  0.00     0.021 C 
BRANCH   2   3
ATOM      3  C   UNL A   1      30.298  25.962  25.765  1.00  0.00     0.116 C 
BRANCH   3   4
ATOM      4  N   UNL A   1      30.969  24.939  26.548  1.00  0.00    -0.352 N 
ATOM      5  O   UNL A   1      32.596  23.529  27.168  1.00  0.00    -0.270 OA
ATOM      6  C   UNL A   1      32.146  24.284  26.303  1.00  0.00     0.251 C 
ATOM      7  H   UNL A   1      30.508  24.677  27.376  1.00  0.00     0.163 HD
BRANCH   6   8
ATOM      8  C   UNL A   1      32.964  24.483  25.060  1.00  0.00     0.067 C 
ATOM      9  C   UNL A   1      34.236  24.920  25.067  1.00  0.00     0.025 C 
ATOM     10  C   UNL A   1      32.609  23.470  23.987  1.00  0.00     0.314 C 
ATOM     11  C   UNL A   1      35.186  23.776  24.933  1.00  0.00     0.019 A 
ATOM     12  O   UNL A   1      33.424  22.276  24.153  1.00  0.00    -0.475 OA
ATOM     13  C   UNL A   1      36.490  23.966  25.398  1.00  0.00     0.032 A 
ATOM     14  C   UNL A   1      34.701  22.480  24.636  1.00  0.00     0.135 A 
ATOM     15  C   UNL A   1      37.276  22.856  25.673  1.00  0.00     0.042 A 
ATOM     16  C   UNL A   1      35.475  21.354  24.965  1.00  0.00     0.026 A 
ATOM     17  Cl  UNL A   1      38.800  23.071  26.440  1.00  0.00    -0.084 Cl
ATOM     18  C   UNL A   1      36.775  21.569  25.474  1.00  0.00     0.033 A 
BRANCH  10  19
ATOM     19  C   UNL A   1      32.683  24.055  22.561  1.00  0.00     0.429 C 
ATOM     20  F   UNL A   1      32.872  23.088  21.632  1.00  0.00    -0.167 F 
ATOM     21  F   UNL A   1      31.526  24.688  22.234  1.00  0.00    -0.167 F 
ATOM     22  F   UNL A   1      33.677  24.960  22.405  1.00  0.00    -0.167 F 
ENDBRANCH  10  19
BRANCH  16  23
ATOM     23  C   UNL A   1      34.935  19.985  25.050  1.00  0.00    -0.015 A 
ATOM     24  C   UNL A   1      35.729  18.905  24.629  1.00  0.00     0.009 A 
ATOM     25  C   UNL A   1      33.594  19.728  25.348  1.00  0.00     0.009 A 
ATOM     26  C   UNL A   1      35.183  17.643  24.385  1.00  0.00     0.007 A 
ATOM     27  C   UNL A   1      33.051  18.449  25.156  1.00  0.00     0.007 A 
ATOM     28  C   UNL A   1      33.831  17.404  24.642  1.00  0.00    -0.023 A 
BRANCH  28  29
ATOM     29  C   UNL A   1      33.229  16.065  24.316  1.00  0.00     0.191 C 
BRANCH  29  30
ATOM     30  O   UNL A   1      32.024  15.861  25.042  1.00  0.00    -0.392 OA
ATOM     31  H   UNL A   1      31.969  14.933  25.321  1.00  0.00     0.211 HD
ENDBRANCH  29  30
ENDBRANCH  28  29
ENDBRANCH  16  23
ENDBRANCH   6   8
ENDBRANCH   3   4
ENDBRANCH   2   3
ENDBRANCH   1   2
BRANCH   1  32
ATOM     32  C   UNL A   1      32.547  28.330  27.628  1.00  0.00     0.002 C 
BRANCH  32  33
ATOM     33  C   UNL A   1      33.628  27.992  26.602  1.00  0.00     0.021 C 
BRANCH  33  34
ATOM     34  C   UNL A   1      34.196  29.183  25.842  1.00  0.00     0.116 C 
BRANCH  34  35
ATOM     35  N   UNL A   1      34.016  30.443  26.551  1.00  0.00    -0.352 N 
ATOM     36  C   UNL A   1      34.699  30.973  27.620  1.00  0.00     0.251 C 
ATOM     37  H   UNL A   1      33.285  31.007  26.208  1.00  0.00     0.163 HD
ATOM     38  O   UNL A   1      34.277  31.988  28.160  1.00  0.00    -0.269 OA
BRANCH  36  39
ATOM     39  C   UNL A   1      35.927  30.318  28.129  1.00  0.00     0.039 A 
ATOM     40  C   UNL A   1      37.112  30.438  27.397  1.00  0.00     0.014 A 
ATOM     41  C   UNL A   1      35.914  29.575  29.309  1.00  0.00     0.014 A 
ATOM     42  C   UNL A   1      38.289  29.858  27.879  1.00  0.00     0.010 A 
ATOM     43  C   UNL A   1      37.105  29.095  29.843  1.00  0.00     0.010 A 
ATOM     44  C   UNL A   1      38.303  29.209  29.124  1.00  0.00    -0.014 A 
BRANCH  44  45
ATOM     45  C   UNL A   1      39.548  28.617  29.679  1.00  0.00     0.031 A 
ATOM     46  C   UNL A   1      40.203  29.237  30.888  1.00  0.00     0.074 A 
ATOM     47  C   UNL A   1      40.130  27.574  29.055  1.00  0.00     0.049 A 
ATOM     48  N   UNL A   1      41.325  28.911  31.476  1.00  0.00    -0.248 NA
ATOM     49  C   UNL A   1      39.528  30.396  31.496  1.00  0.00     0.031 C 
ATOM     50  C   UNL A   1      39.643  26.941  27.827  1.00  0.00     0.029 A 
ATOM     51  N   UNL A   1      41.275  26.878  29.352  1.00  0.00    -0.354 N 
ATOM     52  C   UNL A   1      41.505  29.841  32.493  1.00  0.00     0.074 A 
ATOM     53  C   UNL A   1      40.407  30.777  32.410  1.00  0.00     0.031 C 
ATOM     54  C   UNL A   1      40.476  25.948  27.481  1.00  0.00     0.029 A 
ATOM     55  C   UNL A   1      41.576  25.894  28.438  1.00  0.00     0.049 A 
ATOM     56  H   UNL A   1      41.829  27.064  30.145  1.00  0.00     0.167 HD
ATOM     57  C   UNL A   1      42.473  29.893  33.439  1.00  0.00     0.034 A 
ATOM     58  C   UNL A   1      42.628  25.054  28.370  1.00  0.00     0.034 A 
ATOM     59  C   UNL A   1      43.538  28.934  33.545  1.00  0.00     0.049 A 
ATOM     60  C   UNL A   1      43.669  25.104  29.457  1.00  0.00     0.074 A 
ATOM     61  C   UNL A   1      44.526  28.850  34.509  1.00  0.00     0.029 A 
ATOM     62  N   UNL A   1      43.756  27.894  32.654  1.00  0.00    -0.354 N 
ATOM     63  N   UNL A   1      43.740  25.900  30.495  1.00  0.00    -0.248 NA
ATOM     64  C   UNL A   1      44.753  24.113  29.384  1.00  0.00     0.031 C 
ATOM     65  C   UNL A   1      45.359  27.773  34.186  1.00  0.00     0.029 A 
ATOM     66  C   UNL A   1      44.866  27.165  33.043  1.00  0.00     0.049 A 
ATOM     67  H   UNL A   1      43.203  27.704  31.862  1.00  0.00     0.167 HD
ATOM     68  C   UNL A   1      44.853  25.487  31.217  1.00  0.00     0.074 A 
ATOM     69  C   UNL A   1      45.411  24.352  30.511  1.00  0.00     0.031 C 
ATOM     70  C   UNL A   1      45.376  26.007  32.355  1.00  0.00     0.034 A 
BRANCH  57  71
ATOM     71  C   UNL A   1      42.388  30.989  34.471  1.00  0.00     0.023 A 
ATOM     72  C   UNL A   1      41.621  30.786  35.638  1.00  0.00     0.012 A 
ATOM     73  C   UNL A   1      43.104  32.191  34.317  1.00  0.00     0.148 A 
ATOM     74  C   UNL A   1      41.537  31.777  36.615  1.00  0.00     0.002 A 
ATOM     75  C   UNL A   1      43.056  33.154  35.319  1.00  0.00     0.091 A 
ATOM     76  F   UNL A   1      43.813  32.375  33.194  1.00  0.00    -0.205 F 
ATOM     77  C   UNL A   1      42.261  32.954  36.461  1.00  0.00     0.022 A 
BRANCH  75  78
ATOM     78  S   UNL A   1      44.015  34.671  35.258  1.00  0.00     0.127 S 
ATOM     79  O   UNL A   1      43.412  35.356  34.116  1.00  0.00    -0.237 OA
ATOM     80  O   UNL A   1      43.716  35.273  36.558  1.00  0.00    -0.237 OA
ATOM     81  O   UNL A   1      45.401  34.265  35.077  1.00  0.00    -0.744 OA
ENDBRANCH  75  78
ENDBRANCH  57  71
BRANCH  58  82
ATOM     82  C   UNL A   1      42.723  24.063  27.261  1.00  0.00     0.023 A 
ATOM     83  C   UNL A   1      43.406  24.401  26.076  1.00  0.00     0.012 A 
ATOM     84  C   UNL A   1      42.154  22.779  27.382  1.00  0.00     0.148 A 
ATOM     85  C   UNL A   1      43.486  23.495  25.017  1.00  0.00     0.002 A 
ATOM     86  C   UNL A   1      42.289  21.861  26.347  1.00  0.00     0.091 A 
ATOM     87  F   UNL A   1      41.500  22.478  28.512  1.00  0.00    -0.205 F 
ATOM     88  C   UNL A   1      42.938  22.224  25.156  1.00  0.00     0.022 A 
BRANCH  86  89
ATOM     89  S   UNL A   1      41.734  20.159  26.492  1.00  0.00     0.127 S 
ATOM     90  O   UNL A   1      40.283  20.312  26.428  1.00  0.00    -0.237 OA
ATOM     91  O   UNL A   1      42.342  19.541  25.313  1.00  0.00    -0.237 OA
ATOM     92  O   UNL A   1      42.265  19.678  27.761  1.00  0.00    -0.744 OA
ENDBRANCH  86  89
ENDBRANCH  58  82
BRANCH  70  93
ATOM     93  C   UNL A   1      46.589  25.331  32.940  1.00  0.00     0.023 A 
ATOM     94  C   UNL A   1      47.880  25.767  32.584  1.00  0.00     0.012 A 
ATOM     95  C   UNL A   1      46.442  24.311  33.900  1.00  0.00     0.148 A 
ATOM     96  C   UNL A   1      49.008  25.173  33.149  1.00  0.00     0.002 A 
ATOM     97  C   UNL A   1      47.568  23.760  34.499  1.00  0.00     0.091 A 
ATOM     98  F   UNL A   1      45.204  23.900  34.212  1.00  0.00    -0.205 F 
ATOM     99  C   UNL A   1      48.852  24.181  34.114  1.00  0.00     0.022 A 
BRANCH  97 100
ATOM    100  S   UNL A   1      47.463  22.551  35.822  1.00  0.00     0.127 S 
ATOM    101  O   UNL A   1      48.799  21.959  35.789  1.00  0.00    -0.237 OA
ATOM    102  O   UNL A   1      47.196  23.392  36.989  1.00  0.00    -0.237 OA
ATOM    103  O   UNL A   1      46.374  21.652  35.461  1.00  0.00    -0.744 OA
ENDBRANCH  97 100
ENDBRANCH  70  93
ENDBRANCH  44  45
ENDBRANCH  36  39
ENDBRANCH  34  35
ENDBRANCH  33  34
ENDBRANCH  32  33
ENDBRANCH   1  32
TORSDOF 20
ENDMDL
MODEL 2
REMARK VINA RESULT:     -12.0      2.528      3.225
REMARK SMILES O=C(NCCCCCCNC(=O)c1ccc(-c2c3nc(c(-c4cccc(S(=O)(=O)[O-])c4F)c4ccc([nH]4)c(-c4cccc(S(=O)(=O)[O-])c4F)c4nc(c(-c5cccc(S(=O)(=O)[O-])c5F)c5ccc2[nH]5)C=C4)C=C3)cc1)C1=Cc2cc(Cl)cc(-c3ccc(CO)cc3)c2O[C@@H]1C(F)(F)F
REMARK SMILES IDX 6 1 5 2 4 3 3 4 1 5 2 6 76 8 77 9 94 10 78 11 93 12 79 13
REMARK SMILES IDX 92 14 80 15 83 16 81 17 82 18 95 19 96 20 97 21 98 22 84 23
REMARK SMILES IDX 85 24 91 25 86 26 90 27 87 28 88 29 89 30 7 32 8 33 9 34
REMARK SMILES IDX 10 35 11 36 12 38 13 39 14 40 75 41 15 42 74 43 16 44 17 45
REMARK SMILES IDX 18 46 68 47 19 48 73 49 67 50 69 51 20 52 72 53 66 54 65 55
REMARK SMILES IDX 21 57 53 58 33 59 52 60 34 61 37 62 51 63 70 64 35 65 36 66
REMARK SMILES IDX 50 68 71 69 38 70 22 71 23 72 31 73 24 74 26 75 32 76 25 77
REMARK SMILES IDX 27 78 28 79 29 80 30 81 54 82 55 83 63 84 56 85 58 86 64 87
REMARK SMILES IDX 57 88 59 89 60 90 61 91 62 92 39 93 40 94 48 95 41 96 43 97
REMARK SMILES IDX 49 98 42 99 44 100 45 101 46 102 47 103
REMARK H PARENT 3 7 89 31 10 37 69 56 37 67
REMARK Flexibility Score: inf
ROOT
ATOM      1  C   UNL A   1      31.011  27.436  27.239  1.00  0.00     0.002 C 
ENDROOT
BRANCH   1   2
ATOM      2  C   UNL A   1      30.976  26.617  25.945  1.00  0.00     0.021 C 
BRANCH   2   3
ATOM      3  C   UNL A   1      30.446  25.188  26.031  1.00  0.00     0.116 C 
BRANCH   3   4
ATOM      4  N   UNL A   1      31.220  24.252  26.830  1.00  0.00    -0.352 N 
ATOM      5  O   UNL A   1      32.970  22.998  27.448  1.00  0.00    -0.270 OA
ATOM      6  C   UNL A   1      32.436  23.680  26.571  1.00  0.00     0.251 C 
ATOM      7  H   UNL A   1      30.806  23.991  27.684  1.00  0.00     0.163 HD
BRANCH   6   8
ATOM      8  C   UNL A   1      33.196  23.888  25.294  1.00  0.00     0.067 C 
ATOM      9  C   UNL A   1      34.520  24.122  25.244  1.00  0.00     0.025 C 
ATOM     10  C   UNL A   1      32.618  23.069  24.155  1.00  0.00     0.314 C 
ATOM     11  C   UNL A   1      35.264  22.869  24.921  1.00  0.00     0.019 A 
ATOM     12  O   UNL A   1      33.238  21.752  24.136  1.00  0.00    -0.475 OA
ATOM     13  C   UNL A   1      36.608  22.803  25.299  1.00  0.00     0.032 A 
ATOM     14  C   UNL A   1      34.559  21.703  24.534  1.00  0.00     0.135 A 
ATOM     15  C   UNL A   1      37.221  21.562  25.398  1.00  0.00     0.042 A 
ATOM     16  C   UNL A   1      35.161  20.442  24.686  1.00  0.00     0.026 A 
ATOM     17  Cl  UNL A   1      38.804  21.454  26.059  1.00  0.00    -0.084 Cl
ATOM     18  C   UNL A   1      36.508  20.397  25.111  1.00  0.00     0.033 A 
BRANCH  10  19
ATOM     19  C   UNL A   1      32.695  23.791  22.794  1.00  0.00     0.429 C 
ATOM     20  F   UNL A   1      33.642  24.759  22.794  1.00  0.00    -0.167 F 
ATOM     21  F   UNL A   1      33.025  22.924  21.801  1.00  0.00    -0.167 F 
ATOM     22  F   UNL A   1      31.528  24.372  22.431  1.00  0.00    -0.167 F 
ENDBRANCH  10  19
BRANCH  16  23
ATOM     23  C   UNL A   1      34.414  19.171  24.676  1.00  0.00    -0.015 A 
ATOM     24  C   UNL A   1      33.189  19.088  25.359  1.00  0.00     0.009 A 
ATOM     25  C   UNL A   1      34.964  17.986  24.180  1.00  0.00     0.009 A 
ATOM     26  C   UNL A   1      32.596  17.859  25.655  1.00  0.00     0.007 A 
ATOM     27  C   UNL A   1      34.345  16.752  24.428  1.00  0.00     0.007 A 
ATOM     28  C   UNL A   1      33.174  16.674  25.196  1.00  0.00    -0.023 A 
BRANCH  28  29
ATOM     29  C   UNL A   1      32.572  15.348  25.572  1.00  0.00     0.191 C 
BRANCH  29  30
ATOM     30  O   UNL A   1      33.534  14.307  25.467  1.00  0.00    -0.392 OA
ATOM     31  H   UNL A   1      33.365  13.641  26.151  1.00  0.00     0.211 HD
ENDBRANCH  29  30
ENDBRANCH  28  29
ENDBRANCH  16  23
ENDBRANCH   6   8
ENDBRANCH   3   4
ENDBRANCH   2   3
ENDBRANCH   1   2
BRANCH   1  32
ATOM     32  C   UNL A   1      32.236  28.322  27.477  1.00  0.00     0.002 C 
BRANCH  32  33
ATOM     33  C   UNL A   1      33.557  27.873  26.854  1.00  0.00     0.021 C 
BRANCH  33  34
ATOM     34  C   UNL A   1      34.256  28.916  25.992  1.00  0.00     0.116 C 
BRANCH  34  35
ATOM     35  N   UNL A   1      33.807  30.273  26.274  1.00  0.00    -0.352 N 
ATOM     36  C   UNL A   1      34.196  31.159  27.250  1.00  0.00     0.251 C 
ATOM     37  H   UNL A   1      33.111  30.611  25.666  1.00  0.00     0.163 HD
ATOM     38  O   UNL A   1      33.572  32.202  27.400  1.00  0.00    -0.269 OA
BRANCH  36  39
ATOM     39  C   UNL A   1      35.351  30.854  28.128  1.00  0.00     0.039 A 
ATOM     40  C   UNL A   1      35.227  29.840  29.082  1.00  0.00     0.014 A 
ATOM     41  C   UNL A   1      36.544  31.570  28.030  1.00  0.00     0.014 A 
ATOM     42  C   UNL A   1      36.316  29.512  29.895  1.00  0.00     0.010 A 
ATOM     43  C   UNL A   1      37.658  31.170  28.759  1.00  0.00     0.010 A 
ATOM     44  C   UNL A   1      37.553  30.153  29.717  1.00  0.00    -0.014 A 
BRANCH  44  45
ATOM     45  C   UNL A   1      38.738  29.798  30.540  1.00  0.00     0.031 A 
ATOM     46  C   UNL A   1      38.942  30.447  31.887  1.00  0.00     0.074 A 
ATOM     47  C   UNL A   1      39.668  28.955  30.049  1.00  0.00     0.049 A 
ATOM     48  N   UNL A   1      39.943  30.322  32.720  1.00  0.00    -0.248 NA
ATOM     49  C   UNL A   1      37.901  31.385  32.343  1.00  0.00     0.031 C 
ATOM     50  C   UNL A   1      39.630  28.331  28.724  1.00  0.00     0.029 A 
ATOM     51  N   UNL A   1      40.841  28.497  30.596  1.00  0.00    -0.354 N 
ATOM     52  C   UNL A   1      39.670  31.187  33.773  1.00  0.00     0.074 A 
ATOM     53  C   UNL A   1      38.439  31.871  33.452  1.00  0.00     0.031 C 
ATOM     54  C   UNL A   1      40.723  27.568  28.564  1.00  0.00     0.029 A 
ATOM     55  C   UNL A   1      41.557  27.675  29.756  1.00  0.00     0.049 A 
ATOM     56  H   UNL A   1      41.141  28.734  31.503  1.00  0.00     0.167 HD
ATOM     57  C   UNL A   1      40.358  31.369  34.925  1.00  0.00     0.034 A 
ATOM     58  C   UNL A   1      42.758  27.085  29.923  1.00  0.00     0.034 A 
ATOM     59  C   UNL A   1      41.558  30.654  35.261  1.00  0.00     0.049 A 
ATOM     60  C   UNL A   1      43.483  27.271  31.229  1.00  0.00     0.074 A 
ATOM     61  C   UNL A   1      42.292  30.707  36.432  1.00  0.00     0.029 A 
ATOM     62  N   UNL A   1      42.203  29.757  34.423  1.00  0.00    -0.354 N 
ATOM     63  N   UNL A   1      43.133  27.980  32.274  1.00  0.00    -0.248 NA
ATOM     64  C   UNL A   1      44.749  26.542  31.395  1.00  0.00     0.031 C 
ATOM     65  C   UNL A   1      43.397  29.860  36.292  1.00  0.00     0.029 A 
ATOM     66  C   UNL A   1      43.330  29.252  35.049  1.00  0.00     0.049 A 
ATOM     67  H   UNL A   1      41.905  29.516  33.517  1.00  0.00     0.167 HD
ATOM     68  C   UNL A   1      44.114  27.759  33.233  1.00  0.00     0.074 A 
ATOM     69  C   UNL A   1      45.060  26.827  32.653  1.00  0.00     0.031 C 
ATOM     70  C   UNL A   1      44.231  28.287  34.476  1.00  0.00     0.034 A 
BRANCH  57  71
ATOM     71  C   UNL A   1      39.794  32.337  35.934  1.00  0.00     0.023 A 
ATOM     72  C   UNL A   1      38.910  31.868  36.930  1.00  0.00     0.012 A 
ATOM     73  C   UNL A   1      40.174  33.693  35.934  1.00  0.00     0.148 A 
ATOM     74  C   UNL A   1      38.385  32.739  37.883  1.00  0.00     0.002 A 
ATOM     75  C   UNL A   1      39.686  34.545  36.918  1.00  0.00     0.091 A 
ATOM     76  F   UNL A   1      41.000  34.126  34.970  1.00  0.00    -0.205 F 
ATOM     77  C   UNL A   1      38.781  34.073  37.884  1.00  0.00     0.022 A 
BRANCH  75  78
ATOM     78  S   UNL A   1      40.195  36.262  37.060  1.00  0.00     0.127 S 
ATOM     79  O   UNL A   1      39.792  36.797  35.760  1.00  0.00    -0.237 OA
ATOM     80  O   UNL A   1      39.388  36.727  38.188  1.00  0.00    -0.237 OA
ATOM     81  O   UNL A   1      41.630  36.239  37.304  1.00  0.00    -0.744 OA
ENDBRANCH  75  78
ENDBRANCH  57  71
BRANCH  58  82
ATOM     82  C   UNL A   1      43.325  26.227  28.845  1.00  0.00     0.023 A 
ATOM     83  C   UNL A   1      42.952  24.871  28.759  1.00  0.00     0.012 A 
ATOM     84  C   UNL A   1      44.219  26.753  27.892  1.00  0.00     0.148 A 
ATOM     85  C   UNL A   1      43.491  24.045  27.771  1.00  0.00     0.002 A 
ATOM     86  C   UNL A   1      44.705  25.940  26.874  1.00  0.00     0.091 A 
ATOM     87  F   UNL A   1      44.570  28.043  27.993  1.00  0.00    -0.205 F 
ATOM     88  C   UNL A   1      44.358  24.581  26.824  1.00  0.00     0.022 A 
BRANCH  86  89
ATOM     89  S   UNL A   1      45.717  26.577  25.534  1.00  0.00     0.127 S 
ATOM     90  O   UNL A   1      44.857  27.619  24.979  1.00  0.00    -0.237 OA
ATOM     91  O   UNL A   1      46.895  27.067  26.250  1.00  0.00    -0.237 OA
ATOM     92  O   UNL A   1      45.978  25.439  24.662  1.00  0.00    -0.744 OA
ENDBRANCH  86  89
ENDBRANCH  58  82
BRANCH  70  93
ATOM     93  C   UNL A   1      45.397  27.841  35.318  1.00  0.00     0.023 A 
ATOM     94  C   UNL A   1      46.600  28.574  35.303  1.00  0.00     0.012 A 
ATOM     95  C   UNL A   1      45.271  26.735  36.182  1.00  0.00     0.148 A 
ATOM     96  C   UNL A   1      47.672  28.191  36.108  1.00  0.00     0.002 A 
ATOM     97  C   UNL A   1      46.323  26.391  37.021  1.00  0.00     0.091 A 
ATOM     98  F   UNL A   1      44.122  26.041  36.169  1.00  0.00    -0.205 F 
ATOM     99  C   UNL A   1      47.529  27.110  36.974  1.00  0.00     0.022 A 
BRANCH  97 100
ATOM    100  S   UNL A   1      46.196  25.079  38.240  1.00  0.00     0.127 S 
ATOM    101  O   UNL A   1      45.194  25.621  39.156  1.00  0.00    -0.237 OA
ATOM    102  O   UNL A   1      45.736  23.950  37.431  1.00  0.00    -0.237 OA
ATOM    103  O   UNL A   1      47.531  24.918  38.800  1.00  0.00    -0.744 OA
ENDBRANCH  97 100
ENDBRANCH  70  93
ENDBRANCH  44  45
ENDBRANCH  36  39
ENDBRANCH  34  35
ENDBRANCH  33  34
ENDBRANCH  32  33
ENDBRANCH   1  32
TORSDOF 20
ENDMDL
MODEL 3
REMARK VINA RESULT:     -11.3      2.897      7.713
REMARK SMILES O=C(NCCCCCCNC(=O)c1ccc(-c2c3nc(c(-c4cccc(S(=O)(=O)[O-])c4F)c4ccc([nH]4)c(-c4cccc(S(=O)(=O)[O-])c4F)c4nc(c(-c5cccc(S(=O)(=O)[O-])c5F)c5ccc2[nH]5)C=C4)C=C3)cc1)C1=Cc2cc(Cl)cc(-c3ccc(CO)cc3)c2O[C@@H]1C(F)(F)F
REMARK SMILES IDX 6 1 5 2 4 3 3 4 1 5 2 6 76 8 77 9 94 10 78 11 93 12 79 13
REMARK SMILES IDX 92 14 80 15 83 16 81 17 82 18 95 19 96 20 97 21 98 22 84 23
REMARK SMILES IDX 85 24 91 25 86 26 90 27 87 28 88 29 89 30 7 32 8 33 9 34
REMARK SMILES IDX 10 35 11 36 12 38 13 39 14 40 75 41 15 42 74 43 16 44 17 45
REMARK SMILES IDX 18 46 68 47 19 48 73 49 67 50 69 51 20 52 72 53 66 54 65 55
REMARK SMILES IDX 21 57 53 58 33 59 52 60 34 61 37 62 51 63 70 64 35 65 36 66
REMARK SMILES IDX 50 68 71 69 38 70 22 71 23 72 31 73 24 74 26 75 32 76 25 77
REMARK SMILES IDX 27 78 28 79 29 80 30 81 54 82 55 83 63 84 56 85 58 86 64 87
REMARK SMILES IDX 57 88 59 89 60 90 61 91 62 92 39 93 40 94 48 95 41 96 43 97
REMARK SMILES IDX 49 98 42 99 44 100 45 101 46 102 47 103
REMARK H PARENT 3 7 89 31 10 37 69 56 37 67
REMARK Flexibility Score: inf
ROOT
ATOM      1  C   UNL A   1      31.084  27.029  27.190  1.00  0.00     0.002 C 
ENDROOT
BRANCH   1   2
ATOM      2  C   UNL A   1      30.647  26.263  25.938  1.00  0.00     0.021 C 
BRANCH   2   3
ATOM      3  C   UNL A   1      30.248  24.800  26.111  1.00  0.00     0.116 C 
BRANCH   3   4
ATOM      4  N   UNL A   1      31.121  23.979  26.932  1.00  0.00    -0.352 N 
ATOM      5  O   UNL A   1      32.996  22.934  27.571  1.00  0.00    -0.270 OA
ATOM      6  C   UNL A   1      32.386  23.524  26.678  1.00  0.00     0.251 C 
ATOM      7  H   UNL A   1      30.745  23.709  27.801  1.00  0.00     0.163 HD
BRANCH   6   8
ATOM      8  C   UNL A   1      33.108  23.760  25.383  1.00  0.00     0.067 C 
ATOM      9  C   UNL A   1      34.428  24.007  25.299  1.00  0.00     0.025 C 
ATOM     10  C   UNL A   1      32.504  22.954  24.248  1.00  0.00     0.314 C 
ATOM     11  C   UNL A   1      35.173  22.766  24.934  1.00  0.00     0.019 A 
ATOM     12  O   UNL A   1      33.135  21.644  24.189  1.00  0.00    -0.475 OA
ATOM     13  C   UNL A   1      36.527  22.706  25.273  1.00  0.00     0.032 A 
ATOM     14  C   UNL A   1      34.467  21.600  24.549  1.00  0.00     0.135 A 
ATOM     15  C   UNL A   1      37.154  21.469  25.334  1.00  0.00     0.042 A 
ATOM     16  C   UNL A   1      35.084  20.342  24.663  1.00  0.00     0.026 A 
ATOM     17  Cl  UNL A   1      38.756  21.365  25.949  1.00  0.00    -0.084 Cl
ATOM     18  C   UNL A   1      36.443  20.303  25.048  1.00  0.00     0.033 A 
BRANCH  10  19
ATOM     19  C   UNL A   1      32.537  23.699  22.897  1.00  0.00     0.429 C 
ATOM     20  F   UNL A   1      33.389  23.113  22.022  1.00  0.00    -0.167 F 
ATOM     21  F   UNL A   1      31.312  23.695  22.309  1.00  0.00    -0.167 F 
ATOM     22  F   UNL A   1      32.909  24.995  23.011  1.00  0.00    -0.167 F 
ENDBRANCH  10  19
BRANCH  16  23
ATOM     23  C   UNL A   1      34.349  19.065  24.652  1.00  0.00    -0.015 A 
ATOM     24  C   UNL A   1      33.126  18.970  25.339  1.00  0.00     0.009 A 
ATOM     25  C   UNL A   1      34.908  17.885  24.153  1.00  0.00     0.009 A 
ATOM     26  C   UNL A   1      32.545  17.736  25.635  1.00  0.00     0.007 A 
ATOM     27  C   UNL A   1      34.300  16.646  24.402  1.00  0.00     0.007 A 
ATOM     28  C   UNL A   1      33.132  16.556  25.172  1.00  0.00    -0.023 A 
BRANCH  28  29
ATOM     29  C   UNL A   1      32.543  15.224  25.548  1.00  0.00     0.191 C 
BRANCH  29  30
ATOM     30  O   UNL A   1      33.510  14.190  25.427  1.00  0.00    -0.392 OA
ATOM     31  H   UNL A   1      33.879  13.990  26.302  1.00  0.00     0.211 HD
ENDBRANCH  29  30
ENDBRANCH  28  29
ENDBRANCH  16  23
ENDBRANCH   6   8
ENDBRANCH   3   4
ENDBRANCH   2   3
ENDBRANCH   1   2
BRANCH   1  32
ATOM     32  C   UNL A   1      31.931  28.287  26.984  1.00  0.00     0.002 C 
BRANCH  32  33
ATOM     33  C   UNL A   1      33.301  28.110  26.329  1.00  0.00     0.021 C 
BRANCH  33  34
ATOM     34  C   UNL A   1      33.831  29.334  25.593  1.00  0.00     0.116 C 
BRANCH  34  35
ATOM     35  N   UNL A   1      33.229  30.576  26.058  1.00  0.00    -0.352 N 
ATOM     36  C   UNL A   1      33.588  31.413  27.088  1.00  0.00     0.251 C 
ATOM     37  H   UNL A   1      32.437  30.864  25.550  1.00  0.00     0.163 HD
ATOM     38  O   UNL A   1      32.843  32.332  27.403  1.00  0.00    -0.269 OA
BRANCH  36  39
ATOM     39  C   UNL A   1      34.854  31.199  27.827  1.00  0.00     0.039 A 
ATOM     40  C   UNL A   1      35.041  29.996  28.516  1.00  0.00     0.014 A 
ATOM     41  C   UNL A   1      35.847  32.178  27.861  1.00  0.00     0.014 A 
ATOM     42  C   UNL A   1      36.244  29.760  29.189  1.00  0.00     0.010 A 
ATOM     43  C   UNL A   1      37.082  31.898  28.435  1.00  0.00     0.010 A 
ATOM     44  C   UNL A   1      37.289  30.697  29.126  1.00  0.00    -0.014 A 
BRANCH  44  45
ATOM     45  C   UNL A   1      38.591  30.455  29.800  1.00  0.00     0.031 A 
ATOM     46  C   UNL A   1      39.627  29.577  29.144  1.00  0.00     0.074 A 
ATOM     47  C   UNL A   1      38.814  30.959  31.030  1.00  0.00     0.049 A 
ATOM     48  N   UNL A   1      40.790  29.190  29.601  1.00  0.00    -0.248 NA
ATOM     49  C   UNL A   1      39.300  29.032  27.815  1.00  0.00     0.031 C 
ATOM     50  C   UNL A   1      37.857  31.750  31.808  1.00  0.00     0.029 A 
ATOM     51  N   UNL A   1      39.906  30.859  31.855  1.00  0.00    -0.354 N 
ATOM     52  C   UNL A   1      41.313  28.336  28.637  1.00  0.00     0.074 A 
ATOM     53  C   UNL A   1      40.319  28.216  27.595  1.00  0.00     0.031 C 
ATOM     54  C   UNL A   1      38.405  32.069  32.990  1.00  0.00     0.029 A 
ATOM     55  C   UNL A   1      39.736  31.477  33.073  1.00  0.00     0.049 A 
ATOM     56  H   UNL A   1      40.733  30.390  31.600  1.00  0.00     0.167 HD
ATOM     57  C   UNL A   1      42.526  27.736  28.598  1.00  0.00     0.034 A 
ATOM     58  C   UNL A   1      40.555  31.546  34.142  1.00  0.00     0.034 A 
ATOM     59  C   UNL A   1      43.528  27.894  29.615  1.00  0.00     0.049 A 
ATOM     60  C   UNL A   1      41.914  30.905  34.057  1.00  0.00     0.074 A 
ATOM     61  C   UNL A   1      44.817  27.392  29.639  1.00  0.00     0.029 A 
ATOM     62  N   UNL A   1      43.353  28.607  30.792  1.00  0.00    -0.354 N 
ATOM     63  N   UNL A   1      42.445  30.223  33.073  1.00  0.00    -0.248 NA
ATOM     64  C   UNL A   1      42.803  31.078  35.216  1.00  0.00     0.031 C 
ATOM     65  C   UNL A   1      45.413  27.779  30.843  1.00  0.00     0.029 A 
ATOM     66  C   UNL A   1      44.509  28.554  31.552  1.00  0.00     0.049 A 
ATOM     67  H   UNL A   1      42.529  29.079  31.050  1.00  0.00     0.167 HD
ATOM     68  C   UNL A   1      43.739  29.914  33.476  1.00  0.00     0.074 A 
ATOM     69  C   UNL A   1      43.919  30.506  34.786  1.00  0.00     0.031 C 
ATOM     70  C   UNL A   1      44.688  29.193  32.829  1.00  0.00     0.034 A 
BRANCH  57  71
ATOM     71  C   UNL A   1      42.858  26.901  27.387  1.00  0.00     0.023 A 
ATOM     72  C   UNL A   1      43.406  27.522  26.245  1.00  0.00     0.012 A 
ATOM     73  C   UNL A   1      42.680  25.505  27.394  1.00  0.00     0.148 A 
ATOM     74  C   UNL A   1      43.735  26.772  25.117  1.00  0.00     0.002 A 
ATOM     75  C   UNL A   1      43.058  24.757  26.285  1.00  0.00     0.091 A 
ATOM     76  F   UNL A   1      42.141  24.933  28.481  1.00  0.00    -0.205 F 
ATOM     77  C   UNL A   1      43.572  25.391  25.140  1.00  0.00     0.022 A 
BRANCH  75  78
ATOM     78  S   UNL A   1      42.965  22.964  26.241  1.00  0.00     0.127 S 
ATOM     79  O   UNL A   1      44.152  22.588  27.007  1.00  0.00    -0.237 OA
ATOM     80  O   UNL A   1      41.695  22.708  26.921  1.00  0.00    -0.237 OA
ATOM     81  O   UNL A   1      42.990  22.593  24.834  1.00  0.00    -0.744 OA
ENDBRANCH  75  78
ENDBRANCH  57  71
BRANCH  58  82
ATOM     82  C   UNL A   1      40.130  32.289  35.362  1.00  0.00     0.023 A 
ATOM     83  C   UNL A   1      40.696  33.548  35.648  1.00  0.00     0.012 A 
ATOM     84  C   UNL A   1      39.155  31.763  36.231  1.00  0.00     0.148 A 
ATOM     85  C   UNL A   1      40.328  34.249  36.798  1.00  0.00     0.002 A 
ATOM     86  C   UNL A   1      38.750  32.493  37.343  1.00  0.00     0.091 A 
ATOM     87  F   UNL A   1      38.634  30.561  35.949  1.00  0.00    -0.205 F 
ATOM     88  C   UNL A   1      39.350  33.727  37.639  1.00  0.00     0.022 A 
BRANCH  86  89
ATOM     89  S   UNL A   1      37.401  31.962  38.404  1.00  0.00     0.127 S 
ATOM     90  O   UNL A   1      37.928  32.266  39.732  1.00  0.00    -0.237 OA
ATOM     91  O   UNL A   1      36.308  32.828  37.961  1.00  0.00    -0.237 OA
ATOM     92  O   UNL A   1      37.201  30.549  38.110  1.00  0.00    -0.744 OA
ENDBRANCH  86  89
ENDBRANCH  58  82
BRANCH  70  93
ATOM     93  C   UNL A   1      46.028  29.039  33.501  1.00  0.00     0.023 A 
ATOM     94  C   UNL A   1      46.288  27.912  34.305  1.00  0.00     0.012 A 
ATOM     95  C   UNL A   1      47.052  29.979  33.272  1.00  0.00     0.148 A 
ATOM     96  C   UNL A   1      47.537  27.741  34.900  1.00  0.00     0.002 A 
ATOM     97  C   UNL A   1      48.310  29.775  33.823  1.00  0.00     0.091 A 
ATOM     98  F   UNL A   1      46.778  31.052  32.516  1.00  0.00    -0.205 F 
ATOM     99  C   UNL A   1      48.550  28.664  34.649  1.00  0.00     0.022 A 
BRANCH  97 100
ATOM    100  S   UNL A   1      49.703  30.853  33.474  1.00  0.00     0.127 S 
ATOM    101  O   UNL A   1      49.571  31.859  34.527  1.00  0.00    -0.237 OA
ATOM    102  O   UNL A   1      50.842  29.949  33.633  1.00  0.00    -0.237 OA
ATOM    103  O   UNL A   1      49.503  31.343  32.116  1.00  0.00    -0.744 OA
ENDBRANCH  97 100
ENDBRANCH  70  93
ENDBRANCH  44  45
ENDBRANCH  36  39
ENDBRANCH  34  35
ENDBRANCH  33  34
ENDBRANCH  32  33
ENDBRANCH   1  32
TORSDOF 20
ENDMDL
