MODEL 1
REMARK VINA RESULT:      -9.4      0.000      0.000
REMARK SMILES O=C(CCCCc1nc(C[C@H]2CCCO2)no1)NCCCCCCNC(=O)c1ccc(-c2c3nc(c(-c4cccc(S(=O)(=O)[O-])c4F)c4ccc([nH]4)c(-c4cccc(S(=O)(=O)[O-])c4F)c4nc(c(-c5cccc(S(=O)(=O)[O-])c5F)c5ccc2[nH]5)C=C4)C=C3)cc1
REMARK SMILES IDX 20 1 19 2 18 3 1 4 2 5 3 7 4 8 5 9 6 10 7 11 8 12 17 13 9 14
REMARK SMILES IDX 16 15 10 16 11 17 12 18 15 19 13 20 14 21 21 22 22 23 23 24
REMARK SMILES IDX 24 25 25 26 26 27 27 29 28 30 29 31 90 32 30 33 89 34 31 35
REMARK SMILES IDX 32 36 33 37 83 38 34 39 88 40 82 41 84 42 35 43 87 44 81 45
REMARK SMILES IDX 80 46 36 48 68 49 48 50 67 51 49 52 52 53 66 54 85 55 50 56
REMARK SMILES IDX 51 57 65 59 86 60 53 61 37 62 38 63 46 64 39 65 41 66 47 67
REMARK SMILES IDX 40 68 42 69 43 70 44 71 45 72 69 73 70 74 78 75 71 76 73 77
REMARK SMILES IDX 79 78 72 79 74 80 75 81 76 82 77 83 54 84 55 85 63 86 56 87
REMARK SMILES IDX 58 88 64 89 57 90 59 91 60 92 61 93 62 94
REMARK H PARENT 18 6 25 28 84 47 52 58
REMARK Flexibility Score: inf
ROOT
ATOM      1  C   UNL A   1      34.194  29.102  26.809  1.00  0.00     0.021 C 
ENDROOT
BRANCH   1   2
ATOM      2  C   UNL A   1      32.791  28.566  27.096  1.00  0.00     0.116 C 
BRANCH   2   3
ATOM      3  N   UNL A   1      32.006  28.517  25.882  1.00  0.00    -0.356 N 
ATOM      4  O   UNL A   1      31.447  30.744  25.766  1.00  0.00    -0.275 OA
ATOM      5  C   UNL A   1      31.419  29.611  25.299  1.00  0.00     0.219 C 
ATOM      6  H   UNL A   1      31.885  27.643  25.445  1.00  0.00     0.163 HD
BRANCH   5   7
ATOM      7  C   UNL A   1      30.705  29.284  24.003  1.00  0.00     0.100 C 
BRANCH   7   8
ATOM      8  C   UNL A   1      30.889  27.828  23.568  1.00  0.00     0.010 C 
BRANCH   8   9
ATOM      9  C   UNL A   1      31.669  27.581  22.263  1.00  0.00     0.010 C 
BRANCH   9  10
ATOM     10  C   UNL A   1      33.192  27.457  22.398  1.00  0.00     0.100 C 
BRANCH  10  11
ATOM     11  C   UNL A   1      33.576  26.210  23.090  1.00  0.00     0.226 A 
ATOM     12  N   UNL A   1      33.710  24.993  22.617  1.00  0.00    -0.196 NA
ATOM     13  O   UNL A   1      33.751  26.292  24.439  1.00  0.00    -0.339 OA
ATOM     14  C   UNL A   1      33.948  24.271  23.757  1.00  0.00     0.174 A 
ATOM     15  N   UNL A   1      33.966  24.993  24.885  1.00  0.00    -0.062 NA
BRANCH  14  16
ATOM     16  C   UNL A   1      34.095  22.798  23.748  1.00  0.00     0.113 C 
BRANCH  16  17
ATOM     17  C   UNL A   1      32.899  22.053  24.350  1.00  0.00     0.126 C 
ATOM     18  C   UNL A   1      32.596  20.695  23.726  1.00  0.00     0.035 C 
ATOM     19  O   UNL A   1      33.208  21.773  25.737  1.00  0.00    -0.378 OA
ATOM     20  C   UNL A   1      33.479  19.765  24.515  1.00  0.00     0.031 C 
ATOM     21  C   UNL A   1      33.377  20.357  25.901  1.00  0.00     0.160 C 
ENDBRANCH  16  17
ENDBRANCH  14  16
ENDBRANCH  10  11
ENDBRANCH   9  10
ENDBRANCH   8   9
ENDBRANCH   7   8
ENDBRANCH   5   7
ENDBRANCH   2   3
ENDBRANCH   1   2
BRANCH   1  22
ATOM     22  C   UNL A   1      34.806  29.957  27.931  1.00  0.00     0.002 C 
BRANCH  22  23
ATOM     23  C   UNL A   1      34.814  31.468  27.681  1.00  0.00     0.002 C 
BRANCH  23  24
ATOM     24  C   UNL A   1      33.473  32.167  27.913  1.00  0.00     0.021 C 
BRANCH  24  25
ATOM     25  C   UNL A   1      33.394  33.597  27.387  1.00  0.00     0.116 C 
BRANCH  25  26
ATOM     26  N   UNL A   1      32.916  34.537  28.391  1.00  0.00    -0.352 N 
ATOM     27  C   UNL A   1      33.353  34.714  29.681  1.00  0.00     0.251 C 
ATOM     28  H   UNL A   1      32.180  35.126  28.107  1.00  0.00     0.163 HD
ATOM     29  O   UNL A   1      32.733  35.448  30.446  1.00  0.00    -0.269 OA
BRANCH  27  30
ATOM     30  C   UNL A   1      34.558  33.996  30.152  1.00  0.00     0.039 A 
ATOM     31  C   UNL A   1      35.814  34.407  29.697  1.00  0.00     0.014 A 
ATOM     32  C   UNL A   1      34.450  32.933  31.052  1.00  0.00     0.014 A 
ATOM     33  C   UNL A   1      36.966  33.789  30.194  1.00  0.00     0.010 A 
ATOM     34  C   UNL A   1      35.600  32.372  31.602  1.00  0.00     0.010 A 
ATOM     35  C   UNL A   1      36.870  32.789  31.175  1.00  0.00    -0.014 A 
BRANCH  35  36
ATOM     36  C   UNL A   1      38.082  32.165  31.770  1.00  0.00     0.031 A 
ATOM     37  C   UNL A   1      38.779  31.039  31.055  1.00  0.00     0.074 A 
ATOM     38  C   UNL A   1      38.500  32.546  32.995  1.00  0.00     0.049 A 
ATOM     39  N   UNL A   1      39.793  30.314  31.448  1.00  0.00    -0.248 NA
ATOM     40  C   UNL A   1      38.252  30.659  29.732  1.00  0.00     0.031 C 
ATOM     41  C   UNL A   1      37.867  33.575  33.824  1.00  0.00     0.029 A 
ATOM     42  N   UNL A   1      39.537  32.089  33.770  1.00  0.00    -0.354 N 
ATOM     43  C   UNL A   1      39.999  29.370  30.449  1.00  0.00     0.074 A 
ATOM     44  C   UNL A   1      38.986  29.596  29.441  1.00  0.00     0.031 C 
ATOM     45  C   UNL A   1      38.528  33.669  34.989  1.00  0.00     0.029 A 
ATOM     46  C   UNL A   1      39.606  32.686  35.009  1.00  0.00     0.049 A 
ATOM     47  H   UNL A   1      40.170  31.399  33.469  1.00  0.00     0.167 HD
ATOM     48  C   UNL A   1      40.959  28.420  30.362  1.00  0.00     0.034 A 
ATOM     49  C   UNL A   1      40.434  32.457  36.047  1.00  0.00     0.034 A 
ATOM     50  C   UNL A   1      41.992  28.228  31.344  1.00  0.00     0.049 A 
ATOM     51  C   UNL A   1      41.513  31.415  35.909  1.00  0.00     0.074 A 
ATOM     52  C   UNL A   1      43.062  27.350  31.303  1.00  0.00     0.029 A 
ATOM     53  N   UNL A   1      42.084  28.914  32.543  1.00  0.00    -0.354 N 
ATOM     54  N   UNL A   1      41.784  30.639  34.889  1.00  0.00    -0.248 NA
ATOM     55  C   UNL A   1      42.423  31.243  37.052  1.00  0.00     0.031 C 
ATOM     56  C   UNL A   1      43.783  27.485  32.492  1.00  0.00     0.029 A 
ATOM     57  C   UNL A   1      43.185  28.474  33.256  1.00  0.00     0.049 A 
ATOM     58  H   UNL A   1      41.458  29.612  32.844  1.00  0.00     0.167 HD
ATOM     59  C   UNL A   1      42.920  29.922  35.248  1.00  0.00     0.074 A 
ATOM     60  C   UNL A   1      43.295  30.367  36.573  1.00  0.00     0.031 C 
ATOM     61  C   UNL A   1      43.586  28.971  34.546  1.00  0.00     0.034 A 
BRANCH  48  62
ATOM     62  C   UNL A   1      40.973  27.538  29.141  1.00  0.00     0.023 A 
ATOM     63  C   UNL A   1      40.068  26.460  29.050  1.00  0.00     0.012 A 
ATOM     64  C   UNL A   1      41.823  27.822  28.054  1.00  0.00     0.148 A 
ATOM     65  C   UNL A   1      40.030  25.661  27.908  1.00  0.00     0.002 A 
ATOM     66  C   UNL A   1      41.745  27.049  26.901  1.00  0.00     0.091 A 
ATOM     67  F   UNL A   1      42.688  28.839  28.168  1.00  0.00    -0.205 F 
ATOM     68  C   UNL A   1      40.859  25.962  26.831  1.00  0.00     0.022 A 
BRANCH  66  69
ATOM     69  S   UNL A   1      42.710  27.405  25.428  1.00  0.00     0.127 S 
ATOM     70  O   UNL A   1      42.505  26.189  24.642  1.00  0.00    -0.237 OA
ATOM     71  O   UNL A   1      42.035  28.592  24.900  1.00  0.00    -0.237 OA
ATOM     72  O   UNL A   1      44.074  27.630  25.882  1.00  0.00    -0.744 OA
ENDBRANCH  66  69
ENDBRANCH  48  62
BRANCH  49  73
ATOM     73  C   UNL A   1      40.313  33.262  37.298  1.00  0.00     0.023 A 
ATOM     74  C   UNL A   1      39.443  32.829  38.318  1.00  0.00     0.012 A 
ATOM     75  C   UNL A   1      41.048  34.449  37.480  1.00  0.00     0.148 A 
ATOM     76  C   UNL A   1      39.277  33.585  39.479  1.00  0.00     0.002 A 
ATOM     77  C   UNL A   1      40.922  35.166  38.664  1.00  0.00     0.091 A 
ATOM     78  F   UNL A   1      41.862  34.851  36.494  1.00  0.00    -0.205 F 
ATOM     79  C   UNL A   1      40.021  34.748  39.656  1.00  0.00     0.022 A 
BRANCH  77  80
ATOM     80  S   UNL A   1      41.936  36.602  39.032  1.00  0.00     0.127 S 
ATOM     81  O   UNL A   1      42.785  36.680  37.846  1.00  0.00    -0.237 OA
ATOM     82  O   UNL A   1      40.932  37.660  39.143  1.00  0.00    -0.237 OA
ATOM     83  O   UNL A   1      42.618  36.291  40.281  1.00  0.00    -0.744 OA
ENDBRANCH  77  80
ENDBRANCH  49  73
BRANCH  61  84
ATOM     84  C   UNL A   1      44.830  28.384  35.161  1.00  0.00     0.023 A 
ATOM     85  C   UNL A   1      46.076  29.011  34.973  1.00  0.00     0.012 A 
ATOM     86  C   UNL A   1      44.742  27.253  35.998  1.00  0.00     0.148 A 
ATOM     87  C   UNL A   1      47.223  28.503  35.583  1.00  0.00     0.002 A 
ATOM     88  C   UNL A   1      45.879  26.784  36.644  1.00  0.00     0.091 A 
ATOM     89  F   UNL A   1      43.549  26.660  36.149  1.00  0.00    -0.205 F 
ATOM     90  C   UNL A   1      47.122  27.400  36.428  1.00  0.00     0.022 A 
BRANCH  88  91
ATOM     91  S   UNL A   1      45.826  25.435  37.829  1.00  0.00     0.127 S 
ATOM     92  O   UNL A   1      47.222  25.360  38.257  1.00  0.00    -0.237 OA
ATOM     93  O   UNL A   1      44.904  25.949  38.842  1.00  0.00    -0.237 OA
ATOM     94  O   UNL A   1      45.336  24.275  37.098  1.00  0.00    -0.744 OA
ENDBRANCH  88  91
ENDBRANCH  61  84
ENDBRANCH  35  36
ENDBRANCH  27  30
ENDBRANCH  25  26
ENDBRANCH  24  25
ENDBRANCH  23  24
ENDBRANCH  22  23
ENDBRANCH   1  22
TORSDOF 22
ENDMDL
MODEL 2
REMARK VINA RESULT:      -8.9      5.115     10.611
REMARK SMILES O=C(CCCCc1nc(C[C@H]2CCCO2)no1)NCCCCCCNC(=O)c1ccc(-c2c3nc(c(-c4cccc(S(=O)(=O)[O-])c4F)c4ccc([nH]4)c(-c4cccc(S(=O)(=O)[O-])c4F)c4nc(c(-c5cccc(S(=O)(=O)[O-])c5F)c5ccc2[nH]5)C=C4)C=C3)cc1
REMARK SMILES IDX 20 1 19 2 18 3 1 4 2 5 3 7 4 8 5 9 6 10 7 11 8 12 17 13 9 14
REMARK SMILES IDX 16 15 10 16 11 17 12 18 15 19 13 20 14 21 21 22 22 23 23 24
REMARK SMILES IDX 24 25 25 26 26 27 27 29 28 30 29 31 90 32 30 33 89 34 31 35
REMARK SMILES IDX 32 36 33 37 83 38 34 39 88 40 82 41 84 42 35 43 87 44 81 45
REMARK SMILES IDX 80 46 36 48 68 49 48 50 67 51 49 52 52 53 66 54 85 55 50 56
REMARK SMILES IDX 51 57 65 59 86 60 53 61 37 62 38 63 46 64 39 65 41 66 47 67
REMARK SMILES IDX 40 68 42 69 43 70 44 71 45 72 69 73 70 74 78 75 71 76 73 77
REMARK SMILES IDX 79 78 72 79 74 80 75 81 76 82 77 83 54 84 55 85 63 86 56 87
REMARK SMILES IDX 58 88 64 89 57 90 59 91 60 92 61 93 62 94
REMARK H PARENT 18 6 25 28 84 47 52 58
REMARK Flexibility Score: inf
ROOT
ATOM      1  C   UNL A   1      44.411  24.133  28.272  1.00  0.00     0.021 C 
ENDROOT
BRANCH   1   2
ATOM      2  C   UNL A   1      43.178  24.201  27.369  1.00  0.00     0.116 C 
BRANCH   2   3
ATOM      3  N   UNL A   1      42.221  25.155  27.885  1.00  0.00    -0.356 N 
ATOM      4  O   UNL A   1      41.366  25.877  25.878  1.00  0.00    -0.275 OA
ATOM      5  C   UNL A   1      41.374  25.897  27.102  1.00  0.00     0.219 C 
ATOM      6  H   UNL A   1      42.173  25.279  28.861  1.00  0.00     0.163 HD
BRANCH   5   7
ATOM      7  C   UNL A   1      40.435  26.774  27.907  1.00  0.00     0.100 C 
BRANCH   7   8
ATOM      8  C   UNL A   1      41.121  27.456  29.093  1.00  0.00     0.010 C 
BRANCH   8   9
ATOM      9  C   UNL A   1      40.544  28.808  29.552  1.00  0.00     0.010 C 
BRANCH   9  10
ATOM     10  C   UNL A   1      39.297  29.300  28.808  1.00  0.00     0.100 C 
BRANCH  10  11
ATOM     11  C   UNL A   1      38.848  30.615  29.310  1.00  0.00     0.226 A 
ATOM     12  N   UNL A   1      39.466  31.474  30.085  1.00  0.00    -0.196 NA
ATOM     13  O   UNL A   1      37.574  30.983  28.995  1.00  0.00    -0.339 OA
ATOM     14  C   UNL A   1      38.495  32.418  30.293  1.00  0.00     0.174 A 
ATOM     15  N   UNL A   1      37.331  32.169  29.679  1.00  0.00    -0.062 NA
BRANCH  14  16
ATOM     16  C   UNL A   1      38.695  33.579  31.188  1.00  0.00     0.113 C 
BRANCH  16  17
ATOM     17  C   UNL A   1      38.489  33.260  32.672  1.00  0.00     0.126 C 
ATOM     18  C   UNL A   1      37.451  34.119  33.386  1.00  0.00     0.035 C 
ATOM     19  O   UNL A   1      37.989  31.903  32.764  1.00  0.00    -0.378 OA
ATOM     20  C   UNL A   1      36.168  33.373  33.123  1.00  0.00     0.031 C 
ATOM     21  C   UNL A   1      36.629  31.938  33.224  1.00  0.00     0.160 C 
ENDBRANCH  16  17
ENDBRANCH  14  16
ENDBRANCH  10  11
ENDBRANCH   9  10
ENDBRANCH   8   9
ENDBRANCH   7   8
ENDBRANCH   5   7
ENDBRANCH   2   3
ENDBRANCH   1   2
BRANCH   1  22
ATOM     22  C   UNL A   1      45.753  24.363  27.557  1.00  0.00     0.002 C 
BRANCH  22  23
ATOM     23  C   UNL A   1      46.038  23.436  26.373  1.00  0.00     0.002 C 
BRANCH  23  24
ATOM     24  C   UNL A   1      46.382  24.148  25.063  1.00  0.00     0.021 C 
BRANCH  24  25
ATOM     25  C   UNL A   1      47.604  25.058  25.128  1.00  0.00     0.116 C 
BRANCH  25  26
ATOM     26  N   UNL A   1      47.538  26.155  24.173  1.00  0.00    -0.352 N 
ATOM     27  C   UNL A   1      46.909  27.369  24.302  1.00  0.00     0.251 C 
ATOM     28  H   UNL A   1      48.007  26.007  23.320  1.00  0.00     0.163 HD
ATOM     29  O   UNL A   1      46.820  28.122  23.335  1.00  0.00    -0.269 OA
BRANCH  27  30
ATOM     30  C   UNL A   1      46.318  27.755  25.602  1.00  0.00     0.039 A 
ATOM     31  C   UNL A   1      47.136  28.333  26.575  1.00  0.00     0.014 A 
ATOM     32  C   UNL A   1      44.956  27.562  25.852  1.00  0.00     0.014 A 
ATOM     33  C   UNL A   1      46.575  28.774  27.778  1.00  0.00     0.010 A 
ATOM     34  C   UNL A   1      44.389  28.071  27.017  1.00  0.00     0.010 A 
ATOM     35  C   UNL A   1      45.192  28.676  27.996  1.00  0.00    -0.014 A 
BRANCH  35  36
ATOM     36  C   UNL A   1      44.561  29.200  29.237  1.00  0.00     0.031 A 
ATOM     37  C   UNL A   1      44.144  30.645  29.319  1.00  0.00     0.074 A 
ATOM     38  C   UNL A   1      44.449  28.405  30.320  1.00  0.00     0.049 A 
ATOM     39  N   UNL A   1      43.660  31.307  30.336  1.00  0.00    -0.248 NA
ATOM     40  C   UNL A   1      44.320  31.461  28.105  1.00  0.00     0.031 C 
ATOM     41  C   UNL A   1      44.882  27.007  30.393  1.00  0.00     0.029 A 
ATOM     42  N   UNL A   1      43.967  28.667  31.579  1.00  0.00    -0.354 N 
ATOM     43  C   UNL A   1      43.511  32.619  29.902  1.00  0.00     0.074 A 
ATOM     44  C   UNL A   1      43.985  32.668  28.537  1.00  0.00     0.031 C 
ATOM     45  C   UNL A   1      44.646  26.538  31.629  1.00  0.00     0.029 A 
ATOM     46  C   UNL A   1      44.082  27.605  32.448  1.00  0.00     0.049 A 
ATOM     47  H   UNL A   1      43.576  29.533  31.836  1.00  0.00     0.167 HD
ATOM     48  C   UNL A   1      43.003  33.682  30.569  1.00  0.00     0.034 A 
ATOM     49  C   UNL A   1      43.781  27.508  33.758  1.00  0.00     0.034 A 
ATOM     50  C   UNL A   1      42.491  33.621  31.911  1.00  0.00     0.049 A 
ATOM     51  C   UNL A   1      43.187  28.698  34.464  1.00  0.00     0.074 A 
ATOM     52  C   UNL A   1      41.875  34.623  32.641  1.00  0.00     0.029 A 
ATOM     53  N   UNL A   1      42.541  32.504  32.728  1.00  0.00    -0.354 N 
ATOM     54  N   UNL A   1      42.913  29.888  33.988  1.00  0.00    -0.248 NA
ATOM     55  C   UNL A   1      42.827  28.521  35.880  1.00  0.00     0.031 C 
ATOM     56  C   UNL A   1      41.580  34.119  33.911  1.00  0.00     0.029 A 
ATOM     57  C   UNL A   1      41.976  32.793  33.958  1.00  0.00     0.049 A 
ATOM     58  H   UNL A   1      42.922  31.633  32.472  1.00  0.00     0.167 HD
ATOM     59  C   UNL A   1      42.307  30.584  35.029  1.00  0.00     0.074 A 
ATOM     60  C   UNL A   1      42.241  29.678  36.155  1.00  0.00     0.031 C 
ATOM     61  C   UNL A   1      41.857  31.863  35.051  1.00  0.00     0.034 A 
BRANCH  48  62
ATOM     62  C   UNL A   1      42.928  35.001  29.844  1.00  0.00     0.023 A 
ATOM     63  C   UNL A   1      41.868  35.244  28.947  1.00  0.00     0.012 A 
ATOM     64  C   UNL A   1      43.858  36.024  30.110  1.00  0.00     0.148 A 
ATOM     65  C   UNL A   1      41.752  36.475  28.303  1.00  0.00     0.002 A 
ATOM     66  C   UNL A   1      43.709  37.265  29.500  1.00  0.00     0.091 A 
ATOM     67  F   UNL A   1      44.869  35.767  30.951  1.00  0.00    -0.205 F 
ATOM     68  C   UNL A   1      42.665  37.487  28.587  1.00  0.00     0.022 A 
BRANCH  66  69
ATOM     69  S   UNL A   1      44.781  38.660  29.861  1.00  0.00     0.127 S 
ATOM     70  O   UNL A   1      44.193  39.707  29.027  1.00  0.00    -0.237 OA
ATOM     71  O   UNL A   1      44.573  38.840  31.300  1.00  0.00    -0.237 OA
ATOM     72  O   UNL A   1      46.125  38.246  29.486  1.00  0.00    -0.744 OA
ENDBRANCH  66  69
ENDBRANCH  48  62
BRANCH  49  73
ATOM     73  C   UNL A   1      43.988  26.221  34.483  1.00  0.00     0.023 A 
ATOM     74  C   UNL A   1      42.918  25.312  34.601  1.00  0.00     0.012 A 
ATOM     75  C   UNL A   1      45.233  25.894  35.055  1.00  0.00     0.148 A 
ATOM     76  C   UNL A   1      43.072  24.121  35.312  1.00  0.00     0.002 A 
ATOM     77  C   UNL A   1      45.395  24.679  35.711  1.00  0.00     0.091 A 
ATOM     78  F   UNL A   1      46.236  26.775  34.942  1.00  0.00    -0.205 F 
ATOM     79  C   UNL A   1      44.310  23.801  35.859  1.00  0.00     0.022 A 
BRANCH  77  80
ATOM     80  S   UNL A   1      46.988  24.127  36.332  1.00  0.00     0.127 S 
ATOM     81  O   UNL A   1      46.638  22.858  36.964  1.00  0.00    -0.237 OA
ATOM     82  O   UNL A   1      47.768  24.009  35.101  1.00  0.00    -0.237 OA
ATOM     83  O   UNL A   1      47.443  25.179  37.231  1.00  0.00    -0.744 OA
ENDBRANCH  77  80
ENDBRANCH  49  73
BRANCH  61  84
ATOM     84  C   UNL A   1      41.192  32.354  36.310  1.00  0.00     0.023 A 
ATOM     85  C   UNL A   1      41.917  33.125  37.240  1.00  0.00     0.012 A 
ATOM     86  C   UNL A   1      39.820  32.118  36.527  1.00  0.00     0.148 A 
ATOM     87  C   UNL A   1      41.294  33.628  38.381  1.00  0.00     0.002 A 
ATOM     88  C   UNL A   1      39.193  32.667  37.639  1.00  0.00     0.091 A 
ATOM     89  F   UNL A   1      39.152  31.367  35.639  1.00  0.00    -0.205 F 
ATOM     90  C   UNL A   1      39.932  33.411  38.574  1.00  0.00     0.022 A 
BRANCH  88  91
ATOM     91  S   UNL A   1      37.424  32.526  37.915  1.00  0.00     0.127 S 
ATOM     92  O   UNL A   1      37.241  31.076  37.943  1.00  0.00    -0.237 OA
ATOM     93  O   UNL A   1      37.260  33.187  39.211  1.00  0.00    -0.237 OA
ATOM     94  O   UNL A   1      36.786  33.213  36.801  1.00  0.00    -0.744 OA
ENDBRANCH  88  91
ENDBRANCH  61  84
ENDBRANCH  35  36
ENDBRANCH  27  30
ENDBRANCH  25  26
ENDBRANCH  24  25
ENDBRANCH  23  24
ENDBRANCH  22  23
ENDBRANCH   1  22
TORSDOF 22
ENDMDL
MODEL 3
REMARK VINA RESULT:      -8.8      5.011     10.384
REMARK SMILES O=C(CCCCc1nc(C[C@H]2CCCO2)no1)NCCCCCCNC(=O)c1ccc(-c2c3nc(c(-c4cccc(S(=O)(=O)[O-])c4F)c4ccc([nH]4)c(-c4cccc(S(=O)(=O)[O-])c4F)c4nc(c(-c5cccc(S(=O)(=O)[O-])c5F)c5ccc2[nH]5)C=C4)C=C3)cc1
REMARK SMILES IDX 20 1 19 2 18 3 1 4 2 5 3 7 4 8 5 9 6 10 7 11 8 12 17 13 9 14
REMARK SMILES IDX 16 15 10 16 11 17 12 18 15 19 13 20 14 21 21 22 22 23 23 24
REMARK SMILES IDX 24 25 25 26 26 27 27 29 28 30 29 31 90 32 30 33 89 34 31 35
REMARK SMILES IDX 32 36 33 37 83 38 34 39 88 40 82 41 84 42 35 43 87 44 81 45
REMARK SMILES IDX 80 46 36 48 68 49 48 50 67 51 49 52 52 53 66 54 85 55 50 56
REMARK SMILES IDX 51 57 65 59 86 60 53 61 37 62 38 63 46 64 39 65 41 66 47 67
REMARK SMILES IDX 40 68 42 69 43 70 44 71 45 72 69 73 70 74 78 75 71 76 73 77
REMARK SMILES IDX 79 78 72 79 74 80 75 81 76 82 77 83 54 84 55 85 63 86 56 87
REMARK SMILES IDX 58 88 64 89 57 90 59 91 60 92 61 93 62 94
REMARK H PARENT 18 6 25 28 84 47 52 58
REMARK Flexibility Score: inf
ROOT
ATOM      1  C   UNL A   1      43.058  21.125  26.175  1.00  0.00     0.021 C 
ENDROOT
BRANCH   1   2
ATOM      2  C   UNL A   1      42.239  22.274  25.585  1.00  0.00     0.116 C 
BRANCH   2   3
ATOM      3  N   UNL A   1      42.166  23.379  26.515  1.00  0.00    -0.356 N 
ATOM      4  O   UNL A   1      40.557  22.521  27.914  1.00  0.00    -0.275 OA
ATOM      5  C   UNL A   1      41.353  23.404  27.619  1.00  0.00     0.219 C 
ATOM      6  H   UNL A   1      42.738  24.162  26.347  1.00  0.00     0.163 HD
BRANCH   5   7
ATOM      7  C   UNL A   1      41.520  24.660  28.452  1.00  0.00     0.100 C 
BRANCH   7   8
ATOM      8  C   UNL A   1      41.670  25.925  27.606  1.00  0.00     0.010 C 
BRANCH   8   9
ATOM      9  C   UNL A   1      40.376  26.571  27.076  1.00  0.00     0.010 C 
BRANCH   9  10
ATOM     10  C   UNL A   1      40.179  28.057  27.398  1.00  0.00     0.100 C 
BRANCH  10  11
ATOM     11  C   UNL A   1      40.173  28.302  28.855  1.00  0.00     0.226 A 
ATOM     12  N   UNL A   1      39.593  27.625  29.818  1.00  0.00    -0.196 NA
ATOM     13  O   UNL A   1      40.795  29.436  29.284  1.00  0.00    -0.339 OA
ATOM     14  C   UNL A   1      39.843  28.415  30.909  1.00  0.00     0.174 A 
ATOM     15  N   UNL A   1      40.545  29.526  30.649  1.00  0.00    -0.062 NA
BRANCH  14  16
ATOM     16  C   UNL A   1      39.311  28.103  32.254  1.00  0.00     0.113 C 
BRANCH  16  17
ATOM     17  C   UNL A   1      37.927  28.701  32.527  1.00  0.00     0.126 C 
ATOM     18  C   UNL A   1      37.912  29.914  33.450  1.00  0.00     0.035 C 
ATOM     19  O   UNL A   1      37.397  29.176  31.265  1.00  0.00    -0.378 OA
ATOM     20  C   UNL A   1      38.137  31.058  32.496  1.00  0.00     0.031 C 
ATOM     21  C   UNL A   1      37.336  30.610  31.296  1.00  0.00     0.160 C 
ENDBRANCH  16  17
ENDBRANCH  14  16
ENDBRANCH  10  11
ENDBRANCH   9  10
ENDBRANCH   8   9
ENDBRANCH   7   8
ENDBRANCH   5   7
ENDBRANCH   2   3
ENDBRANCH   1   2
BRANCH   1  22
ATOM     22  C   UNL A   1      44.187  20.600  25.273  1.00  0.00     0.002 C 
BRANCH  22  23
ATOM     23  C   UNL A   1      45.011  21.673  24.556  1.00  0.00     0.002 C 
BRANCH  23  24
ATOM     24  C   UNL A   1      46.083  22.346  25.415  1.00  0.00     0.021 C 
BRANCH  24  25
ATOM     25  C   UNL A   1      45.894  23.845  25.621  1.00  0.00     0.116 C 
BRANCH  25  26
ATOM     26  N   UNL A   1      46.743  24.642  24.747  1.00  0.00    -0.352 N 
ATOM     27  C   UNL A   1      46.885  26.008  24.697  1.00  0.00     0.251 C 
ATOM     28  H   UNL A   1      47.290  24.134  24.104  1.00  0.00     0.163 HD
ATOM     29  O   UNL A   1      47.531  26.527  23.790  1.00  0.00    -0.269 OA
BRANCH  27  30
ATOM     30  C   UNL A   1      46.236  26.850  25.726  1.00  0.00     0.039 A 
ATOM     31  C   UNL A   1      44.872  27.129  25.613  1.00  0.00     0.014 A 
ATOM     32  C   UNL A   1      46.969  27.348  26.807  1.00  0.00     0.014 A 
ATOM     33  C   UNL A   1      44.230  27.858  26.620  1.00  0.00     0.010 A 
ATOM     34  C   UNL A   1      46.312  28.006  27.843  1.00  0.00     0.010 A 
ATOM     35  C   UNL A   1      44.938  28.274  27.759  1.00  0.00    -0.014 A 
BRANCH  35  36
ATOM     36  C   UNL A   1      44.263  28.990  28.875  1.00  0.00     0.031 A 
ATOM     37  C   UNL A   1      43.992  30.467  28.770  1.00  0.00     0.074 A 
ATOM     38  C   UNL A   1      43.978  28.333  30.018  1.00  0.00     0.049 A 
ATOM     39  N   UNL A   1      43.495  31.281  29.664  1.00  0.00    -0.248 NA
ATOM     40  C   UNL A   1      44.353  31.124  27.501  1.00  0.00     0.031 C 
ATOM     41  C   UNL A   1      44.256  26.917  30.273  1.00  0.00     0.029 A 
ATOM     42  N   UNL A   1      43.422  28.777  31.192  1.00  0.00    -0.354 N 
ATOM     43  C   UNL A   1      43.521  32.545  29.087  1.00  0.00     0.074 A 
ATOM     44  C   UNL A   1      44.110  32.397  27.774  1.00  0.00     0.031 C 
ATOM     45  C   UNL A   1      43.870  26.611  31.523  1.00  0.00     0.029 A 
ATOM     46  C   UNL A   1      43.352  27.811  32.171  1.00  0.00     0.049 A 
ATOM     47  H   UNL A   1      43.103  29.699  31.322  1.00  0.00     0.167 HD
ATOM     48  C   UNL A   1      43.071  33.718  29.591  1.00  0.00     0.034 A 
ATOM     49  C   UNL A   1      42.934  27.888  33.450  1.00  0.00     0.034 A 
ATOM     50  C   UNL A   1      42.444  33.853  30.878  1.00  0.00     0.049 A 
ATOM     51  C   UNL A   1      42.409  29.200  33.972  1.00  0.00     0.074 A 
ATOM     52  C   UNL A   1      41.876  34.984  31.441  1.00  0.00     0.029 A 
ATOM     53  N   UNL A   1      42.310  32.834  31.806  1.00  0.00    -0.354 N 
ATOM     54  N   UNL A   1      42.300  30.350  33.354  1.00  0.00    -0.248 NA
ATOM     55  C   UNL A   1      41.915  29.215  35.358  1.00  0.00     0.031 C 
ATOM     56  C   UNL A   1      41.425  34.653  32.721  1.00  0.00     0.029 A 
ATOM     57  C   UNL A   1      41.676  33.309  32.940  1.00  0.00     0.049 A 
ATOM     58  H   UNL A   1      42.618  31.908  31.676  1.00  0.00     0.167 HD
ATOM     59  C   UNL A   1      41.685  31.211  34.257  1.00  0.00     0.074 A 
ATOM     60  C   UNL A   1      41.431  30.445  35.458  1.00  0.00     0.031 C 
ATOM     61  C   UNL A   1      41.370  32.521  34.106  1.00  0.00     0.034 A 
BRANCH  48  62
ATOM     62  C   UNL A   1      43.194  34.950  28.732  1.00  0.00     0.023 A 
ATOM     63  C   UNL A   1      42.087  35.387  27.977  1.00  0.00     0.012 A 
ATOM     64  C   UNL A   1      44.376  35.715  28.734  1.00  0.00     0.148 A 
ATOM     65  C   UNL A   1      42.164  36.551  27.214  1.00  0.00     0.002 A 
ATOM     66  C   UNL A   1      44.429  36.900  28.008  1.00  0.00     0.091 A 
ATOM     67  F   UNL A   1      45.424  35.273  29.443  1.00  0.00    -0.205 F 
ATOM     68  C   UNL A   1      43.329  37.312  27.238  1.00  0.00     0.022 A 
BRANCH  66  69
ATOM     69  S   UNL A   1      45.853  37.994  28.038  1.00  0.00     0.127 S 
ATOM     70  O   UNL A   1      45.901  38.376  29.449  1.00  0.00    -0.237 OA
ATOM     71  O   UNL A   1      46.933  37.103  27.611  1.00  0.00    -0.237 OA
ATOM     72  O   UNL A   1      45.552  39.075  27.111  1.00  0.00    -0.744 OA
ENDBRANCH  66  69
ENDBRANCH  48  62
BRANCH  49  73
ATOM     73  C   UNL A   1      42.945  26.675  34.319  1.00  0.00     0.023 A 
ATOM     74  C   UNL A   1      41.729  26.034  34.629  1.00  0.00     0.012 A 
ATOM     75  C   UNL A   1      44.147  26.156  34.838  1.00  0.00     0.148 A 
ATOM     76  C   UNL A   1      41.706  24.924  35.475  1.00  0.00     0.002 A 
ATOM     77  C   UNL A   1      44.122  25.016  35.632  1.00  0.00     0.091 A 
ATOM     78  F   UNL A   1      45.292  26.785  34.541  1.00  0.00    -0.205 F 
ATOM     79  C   UNL A   1      42.901  24.411  35.969  1.00  0.00     0.022 A 
BRANCH  77  80
ATOM     80  S   UNL A   1      45.622  24.210  36.204  1.00  0.00     0.127 S 
ATOM     81  O   UNL A   1      45.089  23.019  36.860  1.00  0.00    -0.237 OA
ATOM     82  O   UNL A   1      46.328  23.959  34.948  1.00  0.00    -0.237 OA
ATOM     83  O   UNL A   1      46.276  25.175  37.077  1.00  0.00    -0.744 OA
ENDBRANCH  77  80
ENDBRANCH  49  73
BRANCH  61  84
ATOM     84  C   UNL A   1      40.656  33.208  35.240  1.00  0.00     0.023 A 
ATOM     85  C   UNL A   1      39.251  33.152  35.331  1.00  0.00     0.012 A 
ATOM     86  C   UNL A   1      41.391  33.839  36.264  1.00  0.00     0.148 A 
ATOM     87  C   UNL A   1      38.588  33.740  36.407  1.00  0.00     0.002 A 
ATOM     88  C   UNL A   1      40.726  34.376  37.360  1.00  0.00     0.091 A 
ATOM     89  F   UNL A   1      42.726  33.897  36.150  1.00  0.00    -0.205 F 
ATOM     90  C   UNL A   1      39.324  34.338  37.426  1.00  0.00     0.022 A 
BRANCH  88  91
ATOM     91  S   UNL A   1      41.597  35.075  38.767  1.00  0.00     0.127 S 
ATOM     92  O   UNL A   1      42.429  33.950  39.190  1.00  0.00    -0.237 OA
ATOM     93  O   UNL A   1      42.332  36.183  38.156  1.00  0.00    -0.237 OA
ATOM     94  O   UNL A   1      40.569  35.482  39.716  1.00  0.00    -0.744 OA
ENDBRANCH  88  91
ENDBRANCH  61  84
ENDBRANCH  35  36
ENDBRANCH  27  30
ENDBRANCH  25  26
ENDBRANCH  24  25
ENDBRANCH  23  24
ENDBRANCH  22  23
ENDBRANCH   1  22
TORSDOF 22
ENDMDL
