MODEL 1
REMARK VINA RESULT:     -10.9      0.000      0.000
REMARK SMILES NS(=O)(=O)c1ccc(-n2nc(NC(=O)NCCCC(=O)NCCCCCCNC(=O)c3ccc(-c4c5nc(c(-c6cccc(S(=O)(=O)[O-])c6F)c6ccc([nH]6)c(-c6cccc(S(=O)(=O)[O-])c6F)c6nc(c(-c7cccc(S(=O)(=O)[O-])c7F)c7ccc4[nH]7)C=C6)C=C5)cc3)cc2-c2ccccc2)cc1
REMARK SMILES IDX 22 1 21 2 19 3 20 4 18 6 17 7 16 8 15 9 12 10 13 11 14 13
REMARK SMILES IDX 11 15 9 16 10 17 95 18 94 19 8 20 5 21 6 22 103 23 7 24
REMARK SMILES IDX 102 25 2 26 3 27 4 28 1 29 96 32 97 33 101 34 98 35 100 36
REMARK SMILES IDX 99 37 23 38 24 39 25 40 26 41 27 42 28 43 29 44 30 46 31 47
REMARK SMILES IDX 32 48 93 49 33 50 92 51 34 52 35 53 36 54 86 55 37 56 91 57
REMARK SMILES IDX 85 58 87 59 38 60 90 61 84 62 83 63 39 65 71 66 51 67 70 68
REMARK SMILES IDX 52 69 55 70 69 71 88 72 53 73 54 74 68 76 89 77 56 78 40 79
REMARK SMILES IDX 41 80 49 81 42 82 44 83 50 84 43 85 45 86 46 87 47 88 48 89
REMARK SMILES IDX 72 90 73 91 81 92 74 93 76 94 82 95 75 96 77 97 78 98 79 99
REMARK SMILES IDX 80 100 57 101 58 102 66 103 59 104 61 105 67 106 60 107
REMARK SMILES IDX 62 108 63 109 64 110 65 111
REMARK H PARENT 21 5 12 12 15 14 1 30 1 31 28 45 87 64 55 75
REMARK Flexibility Score: inf
ROOT
ATOM      1  C   UNL A   1      33.975  30.232  27.588  1.00  0.00     0.116 C 
ENDROOT
BRANCH   1   2
ATOM      2  N   UNL A   1      33.556  30.070  26.205  1.00  0.00    -0.356 N 
ATOM      3  C   UNL A   1      32.652  29.203  25.668  1.00  0.00     0.220 C 
ATOM      4  O   UNL A   1      32.576  29.124  24.439  1.00  0.00    -0.275 OA
ATOM      5  H   UNL A   1      33.988  30.678  25.562  1.00  0.00     0.163 HD
BRANCH   3   6
ATOM      6  C   UNL A   1      31.721  28.404  26.565  1.00  0.00     0.102 C 
BRANCH   6   7
ATOM      7  C   UNL A   1      31.991  26.899  26.588  1.00  0.00     0.031 C 
BRANCH   7   8
ATOM      8  C   UNL A   1      30.966  26.043  25.856  1.00  0.00     0.118 C 
BRANCH   8   9
ATOM      9  N   UNL A   1      30.061  26.754  24.970  1.00  0.00    -0.338 N 
ATOM     10  N   UNL A   1      31.249  26.771  22.894  1.00  0.00    -0.291 N 
ATOM     11  C   UNL A   1      30.171  27.074  23.655  1.00  0.00     0.320 C 
ATOM     12  H   UNL A   1      31.379  27.355  22.112  1.00  0.00     0.173 HD
ATOM     13  O   UNL A   1      29.262  27.768  23.185  1.00  0.00    -0.248 OA
ATOM     14  H   UNL A   1      29.226  27.055  25.396  1.00  0.00     0.165 HD
BRANCH  10  15
ATOM     15  C   UNL A   1      32.192  25.779  23.037  1.00  0.00     0.157 A 
ATOM     16  N   UNL A   1      32.941  23.850  23.381  1.00  0.00    -0.231 N 
ATOM     17  N   UNL A   1      31.988  24.503  22.697  1.00  0.00    -0.149 NA
ATOM     18  C   UNL A   1      34.007  24.672  23.678  1.00  0.00     0.076 A 
ATOM     19  C   UNL A   1      33.524  25.956  23.495  1.00  0.00     0.078 A 
BRANCH  16  20
ATOM     20  C   UNL A   1      32.766  22.503  23.779  1.00  0.00     0.065 A 
ATOM     21  C   UNL A   1      32.734  19.842  24.538  1.00  0.00     0.082 A 
ATOM     22  C   UNL A   1      33.000  20.818  25.498  1.00  0.00     0.024 A 
ATOM     23  C   UNL A   1      32.421  20.192  23.217  1.00  0.00     0.024 A 
ATOM     24  C   UNL A   1      33.011  22.152  25.114  1.00  0.00     0.030 A 
ATOM     25  C   UNL A   1      32.421  21.535  22.836  1.00  0.00     0.030 A 
BRANCH  21  26
ATOM     26  S   UNL A   1      32.787  18.149  25.022  1.00  0.00     0.238 S 
ATOM     27  O   UNL A   1      34.100  17.611  24.793  1.00  0.00    -0.207 OA
ATOM     28  O   UNL A   1      31.580  17.492  24.556  1.00  0.00    -0.207 OA
BRANCH  26  29
ATOM     29  N   UNL A   1      32.640  18.231  26.694  1.00  0.00    -0.225 NA
ATOM     30  H   UNL A   1      32.544  17.290  27.073  1.00  0.00     0.137 HD
ATOM     31  H   UNL A   1      31.816  18.781  26.936  1.00  0.00     0.137 HD
ENDBRANCH  26  29
ENDBRANCH  21  26
ENDBRANCH  16  20
BRANCH  18  32
ATOM     32  C   UNL A   1      35.279  24.106  24.100  1.00  0.00     0.000 A 
ATOM     33  C   UNL A   1      35.890  23.143  23.289  1.00  0.00     0.010 A 
ATOM     34  C   UNL A   1      35.773  24.323  25.383  1.00  0.00     0.010 A 
ATOM     35  C   UNL A   1      36.977  22.405  23.757  1.00  0.00     0.001 A 
ATOM     36  C   UNL A   1      36.857  23.578  25.855  1.00  0.00     0.001 A 
ATOM     37  C   UNL A   1      37.462  22.624  25.043  1.00  0.00     0.000 A 
ENDBRANCH  18  32
ENDBRANCH  10  15
ENDBRANCH   8   9
ENDBRANCH   7   8
ENDBRANCH   6   7
ENDBRANCH   3   6
ENDBRANCH   1   2
BRANCH   1  38
ATOM     38  C   UNL A   1      34.298  31.696  27.881  1.00  0.00     0.021 C 
BRANCH  38  39
ATOM     39  C   UNL A   1      35.789  32.018  27.972  1.00  0.00     0.002 C 
BRANCH  39  40
ATOM     40  C   UNL A   1      36.696  30.816  28.263  1.00  0.00     0.002 C 
BRANCH  40  41
ATOM     41  C   UNL A   1      37.634  30.961  29.471  1.00  0.00     0.021 C 
BRANCH  41  42
ATOM     42  C   UNL A   1      36.956  30.678  30.805  1.00  0.00     0.116 C 
BRANCH  42  43
ATOM     43  N   UNL A   1      37.339  31.656  31.825  1.00  0.00    -0.352 N 
ATOM     44  C   UNL A   1      38.371  31.585  32.736  1.00  0.00     0.251 C 
ATOM     45  H   UNL A   1      36.788  32.471  31.865  1.00  0.00     0.163 HD
ATOM     46  O   UNL A   1      38.363  32.290  33.740  1.00  0.00    -0.269 OA
BRANCH  44  47
ATOM     47  C   UNL A   1      39.484  30.656  32.481  1.00  0.00     0.039 A 
ATOM     48  C   UNL A   1      39.312  29.277  32.621  1.00  0.00     0.014 A 
ATOM     49  C   UNL A   1      40.713  31.184  32.082  1.00  0.00     0.014 A 
ATOM     50  C   UNL A   1      40.365  28.434  32.279  1.00  0.00     0.010 A 
ATOM     51  C   UNL A   1      41.698  30.351  31.614  1.00  0.00     0.010 A 
ATOM     52  C   UNL A   1      41.549  28.978  31.750  1.00  0.00    -0.014 A 
BRANCH  52  53
ATOM     53  C   UNL A   1      42.577  28.104  31.194  1.00  0.00     0.031 A 
ATOM     54  C   UNL A   1      43.412  27.449  32.232  1.00  0.00     0.074 A 
ATOM     55  C   UNL A   1      42.663  27.763  29.890  1.00  0.00     0.049 A 
ATOM     56  N   UNL A   1      44.605  27.789  32.595  1.00  0.00    -0.248 NA
ATOM     57  C   UNL A   1      42.796  26.429  33.094  1.00  0.00     0.031 C 
ATOM     58  C   UNL A   1      41.709  28.077  28.819  1.00  0.00     0.029 A 
ATOM     59  N   UNL A   1      43.569  26.966  29.254  1.00  0.00    -0.354 N 
ATOM     60  C   UNL A   1      44.994  26.812  33.509  1.00  0.00     0.074 A 
ATOM     61  C   UNL A   1      43.783  26.185  33.962  1.00  0.00     0.031 C 
ATOM     62  C   UNL A   1      41.952  27.287  27.750  1.00  0.00     0.029 A 
ATOM     63  C   UNL A   1      43.175  26.551  27.985  1.00  0.00     0.049 A 
ATOM     64  H   UNL A   1      44.430  26.707  29.657  1.00  0.00     0.167 HD
ATOM     65  C   UNL A   1      46.284  26.373  33.529  1.00  0.00     0.034 A 
ATOM     66  C   UNL A   1      43.830  25.690  27.172  1.00  0.00     0.034 A 
ATOM     67  C   UNL A   1      47.118  27.212  32.708  1.00  0.00     0.049 A 
ATOM     68  C   UNL A   1      45.251  25.707  27.557  1.00  0.00     0.074 A 
ATOM     69  C   UNL A   1      47.722  28.445  32.786  1.00  0.00     0.029 A 
ATOM     70  N   UNL A   1      47.094  26.846  31.389  1.00  0.00    -0.354 N 
ATOM     71  N   UNL A   1      46.007  26.758  27.417  1.00  0.00    -0.248 NA
ATOM     72  C   UNL A   1      45.774  24.650  28.412  1.00  0.00     0.031 C 
ATOM     73  C   UNL A   1      47.949  28.864  31.440  1.00  0.00     0.029 A 
ATOM     74  C   UNL A   1      47.516  27.860  30.578  1.00  0.00     0.049 A 
ATOM     75  H   UNL A   1      46.808  25.962  31.065  1.00  0.00     0.167 HD
ATOM     76  C   UNL A   1      46.854  26.688  28.506  1.00  0.00     0.074 A 
ATOM     77  C   UNL A   1      46.798  25.306  28.961  1.00  0.00     0.031 C 
ATOM     78  C   UNL A   1      47.248  27.815  29.159  1.00  0.00     0.034 A 
BRANCH  65  79
ATOM     79  C   UNL A   1      46.742  24.957  33.833  1.00  0.00     0.023 A 
ATOM     80  C   UNL A   1      45.743  23.954  33.855  1.00  0.00     0.012 A 
ATOM     81  C   UNL A   1      47.999  24.608  34.375  1.00  0.00     0.148 A 
ATOM     82  C   UNL A   1      45.968  22.695  34.422  1.00  0.00     0.002 A 
ATOM     83  C   UNL A   1      48.245  23.328  34.866  1.00  0.00     0.091 A 
ATOM     84  F   UNL A   1      48.936  25.541  34.548  1.00  0.00    -0.205 F 
ATOM     85  C   UNL A   1      47.223  22.379  34.923  1.00  0.00     0.022 A 
BRANCH  83  86
ATOM     86  S   UNL A   1      49.864  22.841  35.477  1.00  0.00     0.127 S 
ATOM     87  O   UNL A   1      49.697  21.399  35.625  1.00  0.00    -0.237 OA
ATOM     88  O   UNL A   1      50.729  23.254  34.371  1.00  0.00    -0.237 OA
ATOM     89  O   UNL A   1      50.064  23.596  36.707  1.00  0.00    -0.744 OA
ENDBRANCH  83  86
ENDBRANCH  65  79
BRANCH  66  90
ATOM     90  C   UNL A   1      43.323  24.605  26.308  1.00  0.00     0.023 A 
ATOM     91  C   UNL A   1      43.998  24.274  25.119  1.00  0.00     0.012 A 
ATOM     92  C   UNL A   1      42.438  23.661  26.875  1.00  0.00     0.148 A 
ATOM     93  C   UNL A   1      43.799  23.029  24.510  1.00  0.00     0.002 A 
ATOM     94  C   UNL A   1      42.278  22.409  26.289  1.00  0.00     0.091 A 
ATOM     95  F   UNL A   1      41.861  23.965  28.047  1.00  0.00    -0.205 F 
ATOM     96  C   UNL A   1      42.949  22.095  25.099  1.00  0.00     0.022 A 
BRANCH  94  97
ATOM     97  S   UNL A   1      41.358  21.070  27.070  1.00  0.00     0.127 S 
ATOM     98  O   UNL A   1      42.282  20.628  28.117  1.00  0.00    -0.237 OA
ATOM     99  O   UNL A   1      40.181  21.774  27.569  1.00  0.00    -0.237 OA
ATOM    100  O   UNL A   1      41.112  20.086  26.024  1.00  0.00    -0.744 OA
ENDBRANCH  94  97
ENDBRANCH  66  90
BRANCH  78 101
ATOM    101  C   UNL A   1      47.277  29.097  28.390  1.00  0.00     0.023 A 
ATOM    102  C   UNL A   1      48.417  29.590  27.727  1.00  0.00     0.012 A 
ATOM    103  C   UNL A   1      46.059  29.783  28.270  1.00  0.00     0.148 A 
ATOM    104  C   UNL A   1      48.335  30.757  26.960  1.00  0.00     0.002 A 
ATOM    105  C   UNL A   1      45.971  30.913  27.474  1.00  0.00     0.091 A 
ATOM    106  F   UNL A   1      44.995  29.302  28.932  1.00  0.00    -0.205 F 
ATOM    107  C   UNL A   1      47.108  31.411  26.822  1.00  0.00     0.022 A 
BRANCH 105 108
ATOM    108  S   UNL A   1      44.397  31.719  27.180  1.00  0.00     0.127 S 
ATOM    109  O   UNL A   1      44.628  32.383  25.898  1.00  0.00    -0.237 OA
ATOM    110  O   UNL A   1      43.473  30.586  27.125  1.00  0.00    -0.237 OA
ATOM    111  O   UNL A   1      44.180  32.606  28.317  1.00  0.00    -0.744 OA
ENDBRANCH 105 108
ENDBRANCH  78 101
ENDBRANCH  52  53
ENDBRANCH  44  47
ENDBRANCH  42  43
ENDBRANCH  41  42
ENDBRANCH  40  41
ENDBRANCH  39  40
ENDBRANCH  38  39
ENDBRANCH   1  38
TORSDOF 24
ENDMDL
MODEL 2
REMARK VINA RESULT:     -10.7      1.642      2.110
REMARK SMILES NS(=O)(=O)c1ccc(-n2nc(NC(=O)NCCCC(=O)NCCCCCCNC(=O)c3ccc(-c4c5nc(c(-c6cccc(S(=O)(=O)[O-])c6F)c6ccc([nH]6)c(-c6cccc(S(=O)(=O)[O-])c6F)c6nc(c(-c7cccc(S(=O)(=O)[O-])c7F)c7ccc4[nH]7)C=C6)C=C5)cc3)cc2-c2ccccc2)cc1
REMARK SMILES IDX 22 1 21 2 19 3 20 4 18 6 17 7 16 8 15 9 12 10 13 11 14 13
REMARK SMILES IDX 11 15 9 16 10 17 95 18 94 19 8 20 5 21 6 22 103 23 7 24
REMARK SMILES IDX 102 25 2 26 3 27 4 28 1 29 96 32 97 33 101 34 98 35 100 36
REMARK SMILES IDX 99 37 23 38 24 39 25 40 26 41 27 42 28 43 29 44 30 46 31 47
REMARK SMILES IDX 32 48 93 49 33 50 92 51 34 52 35 53 36 54 86 55 37 56 91 57
REMARK SMILES IDX 85 58 87 59 38 60 90 61 84 62 83 63 39 65 71 66 51 67 70 68
REMARK SMILES IDX 52 69 55 70 69 71 88 72 53 73 54 74 68 76 89 77 56 78 40 79
REMARK SMILES IDX 41 80 49 81 42 82 44 83 50 84 43 85 45 86 46 87 47 88 48 89
REMARK SMILES IDX 72 90 73 91 81 92 74 93 76 94 82 95 75 96 77 97 78 98 79 99
REMARK SMILES IDX 80 100 57 101 58 102 66 103 59 104 61 105 67 106 60 107
REMARK SMILES IDX 62 108 63 109 64 110 65 111
REMARK H PARENT 21 5 12 12 15 14 1 30 1 31 28 45 87 64 55 75
REMARK Flexibility Score: inf
ROOT
ATOM      1  C   UNL A   1      31.599  31.153  26.670  1.00  0.00     0.116 C 
ENDROOT
BRANCH   1   2
ATOM      2  N   UNL A   1      32.777  30.319  26.495  1.00  0.00    -0.356 N 
ATOM      3  C   UNL A   1      32.909  28.968  26.606  1.00  0.00     0.220 C 
ATOM      4  O   UNL A   1      34.044  28.487  26.581  1.00  0.00    -0.275 OA
ATOM      5  H   UNL A   1      33.602  30.804  26.260  1.00  0.00     0.163 HD
BRANCH   3   6
ATOM      6  C   UNL A   1      31.681  28.077  26.694  1.00  0.00     0.102 C 
BRANCH   6   7
ATOM      7  C   UNL A   1      31.960  26.583  26.524  1.00  0.00     0.031 C 
BRANCH   7   8
ATOM      8  C   UNL A   1      30.808  25.768  25.951  1.00  0.00     0.118 C 
BRANCH   8   9
ATOM      9  N   UNL A   1      29.853  26.500  25.139  1.00  0.00    -0.338 N 
ATOM     10  N   UNL A   1      30.968  26.676  23.030  1.00  0.00    -0.291 N 
ATOM     11  C   UNL A   1      29.908  26.900  23.842  1.00  0.00     0.320 C 
ATOM     12  H   UNL A   1      31.055  27.308  22.280  1.00  0.00     0.173 HD
ATOM     13  O   UNL A   1      28.965  27.592  23.444  1.00  0.00    -0.248 OA
ATOM     14  H   UNL A   1      29.025  26.750  25.608  1.00  0.00     0.165 HD
BRANCH  10  15
ATOM     15  C   UNL A   1      31.945  25.707  23.083  1.00  0.00     0.157 A 
ATOM     16  N   UNL A   1      32.759  23.781  23.250  1.00  0.00    -0.231 N 
ATOM     17  N   UNL A   1      31.784  24.462  22.626  1.00  0.00    -0.149 NA
ATOM     18  C   UNL A   1      33.796  24.608  23.624  1.00  0.00     0.076 A 
ATOM     19  C   UNL A   1      33.270  25.886  23.559  1.00  0.00     0.078 A 
BRANCH  16  20
ATOM     20  C   UNL A   1      32.630  22.398  23.521  1.00  0.00     0.065 A 
ATOM     21  C   UNL A   1      32.687  19.678  24.027  1.00  0.00     0.082 A 
ATOM     22  C   UNL A   1      32.936  20.567  25.072  1.00  0.00     0.024 A 
ATOM     23  C   UNL A   1      32.346  20.140  22.748  1.00  0.00     0.024 A 
ATOM     24  C   UNL A   1      32.903  21.931  24.815  1.00  0.00     0.030 A 
ATOM     25  C   UNL A   1      32.301  21.513  22.495  1.00  0.00     0.030 A 
BRANCH  21  26
ATOM     26  S   UNL A   1      32.797  17.950  24.350  1.00  0.00     0.238 S 
ATOM     27  O   UNL A   1      31.744  17.547  25.242  1.00  0.00    -0.207 OA
ATOM     28  O   UNL A   1      34.189  17.604  24.576  1.00  0.00    -0.207 OA
BRANCH  26  29
ATOM     29  N   UNL A   1      32.396  17.264  22.870  1.00  0.00    -0.225 NA
ATOM     30  H   UNL A   1      31.840  17.925  22.328  1.00  0.00     0.137 HD
ATOM     31  H   UNL A   1      31.856  16.412  23.025  1.00  0.00     0.137 HD
ENDBRANCH  26  29
ENDBRANCH  21  26
ENDBRANCH  16  20
BRANCH  18  32
ATOM     32  C   UNL A   1      35.086  24.048  23.996  1.00  0.00     0.000 A 
ATOM     33  C   UNL A   1      35.755  23.228  23.079  1.00  0.00     0.010 A 
ATOM     34  C   UNL A   1      35.551  24.116  25.306  1.00  0.00     0.010 A 
ATOM     35  C   UNL A   1      36.867  22.484  23.470  1.00  0.00     0.001 A 
ATOM     36  C   UNL A   1      36.661  23.365  25.700  1.00  0.00     0.001 A 
ATOM     37  C   UNL A   1      37.322  22.553  24.783  1.00  0.00     0.000 A 
ENDBRANCH  18  32
ENDBRANCH  10  15
ENDBRANCH   8   9
ENDBRANCH   7   8
ENDBRANCH   6   7
ENDBRANCH   3   6
ENDBRANCH   1   2
BRANCH   1  38
ATOM     38  C   UNL A   1      31.986  32.630  26.696  1.00  0.00     0.021 C 
BRANCH  38  39
ATOM     39  C   UNL A   1      32.739  33.074  27.950  1.00  0.00     0.002 C 
BRANCH  39  40
ATOM     40  C   UNL A   1      34.259  32.872  27.899  1.00  0.00     0.002 C 
BRANCH  40  41
ATOM     41  C   UNL A   1      34.939  32.564  29.242  1.00  0.00     0.021 C 
BRANCH  41  42
ATOM     42  C   UNL A   1      36.343  33.142  29.360  1.00  0.00     0.116 C 
BRANCH  42  43
ATOM     43  N   UNL A   1      36.625  33.604  30.721  1.00  0.00    -0.352 N 
ATOM     44  C   UNL A   1      37.506  33.077  31.639  1.00  0.00     0.251 C 
ATOM     45  H   UNL A   1      36.119  34.395  31.017  1.00  0.00     0.163 HD
ATOM     46  O   UNL A   1      37.389  33.336  32.832  1.00  0.00    -0.269 OA
BRANCH  44  47
ATOM     47  C   UNL A   1      38.592  32.204  31.165  1.00  0.00     0.039 A 
ATOM     48  C   UNL A   1      39.917  32.647  31.163  1.00  0.00     0.014 A 
ATOM     49  C   UNL A   1      38.271  30.917  30.733  1.00  0.00     0.014 A 
ATOM     50  C   UNL A   1      40.920  31.755  30.796  1.00  0.00     0.010 A 
ATOM     51  C   UNL A   1      39.267  29.999  30.507  1.00  0.00     0.010 A 
ATOM     52  C   UNL A   1      40.589  30.421  30.494  1.00  0.00    -0.014 A 
BRANCH  52  53
ATOM     53  C   UNL A   1      41.639  29.425  30.311  1.00  0.00     0.031 A 
ATOM     54  C   UNL A   1      42.156  28.877  31.590  1.00  0.00     0.074 A 
ATOM     55  C   UNL A   1      41.993  28.901  29.117  1.00  0.00     0.049 A 
ATOM     56  N   UNL A   1      43.258  29.200  32.183  1.00  0.00    -0.248 NA
ATOM     57  C   UNL A   1      41.275  28.021  32.399  1.00  0.00     0.031 C 
ATOM     58  C   UNL A   1      41.339  29.114  27.820  1.00  0.00     0.029 A 
ATOM     59  N   UNL A   1      42.950  27.976  28.818  1.00  0.00    -0.354 N 
ATOM     60  C   UNL A   1      43.344  28.340  33.276  1.00  0.00     0.074 A 
ATOM     61  C   UNL A   1      42.012  27.848  33.501  1.00  0.00     0.031 C 
ATOM     62  C   UNL A   1      41.753  28.170  26.945  1.00  0.00     0.029 A 
ATOM     63  C   UNL A   1      42.823  27.411  27.553  1.00  0.00     0.049 A 
ATOM     64  H   UNL A   1      43.670  27.730  29.444  1.00  0.00     0.167 HD
ATOM     65  C   UNL A   1      44.552  27.839  33.657  1.00  0.00     0.034 A 
ATOM     66  C   UNL A   1      43.571  26.410  27.031  1.00  0.00     0.034 A 
ATOM     67  C   UNL A   1      45.621  28.510  32.961  1.00  0.00     0.049 A 
ATOM     68  C   UNL A   1      44.862  26.404  27.739  1.00  0.00     0.074 A 
ATOM     69  C   UNL A   1      46.293  29.708  33.029  1.00  0.00     0.029 A 
ATOM     70  N   UNL A   1      45.868  27.966  31.730  1.00  0.00    -0.354 N 
ATOM     71  N   UNL A   1      45.717  27.384  27.656  1.00  0.00    -0.248 NA
ATOM     72  C   UNL A   1      45.084  25.450  28.818  1.00  0.00     0.031 C 
ATOM     73  C   UNL A   1      46.857  29.922  31.735  1.00  0.00     0.029 A 
ATOM     74  C   UNL A   1      46.549  28.833  30.925  1.00  0.00     0.049 A 
ATOM     75  H   UNL A   1      45.590  27.061  31.459  1.00  0.00     0.167 HD
ATOM     76  C   UNL A   1      46.283  27.421  28.914  1.00  0.00     0.074 A 
ATOM     77  C   UNL A   1      46.007  26.120  29.509  1.00  0.00     0.031 C 
ATOM     78  C   UNL A   1      46.610  28.605  29.500  1.00  0.00     0.034 A 
BRANCH  65  79
ATOM     79  C   UNL A   1      44.807  26.456  34.233  1.00  0.00     0.023 A 
ATOM     80  C   UNL A   1      44.321  25.356  33.487  1.00  0.00     0.012 A 
ATOM     81  C   UNL A   1      45.212  26.190  35.559  1.00  0.00     0.148 A 
ATOM     82  C   UNL A   1      44.205  24.077  34.042  1.00  0.00     0.002 A 
ATOM     83  C   UNL A   1      45.171  24.901  36.083  1.00  0.00     0.091 A 
ATOM     84  F   UNL A   1      45.519  27.196  36.380  1.00  0.00    -0.205 F 
ATOM     85  C   UNL A   1      44.637  23.847  35.340  1.00  0.00     0.022 A 
BRANCH  83  86
ATOM     86  S   UNL A   1      45.767  24.530  37.739  1.00  0.00     0.127 S 
ATOM     87  O   UNL A   1      47.195  24.795  37.600  1.00  0.00    -0.237 OA
ATOM     88  O   UNL A   1      45.030  25.508  38.540  1.00  0.00    -0.237 OA
ATOM     89  O   UNL A   1      45.391  23.144  37.991  1.00  0.00    -0.744 OA
ENDBRANCH  83  86
ENDBRANCH  65  79
BRANCH  66  90
ATOM     90  C   UNL A   1      43.185  25.245  26.211  1.00  0.00     0.023 A 
ATOM     91  C   UNL A   1      43.964  24.872  25.101  1.00  0.00     0.012 A 
ATOM     92  C   UNL A   1      42.307  24.294  26.778  1.00  0.00     0.148 A 
ATOM     93  C   UNL A   1      43.873  23.580  24.569  1.00  0.00     0.002 A 
ATOM     94  C   UNL A   1      42.254  22.999  26.271  1.00  0.00     0.091 A 
ATOM     95  F   UNL A   1      41.628  24.643  27.881  1.00  0.00    -0.205 F 
ATOM     96  C   UNL A   1      43.028  22.643  25.158  1.00  0.00     0.022 A 
BRANCH  94  97
ATOM     97  S   UNL A   1      41.344  21.666  27.075  1.00  0.00     0.127 S 
ATOM     98  O   UNL A   1      41.053  22.239  28.391  1.00  0.00    -0.237 OA
ATOM     99  O   UNL A   1      40.179  21.540  26.206  1.00  0.00    -0.237 OA
ATOM    100  O   UNL A   1      42.243  20.521  27.099  1.00  0.00    -0.744 OA
ENDBRANCH  94  97
ENDBRANCH  66  90
BRANCH  78 101
ATOM    101  C   UNL A   1      46.923  29.764  28.608  1.00  0.00     0.023 A 
ATOM    102  C   UNL A   1      48.180  29.980  28.012  1.00  0.00     0.012 A 
ATOM    103  C   UNL A   1      45.857  30.622  28.298  1.00  0.00     0.148 A 
ATOM    104  C   UNL A   1      48.365  31.045  27.124  1.00  0.00     0.002 A 
ATOM    105  C   UNL A   1      46.031  31.649  27.385  1.00  0.00     0.091 A 
ATOM    106  F   UNL A   1      44.677  30.405  28.900  1.00  0.00    -0.205 F 
ATOM    107  C   UNL A   1      47.286  31.870  26.800  1.00  0.00     0.022 A 
BRANCH 105 108
ATOM    108  S   UNL A   1      44.650  32.662  26.857  1.00  0.00     0.127 S 
ATOM    109  O   UNL A   1      43.953  32.909  28.118  1.00  0.00    -0.237 OA
ATOM    110  O   UNL A   1      45.321  33.830  26.287  1.00  0.00    -0.237 OA
ATOM    111  O   UNL A   1      43.917  31.865  25.880  1.00  0.00    -0.744 OA
ENDBRANCH 105 108
ENDBRANCH  78 101
ENDBRANCH  52  53
ENDBRANCH  44  47
ENDBRANCH  42  43
ENDBRANCH  41  42
ENDBRANCH  40  41
ENDBRANCH  39  40
ENDBRANCH  38  39
ENDBRANCH   1  38
TORSDOF 24
ENDMDL
MODEL 3
REMARK VINA RESULT:     -10.0      5.706     12.491
REMARK SMILES NS(=O)(=O)c1ccc(-n2nc(NC(=O)NCCCC(=O)NCCCCCCNC(=O)c3ccc(-c4c5nc(c(-c6cccc(S(=O)(=O)[O-])c6F)c6ccc([nH]6)c(-c6cccc(S(=O)(=O)[O-])c6F)c6nc(c(-c7cccc(S(=O)(=O)[O-])c7F)c7ccc4[nH]7)C=C6)C=C5)cc3)cc2-c2ccccc2)cc1
REMARK SMILES IDX 22 1 21 2 19 3 20 4 18 6 17 7 16 8 15 9 12 10 13 11 14 13
REMARK SMILES IDX 11 15 9 16 10 17 95 18 94 19 8 20 5 21 6 22 103 23 7 24
REMARK SMILES IDX 102 25 2 26 3 27 4 28 1 29 96 32 97 33 101 34 98 35 100 36
REMARK SMILES IDX 99 37 23 38 24 39 25 40 26 41 27 42 28 43 29 44 30 46 31 47
REMARK SMILES IDX 32 48 93 49 33 50 92 51 34 52 35 53 36 54 86 55 37 56 91 57
REMARK SMILES IDX 85 58 87 59 38 60 90 61 84 62 83 63 39 65 71 66 51 67 70 68
REMARK SMILES IDX 52 69 55 70 69 71 88 72 53 73 54 74 68 76 89 77 56 78 40 79
REMARK SMILES IDX 41 80 49 81 42 82 44 83 50 84 43 85 45 86 46 87 47 88 48 89
REMARK SMILES IDX 72 90 73 91 81 92 74 93 76 94 82 95 75 96 77 97 78 98 79 99
REMARK SMILES IDX 80 100 57 101 58 102 66 103 59 104 61 105 67 106 60 107
REMARK SMILES IDX 62 108 63 109 64 110 65 111
REMARK H PARENT 21 5 12 12 15 14 1 30 1 31 28 45 87 64 55 75
REMARK Flexibility Score: inf
ROOT
ATOM      1  C   UNL A   1      38.249  31.558  33.322  1.00  0.00     0.116 C 
ENDROOT
BRANCH   1   2
ATOM      2  N   UNL A   1      37.972  30.991  34.632  1.00  0.00    -0.356 N 
ATOM      3  C   UNL A   1      38.816  30.765  35.678  1.00  0.00     0.220 C 
ATOM      4  O   UNL A   1      38.397  30.116  36.639  1.00  0.00    -0.275 OA
ATOM      5  H   UNL A   1      37.033  30.734  34.788  1.00  0.00     0.163 HD
BRANCH   3   6
ATOM      6  C   UNL A   1      40.217  31.355  35.680  1.00  0.00     0.102 C 
BRANCH   6   7
ATOM      7  C   UNL A   1      40.315  32.770  36.251  1.00  0.00     0.031 C 
BRANCH   7   8
ATOM      8  C   UNL A   1      41.134  33.751  35.422  1.00  0.00     0.118 C 
BRANCH   8   9
ATOM      9  N   UNL A   1      42.532  33.407  35.229  1.00  0.00    -0.338 N 
ATOM     10  N   UNL A   1      43.619  34.571  37.014  1.00  0.00    -0.291 N 
ATOM     11  C   UNL A   1      43.640  33.756  35.932  1.00  0.00     0.320 C 
ATOM     12  H   UNL A   1      44.467  35.037  37.195  1.00  0.00     0.173 HD
ATOM     13  O   UNL A   1      44.721  33.373  35.472  1.00  0.00    -0.248 OA
ATOM     14  H   UNL A   1      42.705  32.823  34.456  1.00  0.00     0.165 HD
BRANCH  10  15
ATOM     15  C   UNL A   1      42.605  34.852  37.901  1.00  0.00     0.157 A 
ATOM     16  N   UNL A   1      41.329  36.030  39.077  1.00  0.00    -0.231 N 
ATOM     17  N   UNL A   1      41.848  35.952  37.842  1.00  0.00    -0.149 NA
ATOM     18  C   UNL A   1      41.297  34.798  39.694  1.00  0.00     0.076 A 
ATOM     19  C   UNL A   1      42.164  34.012  38.956  1.00  0.00     0.078 A 
BRANCH  16  20
ATOM     20  C   UNL A   1      40.953  37.274  39.638  1.00  0.00     0.065 A 
ATOM     21  C   UNL A   1      40.212  39.561  41.010  1.00  0.00     0.082 A 
ATOM     22  C   UNL A   1      41.557  39.193  40.981  1.00  0.00     0.024 A 
ATOM     23  C   UNL A   1      39.247  38.830  40.304  1.00  0.00     0.024 A 
ATOM     24  C   UNL A   1      41.926  38.047  40.289  1.00  0.00     0.030 A 
ATOM     25  C   UNL A   1      39.621  37.685  39.599  1.00  0.00     0.030 A 
BRANCH  21  26
ATOM     26  S   UNL A   1      39.749  40.979  41.946  1.00  0.00     0.238 S 
ATOM     27  O   UNL A   1      38.847  40.601  43.000  1.00  0.00    -0.207 OA
ATOM     28  O   UNL A   1      39.468  42.071  41.031  1.00  0.00    -0.207 OA
BRANCH  26  29
ATOM     29  N   UNL A   1      41.176  41.399  42.726  1.00  0.00    -0.225 NA
ATOM     30  H   UNL A   1      40.973  41.648  43.694  1.00  0.00     0.137 HD
ATOM     31  H   UNL A   1      41.602  42.195  42.253  1.00  0.00     0.137 HD
ENDBRANCH  26  29
ENDBRANCH  21  26
ENDBRANCH  16  20
BRANCH  18  32
ATOM     32  C   UNL A   1      40.476  34.586  40.876  1.00  0.00     0.000 A 
ATOM     33  C   UNL A   1      41.105  34.475  42.122  1.00  0.00     0.010 A 
ATOM     34  C   UNL A   1      39.127  34.261  40.768  1.00  0.00     0.010 A 
ATOM     35  C   UNL A   1      40.395  34.040  43.241  1.00  0.00     0.001 A 
ATOM     36  C   UNL A   1      38.418  33.818  41.886  1.00  0.00     0.001 A 
ATOM     37  C   UNL A   1      39.048  33.712  43.123  1.00  0.00     0.000 A 
ENDBRANCH  18  32
ENDBRANCH  10  15
ENDBRANCH   8   9
ENDBRANCH   7   8
ENDBRANCH   6   7
ENDBRANCH   3   6
ENDBRANCH   1   2
BRANCH   1  38
ATOM     38  C   UNL A   1      38.001  33.064  33.327  1.00  0.00     0.021 C 
BRANCH  38  39
ATOM     39  C   UNL A   1      36.983  33.545  34.359  1.00  0.00     0.002 C 
BRANCH  39  40
ATOM     40  C   UNL A   1      35.519  33.485  33.903  1.00  0.00     0.002 C 
BRANCH  40  41
ATOM     41  C   UNL A   1      35.288  33.535  32.385  1.00  0.00     0.021 C 
BRANCH  41  42
ATOM     42  C   UNL A   1      34.953  32.181  31.775  1.00  0.00     0.116 C 
BRANCH  42  43
ATOM     43  N   UNL A   1      34.301  32.321  30.472  1.00  0.00    -0.352 N 
ATOM     44  C   UNL A   1      34.876  32.306  29.220  1.00  0.00     0.251 C 
ATOM     45  H   UNL A   1      33.324  32.441  30.493  1.00  0.00     0.163 HD
ATOM     46  O   UNL A   1      34.280  32.777  28.257  1.00  0.00    -0.269 OA
BRANCH  44  47
ATOM     47  C   UNL A   1      36.212  31.711  29.056  1.00  0.00     0.039 A 
ATOM     48  C   UNL A   1      37.361  32.421  29.414  1.00  0.00     0.014 A 
ATOM     49  C   UNL A   1      36.305  30.414  28.548  1.00  0.00     0.014 A 
ATOM     50  C   UNL A   1      38.595  31.782  29.329  1.00  0.00     0.010 A 
ATOM     51  C   UNL A   1      37.501  29.741  28.598  1.00  0.00     0.010 A 
ATOM     52  C   UNL A   1      38.654  30.431  28.945  1.00  0.00    -0.014 A 
BRANCH  52  53
ATOM     53  C   UNL A   1      39.907  29.689  29.050  1.00  0.00     0.031 A 
ATOM     54  C   UNL A   1      40.296  29.394  30.452  1.00  0.00     0.074 A 
ATOM     55  C   UNL A   1      40.565  29.154  28.000  1.00  0.00     0.049 A 
ATOM     56  N   UNL A   1      41.184  30.014  31.157  1.00  0.00    -0.248 NA
ATOM     57  C   UNL A   1      39.488  28.436  31.222  1.00  0.00     0.031 C 
ATOM     58  C   UNL A   1      40.118  29.092  26.602  1.00  0.00     0.029 A 
ATOM     59  N   UNL A   1      41.733  28.450  27.968  1.00  0.00    -0.354 N 
ATOM     60  C   UNL A   1      41.258  29.300  32.351  1.00  0.00     0.074 A 
ATOM     61  C   UNL A   1      40.042  28.538  32.435  1.00  0.00     0.031 C 
ATOM     62  C   UNL A   1      40.868  28.192  25.927  1.00  0.00     0.029 A 
ATOM     63  C   UNL A   1      41.951  27.757  26.781  1.00  0.00     0.049 A 
ATOM     64  H   UNL A   1      42.369  28.433  28.721  1.00  0.00     0.167 HD
ATOM     65  C   UNL A   1      42.459  29.126  32.970  1.00  0.00     0.034 A 
ATOM     66  C   UNL A   1      42.973  26.911  26.509  1.00  0.00     0.034 A 
ATOM     67  C   UNL A   1      43.467  29.958  32.361  1.00  0.00     0.049 A 
ATOM     68  C   UNL A   1      44.092  27.266  27.397  1.00  0.00     0.074 A 
ATOM     69  C   UNL A   1      43.848  31.279  32.376  1.00  0.00     0.029 A 
ATOM     70  N   UNL A   1      44.034  29.375  31.261  1.00  0.00    -0.354 N 
ATOM     71  N   UNL A   1      44.722  28.404  27.318  1.00  0.00    -0.248 NA
ATOM     72  C   UNL A   1      44.320  26.491  28.610  1.00  0.00     0.031 C 
ATOM     73  C   UNL A   1      44.571  31.498  31.164  1.00  0.00     0.029 A 
ATOM     74  C   UNL A   1      44.647  30.298  30.462  1.00  0.00     0.049 A 
ATOM     75  H   UNL A   1      44.005  28.410  31.069  1.00  0.00     0.167 HD
ATOM     76  C   UNL A   1      45.039  28.685  28.632  1.00  0.00     0.074 A 
ATOM     77  C   UNL A   1      44.945  27.416  29.341  1.00  0.00     0.031 C 
ATOM     78  C   UNL A   1      45.002  29.960  29.104  1.00  0.00     0.034 A 
BRANCH  65  79
ATOM     79  C   UNL A   1      42.896  27.898  33.749  1.00  0.00     0.023 A 
ATOM     80  C   UNL A   1      43.615  26.911  33.032  1.00  0.00     0.012 A 
ATOM     81  C   UNL A   1      42.404  27.523  35.019  1.00  0.00     0.148 A 
ATOM     82  C   UNL A   1      43.796  25.616  33.532  1.00  0.00     0.002 A 
ATOM     83  C   UNL A   1      42.654  26.260  35.547  1.00  0.00     0.091 A 
ATOM     84  F   UNL A   1      41.575  28.332  35.681  1.00  0.00    -0.205 F 
ATOM     85  C   UNL A   1      43.319  25.291  34.794  1.00  0.00     0.022 A 
BRANCH  83  86
ATOM     86  S   UNL A   1      42.112  25.797  37.198  1.00  0.00     0.127 S 
ATOM     87  O   UNL A   1      42.578  24.417  37.281  1.00  0.00    -0.237 OA
ATOM     88  O   UNL A   1      42.850  26.752  38.025  1.00  0.00    -0.237 OA
ATOM     89  O   UNL A   1      40.667  25.990  37.206  1.00  0.00    -0.744 OA
ENDBRANCH  83  86
ENDBRANCH  65  79
BRANCH  66  90
ATOM     90  C   UNL A   1      42.991  25.618  25.796  1.00  0.00     0.023 A 
ATOM     91  C   UNL A   1      44.105  25.255  25.019  1.00  0.00     0.012 A 
ATOM     92  C   UNL A   1      42.102  24.608  26.227  1.00  0.00     0.148 A 
ATOM     93  C   UNL A   1      44.331  23.915  24.680  1.00  0.00     0.002 A 
ATOM     94  C   UNL A   1      42.357  23.274  25.925  1.00  0.00     0.091 A 
ATOM     95  F   UNL A   1      41.088  24.963  27.030  1.00  0.00    -0.205 F 
ATOM     96  C   UNL A   1      43.466  22.926  25.141  1.00  0.00     0.022 A 
BRANCH  94  97
ATOM     97  S   UNL A   1      41.413  21.910  26.630  1.00  0.00     0.127 S 
ATOM     98  O   UNL A   1      40.038  22.268  26.274  1.00  0.00    -0.237 OA
ATOM     99  O   UNL A   1      41.945  20.771  25.889  1.00  0.00    -0.237 OA
ATOM    100  O   UNL A   1      41.692  21.922  28.059  1.00  0.00    -0.744 OA
ENDBRANCH  94  97
ENDBRANCH  66  90
BRANCH  78 101
ATOM    101  C   UNL A   1      45.214  31.074  28.128  1.00  0.00     0.023 A 
ATOM    102  C   UNL A   1      44.169  31.794  27.519  1.00  0.00     0.012 A 
ATOM    103  C   UNL A   1      46.543  31.457  27.893  1.00  0.00     0.148 A 
ATOM    104  C   UNL A   1      44.455  32.878  26.682  1.00  0.00     0.002 A 
ATOM    105  C   UNL A   1      46.822  32.558  27.100  1.00  0.00     0.091 A 
ATOM    106  F   UNL A   1      47.519  30.738  28.470  1.00  0.00    -0.205 F 
ATOM    107  C   UNL A   1      45.782  33.268  26.484  1.00  0.00     0.022 A 
BRANCH 105 108
ATOM    108  S   UNL A   1      48.499  33.160  26.907  1.00  0.00     0.127 S 
ATOM    109  O   UNL A   1      49.180  31.992  26.349  1.00  0.00    -0.237 OA
ATOM    110  O   UNL A   1      48.326  34.273  25.974  1.00  0.00    -0.237 OA
ATOM    111  O   UNL A   1      48.937  33.564  28.238  1.00  0.00    -0.744 OA
ENDBRANCH 105 108
ENDBRANCH  78 101
ENDBRANCH  52  53
ENDBRANCH  44  47
ENDBRANCH  42  43
ENDBRANCH  41  42
ENDBRANCH  40  41
ENDBRANCH  39  40
ENDBRANCH  38  39
ENDBRANCH   1  38
TORSDOF 24
ENDMDL
