MODEL 1
REMARK VINA RESULT:     -11.3      0.000      0.000
REMARK SMILES C[NH2+][C@@](C)(CCCC[N@H+]1C[C@H]2CCC[N@H+]2C[C@@H]1C)C(=O)NCCCCCCNC(=O)c1ccc(-c2c3nc(c(-c4cccc(S(=O)(=O)[O-])c4F)c4ccc([nH]4)c(-c4cccc(S(=O)(=O)[O-])c4F)c4nc(c(-c5cccc(S(=O)(=O)[O-])c5F)c5ccc2[nH]5)C=C4)C=C3)cc1
REMARK SMILES IDX 23 1 22 2 21 3 19 4 20 5 3 7 4 8 2 9 1 10 5 13 6 14 7 15
REMARK SMILES IDX 8 16 9 17 10 18 17 19 11 21 16 22 18 23 12 24 15 25 13 26
REMARK SMILES IDX 14 27 24 29 25 30 26 31 27 32 28 33 29 34 30 36 31 37 32 38
REMARK SMILES IDX 93 39 33 40 92 41 34 42 35 43 36 44 86 45 37 46 91 47 85 48
REMARK SMILES IDX 87 49 38 50 90 51 84 52 83 53 39 55 71 56 51 57 70 58 52 59
REMARK SMILES IDX 55 60 69 61 88 62 53 63 54 64 68 66 89 67 56 68 40 69 41 70
REMARK SMILES IDX 49 71 42 72 44 73 50 74 43 75 45 76 46 77 47 78 48 79 72 80
REMARK SMILES IDX 73 81 81 82 74 83 76 84 82 85 75 86 77 87 78 88 79 89 80 90
REMARK SMILES IDX 57 91 58 92 66 93 59 94 61 95 67 96 60 97 62 98 63 99 64 100
REMARK SMILES IDX 65 101
REMARK H PARENT 21 6 2 11 2 12 9 20 15 28 28 35 87 54 55 65
REMARK Flexibility Score: inf
ROOT
ATOM      1  C   UNL A   1      33.077  20.911  25.825  1.00  0.00     0.021 C 
ENDROOT
BRANCH   1   2
ATOM      2  C   UNL A   1      31.899  21.569  25.113  1.00  0.00     0.116 C 
BRANCH   2   3
ATOM      3  N   UNL A   1      31.011  22.267  26.027  1.00  0.00    -0.351 N 
ATOM      4  C   UNL A   1      30.841  23.569  26.386  1.00  0.00     0.281 C 
ATOM      5  O   UNL A   1      29.974  23.739  27.254  1.00  0.00    -0.268 OA
ATOM      6  H   UNL A   1      30.391  21.660  26.493  1.00  0.00     0.163 HD
BRANCH   4   7
ATOM      7  C   UNL A   1      31.672  24.756  25.771  1.00  0.00     0.172 C 
ATOM      8  C   UNL A   1      31.344  26.085  26.489  1.00  0.00     0.090 C 
BRANCH   7   9
ATOM      9  N   UNL A   1      33.148  24.522  25.915  1.00  0.00    -0.336 N 
ATOM     10  C   UNL A   1      33.905  24.434  24.673  1.00  0.00     0.331 C 
ATOM     11  H   UNL A   1      33.534  25.292  26.461  1.00  0.00     0.346 HD
ATOM     12  H   UNL A   1      33.238  23.608  26.358  1.00  0.00     0.346 HD
ENDBRANCH   7   9
BRANCH   7  13
ATOM     13  C   UNL A   1      31.384  24.907  24.246  1.00  0.00     0.079 C 
BRANCH  13  14
ATOM     14  C   UNL A   1      29.984  25.392  23.805  1.00  0.00     0.013 C 
BRANCH  14  15
ATOM     15  C   UNL A   1      29.803  26.884  23.505  1.00  0.00     0.062 C 
BRANCH  15  16
ATOM     16  C   UNL A   1      30.809  27.472  22.506  1.00  0.00     0.262 C 
BRANCH  16  17
ATOM     17  N   UNL A   1      31.754  28.435  23.098  1.00  0.00    -0.323 N 
ATOM     18  C   UNL A   1      31.245  28.921  24.391  1.00  0.00     0.328 C 
ATOM     19  C   UNL A   1      33.131  27.880  23.239  1.00  0.00     0.236 C 
ATOM     20  H   UNL A   1      31.825  29.222  22.453  1.00  0.00     0.348 HD
ATOM     21  C   UNL A   1      32.236  29.866  25.098  1.00  0.00     0.240 C 
ATOM     22  C   UNL A   1      33.786  28.032  24.649  1.00  0.00     0.328 C 
ATOM     23  C   UNL A   1      34.033  28.537  22.183  1.00  0.00     0.081 C 
ATOM     24  C   UNL A   1      31.778  30.202  26.515  1.00  0.00     0.077 C 
ATOM     25  N   UNL A   1      33.619  29.366  25.233  1.00  0.00    -0.323 N 
ATOM     26  C   UNL A   1      33.076  30.464  27.247  1.00  0.00     0.068 C 
ATOM     27  C   UNL A   1      34.010  29.430  26.642  1.00  0.00     0.263 C 
ATOM     28  H   UNL A   1      34.248  29.964  24.697  1.00  0.00     0.348 HD
ENDBRANCH  16  17
ENDBRANCH  15  16
ENDBRANCH  14  15
ENDBRANCH  13  14
ENDBRANCH   7  13
ENDBRANCH   4   7
ENDBRANCH   2   3
ENDBRANCH   1   2
BRANCH   1  29
ATOM     29  C   UNL A   1      33.763  19.781  25.051  1.00  0.00     0.002 C 
BRANCH  29  30
ATOM     30  C   UNL A   1      35.281  19.929  24.950  1.00  0.00     0.002 C 
BRANCH  30  31
ATOM     31  C   UNL A   1      35.759  21.348  24.626  1.00  0.00     0.021 C 
BRANCH  31  32
ATOM     32  C   UNL A   1      36.901  21.851  25.507  1.00  0.00     0.116 C 
BRANCH  32  33
ATOM     33  N   UNL A   1      37.876  20.803  25.770  1.00  0.00    -0.352 N 
ATOM     34  C   UNL A   1      39.192  20.947  26.129  1.00  0.00     0.251 C 
ATOM     35  H   UNL A   1      37.551  19.878  25.681  1.00  0.00     0.163 HD
ATOM     36  O   UNL A   1      39.962  19.989  26.083  1.00  0.00    -0.269 OA
BRANCH  34  37
ATOM     37  C   UNL A   1      39.678  22.274  26.559  1.00  0.00     0.039 A 
ATOM     38  C   UNL A   1      40.713  22.357  27.491  1.00  0.00     0.014 A 
ATOM     39  C   UNL A   1      39.127  23.435  26.006  1.00  0.00     0.014 A 
ATOM     40  C   UNL A   1      41.233  23.607  27.832  1.00  0.00     0.010 A 
ATOM     41  C   UNL A   1      39.693  24.673  26.295  1.00  0.00     0.010 A 
ATOM     42  C   UNL A   1      40.748  24.773  27.216  1.00  0.00    -0.014 A 
BRANCH  42  43
ATOM     43  C   UNL A   1      41.337  26.104  27.514  1.00  0.00     0.031 A 
ATOM     44  C   UNL A   1      42.726  26.443  27.044  1.00  0.00     0.074 A 
ATOM     45  C   UNL A   1      40.653  26.979  28.279  1.00  0.00     0.049 A 
ATOM     46  N   UNL A   1      43.423  27.529  27.249  1.00  0.00    -0.248 NA
ATOM     47  C   UNL A   1      43.433  25.416  26.261  1.00  0.00     0.031 C 
ATOM     48  C   UNL A   1      39.330  26.741  28.860  1.00  0.00     0.029 A 
ATOM     49  N   UNL A   1      40.989  28.235  28.723  1.00  0.00    -0.354 N 
ATOM     50  C   UNL A   1      44.659  27.306  26.652  1.00  0.00     0.074 A 
ATOM     51  C   UNL A   1      44.629  25.968  26.106  1.00  0.00     0.031 C 
ATOM     52  C   UNL A   1      38.966  27.815  29.580  1.00  0.00     0.029 A 
ATOM     53  C   UNL A   1      40.039  28.802  29.541  1.00  0.00     0.049 A 
ATOM     54  H   UNL A   1      41.829  28.686  28.479  1.00  0.00     0.167 HD
ATOM     55  C   UNL A   1      45.713  28.149  26.543  1.00  0.00     0.034 A 
ATOM     56  C   UNL A   1      40.038  29.980  30.196  1.00  0.00     0.034 A 
ATOM     57  C   UNL A   1      45.728  29.491  27.057  1.00  0.00     0.049 A 
ATOM     58  C   UNL A   1      41.213  30.908  30.038  1.00  0.00     0.074 A 
ATOM     59  C   UNL A   1      46.714  30.453  26.921  1.00  0.00     0.029 A 
ATOM     60  N   UNL A   1      44.717  30.061  27.816  1.00  0.00    -0.354 N 
ATOM     61  N   UNL A   1      42.305  30.742  29.333  1.00  0.00    -0.248 NA
ATOM     62  C   UNL A   1      41.139  32.200  30.737  1.00  0.00     0.031 C 
ATOM     63  C   UNL A   1      46.313  31.593  27.626  1.00  0.00     0.029 A 
ATOM     64  C   UNL A   1      45.061  31.354  28.169  1.00  0.00     0.049 A 
ATOM     65  H   UNL A   1      43.879  29.611  28.067  1.00  0.00     0.167 HD
ATOM     66  C   UNL A   1      43.033  31.919  29.474  1.00  0.00     0.074 A 
ATOM     67  C   UNL A   1      42.246  32.798  30.315  1.00  0.00     0.031 C 
ATOM     68  C   UNL A   1      44.248  32.238  28.965  1.00  0.00     0.034 A 
BRANCH  55  69
ATOM     69  C   UNL A   1      46.929  27.658  25.800  1.00  0.00     0.023 A 
ATOM     70  C   UNL A   1      47.883  26.864  26.470  1.00  0.00     0.012 A 
ATOM     71  C   UNL A   1      47.099  27.929  24.428  1.00  0.00     0.148 A 
ATOM     72  C   UNL A   1      49.003  26.378  25.799  1.00  0.00     0.002 A 
ATOM     73  C   UNL A   1      48.194  27.400  23.754  1.00  0.00     0.091 A 
ATOM     74  F   UNL A   1      46.194  28.701  23.811  1.00  0.00    -0.205 F 
ATOM     75  C   UNL A   1      49.153  26.636  24.439  1.00  0.00     0.022 A 
BRANCH  73  76
ATOM     76  S   UNL A   1      48.436  27.606  21.986  1.00  0.00     0.127 S 
ATOM     77  O   UNL A   1      49.616  28.470  21.949  1.00  0.00    -0.237 OA
ATOM     78  O   UNL A   1      48.673  26.231  21.546  1.00  0.00    -0.237 OA
ATOM     79  O   UNL A   1      47.209  28.204  21.478  1.00  0.00    -0.744 OA
ENDBRANCH  73  76
ENDBRANCH  55  69
BRANCH  56  80
ATOM     80  C   UNL A   1      38.859  30.374  31.020  1.00  0.00     0.023 A 
ATOM     81  C   UNL A   1      38.817  30.020  32.383  1.00  0.00     0.012 A 
ATOM     82  C   UNL A   1      37.795  31.115  30.470  1.00  0.00     0.148 A 
ATOM     83  C   UNL A   1      37.721  30.366  33.174  1.00  0.00     0.002 A 
ATOM     84  C   UNL A   1      36.734  31.505  31.278  1.00  0.00     0.091 A 
ATOM     85  F   UNL A   1      37.849  31.432  29.169  1.00  0.00    -0.205 F 
ATOM     86  C   UNL A   1      36.685  31.116  32.625  1.00  0.00     0.022 A 
BRANCH  84  87
ATOM     87  S   UNL A   1      35.423  32.585  30.689  1.00  0.00     0.127 S 
ATOM     88  O   UNL A   1      35.118  32.003  29.386  1.00  0.00    -0.237 OA
ATOM     89  O   UNL A   1      34.392  32.389  31.710  1.00  0.00    -0.237 OA
ATOM     90  O   UNL A   1      35.996  33.924  30.667  1.00  0.00    -0.744 OA
ENDBRANCH  84  87
ENDBRANCH  56  80
BRANCH  68  91
ATOM     91  C   UNL A   1      44.796  33.609  29.263  1.00  0.00     0.023 A 
ATOM     92  C   UNL A   1      45.638  33.803  30.376  1.00  0.00     0.012 A 
ATOM     93  C   UNL A   1      44.542  34.687  28.392  1.00  0.00     0.148 A 
ATOM     94  C   UNL A   1      46.192  35.057  30.635  1.00  0.00     0.002 A 
ATOM     95  C   UNL A   1      45.139  35.919  28.627  1.00  0.00     0.091 A 
ATOM     96  F   UNL A   1      43.725  34.486  27.348  1.00  0.00    -0.205 F 
ATOM     97  C   UNL A   1      45.954  36.110  29.755  1.00  0.00     0.022 A 
BRANCH  95  98
ATOM     98  S   UNL A   1      44.970  37.306  27.497  1.00  0.00     0.127 S 
ATOM     99  O   UNL A   1      45.955  36.972  26.469  1.00  0.00    -0.237 OA
ATOM    100  O   UNL A   1      43.577  37.189  27.069  1.00  0.00    -0.237 OA
ATOM    101  O   UNL A   1      45.266  38.500  28.277  1.00  0.00    -0.744 OA
ENDBRANCH  95  98
ENDBRANCH  68  91
ENDBRANCH  42  43
ENDBRANCH  34  37
ENDBRANCH  32  33
ENDBRANCH  31  32
ENDBRANCH  30  31
ENDBRANCH  29  30
ENDBRANCH   1  29
TORSDOF 22
ENDMDL
MODEL 2
REMARK VINA RESULT:     -11.1      5.519      9.067
REMARK SMILES C[NH2+][C@@](C)(CCCC[N@H+]1C[C@H]2CCC[N@H+]2C[C@@H]1C)C(=O)NCCCCCCNC(=O)c1ccc(-c2c3nc(c(-c4cccc(S(=O)(=O)[O-])c4F)c4ccc([nH]4)c(-c4cccc(S(=O)(=O)[O-])c4F)c4nc(c(-c5cccc(S(=O)(=O)[O-])c5F)c5ccc2[nH]5)C=C4)C=C3)cc1
REMARK SMILES IDX 23 1 22 2 21 3 19 4 20 5 3 7 4 8 2 9 1 10 5 13 6 14 7 15
REMARK SMILES IDX 8 16 9 17 10 18 17 19 11 21 16 22 18 23 12 24 15 25 13 26
REMARK SMILES IDX 14 27 24 29 25 30 26 31 27 32 28 33 29 34 30 36 31 37 32 38
REMARK SMILES IDX 93 39 33 40 92 41 34 42 35 43 36 44 86 45 37 46 91 47 85 48
REMARK SMILES IDX 87 49 38 50 90 51 84 52 83 53 39 55 71 56 51 57 70 58 52 59
REMARK SMILES IDX 55 60 69 61 88 62 53 63 54 64 68 66 89 67 56 68 40 69 41 70
REMARK SMILES IDX 49 71 42 72 44 73 50 74 43 75 45 76 46 77 47 78 48 79 72 80
REMARK SMILES IDX 73 81 81 82 74 83 76 84 82 85 75 86 77 87 78 88 79 89 80 90
REMARK SMILES IDX 57 91 58 92 66 93 59 94 61 95 67 96 60 97 62 98 63 99 64 100
REMARK SMILES IDX 65 101
REMARK H PARENT 21 6 2 11 2 12 9 20 15 28 28 35 87 54 55 65
REMARK Flexibility Score: inf
ROOT
ATOM      1  C   UNL A   1      34.448  28.631  26.623  1.00  0.00     0.021 C 
ENDROOT
BRANCH   1   2
ATOM      2  C   UNL A   1      33.368  28.172  25.650  1.00  0.00     0.116 C 
BRANCH   2   3
ATOM      3  N   UNL A   1      33.751  28.355  24.260  1.00  0.00    -0.351 N 
ATOM      4  C   UNL A   1      33.072  28.609  23.107  1.00  0.00     0.281 C 
ATOM      5  O   UNL A   1      33.795  28.653  22.102  1.00  0.00    -0.268 OA
ATOM      6  H   UNL A   1      34.723  28.278  24.120  1.00  0.00     0.163 HD
BRANCH   4   7
ATOM      7  C   UNL A   1      31.514  28.817  23.044  1.00  0.00     0.172 C 
ATOM      8  C   UNL A   1      30.988  29.440  24.357  1.00  0.00     0.090 C 
BRANCH   7   9
ATOM      9  N   UNL A   1      31.131  29.742  21.925  1.00  0.00    -0.336 N 
ATOM     10  C   UNL A   1      29.701  29.946  21.726  1.00  0.00     0.331 C 
ATOM     11  H   UNL A   1      31.552  30.651  22.114  1.00  0.00     0.346 HD
ATOM     12  H   UNL A   1      31.466  29.294  21.072  1.00  0.00     0.346 HD
ENDBRANCH   7   9
BRANCH   7  13
ATOM     13  C   UNL A   1      30.782  27.464  22.783  1.00  0.00     0.079 C 
BRANCH  13  14
ATOM     14  C   UNL A   1      30.568  26.501  23.974  1.00  0.00     0.013 C 
BRANCH  14  15
ATOM     15  C   UNL A   1      31.290  25.150  23.943  1.00  0.00     0.062 C 
BRANCH  15  16
ATOM     16  C   UNL A   1      32.036  24.843  22.637  1.00  0.00     0.262 C 
BRANCH  16  17
ATOM     17  N   UNL A   1      32.969  23.706  22.729  1.00  0.00    -0.323 N 
ATOM     18  C   UNL A   1      34.231  24.130  23.358  1.00  0.00     0.328 C 
ATOM     19  C   UNL A   1      32.382  22.535  23.443  1.00  0.00     0.236 C 
ATOM     20  H   UNL A   1      33.161  23.397  21.777  1.00  0.00     0.348 HD
ATOM     21  C   UNL A   1      35.213  22.959  23.561  1.00  0.00     0.240 C 
ATOM     22  C   UNL A   1      33.251  21.934  24.593  1.00  0.00     0.328 C 
ATOM     23  C   UNL A   1      32.072  21.440  22.411  1.00  0.00     0.081 C 
ATOM     24  C   UNL A   1      36.426  23.381  24.384  1.00  0.00     0.077 C 
ATOM     25  N   UNL A   1      34.663  21.768  24.238  1.00  0.00    -0.323 N 
ATOM     26  C   UNL A   1      36.844  22.097  25.068  1.00  0.00     0.068 C 
ATOM     27  C   UNL A   1      35.511  21.443  25.386  1.00  0.00     0.263 C 
ATOM     28  H   UNL A   1      34.677  20.977  23.594  1.00  0.00     0.348 HD
ENDBRANCH  16  17
ENDBRANCH  15  16
ENDBRANCH  14  15
ENDBRANCH  13  14
ENDBRANCH   7  13
ENDBRANCH   4   7
ENDBRANCH   2   3
ENDBRANCH   1   2
BRANCH   1  29
ATOM     29  C   UNL A   1      34.233  30.019  27.235  1.00  0.00     0.002 C 
BRANCH  29  30
ATOM     30  C   UNL A   1      32.817  30.564  27.056  1.00  0.00     0.002 C 
BRANCH  30  31
ATOM     31  C   UNL A   1      32.564  31.910  27.743  1.00  0.00     0.021 C 
BRANCH  31  32
ATOM     32  C   UNL A   1      33.305  33.092  27.121  1.00  0.00     0.116 C 
BRANCH  32  33
ATOM     33  N   UNL A   1      32.822  34.361  27.644  1.00  0.00    -0.352 N 
ATOM     34  C   UNL A   1      33.147  34.960  28.835  1.00  0.00     0.251 C 
ATOM     35  H   UNL A   1      32.186  34.851  27.073  1.00  0.00     0.163 HD
ATOM     36  O   UNL A   1      32.486  35.906  29.260  1.00  0.00    -0.269 OA
BRANCH  34  37
ATOM     37  C   UNL A   1      34.294  34.444  29.608  1.00  0.00     0.039 A 
ATOM     38  C   UNL A   1      34.063  33.723  30.780  1.00  0.00     0.014 A 
ATOM     39  C   UNL A   1      35.599  34.648  29.147  1.00  0.00     0.014 A 
ATOM     40  C   UNL A   1      35.141  33.158  31.465  1.00  0.00     0.010 A 
ATOM     41  C   UNL A   1      36.664  34.027  29.792  1.00  0.00     0.010 A 
ATOM     42  C   UNL A   1      36.447  33.280  30.962  1.00  0.00    -0.014 A 
BRANCH  42  43
ATOM     43  C   UNL A   1      37.598  32.628  31.638  1.00  0.00     0.031 A 
ATOM     44  C   UNL A   1      38.311  31.476  30.982  1.00  0.00     0.074 A 
ATOM     45  C   UNL A   1      37.950  33.017  32.880  1.00  0.00     0.049 A 
ATOM     46  N   UNL A   1      39.299  30.752  31.437  1.00  0.00    -0.248 NA
ATOM     47  C   UNL A   1      37.835  31.070  29.649  1.00  0.00     0.031 C 
ATOM     48  C   UNL A   1      37.290  34.070  33.655  1.00  0.00     0.029 A 
ATOM     49  N   UNL A   1      38.932  32.555  33.720  1.00  0.00    -0.354 N 
ATOM     50  C   UNL A   1      39.542  29.786  30.466  1.00  0.00     0.074 A 
ATOM     51  C   UNL A   1      38.575  29.996  29.412  1.00  0.00     0.031 C 
ATOM     52  C   UNL A   1      37.886  34.173  34.853  1.00  0.00     0.029 A 
ATOM     53  C   UNL A   1      38.947  33.177  34.947  1.00  0.00     0.049 A 
ATOM     54  H   UNL A   1      39.566  31.845  33.468  1.00  0.00     0.167 HD
ATOM     55  C   UNL A   1      40.500  28.830  30.441  1.00  0.00     0.034 A 
ATOM     56  C   UNL A   1      39.720  32.961  36.030  1.00  0.00     0.034 A 
ATOM     57  C   UNL A   1      41.482  28.647  31.475  1.00  0.00     0.049 A 
ATOM     58  C   UNL A   1      40.793  31.908  35.967  1.00  0.00     0.074 A 
ATOM     59  C   UNL A   1      42.547  27.764  31.501  1.00  0.00     0.029 A 
ATOM     60  N   UNL A   1      41.514  29.346  32.672  1.00  0.00    -0.354 N 
ATOM     61  N   UNL A   1      41.110  31.113  34.973  1.00  0.00    -0.248 NA
ATOM     62  C   UNL A   1      41.638  31.745  37.159  1.00  0.00     0.031 C 
ATOM     63  C   UNL A   1      43.205  27.908  32.728  1.00  0.00     0.029 A 
ATOM     64  C   UNL A   1      42.571  28.906  33.450  1.00  0.00     0.049 A 
ATOM     65  H   UNL A   1      40.879  30.052  32.929  1.00  0.00     0.167 HD
ATOM     66  C   UNL A   1      42.211  30.382  35.406  1.00  0.00     0.074 A 
ATOM     67  C   UNL A   1      42.519  30.844  36.744  1.00  0.00     0.031 C 
ATOM     68  C   UNL A   1      42.897  29.407  34.760  1.00  0.00     0.034 A 
BRANCH  55  69
ATOM     69  C   UNL A   1      40.563  27.932  29.232  1.00  0.00     0.023 A 
ATOM     70  C   UNL A   1      39.683  26.834  29.133  1.00  0.00     0.012 A 
ATOM     71  C   UNL A   1      41.446  28.207  28.170  1.00  0.00     0.148 A 
ATOM     72  C   UNL A   1      39.705  26.003  28.015  1.00  0.00     0.002 A 
ATOM     73  C   UNL A   1      41.428  27.402  27.036  1.00  0.00     0.091 A 
ATOM     74  F   UNL A   1      42.288  29.242  28.289  1.00  0.00    -0.205 F 
ATOM     75  C   UNL A   1      40.569  26.293  26.962  1.00  0.00     0.022 A 
BRANCH  73  76
ATOM     76  S   UNL A   1      42.443  27.737  25.592  1.00  0.00     0.127 S 
ATOM     77  O   UNL A   1      43.777  27.827  26.184  1.00  0.00    -0.237 OA
ATOM     78  O   UNL A   1      42.217  26.545  24.775  1.00  0.00    -0.237 OA
ATOM     79  O   UNL A   1      41.931  28.974  25.018  1.00  0.00    -0.744 OA
ENDBRANCH  73  76
ENDBRANCH  55  69
BRANCH  56  80
ATOM     80  C   UNL A   1      39.542  33.797  37.251  1.00  0.00     0.023 A 
ATOM     81  C   UNL A   1      40.084  35.097  37.287  1.00  0.00     0.012 A 
ATOM     82  C   UNL A   1      38.821  33.323  38.365  1.00  0.00     0.148 A 
ATOM     83  C   UNL A   1      39.940  35.897  38.422  1.00  0.00     0.002 A 
ATOM     84  C   UNL A   1      38.633  34.146  39.469  1.00  0.00     0.091 A 
ATOM     85  F   UNL A   1      38.322  32.080  38.315  1.00  0.00    -0.205 F 
ATOM     86  C   UNL A   1      39.208  35.426  39.508  1.00  0.00     0.022 A 
BRANCH  84  87
ATOM     87  S   UNL A   1      37.592  33.674  40.856  1.00  0.00     0.127 S 
ATOM     88  O   UNL A   1      38.457  32.744  41.576  1.00  0.00    -0.237 OA
ATOM     89  O   UNL A   1      37.378  34.960  41.522  1.00  0.00    -0.237 OA
ATOM     90  O   UNL A   1      36.391  33.096  40.268  1.00  0.00    -0.744 OA
ENDBRANCH  84  87
ENDBRANCH  56  80
BRANCH  68  91
ATOM     91  C   UNL A   1      44.078  28.793  35.467  1.00  0.00     0.023 A 
ATOM     92  C   UNL A   1      45.373  29.301  35.245  1.00  0.00     0.012 A 
ATOM     93  C   UNL A   1      43.891  27.765  36.413  1.00  0.00     0.148 A 
ATOM     94  C   UNL A   1      46.467  28.775  35.931  1.00  0.00     0.002 A 
ATOM     95  C   UNL A   1      44.978  27.281  37.129  1.00  0.00     0.091 A 
ATOM     96  F   UNL A   1      42.653  27.283  36.597  1.00  0.00    -0.205 F 
ATOM     97  C   UNL A   1      46.269  27.776  36.881  1.00  0.00     0.022 A 
BRANCH  95  98
ATOM     98  S   UNL A   1      44.807  26.066  38.441  1.00  0.00     0.127 S 
ATOM     99  O   UNL A   1      44.331  24.897  37.703  1.00  0.00    -0.237 OA
ATOM    100  O   UNL A   1      46.176  25.956  38.942  1.00  0.00    -0.237 OA
ATOM    101  O   UNL A   1      43.858  26.630  39.391  1.00  0.00    -0.744 OA
ENDBRANCH  95  98
ENDBRANCH  68  91
ENDBRANCH  42  43
ENDBRANCH  34  37
ENDBRANCH  32  33
ENDBRANCH  31  32
ENDBRANCH  30  31
ENDBRANCH  29  30
ENDBRANCH   1  29
TORSDOF 22
ENDMDL
MODEL 3
REMARK VINA RESULT:     -11.1      5.464      9.174
REMARK SMILES C[NH2+][C@@](C)(CCCC[N@H+]1C[C@H]2CCC[N@H+]2C[C@@H]1C)C(=O)NCCCCCCNC(=O)c1ccc(-c2c3nc(c(-c4cccc(S(=O)(=O)[O-])c4F)c4ccc([nH]4)c(-c4cccc(S(=O)(=O)[O-])c4F)c4nc(c(-c5cccc(S(=O)(=O)[O-])c5F)c5ccc2[nH]5)C=C4)C=C3)cc1
REMARK SMILES IDX 23 1 22 2 21 3 19 4 20 5 3 7 4 8 2 9 1 10 5 13 6 14 7 15
REMARK SMILES IDX 8 16 9 17 10 18 17 19 11 21 16 22 18 23 12 24 15 25 13 26
REMARK SMILES IDX 14 27 24 29 25 30 26 31 27 32 28 33 29 34 30 36 31 37 32 38
REMARK SMILES IDX 93 39 33 40 92 41 34 42 35 43 36 44 86 45 37 46 91 47 85 48
REMARK SMILES IDX 87 49 38 50 90 51 84 52 83 53 39 55 71 56 51 57 70 58 52 59
REMARK SMILES IDX 55 60 69 61 88 62 53 63 54 64 68 66 89 67 56 68 40 69 41 70
REMARK SMILES IDX 49 71 42 72 44 73 50 74 43 75 45 76 46 77 47 78 48 79 72 80
REMARK SMILES IDX 73 81 81 82 74 83 76 84 82 85 75 86 77 87 78 88 79 89 80 90
REMARK SMILES IDX 57 91 58 92 66 93 59 94 61 95 67 96 60 97 62 98 63 99 64 100
REMARK SMILES IDX 65 101
REMARK H PARENT 21 6 2 11 2 12 9 20 15 28 28 35 87 54 55 65
REMARK Flexibility Score: inf
ROOT
ATOM      1  C   UNL A   1      34.573  29.009  27.212  1.00  0.00     0.021 C 
ENDROOT
BRANCH   1   2
ATOM      2  C   UNL A   1      34.004  28.123  26.109  1.00  0.00     0.116 C 
BRANCH   2   3
ATOM      3  N   UNL A   1      34.103  28.733  24.794  1.00  0.00    -0.351 N 
ATOM      4  C   UNL A   1      33.375  28.652  23.646  1.00  0.00     0.281 C 
ATOM      5  O   UNL A   1      33.837  29.325  22.714  1.00  0.00    -0.268 OA
ATOM      6  H   UNL A   1      34.870  29.345  24.715  1.00  0.00     0.163 HD
BRANCH   4   7
ATOM      7  C   UNL A   1      32.075  27.778  23.501  1.00  0.00     0.172 C 
ATOM      8  C   UNL A   1      31.126  28.001  24.701  1.00  0.00     0.090 C 
BRANCH   7   9
ATOM      9  N   UNL A   1      31.314  28.133  22.257  1.00  0.00    -0.336 N 
ATOM     10  C   UNL A   1      30.252  29.119  22.417  1.00  0.00     0.331 C 
ATOM     11  H   UNL A   1      31.980  28.500  21.577  1.00  0.00     0.346 HD
ATOM     12  H   UNL A   1      30.849  27.274  21.965  1.00  0.00     0.346 HD
ENDBRANCH   7   9
BRANCH   7  13
ATOM     13  C   UNL A   1      32.431  26.263  23.396  1.00  0.00     0.079 C 
BRANCH  13  14
ATOM     14  C   UNL A   1      31.414  25.313  22.722  1.00  0.00     0.013 C 
BRANCH  14  15
ATOM     15  C   UNL A   1      31.254  23.904  23.301  1.00  0.00     0.062 C 
BRANCH  15  16
ATOM     16  C   UNL A   1      32.438  22.960  23.047  1.00  0.00     0.262 C 
BRANCH  16  17
ATOM     17  N   UNL A   1      32.384  21.705  23.818  1.00  0.00    -0.323 N 
ATOM     18  C   UNL A   1      32.367  20.546  22.909  1.00  0.00     0.328 C 
ATOM     19  C   UNL A   1      33.491  21.590  24.811  1.00  0.00     0.236 C 
ATOM     20  H   UNL A   1      31.517  21.718  24.354  1.00  0.00     0.348 HD
ATOM     21  C   UNL A   1      32.400  19.203  23.664  1.00  0.00     0.240 C 
ATOM     22  C   UNL A   1      34.304  20.257  24.773  1.00  0.00     0.328 C 
ATOM     23  C   UNL A   1      32.909  21.794  26.217  1.00  0.00     0.081 C 
ATOM     24  C   UNL A   1      32.577  18.027  22.708  1.00  0.00     0.077 C 
ATOM     25  N   UNL A   1      33.464  19.060  24.677  1.00  0.00    -0.323 N 
ATOM     26  C   UNL A   1      33.286  16.994  23.556  1.00  0.00     0.068 C 
ATOM     27  C   UNL A   1      34.227  17.843  24.393  1.00  0.00     0.263 C 
ATOM     28  H   UNL A   1      33.041  18.965  25.600  1.00  0.00     0.348 HD
ENDBRANCH  16  17
ENDBRANCH  15  16
ENDBRANCH  14  15
ENDBRANCH  13  14
ENDBRANCH   7  13
ENDBRANCH   4   7
ENDBRANCH   2   3
ENDBRANCH   1   2
BRANCH   1  29
ATOM     29  C   UNL A   1      34.014  30.435  27.263  1.00  0.00     0.002 C 
BRANCH  29  30
ATOM     30  C   UNL A   1      32.488  30.504  27.232  1.00  0.00     0.002 C 
BRANCH  30  31
ATOM     31  C   UNL A   1      31.917  31.925  27.253  1.00  0.00     0.021 C 
BRANCH  31  32
ATOM     32  C   UNL A   1      32.926  33.022  26.920  1.00  0.00     0.116 C 
BRANCH  32  33
ATOM     33  N   UNL A   1      32.640  34.251  27.645  1.00  0.00    -0.352 N 
ATOM     34  C   UNL A   1      33.164  34.664  28.844  1.00  0.00     0.251 C 
ATOM     35  H   UNL A   1      31.992  34.862  27.224  1.00  0.00     0.163 HD
ATOM     36  O   UNL A   1      32.657  35.601  29.459  1.00  0.00    -0.269 OA
BRANCH  34  37
ATOM     37  C   UNL A   1      34.338  33.958  29.395  1.00  0.00     0.039 A 
ATOM     38  C   UNL A   1      35.620  34.416  29.086  1.00  0.00     0.014 A 
ATOM     39  C   UNL A   1      34.162  32.863  30.247  1.00  0.00     0.014 A 
ATOM     40  C   UNL A   1      36.729  33.805  29.676  1.00  0.00     0.010 A 
ATOM     41  C   UNL A   1      35.263  32.302  30.887  1.00  0.00     0.010 A 
ATOM     42  C   UNL A   1      36.559  32.763  30.604  1.00  0.00    -0.014 A 
BRANCH  42  43
ATOM     43  C   UNL A   1      37.722  32.148  31.294  1.00  0.00     0.031 A 
ATOM     44  C   UNL A   1      38.466  31.005  30.658  1.00  0.00     0.074 A 
ATOM     45  C   UNL A   1      38.059  32.564  32.532  1.00  0.00     0.049 A 
ATOM     46  N   UNL A   1      39.469  30.311  31.127  1.00  0.00    -0.248 NA
ATOM     47  C   UNL A   1      38.005  30.568  29.329  1.00  0.00     0.031 C 
ATOM     48  C   UNL A   1      37.370  33.612  33.289  1.00  0.00     0.029 A 
ATOM     49  N   UNL A   1      39.049  32.138  33.383  1.00  0.00    -0.354 N 
ATOM     50  C   UNL A   1      39.739  29.338  30.172  1.00  0.00     0.074 A 
ATOM     51  C   UNL A   1      38.772  29.509  29.111  1.00  0.00     0.031 C 
ATOM     52  C   UNL A   1      37.959  33.747  34.488  1.00  0.00     0.029 A 
ATOM     53  C   UNL A   1      39.043  32.778  34.601  1.00  0.00     0.049 A 
ATOM     54  H   UNL A   1      39.701  31.440  33.144  1.00  0.00     0.167 HD
ATOM     55  C   UNL A   1      40.721  28.405  30.165  1.00  0.00     0.034 A 
ATOM     56  C   UNL A   1      39.816  32.596  35.689  1.00  0.00     0.034 A 
ATOM     57  C   UNL A   1      41.702  28.260  31.205  1.00  0.00     0.049 A 
ATOM     58  C   UNL A   1      40.915  31.568  35.646  1.00  0.00     0.074 A 
ATOM     59  C   UNL A   1      42.788  27.404  31.249  1.00  0.00     0.029 A 
ATOM     60  N   UNL A   1      41.712  28.978  32.391  1.00  0.00    -0.354 N 
ATOM     61  N   UNL A   1      41.256  30.767  34.665  1.00  0.00    -0.248 NA
ATOM     62  C   UNL A   1      41.758  31.443  36.844  1.00  0.00     0.031 C 
ATOM     63  C   UNL A   1      43.437  27.581  32.475  1.00  0.00     0.029 A 
ATOM     64  C   UNL A   1      42.775  28.574  33.180  1.00  0.00     0.049 A 
ATOM     65  H   UNL A   1      41.059  29.672  32.636  1.00  0.00     0.167 HD
ATOM     66  C   UNL A   1      42.372  30.070  35.114  1.00  0.00     0.074 A 
ATOM     67  C   UNL A   1      42.662  30.558  36.446  1.00  0.00     0.031 C 
ATOM     68  C   UNL A   1      43.084  29.102  34.484  1.00  0.00     0.034 A 
BRANCH  55  69
ATOM     69  C   UNL A   1      40.810  27.491  28.969  1.00  0.00     0.023 A 
ATOM     70  C   UNL A   1      39.911  26.411  28.849  1.00  0.00     0.012 A 
ATOM     71  C   UNL A   1      41.738  27.734  27.938  1.00  0.00     0.148 A 
ATOM     72  C   UNL A   1      39.958  25.566  27.742  1.00  0.00     0.002 A 
ATOM     73  C   UNL A   1      41.747  26.916  26.814  1.00  0.00     0.091 A 
ATOM     74  F   UNL A   1      42.597  28.753  28.078  1.00  0.00    -0.205 F 
ATOM     75  C   UNL A   1      40.868  25.825  26.720  1.00  0.00     0.022 A 
BRANCH  73  76
ATOM     76  S   UNL A   1      42.823  27.213  25.407  1.00  0.00     0.127 S 
ATOM     77  O   UNL A   1      42.713  25.949  24.680  1.00  0.00    -0.237 OA
ATOM     78  O   UNL A   1      42.170  28.349  24.756  1.00  0.00    -0.237 OA
ATOM     79  O   UNL A   1      44.138  27.503  25.959  1.00  0.00    -0.744 OA
ENDBRANCH  73  76
ENDBRANCH  55  69
BRANCH  56  80
ATOM     80  C   UNL A   1      39.613  33.445  36.898  1.00  0.00     0.023 A 
ATOM     81  C   UNL A   1      38.597  33.111  37.816  1.00  0.00     0.012 A 
ATOM     82  C   UNL A   1      40.431  34.563  37.155  1.00  0.00     0.148 A 
ATOM     83  C   UNL A   1      38.378  33.896  38.950  1.00  0.00     0.002 A 
ATOM     84  C   UNL A   1      40.244  35.305  38.315  1.00  0.00     0.091 A 
ATOM     85  F   UNL A   1      41.383  34.869  36.264  1.00  0.00    -0.205 F 
ATOM     86  C   UNL A   1      39.206  34.985  39.204  1.00  0.00     0.022 A 
BRANCH  84  87
ATOM     87  S   UNL A   1      41.347  36.641  38.790  1.00  0.00     0.127 S 
ATOM     88  O   UNL A   1      42.253  35.967  39.715  1.00  0.00    -0.237 OA
ATOM     89  O   UNL A   1      41.940  37.013  37.504  1.00  0.00    -0.237 OA
ATOM     90  O   UNL A   1      40.494  37.668  39.375  1.00  0.00    -0.744 OA
ENDBRANCH  84  87
ENDBRANCH  56  80
BRANCH  68  91
ATOM     91  C   UNL A   1      44.276  28.527  35.205  1.00  0.00     0.023 A 
ATOM     92  C   UNL A   1      45.560  29.059  34.976  1.00  0.00     0.012 A 
ATOM     93  C   UNL A   1      44.109  27.513  36.169  1.00  0.00     0.148 A 
ATOM     94  C   UNL A   1      46.664  28.570  35.674  1.00  0.00     0.002 A 
ATOM     95  C   UNL A   1      45.205  27.066  36.897  1.00  0.00     0.091 A 
ATOM     96  F   UNL A   1      42.881  27.008  36.359  1.00  0.00    -0.205 F 
ATOM     97  C   UNL A   1      46.485  27.584  36.642  1.00  0.00     0.022 A 
BRANCH  95  98
ATOM     98  S   UNL A   1      45.057  25.872  38.230  1.00  0.00     0.127 S 
ATOM     99  O   UNL A   1      46.435  25.791  38.711  1.00  0.00    -0.237 OA
ATOM    100  O   UNL A   1      44.130  26.540  39.143  1.00  0.00    -0.237 OA
ATOM    101  O   UNL A   1      44.537  24.653  37.624  1.00  0.00    -0.744 OA
ENDBRANCH  95  98
ENDBRANCH  68  91
ENDBRANCH  42  43
ENDBRANCH  34  37
ENDBRANCH  32  33
ENDBRANCH  31  32
ENDBRANCH  30  31
ENDBRANCH  29  30
ENDBRANCH   1  29
TORSDOF 22
ENDMDL
