MODEL 1
REMARK VINA RESULT:     -12.4      0.000      0.000
REMARK SMILES Cc1nc(=O)[nH]c(C)c1CC(=O)Nc1sccc1C(=O)NCCCCCCNC(=O)c1ccc(-c2c3nc(c(-c4cccc(S(=O)(=O)[O-])c4F)c4ccc([nH]4)c(-c4cccc(S(=O)(=O)[O-])c4F)c4nc(c(-c5cccc(S(=O)(=O)[O-])c5F)c5ccc2[nH]5)C=C4)C=C3)cc1
REMARK SMILES IDX 24 1 23 2 22 3 21 4 19 5 20 6 18 8 14 9 15 10 16 11 17 12
REMARK SMILES IDX 13 13 11 14 12 15 10 17 9 18 1 19 2 20 3 21 4 22 7 23 5 24
REMARK SMILES IDX 6 25 8 26 25 28 26 29 27 30 28 31 29 32 30 34 31 35 32 36
REMARK SMILES IDX 93 37 33 38 92 39 34 40 35 41 36 42 86 43 37 44 91 45 85 46
REMARK SMILES IDX 87 47 38 48 90 49 84 50 83 51 39 53 71 54 51 55 70 56 52 57
REMARK SMILES IDX 55 58 69 59 88 60 53 61 54 62 68 64 89 65 56 66 40 67 41 68
REMARK SMILES IDX 49 69 42 70 44 71 50 72 43 73 45 74 46 75 47 76 48 77 72 78
REMARK SMILES IDX 73 79 81 80 74 81 76 82 82 83 75 84 77 85 78 86 79 87 80 88
REMARK SMILES IDX 57 89 58 90 66 91 59 92 61 93 67 94 60 95 62 96 63 97 64 98
REMARK SMILES IDX 65 99
REMARK H PARENT 21 7 13 16 6 27 28 33 87 52 55 63
REMARK Flexibility Score: inf
ROOT
ATOM      1  C   UNL A   1      33.025  30.242  26.746  1.00  0.00     0.002 C 
ENDROOT
BRANCH   1   2
ATOM      2  C   UNL A   1      32.937  28.737  27.041  1.00  0.00     0.021 C 
BRANCH   2   3
ATOM      3  C   UNL A   1      31.543  28.138  26.874  1.00  0.00     0.116 C 
BRANCH   3   4
ATOM      4  N   UNL A   1      31.499  26.725  27.173  1.00  0.00    -0.352 N 
ATOM      5  C   UNL A   1      31.612  25.629  26.360  1.00  0.00     0.254 C 
ATOM      6  O   UNL A   1      31.304  24.551  26.870  1.00  0.00    -0.269 OA
ATOM      7  H   UNL A   1      31.363  26.514  28.124  1.00  0.00     0.163 HD
BRANCH   5   8
ATOM      8  C   UNL A   1      31.978  25.704  24.942  1.00  0.00     0.074 A 
ATOM      9  C   UNL A   1      33.197  25.615  24.293  1.00  0.00     0.108 A 
ATOM     10  S   UNL A   1      33.116  26.151  22.666  1.00  0.00    -0.126 S 
ATOM     11  C   UNL A   1      31.416  26.130  22.677  1.00  0.00     0.068 A 
ATOM     12  C   UNL A   1      30.938  25.898  23.944  1.00  0.00     0.028 A 
BRANCH   9  13
ATOM     13  N   UNL A   1      34.491  25.300  24.611  1.00  0.00    -0.317 N 
ATOM     14  C   UNL A   1      35.146  24.112  24.685  1.00  0.00     0.229 C 
ATOM     15  O   UNL A   1      36.189  24.097  25.352  1.00  0.00    -0.274 OA
ATOM     16  H   UNL A   1      35.051  26.080  24.828  1.00  0.00     0.170 HD
BRANCH  14  17
ATOM     17  C   UNL A   1      34.829  22.896  23.807  1.00  0.00     0.139 C 
BRANCH  17  18
ATOM     18  C   UNL A   1      34.216  21.656  24.372  1.00  0.00     0.002 A 
ATOM     19  C   UNL A   1      31.908  22.318  23.341  1.00  0.00     0.067 C 
ATOM     20  C   UNL A   1      32.752  21.375  24.176  1.00  0.00     0.049 A 
ATOM     21  N   UNL A   1      32.131  20.324  24.608  1.00  0.00    -0.198 NA
ATOM     22  C   UNL A   1      32.830  19.381  25.303  1.00  0.00     0.345 A 
ATOM     23  C   UNL A   1      34.884  20.624  24.927  1.00  0.00     0.022 A 
ATOM     24  O   UNL A   1      32.314  18.371  25.776  1.00  0.00    -0.246 OA
ATOM     25  N   UNL A   1      34.185  19.546  25.402  1.00  0.00    -0.310 N 
ATOM     26  C   UNL A   1      36.370  20.498  25.093  1.00  0.00     0.065 C 
ATOM     27  H   UNL A   1      34.697  18.834  25.849  1.00  0.00     0.171 HD
ENDBRANCH  17  18
ENDBRANCH  14  17
ENDBRANCH   9  13
ENDBRANCH   5   8
ENDBRANCH   3   4
ENDBRANCH   2   3
ENDBRANCH   1   2
BRANCH   1  28
ATOM     28  C   UNL A   1      31.689  30.978  26.581  1.00  0.00     0.002 C 
BRANCH  28  29
ATOM     29  C   UNL A   1      31.727  32.500  26.629  1.00  0.00     0.021 C 
BRANCH  29  30
ATOM     30  C   UNL A   1      32.785  33.086  27.543  1.00  0.00     0.116 C 
BRANCH  30  31
ATOM     31  N   UNL A   1      32.561  34.484  27.875  1.00  0.00    -0.352 N 
ATOM     32  C   UNL A   1      33.210  35.241  28.820  1.00  0.00     0.251 C 
ATOM     33  H   UNL A   1      31.858  34.944  27.359  1.00  0.00     0.163 HD
ATOM     34  O   UNL A   1      32.854  36.392  29.048  1.00  0.00    -0.269 OA
BRANCH  32  35
ATOM     35  C   UNL A   1      34.322  34.632  29.583  1.00  0.00     0.039 A 
ATOM     36  C   UNL A   1      34.050  34.021  30.809  1.00  0.00     0.014 A 
ATOM     37  C   UNL A   1      35.619  34.626  29.064  1.00  0.00     0.014 A 
ATOM     38  C   UNL A   1      35.075  33.366  31.493  1.00  0.00     0.010 A 
ATOM     39  C   UNL A   1      36.609  33.882  29.690  1.00  0.00     0.010 A 
ATOM     40  C   UNL A   1      36.358  33.275  30.928  1.00  0.00    -0.014 A 
BRANCH  40  41
ATOM     41  C   UNL A   1      37.471  32.602  31.641  1.00  0.00     0.031 A 
ATOM     42  C   UNL A   1      38.211  31.475  30.970  1.00  0.00     0.074 A 
ATOM     43  C   UNL A   1      37.767  32.951  32.909  1.00  0.00     0.049 A 
ATOM     44  N   UNL A   1      39.195  30.745  31.427  1.00  0.00    -0.248 NA
ATOM     45  C   UNL A   1      37.760  31.089  29.621  1.00  0.00     0.031 C 
ATOM     46  C   UNL A   1      37.062  33.965  33.697  1.00  0.00     0.029 A 
ATOM     47  N   UNL A   1      38.730  32.478  33.763  1.00  0.00    -0.354 N 
ATOM     48  C   UNL A   1      39.442  29.788  30.449  1.00  0.00     0.074 A 
ATOM     49  C   UNL A   1      38.477  29.999  29.395  1.00  0.00     0.031 C 
ATOM     50  C   UNL A   1      37.635  34.057  34.909  1.00  0.00     0.029 A 
ATOM     51  C   UNL A   1      38.730  33.095  34.993  1.00  0.00     0.049 A 
ATOM     52  H   UNL A   1      39.363  31.764  33.519  1.00  0.00     0.167 HD
ATOM     53  C   UNL A   1      40.410  28.843  30.410  1.00  0.00     0.034 A 
ATOM     54  C   UNL A   1      39.533  32.913  36.059  1.00  0.00     0.034 A 
ATOM     55  C   UNL A   1      41.410  28.690  31.429  1.00  0.00     0.049 A 
ATOM     56  C   UNL A   1      40.652  31.911  35.960  1.00  0.00     0.074 A 
ATOM     57  C   UNL A   1      42.505  27.844  31.442  1.00  0.00     0.029 A 
ATOM     58  N   UNL A   1      41.437  29.400  32.620  1.00  0.00    -0.354 N 
ATOM     59  N   UNL A   1      40.979  31.133  34.956  1.00  0.00    -0.248 NA
ATOM     60  C   UNL A   1      41.540  31.792  37.124  1.00  0.00     0.031 C 
ATOM     61  C   UNL A   1      43.180  28.028  32.653  1.00  0.00     0.029 A 
ATOM     62  C   UNL A   1      42.524  29.008  33.380  1.00  0.00     0.049 A 
ATOM     63  H   UNL A   1      40.778  30.081  32.885  1.00  0.00     0.167 HD
ATOM     64  C   UNL A   1      42.136  30.470  35.347  1.00  0.00     0.074 A 
ATOM     65  C   UNL A   1      42.460  30.948  36.677  1.00  0.00     0.031 C 
ATOM     66  C   UNL A   1      42.862  29.541  34.674  1.00  0.00     0.034 A 
BRANCH  53  67
ATOM     67  C   UNL A   1      40.459  27.941  29.206  1.00  0.00     0.023 A 
ATOM     68  C   UNL A   1      39.569  26.850  29.108  1.00  0.00     0.012 A 
ATOM     69  C   UNL A   1      41.364  28.187  28.155  1.00  0.00     0.148 A 
ATOM     70  C   UNL A   1      39.610  25.993  28.009  1.00  0.00     0.002 A 
ATOM     71  C   UNL A   1      41.364  27.358  27.038  1.00  0.00     0.091 A 
ATOM     72  F   UNL A   1      42.219  29.212  28.274  1.00  0.00    -0.205 F 
ATOM     73  C   UNL A   1      40.499  26.253  26.971  1.00  0.00     0.022 A 
BRANCH  71  74
ATOM     74  S   UNL A   1      42.414  27.660  25.613  1.00  0.00     0.127 S 
ATOM     75  O   UNL A   1      43.739  27.718  26.229  1.00  0.00    -0.237 OA
ATOM     76  O   UNL A   1      42.174  26.470  24.795  1.00  0.00    -0.237 OA
ATOM     77  O   UNL A   1      41.940  28.905  25.024  1.00  0.00    -0.744 OA
ENDBRANCH  71  74
ENDBRANCH  53  67
BRANCH  54  78
ATOM     78  C   UNL A   1      39.379  33.772  37.267  1.00  0.00     0.023 A 
ATOM     79  C   UNL A   1      39.883  35.088  37.241  1.00  0.00     0.012 A 
ATOM     80  C   UNL A   1      38.721  33.313  38.423  1.00  0.00     0.148 A 
ATOM     81  C   UNL A   1      39.766  35.919  38.355  1.00  0.00     0.002 A 
ATOM     82  C   UNL A   1      38.563  34.163  39.513  1.00  0.00     0.091 A 
ATOM     83  F   UNL A   1      38.254  32.057  38.432  1.00  0.00    -0.205 F 
ATOM     84  C   UNL A   1      39.099  35.460  39.488  1.00  0.00     0.022 A 
BRANCH  82  85
ATOM     85  S   UNL A   1      37.614  33.704  40.968  1.00  0.00     0.127 S 
ATOM     86  O   UNL A   1      38.519  32.774  41.635  1.00  0.00    -0.237 OA
ATOM     87  O   UNL A   1      37.449  34.994  41.639  1.00  0.00    -0.237 OA
ATOM     88  O   UNL A   1      36.374  33.128  40.463  1.00  0.00    -0.744 OA
ENDBRANCH  82  85
ENDBRANCH  54  78
BRANCH  66  89
ATOM     89  C   UNL A   1      44.109  29.017  35.335  1.00  0.00     0.023 A 
ATOM     90  C   UNL A   1      45.357  29.607  35.054  1.00  0.00     0.012 A 
ATOM     91  C   UNL A   1      44.029  27.989  36.294  1.00  0.00     0.148 A 
ATOM     92  C   UNL A   1      46.512  29.154  35.690  1.00  0.00     0.002 A 
ATOM     93  C   UNL A   1      45.175  27.580  36.963  1.00  0.00     0.091 A 
ATOM     94  F   UNL A   1      42.834  27.428  36.533  1.00  0.00    -0.205 F 
ATOM     95  C   UNL A   1      46.419  28.151  36.653  1.00  0.00     0.022 A 
BRANCH  93  96
ATOM     96  S   UNL A   1      45.127  26.370  38.290  1.00  0.00     0.127 S 
ATOM     97  O   UNL A   1      44.485  25.233  37.635  1.00  0.00    -0.237 OA
ATOM     98  O   UNL A   1      46.547  26.181  38.591  1.00  0.00    -0.237 OA
ATOM     99  O   UNL A   1      44.363  26.989  39.366  1.00  0.00    -0.744 OA
ENDBRANCH  93  96
ENDBRANCH  66  89
ENDBRANCH  40  41
ENDBRANCH  32  35
ENDBRANCH  30  31
ENDBRANCH  29  30
ENDBRANCH  28  29
ENDBRANCH   1  28
TORSDOF 19
ENDMDL
MODEL 2
REMARK VINA RESULT:     -12.2      2.135      7.844
REMARK SMILES Cc1nc(=O)[nH]c(C)c1CC(=O)Nc1sccc1C(=O)NCCCCCCNC(=O)c1ccc(-c2c3nc(c(-c4cccc(S(=O)(=O)[O-])c4F)c4ccc([nH]4)c(-c4cccc(S(=O)(=O)[O-])c4F)c4nc(c(-c5cccc(S(=O)(=O)[O-])c5F)c5ccc2[nH]5)C=C4)C=C3)cc1
REMARK SMILES IDX 24 1 23 2 22 3 21 4 19 5 20 6 18 8 14 9 15 10 16 11 17 12
REMARK SMILES IDX 13 13 11 14 12 15 10 17 9 18 1 19 2 20 3 21 4 22 7 23 5 24
REMARK SMILES IDX 6 25 8 26 25 28 26 29 27 30 28 31 29 32 30 34 31 35 32 36
REMARK SMILES IDX 93 37 33 38 92 39 34 40 35 41 36 42 86 43 37 44 91 45 85 46
REMARK SMILES IDX 87 47 38 48 90 49 84 50 83 51 39 53 71 54 51 55 70 56 52 57
REMARK SMILES IDX 55 58 69 59 88 60 53 61 54 62 68 64 89 65 56 66 40 67 41 68
REMARK SMILES IDX 49 69 42 70 44 71 50 72 43 73 45 74 46 75 47 76 48 77 72 78
REMARK SMILES IDX 73 79 81 80 74 81 76 82 82 83 75 84 77 85 78 86 79 87 80 88
REMARK SMILES IDX 57 89 58 90 66 91 59 92 61 93 67 94 60 95 62 96 63 97 64 98
REMARK SMILES IDX 65 99
REMARK H PARENT 21 7 13 16 6 27 28 33 87 52 55 63
REMARK Flexibility Score: inf
ROOT
ATOM      1  C   UNL A   1      33.296  29.101  25.121  1.00  0.00     0.002 C 
ENDROOT
BRANCH   1   2
ATOM      2  C   UNL A   1      33.373  28.936  23.596  1.00  0.00     0.021 C 
BRANCH   2   3
ATOM      3  C   UNL A   1      32.019  28.842  22.898  1.00  0.00     0.116 C 
BRANCH   3   4
ATOM      4  N   UNL A   1      31.874  27.638  22.111  1.00  0.00    -0.352 N 
ATOM      5  C   UNL A   1      31.804  26.323  22.483  1.00  0.00     0.254 C 
ATOM      6  O   UNL A   1      31.912  25.502  21.570  1.00  0.00    -0.269 OA
ATOM      7  H   UNL A   1      31.817  27.791  21.141  1.00  0.00     0.163 HD
BRANCH   5   8
ATOM      8  C   UNL A   1      31.706  25.877  23.877  1.00  0.00     0.074 A 
ATOM      9  C   UNL A   1      32.654  25.411  24.771  1.00  0.00     0.108 A 
ATOM     10  S   UNL A   1      31.951  24.665  26.145  1.00  0.00    -0.126 S 
ATOM     11  C   UNL A   1      30.414  25.292  25.778  1.00  0.00     0.068 A 
ATOM     12  C   UNL A   1      30.414  25.896  24.545  1.00  0.00     0.028 A 
BRANCH   9  13
ATOM     13  N   UNL A   1      34.018  25.294  24.829  1.00  0.00    -0.317 N 
ATOM     14  C   UNL A   1      34.844  24.224  24.690  1.00  0.00     0.229 C 
ATOM     15  O   UNL A   1      35.985  24.344  25.158  1.00  0.00    -0.274 OA
ATOM     16  H   UNL A   1      34.485  26.142  25.004  1.00  0.00     0.170 HD
BRANCH  14  17
ATOM     17  C   UNL A   1      34.553  23.021  23.788  1.00  0.00     0.139 C 
BRANCH  17  18
ATOM     18  C   UNL A   1      34.028  21.734  24.339  1.00  0.00     0.002 A 
ATOM     19  C   UNL A   1      31.711  22.194  23.221  1.00  0.00     0.067 C 
ATOM     20  C   UNL A   1      32.600  21.329  24.091  1.00  0.00     0.049 A 
ATOM     21  N   UNL A   1      32.056  20.231  24.507  1.00  0.00    -0.198 NA
ATOM     22  C   UNL A   1      32.807  19.352  25.232  1.00  0.00     0.345 A 
ATOM     23  C   UNL A   1      34.760  20.764  24.923  1.00  0.00     0.022 A 
ATOM     24  O   UNL A   1      32.361  18.303  25.692  1.00  0.00    -0.246 OA
ATOM     25  N   UNL A   1      34.138  19.632  25.379  1.00  0.00    -0.310 N 
ATOM     26  C   UNL A   1      36.244  20.766  25.144  1.00  0.00     0.065 C 
ATOM     27  H   UNL A   1      34.692  18.968  25.849  1.00  0.00     0.171 HD
ENDBRANCH  17  18
ENDBRANCH  14  17
ENDBRANCH   9  13
ENDBRANCH   5   8
ENDBRANCH   3   4
ENDBRANCH   2   3
ENDBRANCH   1   2
BRANCH   1  28
ATOM     28  C   UNL A   1      31.906  29.395  25.700  1.00  0.00     0.002 C 
BRANCH  28  29
ATOM     29  C   UNL A   1      31.818  30.467  26.779  1.00  0.00     0.021 C 
BRANCH  29  30
ATOM     30  C   UNL A   1      33.129  31.154  27.107  1.00  0.00     0.116 C 
BRANCH  30  31
ATOM     31  N   UNL A   1      32.995  32.581  27.351  1.00  0.00    -0.352 N 
ATOM     32  C   UNL A   1      33.803  33.385  28.119  1.00  0.00     0.251 C 
ATOM     33  H   UNL A   1      32.232  33.026  26.913  1.00  0.00     0.163 HD
ATOM     34  O   UNL A   1      33.516  34.563  28.303  1.00  0.00    -0.269 OA
BRANCH  32  35
ATOM     35  C   UNL A   1      35.005  32.796  28.750  1.00  0.00     0.039 A 
ATOM     36  C   UNL A   1      34.844  31.836  29.751  1.00  0.00     0.014 A 
ATOM     37  C   UNL A   1      36.283  33.159  28.318  1.00  0.00     0.014 A 
ATOM     38  C   UNL A   1      35.970  31.210  30.289  1.00  0.00     0.010 A 
ATOM     39  C   UNL A   1      37.390  32.458  28.775  1.00  0.00     0.010 A 
ATOM     40  C   UNL A   1      37.250  31.503  29.790  1.00  0.00    -0.014 A 
BRANCH  40  41
ATOM     41  C   UNL A   1      38.465  30.867  30.356  1.00  0.00     0.031 A 
ATOM     42  C   UNL A   1      38.979  31.312  31.701  1.00  0.00     0.074 A 
ATOM     43  C   UNL A   1      39.143  29.951  29.636  1.00  0.00     0.049 A 
ATOM     44  N   UNL A   1      40.031  30.901  32.359  1.00  0.00    -0.248 NA
ATOM     45  C   UNL A   1      38.236  32.389  32.378  1.00  0.00     0.031 C 
ATOM     46  C   UNL A   1      38.796  29.507  28.285  1.00  0.00     0.029 A 
ATOM     47  N   UNL A   1      40.277  29.242  29.937  1.00  0.00    -0.354 N 
ATOM     48  C   UNL A   1      40.103  31.701  33.494  1.00  0.00     0.074 A 
ATOM     49  C   UNL A   1      39.018  32.651  33.414  1.00  0.00     0.031 C 
ATOM     50  C   UNL A   1      39.682  28.580  27.885  1.00  0.00     0.029 A 
ATOM     51  C   UNL A   1      40.672  28.381  28.940  1.00  0.00     0.049 A 
ATOM     52  H   UNL A   1      40.763  29.339  30.788  1.00  0.00     0.167 HD
ATOM     53  C   UNL A   1      40.969  31.627  34.531  1.00  0.00     0.034 A 
ATOM     54  C   UNL A   1      41.707  27.520  28.890  1.00  0.00     0.034 A 
ATOM     55  C   UNL A   1      41.999  30.632  34.637  1.00  0.00     0.049 A 
ATOM     56  C   UNL A   1      42.608  27.401  30.091  1.00  0.00     0.074 A 
ATOM     57  C   UNL A   1      42.859  30.390  35.693  1.00  0.00     0.029 A 
ATOM     58  N   UNL A   1      42.308  29.711  33.647  1.00  0.00    -0.354 N 
ATOM     59  N   UNL A   1      42.555  28.047  31.231  1.00  0.00    -0.248 NA
ATOM     60  C   UNL A   1      43.684  26.404  30.015  1.00  0.00     0.031 C 
ATOM     61  C   UNL A   1      43.705  29.337  35.330  1.00  0.00     0.029 A 
ATOM     62  C   UNL A   1      43.351  28.903  34.062  1.00  0.00     0.049 A 
ATOM     63  H   UNL A   1      41.852  29.643  32.778  1.00  0.00     0.167 HD
ATOM     64  C   UNL A   1      43.558  27.502  32.025  1.00  0.00     0.074 A 
ATOM     65  C   UNL A   1      44.193  26.463  31.238  1.00  0.00     0.031 C 
ATOM     66  C   UNL A   1      43.928  27.835  33.287  1.00  0.00     0.034 A 
BRANCH  53  67
ATOM     67  C   UNL A   1      40.804  32.619  35.652  1.00  0.00     0.023 A 
ATOM     68  C   UNL A   1      41.614  33.773  35.695  1.00  0.00     0.012 A 
ATOM     69  C   UNL A   1      39.826  32.427  36.648  1.00  0.00     0.148 A 
ATOM     70  C   UNL A   1      41.488  34.694  36.734  1.00  0.00     0.002 A 
ATOM     71  C   UNL A   1      39.671  33.377  37.653  1.00  0.00     0.091 A 
ATOM     72  F   UNL A   1      39.080  31.314  36.607  1.00  0.00    -0.205 F 
ATOM     73  C   UNL A   1      40.510  34.502  37.706  1.00  0.00     0.022 A 
BRANCH  71  74
ATOM     74  S   UNL A   1      38.385  33.260  38.900  1.00  0.00     0.127 S 
ATOM     75  O   UNL A   1      38.748  32.019  39.583  1.00  0.00    -0.237 OA
ATOM     76  O   UNL A   1      38.606  34.475  39.686  1.00  0.00    -0.237 OA
ATOM     77  O   UNL A   1      37.123  33.229  38.173  1.00  0.00    -0.744 OA
ENDBRANCH  71  74
ENDBRANCH  53  67
BRANCH  54  78
ATOM     78  C   UNL A   1      41.880  26.624  27.711  1.00  0.00     0.023 A 
ATOM     79  C   UNL A   1      42.528  27.120  26.563  1.00  0.00     0.012 A 
ATOM     80  C   UNL A   1      41.436  25.289  27.725  1.00  0.00     0.148 A 
ATOM     81  C   UNL A   1      42.700  26.314  25.437  1.00  0.00     0.002 A 
ATOM     82  C   UNL A   1      41.656  24.475  26.619  1.00  0.00     0.091 A 
ATOM     83  F   UNL A   1      40.816  24.837  28.824  1.00  0.00    -0.205 F 
ATOM     84  C   UNL A   1      42.272  24.990  25.468  1.00  0.00     0.022 A 
BRANCH  82  85
ATOM     85  S   UNL A   1      41.250  22.725  26.610  1.00  0.00     0.127 S 
ATOM     86  O   UNL A   1      39.811  22.752  26.366  1.00  0.00    -0.237 OA
ATOM     87  O   UNL A   1      42.056  22.235  25.491  1.00  0.00    -0.237 OA
ATOM     88  O   UNL A   1      41.662  22.218  27.912  1.00  0.00    -0.744 OA
ENDBRANCH  82  85
ENDBRANCH  54  78
BRANCH  66  89
ATOM     89  C   UNL A   1      45.035  27.037  33.924  1.00  0.00     0.023 A 
ATOM     90  C   UNL A   1      46.378  27.411  33.724  1.00  0.00     0.012 A 
ATOM     91  C   UNL A   1      44.735  25.963  34.783  1.00  0.00     0.148 A 
ATOM     92  C   UNL A   1      47.408  26.702  34.342  1.00  0.00     0.002 A 
ATOM     93  C   UNL A   1      45.763  25.295  35.436  1.00  0.00     0.091 A 
ATOM     94  F   UNL A   1      43.451  25.610  34.945  1.00  0.00    -0.205 F 
ATOM     95  C   UNL A   1      47.100  25.654  35.207  1.00  0.00     0.022 A 
BRANCH  93  96
ATOM     96  S   UNL A   1      45.449  24.006  36.646  1.00  0.00     0.127 S 
ATOM     97  O   UNL A   1      44.867  22.953  35.816  1.00  0.00    -0.237 OA
ATOM     98  O   UNL A   1      46.792  23.716  37.150  1.00  0.00    -0.237 OA
ATOM     99  O   UNL A   1      44.553  24.595  37.633  1.00  0.00    -0.744 OA
ENDBRANCH  93  96
ENDBRANCH  66  89
ENDBRANCH  40  41
ENDBRANCH  32  35
ENDBRANCH  30  31
ENDBRANCH  29  30
ENDBRANCH  28  29
ENDBRANCH   1  28
TORSDOF 19
ENDMDL
MODEL 3
REMARK VINA RESULT:     -11.9      1.507      2.404
REMARK SMILES Cc1nc(=O)[nH]c(C)c1CC(=O)Nc1sccc1C(=O)NCCCCCCNC(=O)c1ccc(-c2c3nc(c(-c4cccc(S(=O)(=O)[O-])c4F)c4ccc([nH]4)c(-c4cccc(S(=O)(=O)[O-])c4F)c4nc(c(-c5cccc(S(=O)(=O)[O-])c5F)c5ccc2[nH]5)C=C4)C=C3)cc1
REMARK SMILES IDX 24 1 23 2 22 3 21 4 19 5 20 6 18 8 14 9 15 10 16 11 17 12
REMARK SMILES IDX 13 13 11 14 12 15 10 17 9 18 1 19 2 20 3 21 4 22 7 23 5 24
REMARK SMILES IDX 6 25 8 26 25 28 26 29 27 30 28 31 29 32 30 34 31 35 32 36
REMARK SMILES IDX 93 37 33 38 92 39 34 40 35 41 36 42 86 43 37 44 91 45 85 46
REMARK SMILES IDX 87 47 38 48 90 49 84 50 83 51 39 53 71 54 51 55 70 56 52 57
REMARK SMILES IDX 55 58 69 59 88 60 53 61 54 62 68 64 89 65 56 66 40 67 41 68
REMARK SMILES IDX 49 69 42 70 44 71 50 72 43 73 45 74 46 75 47 76 48 77 72 78
REMARK SMILES IDX 73 79 81 80 74 81 76 82 82 83 75 84 77 85 78 86 79 87 80 88
REMARK SMILES IDX 57 89 58 90 66 91 59 92 61 93 67 94 60 95 62 96 63 97 64 98
REMARK SMILES IDX 65 99
REMARK H PARENT 21 7 13 16 6 27 28 33 87 52 55 63
REMARK Flexibility Score: inf
ROOT
ATOM      1  C   UNL A   1      33.877  30.417  27.521  1.00  0.00     0.002 C 
ENDROOT
BRANCH   1   2
ATOM      2  C   UNL A   1      34.500  29.077  27.103  1.00  0.00     0.021 C 
BRANCH   2   3
ATOM      3  C   UNL A   1      33.748  28.343  25.997  1.00  0.00     0.116 C 
BRANCH   3   4
ATOM      4  N   UNL A   1      34.177  28.730  24.672  1.00  0.00    -0.352 N 
ATOM      5  C   UNL A   1      33.485  28.830  23.495  1.00  0.00     0.254 C 
ATOM      6  O   UNL A   1      34.172  28.964  22.481  1.00  0.00    -0.269 OA
ATOM      7  H   UNL A   1      35.131  28.960  24.605  1.00  0.00     0.163 HD
BRANCH   5   8
ATOM      8  C   UNL A   1      32.029  28.693  23.395  1.00  0.00     0.074 A 
ATOM      9  C   UNL A   1      31.224  27.706  22.854  1.00  0.00     0.108 A 
ATOM     10  S   UNL A   1      29.599  28.217  22.656  1.00  0.00    -0.126 S 
ATOM     11  C   UNL A   1      29.843  29.584  23.638  1.00  0.00     0.068 A 
ATOM     12  C   UNL A   1      31.173  29.733  23.947  1.00  0.00     0.028 A 
BRANCH   9  13
ATOM     13  N   UNL A   1      31.378  26.447  22.337  1.00  0.00    -0.317 N 
ATOM     14  C   UNL A   1      32.148  25.396  22.722  1.00  0.00     0.229 C 
ATOM     15  O   UNL A   1      32.366  24.529  21.864  1.00  0.00    -0.274 OA
ATOM     16  H   UNL A   1      30.830  26.272  21.539  1.00  0.00     0.170 HD
BRANCH  14  17
ATOM     17  C   UNL A   1      32.530  25.091  24.173  1.00  0.00     0.139 C 
BRANCH  17  18
ATOM     18  C   UNL A   1      31.562  24.467  25.127  1.00  0.00     0.002 A 
ATOM     19  C   UNL A   1      32.600  22.116  24.654  1.00  0.00     0.067 C 
ATOM     20  C   UNL A   1      31.565  22.980  25.348  1.00  0.00     0.049 A 
ATOM     21  N   UNL A   1      30.783  22.347  26.162  1.00  0.00    -0.198 NA
ATOM     22  C   UNL A   1      29.872  23.055  26.890  1.00  0.00     0.345 A 
ATOM     23  C   UNL A   1      30.754  25.128  25.980  1.00  0.00     0.022 A 
ATOM     24  O   UNL A   1      29.071  22.531  27.661  1.00  0.00    -0.246 OA
ATOM     25  N   UNL A   1      29.918  24.419  26.801  1.00  0.00    -0.310 N 
ATOM     26  C   UNL A   1      30.652  26.614  26.155  1.00  0.00     0.065 C 
ATOM     27  H   UNL A   1      29.301  24.931  27.373  1.00  0.00     0.171 HD
ENDBRANCH  17  18
ENDBRANCH  14  17
ENDBRANCH   9  13
ENDBRANCH   5   8
ENDBRANCH   3   4
ENDBRANCH   2   3
ENDBRANCH   1   2
BRANCH   1  28
ATOM     28  C   UNL A   1      32.386  30.596  27.205  1.00  0.00     0.002 C 
BRANCH  28  29
ATOM     29  C   UNL A   1      31.879  32.024  27.050  1.00  0.00     0.021 C 
BRANCH  29  30
ATOM     30  C   UNL A   1      32.955  33.091  27.070  1.00  0.00     0.116 C 
BRANCH  30  31
ATOM     31  N   UNL A   1      32.547  34.320  27.731  1.00  0.00    -0.352 N 
ATOM     32  C   UNL A   1      33.060  34.871  28.881  1.00  0.00     0.251 C 
ATOM     33  H   UNL A   1      31.812  34.819  27.303  1.00  0.00     0.163 HD
ATOM     34  O   UNL A   1      32.555  35.875  29.371  1.00  0.00    -0.269 OA
BRANCH  32  35
ATOM     35  C   UNL A   1      34.209  34.209  29.539  1.00  0.00     0.039 A 
ATOM     36  C   UNL A   1      35.505  34.598  29.193  1.00  0.00     0.014 A 
ATOM     37  C   UNL A   1      34.002  33.244  30.527  1.00  0.00     0.014 A 
ATOM     38  C   UNL A   1      36.592  34.045  29.871  1.00  0.00     0.010 A 
ATOM     39  C   UNL A   1      35.076  32.779  31.272  1.00  0.00     0.010 A 
ATOM     40  C   UNL A   1      36.384  33.145  30.930  1.00  0.00    -0.014 A 
BRANCH  40  41
ATOM     41  C   UNL A   1      37.521  32.527  31.655  1.00  0.00     0.031 A 
ATOM     42  C   UNL A   1      38.289  31.402  31.012  1.00  0.00     0.074 A 
ATOM     43  C   UNL A   1      37.814  32.922  32.910  1.00  0.00     0.049 A 
ATOM     44  N   UNL A   1      39.297  30.716  31.483  1.00  0.00    -0.248 NA
ATOM     45  C   UNL A   1      37.842  30.963  29.678  1.00  0.00     0.031 C 
ATOM     46  C   UNL A   1      37.084  33.938  33.672  1.00  0.00     0.029 A 
ATOM     47  N   UNL A   1      38.795  32.504  33.770  1.00  0.00    -0.354 N 
ATOM     48  C   UNL A   1      39.566  29.738  30.533  1.00  0.00     0.074 A 
ATOM     49  C   UNL A   1      38.589  29.888  29.480  1.00  0.00     0.031 C 
ATOM     50  C   UNL A   1      37.661  34.083  34.876  1.00  0.00     0.029 A 
ATOM     51  C   UNL A   1      38.785  33.157  34.981  1.00  0.00     0.049 A 
ATOM     52  H   UNL A   1      39.447  31.802  33.543  1.00  0.00     0.167 HD
ATOM     53  C   UNL A   1      40.562  28.821  30.516  1.00  0.00     0.034 A 
ATOM     54  C   UNL A   1      39.599  33.030  36.046  1.00  0.00     0.034 A 
ATOM     55  C   UNL A   1      41.572  28.728  31.532  1.00  0.00     0.049 A 
ATOM     56  C   UNL A   1      40.747  32.059  35.970  1.00  0.00     0.074 A 
ATOM     57  C   UNL A   1      42.692  27.916  31.561  1.00  0.00     0.029 A 
ATOM     58  N   UNL A   1      41.585  29.474  32.700  1.00  0.00    -0.354 N 
ATOM     59  N   UNL A   1      41.090  31.262  34.987  1.00  0.00    -0.248 NA
ATOM     60  C   UNL A   1      41.645  32.002  37.131  1.00  0.00     0.031 C 
ATOM     61  C   UNL A   1      43.368  28.155  32.761  1.00  0.00     0.029 A 
ATOM     62  C   UNL A   1      42.688  29.137  33.464  1.00  0.00     0.049 A 
ATOM     63  H   UNL A   1      40.908  30.143  32.949  1.00  0.00     0.167 HD
ATOM     64  C   UNL A   1      42.270  30.645  35.390  1.00  0.00     0.074 A 
ATOM     65  C   UNL A   1      42.587  31.172  36.702  1.00  0.00     0.031 C 
ATOM     66  C   UNL A   1      43.018  29.718  34.740  1.00  0.00     0.034 A 
BRANCH  53  67
ATOM     67  C   UNL A   1      40.630  27.885  29.338  1.00  0.00     0.023 A 
ATOM     68  C   UNL A   1      39.810  26.736  29.305  1.00  0.00     0.012 A 
ATOM     69  C   UNL A   1      41.482  28.154  28.249  1.00  0.00     0.148 A 
ATOM     70  C   UNL A   1      39.872  25.848  28.232  1.00  0.00     0.002 A 
ATOM     71  C   UNL A   1      41.500  27.291  27.159  1.00  0.00     0.091 A 
ATOM     72  F   UNL A   1      42.272  29.236  28.307  1.00  0.00    -0.205 F 
ATOM     73  C   UNL A   1      40.708  26.131  27.155  1.00  0.00     0.022 A 
BRANCH  71  74
ATOM     74  S   UNL A   1      42.480  27.613  25.689  1.00  0.00     0.127 S 
ATOM     75  O   UNL A   1      42.028  28.955  25.321  1.00  0.00    -0.237 OA
ATOM     76  O   UNL A   1      43.846  27.552  26.210  1.00  0.00    -0.237 OA
ATOM     77  O   UNL A   1      42.144  26.557  24.744  1.00  0.00    -0.744 OA
ENDBRANCH  71  74
ENDBRANCH  53  67
BRANCH  54  78
ATOM     78  C   UNL A   1      39.427  33.921  37.230  1.00  0.00     0.023 A 
ATOM     79  C   UNL A   1      39.867  35.257  37.151  1.00  0.00     0.012 A 
ATOM     80  C   UNL A   1      38.814  33.469  38.413  1.00  0.00     0.148 A 
ATOM     81  C   UNL A   1      39.732  36.118  38.241  1.00  0.00     0.002 A 
ATOM     82  C   UNL A   1      38.636  34.346  39.478  1.00  0.00     0.091 A 
ATOM     83  F   UNL A   1      38.408  32.193  38.471  1.00  0.00    -0.205 F 
ATOM     84  C   UNL A   1      39.109  35.665  39.401  1.00  0.00     0.022 A 
BRANCH  82  85
ATOM     85  S   UNL A   1      37.737  33.891  40.966  1.00  0.00     0.127 S 
ATOM     86  O   UNL A   1      36.531  33.284  40.412  1.00  0.00    -0.237 OA
ATOM     87  O   UNL A   1      38.663  32.954  41.602  1.00  0.00    -0.237 OA
ATOM     88  O   UNL A   1      37.540  35.133  41.702  1.00  0.00    -0.744 OA
ENDBRANCH  82  85
ENDBRANCH  54  78
BRANCH  66  89
ATOM     89  C   UNL A   1      44.284  29.251  35.407  1.00  0.00     0.023 A 
ATOM     90  C   UNL A   1      45.504  29.903  35.139  1.00  0.00     0.012 A 
ATOM     91  C   UNL A   1      44.247  28.214  36.358  1.00  0.00     0.148 A 
ATOM     92  C   UNL A   1      46.675  29.503  35.782  1.00  0.00     0.002 A 
ATOM     93  C   UNL A   1      45.407  27.856  37.034  1.00  0.00     0.091 A 
ATOM     94  F   UNL A   1      43.079  27.593  36.585  1.00  0.00    -0.205 F 
ATOM     95  C   UNL A   1      46.623  28.490  36.738  1.00  0.00     0.022 A 
BRANCH  93  96
ATOM     96  S   UNL A   1      45.408  26.637  38.353  1.00  0.00     0.127 S 
ATOM     97  O   UNL A   1      44.872  25.460  37.672  1.00  0.00    -0.237 OA
ATOM     98  O   UNL A   1      46.828  26.551  38.697  1.00  0.00    -0.237 OA
ATOM     99  O   UNL A   1      44.568  27.190  39.407  1.00  0.00    -0.744 OA
ENDBRANCH  93  96
ENDBRANCH  66  89
ENDBRANCH  40  41
ENDBRANCH  32  35
ENDBRANCH  30  31
ENDBRANCH  29  30
ENDBRANCH  28  29
ENDBRANCH   1  28
TORSDOF 19
ENDMDL
