MODEL 1
REMARK VINA RESULT:     -11.8      0.000      0.000
REMARK SMILES COc1cc(C)cc2c1O[C@H](C(F)(F)F)C(C(=O)NCCCCCCNC(=O)c1ccc(-c3c4nc(c(-c5cccc(S(=O)(=O)[O-])c5F)c5ccc([nH]5)c(-c5cccc(S(=O)(=O)[O-])c5F)c5nc(c(-c6cccc(S(=O)(=O)[O-])c6F)c6ccc3[nH]6)C=C5)C=C4)cc1)=C2
REMARK SMILES IDX 23 1 22 2 21 3 20 4 19 5 17 6 18 7 16 9 3 10 4 11 9 12 5 13
REMARK SMILES IDX 8 14 10 15 6 16 7 17 92 18 11 19 2 20 1 21 12 22 13 23 14 24
REMARK SMILES IDX 15 25 24 26 25 27 26 28 27 29 28 31 29 32 30 33 91 34 31 35
REMARK SMILES IDX 90 36 32 37 33 38 34 39 84 40 35 41 89 42 83 43 85 44 36 45
REMARK SMILES IDX 88 46 82 47 81 48 37 50 69 51 49 52 68 53 50 54 53 55 67 56
REMARK SMILES IDX 86 57 51 58 52 59 66 61 87 62 54 63 38 64 39 65 47 66 40 67
REMARK SMILES IDX 42 68 48 69 41 70 43 71 44 72 45 73 46 74 70 75 71 76 79 77
REMARK SMILES IDX 72 78 74 79 80 80 73 81 75 82 76 83 77 84 78 85 55 86 56 87
REMARK SMILES IDX 64 88 57 89 59 90 65 91 58 92 60 93 61 94 62 95 63 96
REMARK H PARENT 19 8 26 30 85 49 53 60
REMARK Flexibility Score: inf
ROOT
ATOM      1  C   UNL A   1      31.796  29.114  24.049  1.00  0.00     0.002 C 
ENDROOT
BRANCH   1   2
ATOM      2  C   UNL A   1      30.349  29.113  23.539  1.00  0.00     0.002 C 
BRANCH   2   3
ATOM      3  C   UNL A   1      29.908  27.842  22.805  1.00  0.00     0.021 C 
BRANCH   3   4
ATOM      4  C   UNL A   1      30.615  26.574  23.273  1.00  0.00     0.116 C 
BRANCH   4   5
ATOM      5  N   UNL A   1      30.211  26.190  24.613  1.00  0.00    -0.352 N 
ATOM      6  C   UNL A   1      30.623  25.314  25.559  1.00  0.00     0.251 C 
ATOM      7  O   UNL A   1      29.975  25.337  26.612  1.00  0.00    -0.270 OA
ATOM      8  H   UNL A   1      29.428  26.704  24.915  1.00  0.00     0.163 HD
BRANCH   6   9
ATOM      9  C   UNL A   1      31.764  24.358  25.420  1.00  0.00     0.067 C 
ATOM     10  C   UNL A   1      35.090  21.794  25.213  1.00  0.00     0.161 A 
ATOM     11  C   UNL A   1      36.367  22.287  25.489  1.00  0.00     0.054 A 
ATOM     12  C   UNL A   1      33.980  22.636  25.320  1.00  0.00     0.169 A 
ATOM     13  C   UNL A   1      36.534  23.614  25.904  1.00  0.00    -0.047 A 
ATOM     14  C   UNL A   1      34.131  23.962  25.726  1.00  0.00     0.021 A 
ATOM     15  O   UNL A   1      32.754  22.087  25.075  1.00  0.00    -0.471 OA
ATOM     16  C   UNL A   1      37.900  24.161  26.195  1.00  0.00     0.044 C 
ATOM     17  C   UNL A   1      35.410  24.447  26.019  1.00  0.00     0.015 A 
ATOM     18  C   UNL A   1      32.953  24.811  25.860  1.00  0.00     0.025 C 
ATOM     19  C   UNL A   1      31.660  22.993  24.796  1.00  0.00     0.314 C 
BRANCH  10  20
ATOM     20  O   UNL A   1      34.880  20.525  24.738  1.00  0.00    -0.493 OA
ATOM     21  C   UNL A   1      35.994  19.658  24.920  1.00  0.00     0.278 C 
ENDBRANCH  10  20
BRANCH  19  22
ATOM     22  C   UNL A   1      31.432  23.044  23.275  1.00  0.00     0.429 C 
ATOM     23  F   UNL A   1      31.638  21.825  22.718  1.00  0.00    -0.167 F 
ATOM     24  F   UNL A   1      30.165  23.398  22.954  1.00  0.00    -0.167 F 
ATOM     25  F   UNL A   1      32.253  23.923  22.656  1.00  0.00    -0.167 F 
ENDBRANCH  19  22
ENDBRANCH   6   9
ENDBRANCH   4   5
ENDBRANCH   3   4
ENDBRANCH   2   3
ENDBRANCH   1   2
BRANCH   1  26
ATOM     26  C   UNL A   1      31.965  29.177  25.570  1.00  0.00     0.021 C 
BRANCH  26  27
ATOM     27  C   UNL A   1      33.243  29.854  26.049  1.00  0.00     0.116 C 
BRANCH  27  28
ATOM     28  N   UNL A   1      33.001  31.185  26.581  1.00  0.00    -0.352 N 
ATOM     29  C   UNL A   1      33.706  31.886  27.529  1.00  0.00     0.251 C 
ATOM     30  H   UNL A   1      32.218  31.651  26.208  1.00  0.00     0.163 HD
ATOM     31  O   UNL A   1      33.250  32.937  27.973  1.00  0.00    -0.269 OA
BRANCH  29  32
ATOM     32  C   UNL A   1      34.994  31.356  28.032  1.00  0.00     0.039 A 
ATOM     33  C   UNL A   1      35.083  30.054  28.528  1.00  0.00     0.014 A 
ATOM     34  C   UNL A   1      36.123  32.178  28.014  1.00  0.00     0.014 A 
ATOM     35  C   UNL A   1      36.254  29.632  29.151  1.00  0.00     0.010 A 
ATOM     36  C   UNL A   1      37.323  31.722  28.566  1.00  0.00     0.010 A 
ATOM     37  C   UNL A   1      37.388  30.461  29.180  1.00  0.00    -0.014 A 
BRANCH  37  38
ATOM     38  C   UNL A   1      38.628  29.980  29.842  1.00  0.00     0.031 A 
ATOM     39  C   UNL A   1      39.008  30.454  31.219  1.00  0.00     0.074 A 
ATOM     40  C   UNL A   1      39.407  29.084  29.202  1.00  0.00     0.049 A 
ATOM     41  N   UNL A   1      40.045  30.120  31.942  1.00  0.00    -0.248 NA
ATOM     42  C   UNL A   1      38.119  31.431  31.872  1.00  0.00     0.031 C 
ATOM     43  C   UNL A   1      39.168  28.577  27.849  1.00  0.00     0.029 A 
ATOM     44  N   UNL A   1      40.552  28.441  29.600  1.00  0.00    -0.354 N 
ATOM     45  C   UNL A   1      39.961  30.872  33.107  1.00  0.00     0.074 A 
ATOM     46  C   UNL A   1      38.768  31.682  33.003  1.00  0.00     0.031 C 
ATOM     47  C   UNL A   1      40.120  27.683  27.540  1.00  0.00     0.029 A 
ATOM     48  C   UNL A   1      41.062  27.588  28.650  1.00  0.00     0.049 A 
ATOM     49  H   UNL A   1      40.968  28.578  30.482  1.00  0.00     0.167 HD
ATOM     50  C   UNL A   1      40.791  30.871  34.176  1.00  0.00     0.034 A 
ATOM     51  C   UNL A   1      42.169  26.822  28.659  1.00  0.00     0.034 A 
ATOM     52  C   UNL A   1      41.940  30.018  34.311  1.00  0.00     0.049 A 
ATOM     53  C   UNL A   1      43.047  26.809  29.876  1.00  0.00     0.074 A 
ATOM     54  C   UNL A   1      42.797  29.905  35.393  1.00  0.00     0.029 A 
ATOM     55  N   UNL A   1      42.393  29.136  33.346  1.00  0.00    -0.354 N 
ATOM     56  N   UNL A   1      42.888  27.452  31.006  1.00  0.00    -0.248 NA
ATOM     57  C   UNL A   1      44.243  25.955  29.831  1.00  0.00     0.031 C 
ATOM     58  C   UNL A   1      43.772  28.956  35.079  1.00  0.00     0.029 A 
ATOM     59  C   UNL A   1      43.518  28.474  33.805  1.00  0.00     0.049 A 
ATOM     60  H   UNL A   1      41.978  29.000  32.463  1.00  0.00     0.167 HD
ATOM     61  C   UNL A   1      43.955  27.077  31.809  1.00  0.00     0.074 A 
ATOM     62  C   UNL A   1      44.744  26.129  31.048  1.00  0.00     0.031 C 
ATOM     63  C   UNL A   1      44.264  27.497  33.058  1.00  0.00     0.034 A 
BRANCH  50  64
ATOM     64  C   UNL A   1      40.473  31.776  35.334  1.00  0.00     0.023 A 
ATOM     65  C   UNL A   1      41.167  32.994  35.462  1.00  0.00     0.012 A 
ATOM     66  C   UNL A   1      39.394  31.493  36.196  1.00  0.00     0.148 A 
ATOM     67  C   UNL A   1      40.790  33.923  36.431  1.00  0.00     0.002 A 
ATOM     68  C   UNL A   1      39.008  32.435  37.140  1.00  0.00     0.091 A 
ATOM     69  F   UNL A   1      38.755  30.323  36.053  1.00  0.00    -0.205 F 
ATOM     70  C   UNL A   1      39.706  33.648  37.261  1.00  0.00     0.022 A 
BRANCH  68  71
ATOM     71  S   UNL A   1      37.589  32.211  38.219  1.00  0.00     0.127 S 
ATOM     72  O   UNL A   1      37.333  30.777  38.077  1.00  0.00    -0.237 OA
ATOM     73  O   UNL A   1      38.128  32.609  39.519  1.00  0.00    -0.237 OA
ATOM     74  O   UNL A   1      36.540  33.075  37.695  1.00  0.00    -0.744 OA
ENDBRANCH  68  71
ENDBRANCH  50  64
BRANCH  51  75
ATOM     75  C   UNL A   1      42.479  25.980  27.472  1.00  0.00     0.023 A 
ATOM     76  C   UNL A   1      43.278  26.503  26.440  1.00  0.00     0.012 A 
ATOM     77  C   UNL A   1      42.051  24.640  27.406  1.00  0.00     0.148 A 
ATOM     78  C   UNL A   1      43.641  25.706  25.354  1.00  0.00     0.002 A 
ATOM     79  C   UNL A   1      42.455  23.838  26.347  1.00  0.00     0.091 A 
ATOM     80  F   UNL A   1      41.283  24.170  28.400  1.00  0.00    -0.205 F 
ATOM     81  C   UNL A   1      43.242  24.373  25.314  1.00  0.00     0.022 A 
BRANCH  79  82
ATOM     82  S   UNL A   1      42.092  22.081  26.273  1.00  0.00     0.127 S 
ATOM     83  O   UNL A   1      42.545  21.628  27.585  1.00  0.00    -0.237 OA
ATOM     84  O   UNL A   1      40.641  22.083  26.088  1.00  0.00    -0.237 OA
ATOM     85  O   UNL A   1      42.843  21.570  25.135  1.00  0.00    -0.744 OA
ENDBRANCH  79  82
ENDBRANCH  51  75
BRANCH  63  86
ATOM     86  C   UNL A   1      45.501  26.945  33.708  1.00  0.00     0.023 A 
ATOM     87  C   UNL A   1      46.699  27.680  33.637  1.00  0.00     0.012 A 
ATOM     88  C   UNL A   1      45.440  25.781  34.496  1.00  0.00     0.148 A 
ATOM     89  C   UNL A   1      47.826  27.260  34.341  1.00  0.00     0.002 A 
ATOM     90  C   UNL A   1      46.557  25.386  35.221  1.00  0.00     0.091 A 
ATOM     91  F   UNL A   1      44.287  25.098  34.538  1.00  0.00    -0.205 F 
ATOM     92  C   UNL A   1      47.752  26.122  35.141  1.00  0.00     0.022 A 
BRANCH  90  93
ATOM     93  S   UNL A   1      46.540  23.980  36.340  1.00  0.00     0.127 S 
ATOM     94  O   UNL A   1      47.815  24.138  37.036  1.00  0.00    -0.237 OA
ATOM     95  O   UNL A   1      45.358  24.251  37.159  1.00  0.00    -0.237 OA
ATOM     96  O   UNL A   1      46.438  22.795  35.498  1.00  0.00    -0.744 OA
ENDBRANCH  90  93
ENDBRANCH  63  86
ENDBRANCH  37  38
ENDBRANCH  29  32
ENDBRANCH  27  28
ENDBRANCH  26  27
ENDBRANCH   1  26
TORSDOF 18
ENDMDL
MODEL 2
REMARK VINA RESULT:     -11.7      0.770      7.425
REMARK SMILES COc1cc(C)cc2c1O[C@H](C(F)(F)F)C(C(=O)NCCCCCCNC(=O)c1ccc(-c3c4nc(c(-c5cccc(S(=O)(=O)[O-])c5F)c5ccc([nH]5)c(-c5cccc(S(=O)(=O)[O-])c5F)c5nc(c(-c6cccc(S(=O)(=O)[O-])c6F)c6ccc3[nH]6)C=C5)C=C4)cc1)=C2
REMARK SMILES IDX 23 1 22 2 21 3 20 4 19 5 17 6 18 7 16 9 3 10 4 11 9 12 5 13
REMARK SMILES IDX 8 14 10 15 6 16 7 17 92 18 11 19 2 20 1 21 12 22 13 23 14 24
REMARK SMILES IDX 15 25 24 26 25 27 26 28 27 29 28 31 29 32 30 33 91 34 31 35
REMARK SMILES IDX 90 36 32 37 33 38 34 39 84 40 35 41 89 42 83 43 85 44 36 45
REMARK SMILES IDX 88 46 82 47 81 48 37 50 69 51 49 52 68 53 50 54 53 55 67 56
REMARK SMILES IDX 86 57 51 58 52 59 66 61 87 62 54 63 38 64 39 65 47 66 40 67
REMARK SMILES IDX 42 68 48 69 41 70 43 71 44 72 45 73 46 74 70 75 71 76 79 77
REMARK SMILES IDX 72 78 74 79 80 80 73 81 75 82 76 83 77 84 78 85 55 86 56 87
REMARK SMILES IDX 64 88 57 89 59 90 65 91 58 92 60 93 61 94 62 95 63 96
REMARK H PARENT 19 8 26 30 85 49 53 60
REMARK Flexibility Score: inf
ROOT
ATOM      1  C   UNL A   1      30.999  28.808  24.320  1.00  0.00     0.002 C 
ENDROOT
BRANCH   1   2
ATOM      2  C   UNL A   1      30.349  27.476  23.925  1.00  0.00     0.002 C 
BRANCH   2   3
ATOM      3  C   UNL A   1      31.115  26.647  22.889  1.00  0.00     0.021 C 
BRANCH   3   4
ATOM      4  C   UNL A   1      30.906  25.141  23.018  1.00  0.00     0.116 C 
BRANCH   4   5
ATOM      5  N   UNL A   1      30.517  24.760  24.364  1.00  0.00    -0.352 N 
ATOM      6  C   UNL A   1      31.037  24.024  25.374  1.00  0.00     0.251 C 
ATOM      7  O   UNL A   1      30.347  23.983  26.400  1.00  0.00    -0.270 OA
ATOM      8  H   UNL A   1      29.641  25.137  24.607  1.00  0.00     0.163 HD
BRANCH   6   9
ATOM      9  C   UNL A   1      32.336  23.286  25.332  1.00  0.00     0.067 C 
ATOM     10  C   UNL A   1      36.075  21.365  25.392  1.00  0.00     0.161 A 
ATOM     11  C   UNL A   1      37.231  22.099  25.667  1.00  0.00     0.054 A 
ATOM     12  C   UNL A   1      34.828  21.995  25.411  1.00  0.00     0.169 A 
ATOM     13  C   UNL A   1      37.139  23.458  25.994  1.00  0.00    -0.047 A 
ATOM     14  C   UNL A   1      34.721  23.349  25.728  1.00  0.00     0.021 A 
ATOM     15  O   UNL A   1      33.732  21.217  25.171  1.00  0.00    -0.471 OA
ATOM     16  C   UNL A   1      38.372  24.263  26.283  1.00  0.00     0.044 C 
ATOM     17  C   UNL A   1      35.879  24.077  26.021  1.00  0.00     0.015 A 
ATOM     18  C   UNL A   1      33.405  23.976  25.771  1.00  0.00     0.025 C 
ATOM     19  C   UNL A   1      32.504  21.889  24.800  1.00  0.00     0.314 C 
BRANCH  10  20
ATOM     20  O   UNL A   1      36.116  20.052  25.001  1.00  0.00    -0.493 OA
ATOM     21  C   UNL A   1      37.430  19.502  24.989  1.00  0.00     0.278 C 
ENDBRANCH  10  20
BRANCH  19  22
ATOM     22  C   UNL A   1      32.331  21.801  23.274  1.00  0.00     0.429 C 
ATOM     23  F   UNL A   1      33.143  22.687  22.647  1.00  0.00    -0.167 F 
ATOM     24  F   UNL A   1      32.655  20.579  22.787  1.00  0.00    -0.167 F 
ATOM     25  F   UNL A   1      31.062  22.054  22.881  1.00  0.00    -0.167 F 
ENDBRANCH  19  22
ENDBRANCH   6   9
ENDBRANCH   4   5
ENDBRANCH   3   4
ENDBRANCH   2   3
ENDBRANCH   1   2
BRANCH   1  26
ATOM     26  C   UNL A   1      31.660  28.842  25.701  1.00  0.00     0.021 C 
BRANCH  26  27
ATOM     27  C   UNL A   1      32.912  29.705  25.796  1.00  0.00     0.116 C 
BRANCH  27  28
ATOM     28  N   UNL A   1      32.627  31.045  26.281  1.00  0.00    -0.352 N 
ATOM     29  C   UNL A   1      33.293  31.790  27.225  1.00  0.00     0.251 C 
ATOM     30  H   UNL A   1      31.845  31.483  25.874  1.00  0.00     0.163 HD
ATOM     31  O   UNL A   1      32.802  32.843  27.625  1.00  0.00    -0.269 OA
BRANCH  29  32
ATOM     32  C   UNL A   1      34.577  31.305  27.776  1.00  0.00     0.039 A 
ATOM     33  C   UNL A   1      34.748  29.958  28.105  1.00  0.00     0.014 A 
ATOM     34  C   UNL A   1      35.620  32.212  27.975  1.00  0.00     0.014 A 
ATOM     35  C   UNL A   1      35.897  29.553  28.778  1.00  0.00     0.010 A 
ATOM     36  C   UNL A   1      36.808  31.785  28.576  1.00  0.00     0.010 A 
ATOM     37  C   UNL A   1      36.941  30.461  29.024  1.00  0.00    -0.014 A 
BRANCH  37  38
ATOM     38  C   UNL A   1      38.160  29.997  29.733  1.00  0.00     0.031 A 
ATOM     39  C   UNL A   1      39.106  29.016  29.093  1.00  0.00     0.074 A 
ATOM     40  C   UNL A   1      38.431  30.486  30.961  1.00  0.00     0.049 A 
ATOM     41  N   UNL A   1      40.220  28.523  29.570  1.00  0.00    -0.248 NA
ATOM     42  C   UNL A   1      38.762  28.516  27.750  1.00  0.00     0.031 C 
ATOM     43  C   UNL A   1      37.573  31.412  31.704  1.00  0.00     0.029 A 
ATOM     44  N   UNL A   1      39.498  30.277  31.798  1.00  0.00    -0.354 N 
ATOM     45  C   UNL A   1      40.685  27.628  28.615  1.00  0.00     0.074 A 
ATOM     46  C   UNL A   1      39.736  27.644  27.523  1.00  0.00     0.031 C 
ATOM     47  C   UNL A   1      38.159  31.712  32.874  1.00  0.00     0.029 A 
ATOM     48  C   UNL A   1      39.408  30.965  32.984  1.00  0.00     0.049 A 
ATOM     49  H   UNL A   1      40.255  29.691  31.569  1.00  0.00     0.167 HD
ATOM     50  C   UNL A   1      41.811  26.878  28.636  1.00  0.00     0.034 A 
ATOM     51  C   UNL A   1      40.229  30.989  34.052  1.00  0.00     0.034 A 
ATOM     52  C   UNL A   1      42.789  26.911  29.689  1.00  0.00     0.049 A 
ATOM     53  C   UNL A   1      41.492  30.180  34.029  1.00  0.00     0.074 A 
ATOM     54  C   UNL A   1      43.995  26.234  29.756  1.00  0.00     0.029 A 
ATOM     55  N   UNL A   1      42.682  27.657  30.850  1.00  0.00    -0.354 N 
ATOM     56  N   UNL A   1      41.960  29.421  33.068  1.00  0.00    -0.248 NA
ATOM     57  C   UNL A   1      42.350  30.242  35.221  1.00  0.00     0.031 C 
ATOM     58  C   UNL A   1      44.615  26.566  30.962  1.00  0.00     0.029 A 
ATOM     59  C   UNL A   1      43.799  27.457  31.641  1.00  0.00     0.049 A 
ATOM     60  H   UNL A   1      41.924  28.243  31.079  1.00  0.00     0.167 HD
ATOM     61  C   UNL A   1      43.168  28.922  33.534  1.00  0.00     0.074 A 
ATOM     62  C   UNL A   1      43.377  29.484  34.853  1.00  0.00     0.031 C 
ATOM     63  C   UNL A   1      44.018  28.059  32.929  1.00  0.00     0.034 A 
BRANCH  50  64
ATOM     64  C   UNL A   1      42.104  25.987  27.461  1.00  0.00     0.023 A 
ATOM     65  C   UNL A   1      42.789  26.519  26.352  1.00  0.00     0.012 A 
ATOM     66  C   UNL A   1      41.840  24.604  27.521  1.00  0.00     0.148 A 
ATOM     67  C   UNL A   1      43.210  25.686  25.316  1.00  0.00     0.002 A 
ATOM     68  C   UNL A   1      42.288  23.777  26.499  1.00  0.00     0.091 A 
ATOM     69  F   UNL A   1      41.182  24.127  28.588  1.00  0.00    -0.205 F 
ATOM     70  C   UNL A   1      42.970  24.316  25.396  1.00  0.00     0.022 A 
BRANCH  68  71
ATOM     71  S   UNL A   1      42.086  21.993  26.528  1.00  0.00     0.127 S 
ATOM     72  O   UNL A   1      40.682  21.847  26.141  1.00  0.00    -0.237 OA
ATOM     73  O   UNL A   1      43.046  21.560  25.513  1.00  0.00    -0.237 OA
ATOM     74  O   UNL A   1      42.393  21.571  27.888  1.00  0.00    -0.744 OA
ENDBRANCH  68  71
ENDBRANCH  50  64
BRANCH  51  75
ATOM     75  C   UNL A   1      39.878  31.843  35.218  1.00  0.00     0.023 A 
ATOM     76  C   UNL A   1      40.344  33.168  35.274  1.00  0.00     0.012 A 
ATOM     77  C   UNL A   1      39.017  31.369  36.227  1.00  0.00     0.148 A 
ATOM     78  C   UNL A   1      39.965  34.008  36.321  1.00  0.00     0.002 A 
ATOM     79  C   UNL A   1      38.605  32.223  37.241  1.00  0.00     0.091 A 
ATOM     80  F   UNL A   1      38.594  30.098  36.154  1.00  0.00    -0.205 F 
ATOM     81  C   UNL A   1      39.087  33.541  37.296  1.00  0.00     0.022 A 
BRANCH  79  82
ATOM     82  S   UNL A   1      37.383  31.748  38.469  1.00  0.00     0.127 S 
ATOM     83  O   UNL A   1      38.119  31.949  39.714  1.00  0.00    -0.237 OA
ATOM     84  O   UNL A   1      36.316  32.716  38.219  1.00  0.00    -0.237 OA
ATOM     85  O   UNL A   1      37.031  30.369  38.160  1.00  0.00    -0.744 OA
ENDBRANCH  79  82
ENDBRANCH  51  75
BRANCH  63  86
ATOM     86  C   UNL A   1      45.264  27.656  33.665  1.00  0.00     0.023 A 
ATOM     87  C   UNL A   1      46.416  28.455  33.551  1.00  0.00     0.012 A 
ATOM     88  C   UNL A   1      45.248  26.575  34.566  1.00  0.00     0.148 A 
ATOM     89  C   UNL A   1      47.543  28.181  34.324  1.00  0.00     0.002 A 
ATOM     90  C   UNL A   1      46.363  26.327  35.357  1.00  0.00     0.091 A 
ATOM     91  F   UNL A   1      44.138  25.827  34.647  1.00  0.00    -0.205 F 
ATOM     92  C   UNL A   1      47.512  27.127  35.234  1.00  0.00     0.022 A 
BRANCH  90  93
ATOM     93  S   UNL A   1      46.395  25.043  36.612  1.00  0.00     0.127 S 
ATOM     94  O   UNL A   1      46.230  23.835  35.806  1.00  0.00    -0.237 OA
ATOM     95  O   UNL A   1      47.726  25.212  37.195  1.00  0.00    -0.237 OA
ATOM     96  O   UNL A   1      45.292  25.336  37.519  1.00  0.00    -0.744 OA
ENDBRANCH  90  93
ENDBRANCH  63  86
ENDBRANCH  37  38
ENDBRANCH  29  32
ENDBRANCH  27  28
ENDBRANCH  26  27
ENDBRANCH   1  26
TORSDOF 18
ENDMDL
MODEL 3
REMARK VINA RESULT:     -11.2      2.550      8.214
REMARK SMILES COc1cc(C)cc2c1O[C@H](C(F)(F)F)C(C(=O)NCCCCCCNC(=O)c1ccc(-c3c4nc(c(-c5cccc(S(=O)(=O)[O-])c5F)c5ccc([nH]5)c(-c5cccc(S(=O)(=O)[O-])c5F)c5nc(c(-c6cccc(S(=O)(=O)[O-])c6F)c6ccc3[nH]6)C=C5)C=C4)cc1)=C2
REMARK SMILES IDX 23 1 22 2 21 3 20 4 19 5 17 6 18 7 16 9 3 10 4 11 9 12 5 13
REMARK SMILES IDX 8 14 10 15 6 16 7 17 92 18 11 19 2 20 1 21 12 22 13 23 14 24
REMARK SMILES IDX 15 25 24 26 25 27 26 28 27 29 28 31 29 32 30 33 91 34 31 35
REMARK SMILES IDX 90 36 32 37 33 38 34 39 84 40 35 41 89 42 83 43 85 44 36 45
REMARK SMILES IDX 88 46 82 47 81 48 37 50 69 51 49 52 68 53 50 54 53 55 67 56
REMARK SMILES IDX 86 57 51 58 52 59 66 61 87 62 54 63 38 64 39 65 47 66 40 67
REMARK SMILES IDX 42 68 48 69 41 70 43 71 44 72 45 73 46 74 70 75 71 76 79 77
REMARK SMILES IDX 72 78 74 79 80 80 73 81 75 82 76 83 77 84 78 85 55 86 56 87
REMARK SMILES IDX 64 88 57 89 59 90 65 91 58 92 60 93 61 94 62 95 63 96
REMARK H PARENT 19 8 26 30 85 49 53 60
REMARK Flexibility Score: inf
ROOT
ATOM      1  C   UNL A   1      35.081  31.350  27.795  1.00  0.00     0.002 C 
ENDROOT
BRANCH   1   2
ATOM      2  C   UNL A   1      34.957  29.840  28.033  1.00  0.00     0.002 C 
BRANCH   2   3
ATOM      3  C   UNL A   1      34.896  28.974  26.770  1.00  0.00     0.021 C 
BRANCH   3   4
ATOM      4  C   UNL A   1      33.596  29.109  25.984  1.00  0.00     0.116 C 
BRANCH   4   5
ATOM      5  N   UNL A   1      32.449  28.649  26.746  1.00  0.00    -0.352 N 
ATOM      6  C   UNL A   1      31.735  27.505  26.867  1.00  0.00     0.251 C 
ATOM      7  O   UNL A   1      30.812  27.550  27.689  1.00  0.00    -0.270 OA
ATOM      8  H   UNL A   1      32.098  29.357  27.333  1.00  0.00     0.163 HD
BRANCH   6   9
ATOM      9  C   UNL A   1      31.977  26.244  26.102  1.00  0.00     0.067 C 
ATOM     10  C   UNL A   1      32.881  22.678  24.067  1.00  0.00     0.161 A 
ATOM     11  C   UNL A   1      34.205  22.380  23.739  1.00  0.00     0.054 A 
ATOM     12  C   UNL A   1      32.585  23.844  24.778  1.00  0.00     0.169 A 
ATOM     13  C   UNL A   1      35.240  23.230  24.150  1.00  0.00    -0.047 A 
ATOM     14  C   UNL A   1      33.603  24.704  25.189  1.00  0.00     0.021 A 
ATOM     15  O   UNL A   1      31.276  24.062  25.101  1.00  0.00    -0.471 OA
ATOM     16  C   UNL A   1      36.666  22.929  23.798  1.00  0.00     0.044 C 
ATOM     17  C   UNL A   1      34.930  24.393  24.874  1.00  0.00     0.015 A 
ATOM     18  C   UNL A   1      33.270  25.898  25.956  1.00  0.00     0.025 C 
ATOM     19  C   UNL A   1      30.896  25.408  25.475  1.00  0.00     0.314 C 
BRANCH  10  20
ATOM     20  O   UNL A   1      31.828  21.916  23.631  1.00  0.00    -0.493 OA
ATOM     21  C   UNL A   1      32.121  21.155  22.464  1.00  0.00     0.278 C 
ENDBRANCH  10  20
BRANCH  19  22
ATOM     22  C   UNL A   1      30.233  26.090  24.266  1.00  0.00     0.429 C 
ATOM     23  F   UNL A   1      31.166  26.670  23.471  1.00  0.00    -0.167 F 
ATOM     24  F   UNL A   1      29.560  25.214  23.483  1.00  0.00    -0.167 F 
ATOM     25  F   UNL A   1      29.350  27.047  24.630  1.00  0.00    -0.167 F 
ENDBRANCH  19  22
ENDBRANCH   6   9
ENDBRANCH   4   5
ENDBRANCH   3   4
ENDBRANCH   2   3
ENDBRANCH   1   2
BRANCH   1  26
ATOM     26  C   UNL A   1      33.786  32.154  27.936  1.00  0.00     0.021 C 
BRANCH  26  27
ATOM     27  C   UNL A   1      33.794  33.516  27.252  1.00  0.00     0.116 C 
BRANCH  27  28
ATOM     28  N   UNL A   1      33.104  34.532  28.030  1.00  0.00    -0.352 N 
ATOM     29  C   UNL A   1      33.285  34.896  29.343  1.00  0.00     0.251 C 
ATOM     30  H   UNL A   1      32.407  35.032  27.546  1.00  0.00     0.163 HD
ATOM     31  O   UNL A   1      32.488  35.666  29.875  1.00  0.00    -0.269 OA
BRANCH  29  32
ATOM     32  C   UNL A   1      34.416  34.336  30.115  1.00  0.00     0.039 A 
ATOM     33  C   UNL A   1      35.735  34.615  29.750  1.00  0.00     0.014 A 
ATOM     34  C   UNL A   1      34.152  33.513  31.212  1.00  0.00     0.014 A 
ATOM     35  C   UNL A   1      36.781  33.946  30.379  1.00  0.00     0.010 A 
ATOM     36  C   UNL A   1      35.210  32.907  31.897  1.00  0.00     0.010 A 
ATOM     37  C   UNL A   1      36.531  33.082  31.458  1.00  0.00    -0.014 A 
BRANCH  37  38
ATOM     38  C   UNL A   1      37.669  32.390  32.117  1.00  0.00     0.031 A 
ATOM     39  C   UNL A   1      38.393  31.261  31.434  1.00  0.00     0.074 A 
ATOM     40  C   UNL A   1      38.069  32.802  33.338  1.00  0.00     0.049 A 
ATOM     41  N   UNL A   1      39.413  30.564  31.864  1.00  0.00    -0.248 NA
ATOM     42  C   UNL A   1      37.915  30.853  30.101  1.00  0.00     0.031 C 
ATOM     43  C   UNL A   1      37.424  33.859  34.121  1.00  0.00     0.029 A 
ATOM     44  N   UNL A   1      39.109  32.387  34.132  1.00  0.00    -0.354 N 
ATOM     45  C   UNL A   1      39.670  29.613  30.885  1.00  0.00     0.074 A 
ATOM     46  C   UNL A   1      38.702  29.819  29.830  1.00  0.00     0.031 C 
ATOM     47  C   UNL A   1      38.097  34.028  35.269  1.00  0.00     0.029 A 
ATOM     48  C   UNL A   1      39.190  33.063  35.326  1.00  0.00     0.049 A 
ATOM     49  H   UNL A   1      39.735  31.675  33.870  1.00  0.00     0.167 HD
ATOM     50  C   UNL A   1      40.639  28.668  30.857  1.00  0.00     0.034 A 
ATOM     51  C   UNL A   1      40.038  32.918  36.363  1.00  0.00     0.034 A 
ATOM     52  C   UNL A   1      41.643  28.504  31.872  1.00  0.00     0.049 A 
ATOM     53  C   UNL A   1      41.129  31.890  36.284  1.00  0.00     0.074 A 
ATOM     54  C   UNL A   1      42.704  27.615  31.888  1.00  0.00     0.029 A 
ATOM     55  N   UNL A   1      41.717  29.239  33.043  1.00  0.00    -0.354 N 
ATOM     56  N   UNL A   1      41.414  31.073  35.301  1.00  0.00    -0.248 NA
ATOM     57  C   UNL A   1      42.026  31.776  37.443  1.00  0.00     0.031 C 
ATOM     58  C   UNL A   1      43.418  27.809  33.072  1.00  0.00     0.029 A 
ATOM     59  C   UNL A   1      42.805  28.825  33.789  1.00  0.00     0.049 A 
ATOM     60  H   UNL A   1      41.089  29.951  33.305  1.00  0.00     0.167 HD
ATOM     61  C   UNL A   1      42.525  30.353  35.716  1.00  0.00     0.074 A 
ATOM     62  C   UNL A   1      42.880  30.846  37.031  1.00  0.00     0.031 C 
ATOM     63  C   UNL A   1      43.178  29.358  35.073  1.00  0.00     0.034 A 
BRANCH  50  64
ATOM     64  C   UNL A   1      40.719  27.755  29.664  1.00  0.00     0.023 A 
ATOM     65  C   UNL A   1      39.816  26.679  29.564  1.00  0.00     0.012 A 
ATOM     66  C   UNL A   1      41.575  28.053  28.585  1.00  0.00     0.148 A 
ATOM     67  C   UNL A   1      39.762  25.911  28.402  1.00  0.00     0.002 A 
ATOM     68  C   UNL A   1      41.495  27.299  27.421  1.00  0.00     0.091 A 
ATOM     69  F   UNL A   1      42.426  29.081  28.712  1.00  0.00    -0.205 F 
ATOM     70  C   UNL A   1      40.592  26.227  27.329  1.00  0.00     0.022 A 
BRANCH  68  71
ATOM     71  S   UNL A   1      42.474  27.656  25.958  1.00  0.00     0.127 S 
ATOM     72  O   UNL A   1      41.949  26.679  25.005  1.00  0.00    -0.237 OA
ATOM     73  O   UNL A   1      42.104  29.043  25.675  1.00  0.00    -0.237 OA
ATOM     74  O   UNL A   1      43.864  27.454  26.340  1.00  0.00    -0.744 OA
ENDBRANCH  68  71
ENDBRANCH  50  64
BRANCH  51  75
ATOM     75  C   UNL A   1      39.893  33.805  37.548  1.00  0.00     0.023 A 
ATOM     76  C   UNL A   1      40.434  35.103  37.514  1.00  0.00     0.012 A 
ATOM     77  C   UNL A   1      39.151  33.392  38.671  1.00  0.00     0.148 A 
ATOM     78  C   UNL A   1      40.244  35.975  38.586  1.00  0.00     0.002 A 
ATOM     79  C   UNL A   1      38.926  34.281  39.714  1.00  0.00     0.091 A 
ATOM     80  F   UNL A   1      38.654  32.147  38.680  1.00  0.00    -0.205 F 
ATOM     81  C   UNL A   1      39.481  35.570  39.678  1.00  0.00     0.022 A 
BRANCH  79  82
ATOM     82  S   UNL A   1      37.856  33.889  41.102  1.00  0.00     0.127 S 
ATOM     83  O   UNL A   1      37.643  35.207  41.695  1.00  0.00    -0.237 OA
ATOM     84  O   UNL A   1      36.688  33.320  40.429  1.00  0.00    -0.237 OA
ATOM     85  O   UNL A   1      38.601  32.943  41.921  1.00  0.00    -0.744 OA
ENDBRANCH  79  82
ENDBRANCH  51  75
BRANCH  63  86
ATOM     86  C   UNL A   1      44.353  28.720  35.757  1.00  0.00     0.023 A 
ATOM     87  C   UNL A   1      45.641  29.242  35.536  1.00  0.00     0.012 A 
ATOM     88  C   UNL A   1      44.164  27.705  36.714  1.00  0.00     0.148 A 
ATOM     89  C   UNL A   1      46.731  28.759  36.257  1.00  0.00     0.002 A 
ATOM     90  C   UNL A   1      45.250  27.251  37.453  1.00  0.00     0.091 A 
ATOM     91  F   UNL A   1      42.927  27.223  36.898  1.00  0.00    -0.205 F 
ATOM     92  C   UNL A   1      46.534  27.773  37.223  1.00  0.00     0.022 A 
BRANCH  90  93
ATOM     93  S   UNL A   1      45.086  26.042  38.771  1.00  0.00     0.127 S 
ATOM     94  O   UNL A   1      44.173  26.722  39.688  1.00  0.00    -0.237 OA
ATOM     95  O   UNL A   1      44.507  24.896  38.070  1.00  0.00    -0.237 OA
ATOM     96  O   UNL A   1      46.431  25.823  39.289  1.00  0.00    -0.744 OA
ENDBRANCH  90  93
ENDBRANCH  63  86
ENDBRANCH  37  38
ENDBRANCH  29  32
ENDBRANCH  27  28
ENDBRANCH  26  27
ENDBRANCH   1  26
TORSDOF 18
ENDMDL
