MODEL 1
REMARK VINA RESULT:     -13.1      0.000      0.000
REMARK SMILES CS(=O)(=O)c1ccc(/C=C(/C(=O)NCCCCCCNC(=O)c2ccc(-c3c4nc(c(-c5cccc(S(=O)(=O)[O-])c5F)c5ccc([nH]5)c(-c5cccc(S(=O)(=O)[O-])c5F)c5nc(c(-c6cccc(S(=O)(=O)[O-])c6F)c6ccc3[nH]6)C=C5)C=C4)cc2)c2ccc(-c3ccc(F)cc3F)cc2)cc1
REMARK SMILES IDX 17 1 16 2 15 3 14 4 13 5 11 6 12 7 10 9 9 10 8 11 5 12 6 13
REMARK SMILES IDX 101 14 7 15 100 16 2 17 1 18 3 19 4 20 86 21 87 22 99 23
REMARK SMILES IDX 88 24 98 25 89 26 90 27 91 28 96 29 92 30 95 31 97 32 93 33
REMARK SMILES IDX 94 34 18 35 19 36 20 37 21 38 22 40 23 41 24 42 85 43 25 44
REMARK SMILES IDX 84 45 26 46 27 47 28 48 78 49 29 50 83 51 77 52 79 53 30 54
REMARK SMILES IDX 82 55 76 56 75 57 31 59 63 60 43 61 62 62 44 63 47 64 61 65
REMARK SMILES IDX 80 66 45 67 46 68 60 70 81 71 48 72 32 73 33 74 41 75 34 76
REMARK SMILES IDX 36 77 42 78 35 79 37 80 38 81 39 82 40 83 64 84 65 85 73 86
REMARK SMILES IDX 66 87 68 88 74 89 67 90 69 91 70 92 71 93 72 94 49 95 50 96
REMARK SMILES IDX 58 97 51 98 53 99 59 100 52 101 54 102 55 103 56 104 57 105
REMARK H PARENT 13 8 20 39 79 58 47 69
REMARK Flexibility Score: inf
ROOT
ATOM      1  C   UNL A   1      32.180  27.553  25.343  1.00  0.00     0.002 C 
ENDROOT
BRANCH   1   2
ATOM      2  C   UNL A   1      31.089  27.740  24.282  1.00  0.00     0.002 C 
BRANCH   2   3
ATOM      3  C   UNL A   1      29.947  26.712  24.355  1.00  0.00     0.021 C 
BRANCH   3   4
ATOM      4  C   UNL A   1      30.341  25.342  23.795  1.00  0.00     0.116 C 
BRANCH   4   5
ATOM      5  N   UNL A   1      31.280  25.528  22.712  1.00  0.00    -0.352 N 
ATOM      6  C   UNL A   1      32.435  24.923  22.347  1.00  0.00     0.251 C 
ATOM      7  O   UNL A   1      33.049  25.466  21.423  1.00  0.00    -0.269 OA
ATOM      8  H   UNL A   1      31.022  26.259  22.103  1.00  0.00     0.163 HD
BRANCH   6   9
ATOM      9  C   UNL A   1      32.925  23.612  22.925  1.00  0.00     0.047 C 
ATOM     10  C   UNL A   1      32.144  22.515  23.074  1.00  0.00     0.022 C 
BRANCH  10  11
ATOM     11  C   UNL A   1      32.507  21.133  23.485  1.00  0.00    -0.025 A 
ATOM     12  C   UNL A   1      33.299  18.489  24.047  1.00  0.00     0.067 A 
ATOM     13  C   UNL A   1      33.504  19.495  24.990  1.00  0.00     0.021 A 
ATOM     14  C   UNL A   1      32.640  18.772  22.851  1.00  0.00     0.021 A 
ATOM     15  C   UNL A   1      33.081  20.800  24.717  1.00  0.00     0.009 A 
ATOM     16  C   UNL A   1      32.257  20.091  22.573  1.00  0.00     0.009 A 
BRANCH  12  17
ATOM     17  S   UNL A   1      33.810  16.827  24.412  1.00  0.00     0.175 S 
ATOM     18  C   UNL A   1      32.746  16.336  25.744  1.00  0.00     0.163 C 
ATOM     19  O   UNL A   1      35.167  16.881  24.911  1.00  0.00    -0.224 OA
ATOM     20  O   UNL A   1      33.475  16.006  23.258  1.00  0.00    -0.224 OA
ENDBRANCH  12  17
ENDBRANCH  10  11
BRANCH   9  21
ATOM     21  C   UNL A   1      34.279  23.644  23.525  1.00  0.00    -0.013 A 
ATOM     22  C   UNL A   1      34.402  24.184  24.813  1.00  0.00     0.009 A 
ATOM     23  C   UNL A   1      35.401  23.069  22.922  1.00  0.00     0.009 A 
ATOM     24  C   UNL A   1      35.596  24.077  25.519  1.00  0.00     0.009 A 
ATOM     25  C   UNL A   1      36.592  22.936  23.649  1.00  0.00     0.009 A 
ATOM     26  C   UNL A   1      36.698  23.404  24.973  1.00  0.00    -0.015 A 
BRANCH  26  27
ATOM     27  C   UNL A   1      37.893  23.158  25.803  1.00  0.00     0.018 A 
ATOM     28  C   UNL A   1      38.415  24.190  26.614  1.00  0.00     0.015 A 
ATOM     29  C   UNL A   1      38.556  21.922  25.829  1.00  0.00     0.133 A 
ATOM     30  C   UNL A   1      39.559  23.996  27.389  1.00  0.00     0.040 A 
ATOM     31  C   UNL A   1      39.695  21.716  26.604  1.00  0.00     0.079 A 
ATOM     32  F   UNL A   1      38.111  20.896  25.086  1.00  0.00    -0.206 F 
ATOM     33  C   UNL A   1      40.188  22.759  27.373  1.00  0.00     0.126 A 
ATOM     34  F   UNL A   1      41.289  22.572  28.113  1.00  0.00    -0.207 F 
ENDBRANCH  26  27
ENDBRANCH   9  21
ENDBRANCH   6   9
ENDBRANCH   4   5
ENDBRANCH   3   4
ENDBRANCH   2   3
ENDBRANCH   1   2
BRANCH   1  35
ATOM     35  C   UNL A   1      33.505  28.247  25.017  1.00  0.00     0.021 C 
BRANCH  35  36
ATOM     36  C   UNL A   1      34.204  28.839  26.234  1.00  0.00     0.116 C 
BRANCH  36  37
ATOM     37  N   UNL A   1      33.832  30.231  26.430  1.00  0.00    -0.352 N 
ATOM     38  C   UNL A   1      34.277  31.113  27.380  1.00  0.00     0.251 C 
ATOM     39  H   UNL A   1      33.172  30.588  25.793  1.00  0.00     0.163 HD
ATOM     40  O   UNL A   1      33.677  32.169  27.563  1.00  0.00    -0.269 OA
BRANCH  38  41
ATOM     41  C   UNL A   1      35.478  30.786  28.177  1.00  0.00     0.039 A 
ATOM     42  C   UNL A   1      35.464  29.650  28.987  1.00  0.00     0.014 A 
ATOM     43  C   UNL A   1      36.601  31.620  28.149  1.00  0.00     0.014 A 
ATOM     44  C   UNL A   1      36.585  29.341  29.759  1.00  0.00     0.010 A 
ATOM     45  C   UNL A   1      37.747  31.261  28.848  1.00  0.00     0.010 A 
ATOM     46  C   UNL A   1      37.738  30.139  29.689  1.00  0.00    -0.014 A 
BRANCH  46  47
ATOM     47  C   UNL A   1      38.924  29.844  30.531  1.00  0.00     0.031 A 
ATOM     48  C   UNL A   1      39.057  30.475  31.893  1.00  0.00     0.074 A 
ATOM     49  C   UNL A   1      39.903  29.051  30.054  1.00  0.00     0.049 A 
ATOM     50  N   UNL A   1      40.017  30.345  32.771  1.00  0.00    -0.248 NA
ATOM     51  C   UNL A   1      37.988  31.399  32.310  1.00  0.00     0.031 C 
ATOM     52  C   UNL A   1      39.928  28.447  28.720  1.00  0.00     0.029 A 
ATOM     53  N   UNL A   1      41.075  28.634  30.631  1.00  0.00    -0.354 N 
ATOM     54  C   UNL A   1      39.687  31.195  33.822  1.00  0.00     0.074 A 
ATOM     55  C   UNL A   1      38.465  31.870  33.451  1.00  0.00     0.031 C 
ATOM     56  C   UNL A   1      41.051  27.726  28.586  1.00  0.00     0.029 A 
ATOM     57  C   UNL A   1      41.837  27.837  29.812  1.00  0.00     0.049 A 
ATOM     58  H   UNL A   1      41.343  28.880  31.545  1.00  0.00     0.167 HD
ATOM     59  C   UNL A   1      40.326  31.375  35.003  1.00  0.00     0.034 A 
ATOM     60  C   UNL A   1      43.037  27.259  30.025  1.00  0.00     0.034 A 
ATOM     61  C   UNL A   1      41.521  30.671  35.382  1.00  0.00     0.049 A 
ATOM     62  C   UNL A   1      43.697  27.427  31.365  1.00  0.00     0.074 A 
ATOM     63  C   UNL A   1      42.202  30.715  36.585  1.00  0.00     0.029 A 
ATOM     64  N   UNL A   1      42.219  29.801  34.558  1.00  0.00    -0.354 N 
ATOM     65  N   UNL A   1      43.293  28.115  32.405  1.00  0.00    -0.248 NA
ATOM     66  C   UNL A   1      44.956  26.700  31.579  1.00  0.00     0.031 C 
ATOM     67  C   UNL A   1      43.330  29.896  36.476  1.00  0.00     0.029 A 
ATOM     68  C   UNL A   1      43.327  29.305  35.223  1.00  0.00     0.049 A 
ATOM     69  H   UNL A   1      41.965  29.570  33.635  1.00  0.00     0.167 HD
ATOM     70  C   UNL A   1      44.221  27.869  33.411  1.00  0.00     0.074 A 
ATOM     71  C   UNL A   1      45.199  26.953  32.858  1.00  0.00     0.031 C 
ATOM     72  C   UNL A   1      44.265  28.358  34.675  1.00  0.00     0.034 A 
BRANCH  59  73
ATOM     73  C   UNL A   1      39.717  32.345  35.983  1.00  0.00     0.023 A 
ATOM     74  C   UNL A   1      38.754  31.896  36.911  1.00  0.00     0.012 A 
ATOM     75  C   UNL A   1      40.122  33.694  36.011  1.00  0.00     0.148 A 
ATOM     76  C   UNL A   1      38.168  32.782  37.816  1.00  0.00     0.002 A 
ATOM     77  C   UNL A   1      39.573  34.558  36.951  1.00  0.00     0.091 A 
ATOM     78  F   UNL A   1      41.023  34.111  35.109  1.00  0.00    -0.205 F 
ATOM     79  C   UNL A   1      38.586  34.109  37.843  1.00  0.00     0.022 A 
BRANCH  77  80
ATOM     80  S   UNL A   1      40.107  36.265  37.123  1.00  0.00     0.127 S 
ATOM     81  O   UNL A   1      41.535  36.102  37.393  1.00  0.00    -0.237 OA
ATOM     82  O   UNL A   1      39.796  36.818  35.804  1.00  0.00    -0.237 OA
ATOM     83  O   UNL A   1      39.323  36.823  38.216  1.00  0.00    -0.744 OA
ENDBRANCH  77  80
ENDBRANCH  59  73
BRANCH  60  84
ATOM     84  C   UNL A   1      43.647  26.406  28.967  1.00  0.00     0.023 A 
ATOM     85  C   UNL A   1      43.419  25.016  28.975  1.00  0.00     0.012 A 
ATOM     86  C   UNL A   1      44.427  26.970  27.938  1.00  0.00     0.148 A 
ATOM     87  C   UNL A   1      43.985  24.198  27.998  1.00  0.00     0.002 A 
ATOM     88  C   UNL A   1      44.940  26.156  26.935  1.00  0.00     0.091 A 
ATOM     89  F   UNL A   1      44.634  28.293  27.952  1.00  0.00    -0.205 F 
ATOM     90  C   UNL A   1      44.737  24.767  26.974  1.00  0.00     0.022 A 
BRANCH  88  91
ATOM     91  S   UNL A   1      45.806  26.815  25.507  1.00  0.00     0.127 S 
ATOM     92  O   UNL A   1      45.968  25.623  24.679  1.00  0.00    -0.237 OA
ATOM     93  O   UNL A   1      44.843  27.794  24.999  1.00  0.00    -0.237 OA
ATOM     94  O   UNL A   1      47.038  27.396  26.024  1.00  0.00    -0.744 OA
ENDBRANCH  88  91
ENDBRANCH  60  84
BRANCH  72  95
ATOM     95  C   UNL A   1      45.371  27.869  35.573  1.00  0.00     0.023 A 
ATOM     96  C   UNL A   1      46.587  28.577  35.655  1.00  0.00     0.012 A 
ATOM     97  C   UNL A   1      45.182  26.729  36.378  1.00  0.00     0.148 A 
ATOM     98  C   UNL A   1      47.614  28.128  36.486  1.00  0.00     0.002 A 
ATOM     99  C   UNL A   1      46.186  26.319  37.246  1.00  0.00     0.091 A 
ATOM    100  F   UNL A   1      44.026  26.056  36.273  1.00  0.00    -0.205 F 
ATOM    101  C   UNL A   1      47.409  27.008  37.289  1.00  0.00     0.022 A 
BRANCH  99 102
ATOM    102  S   UNL A   1      45.967  24.951  38.388  1.00  0.00     0.127 S 
ATOM    103  O   UNL A   1      47.329  24.752  38.879  1.00  0.00    -0.237 OA
ATOM    104  O   UNL A   1      45.040  25.512  39.370  1.00  0.00    -0.237 OA
ATOM    105  O   UNL A   1      45.417  23.857  37.599  1.00  0.00    -0.744 OA
ENDBRANCH  99 102
ENDBRANCH  72  95
ENDBRANCH  46  47
ENDBRANCH  38  41
ENDBRANCH  36  37
ENDBRANCH  35  36
ENDBRANCH   1  35
TORSDOF 20
ENDMDL
MODEL 2
REMARK VINA RESULT:     -13.0      1.827      2.217
REMARK SMILES CS(=O)(=O)c1ccc(/C=C(/C(=O)NCCCCCCNC(=O)c2ccc(-c3c4nc(c(-c5cccc(S(=O)(=O)[O-])c5F)c5ccc([nH]5)c(-c5cccc(S(=O)(=O)[O-])c5F)c5nc(c(-c6cccc(S(=O)(=O)[O-])c6F)c6ccc3[nH]6)C=C5)C=C4)cc2)c2ccc(-c3ccc(F)cc3F)cc2)cc1
REMARK SMILES IDX 17 1 16 2 15 3 14 4 13 5 11 6 12 7 10 9 9 10 8 11 5 12 6 13
REMARK SMILES IDX 101 14 7 15 100 16 2 17 1 18 3 19 4 20 86 21 87 22 99 23
REMARK SMILES IDX 88 24 98 25 89 26 90 27 91 28 96 29 92 30 95 31 97 32 93 33
REMARK SMILES IDX 94 34 18 35 19 36 20 37 21 38 22 40 23 41 24 42 85 43 25 44
REMARK SMILES IDX 84 45 26 46 27 47 28 48 78 49 29 50 83 51 77 52 79 53 30 54
REMARK SMILES IDX 82 55 76 56 75 57 31 59 63 60 43 61 62 62 44 63 47 64 61 65
REMARK SMILES IDX 80 66 45 67 46 68 60 70 81 71 48 72 32 73 33 74 41 75 34 76
REMARK SMILES IDX 36 77 42 78 35 79 37 80 38 81 39 82 40 83 64 84 65 85 73 86
REMARK SMILES IDX 66 87 68 88 74 89 67 90 69 91 70 92 71 93 72 94 49 95 50 96
REMARK SMILES IDX 58 97 51 98 53 99 59 100 52 101 54 102 55 103 56 104 57 105
REMARK H PARENT 13 8 20 39 79 58 47 69
REMARK Flexibility Score: inf
ROOT
ATOM      1  C   UNL A   1      32.305  27.308  26.353  1.00  0.00     0.002 C 
ENDROOT
BRANCH   1   2
ATOM      2  C   UNL A   1      31.411  26.073  26.191  1.00  0.00     0.002 C 
BRANCH   2   3
ATOM      3  C   UNL A   1      30.265  26.244  25.180  1.00  0.00     0.021 C 
BRANCH   3   4
ATOM      4  C   UNL A   1      30.186  25.097  24.168  1.00  0.00     0.116 C 
BRANCH   4   5
ATOM      5  N   UNL A   1      31.071  25.383  23.061  1.00  0.00    -0.352 N 
ATOM      6  C   UNL A   1      32.236  24.854  22.621  1.00  0.00     0.251 C 
ATOM      7  O   UNL A   1      32.787  25.472  21.704  1.00  0.00    -0.269 OA
ATOM      8  H   UNL A   1      30.754  26.130  22.503  1.00  0.00     0.163 HD
BRANCH   6   9
ATOM      9  C   UNL A   1      32.809  23.540  23.109  1.00  0.00     0.047 C 
ATOM     10  C   UNL A   1      32.091  22.396  23.213  1.00  0.00     0.022 C 
BRANCH  10  11
ATOM     11  C   UNL A   1      32.536  21.015  23.535  1.00  0.00    -0.025 A 
ATOM     12  C   UNL A   1      33.443  18.375  23.910  1.00  0.00     0.067 A 
ATOM     13  C   UNL A   1      33.809  19.373  24.811  1.00  0.00     0.021 A 
ATOM     14  C   UNL A   1      32.574  18.662  22.858  1.00  0.00     0.021 A 
ATOM     15  C   UNL A   1      33.330  20.676  24.636  1.00  0.00     0.009 A 
ATOM     16  C   UNL A   1      32.134  19.979  22.670  1.00  0.00     0.009 A 
BRANCH  12  17
ATOM     17  S   UNL A   1      34.029  16.715  24.154  1.00  0.00     0.175 S 
ATOM     18  C   UNL A   1      32.731  15.937  25.079  1.00  0.00     0.163 C 
ATOM     19  O   UNL A   1      35.207  16.780  24.992  1.00  0.00    -0.224 OA
ATOM     20  O   UNL A   1      34.080  16.075  22.849  1.00  0.00    -0.224 OA
ENDBRANCH  12  17
ENDBRANCH  10  11
BRANCH   9  21
ATOM     21  C   UNL A   1      34.176  23.611  23.677  1.00  0.00    -0.013 A 
ATOM     22  C   UNL A   1      34.305  24.065  24.997  1.00  0.00     0.009 A 
ATOM     23  C   UNL A   1      35.311  23.147  23.007  1.00  0.00     0.009 A 
ATOM     24  C   UNL A   1      35.523  23.980  25.663  1.00  0.00     0.009 A 
ATOM     25  C   UNL A   1      36.529  23.034  23.693  1.00  0.00     0.009 A 
ATOM     26  C   UNL A   1      36.646  23.414  25.044  1.00  0.00    -0.015 A 
BRANCH  26  27
ATOM     27  C   UNL A   1      37.876  23.182  25.825  1.00  0.00     0.018 A 
ATOM     28  C   UNL A   1      38.454  24.238  26.563  1.00  0.00     0.015 A 
ATOM     29  C   UNL A   1      38.518  21.936  25.873  1.00  0.00     0.133 A 
ATOM     30  C   UNL A   1      39.631  24.056  27.290  1.00  0.00     0.040 A 
ATOM     31  C   UNL A   1      39.691  21.742  26.600  1.00  0.00     0.079 A 
ATOM     32  F   UNL A   1      38.021  20.887  25.198  1.00  0.00    -0.206 F 
ATOM     33  C   UNL A   1      40.239  22.808  27.297  1.00  0.00     0.126 A 
ATOM     34  F   UNL A   1      41.372  22.633  27.990  1.00  0.00    -0.207 F 
ENDBRANCH  26  27
ENDBRANCH   9  21
ENDBRANCH   6   9
ENDBRANCH   4   5
ENDBRANCH   3   4
ENDBRANCH   2   3
ENDBRANCH   1   2
BRANCH   1  35
ATOM     35  C   UNL A   1      33.057  27.715  25.084  1.00  0.00     0.021 C 
BRANCH  35  36
ATOM     36  C   UNL A   1      34.003  28.892  25.282  1.00  0.00     0.116 C 
BRANCH  36  37
ATOM     37  N   UNL A   1      33.290  30.070  25.748  1.00  0.00    -0.352 N 
ATOM     38  C   UNL A   1      33.519  30.826  26.869  1.00  0.00     0.251 C 
ATOM     39  H   UNL A   1      32.540  30.365  25.182  1.00  0.00     0.163 HD
ATOM     40  O   UNL A   1      32.672  31.629  27.249  1.00  0.00    -0.269 OA
BRANCH  38  41
ATOM     41  C   UNL A   1      34.786  30.667  27.612  1.00  0.00     0.039 A 
ATOM     42  C   UNL A   1      35.656  31.754  27.708  1.00  0.00     0.014 A 
ATOM     43  C   UNL A   1      35.128  29.436  28.184  1.00  0.00     0.014 A 
ATOM     44  C   UNL A   1      36.864  31.610  28.392  1.00  0.00     0.010 A 
ATOM     45  C   UNL A   1      36.288  29.322  28.940  1.00  0.00     0.010 A 
ATOM     46  C   UNL A   1      37.186  30.396  29.020  1.00  0.00    -0.014 A 
BRANCH  46  47
ATOM     47  C   UNL A   1      38.483  30.218  29.719  1.00  0.00     0.031 A 
ATOM     48  C   UNL A   1      38.669  30.762  31.112  1.00  0.00     0.074 A 
ATOM     49  C   UNL A   1      39.508  29.615  29.086  1.00  0.00     0.049 A 
ATOM     50  N   UNL A   1      39.723  30.711  31.883  1.00  0.00    -0.248 NA
ATOM     51  C   UNL A   1      37.530  31.485  31.706  1.00  0.00     0.031 C 
ATOM     52  C   UNL A   1      39.477  29.120  27.708  1.00  0.00     0.029 A 
ATOM     53  N   UNL A   1      40.780  29.334  29.513  1.00  0.00    -0.354 N 
ATOM     54  C   UNL A   1      39.390  31.425  33.029  1.00  0.00     0.074 A 
ATOM     55  C   UNL A   1      38.053  31.937  32.834  1.00  0.00     0.031 C 
ATOM     56  C   UNL A   1      40.670  28.583  27.409  1.00  0.00     0.029 A 
ATOM     57  C   UNL A   1      41.557  28.720  28.561  1.00  0.00     0.049 A 
ATOM     58  H   UNL A   1      41.105  29.550  30.416  1.00  0.00     0.167 HD
ATOM     59  C   UNL A   1      40.117  31.611  34.157  1.00  0.00     0.034 A 
ATOM     60  C   UNL A   1      42.840  28.311  28.610  1.00  0.00     0.034 A 
ATOM     61  C   UNL A   1      41.432  31.065  34.361  1.00  0.00     0.049 A 
ATOM     62  C   UNL A   1      43.607  28.478  29.893  1.00  0.00     0.074 A 
ATOM     63  C   UNL A   1      42.222  31.122  35.494  1.00  0.00     0.029 A 
ATOM     64  N   UNL A   1      42.154  30.370  33.403  1.00  0.00    -0.354 N 
ATOM     65  N   UNL A   1      43.222  29.021  31.022  1.00  0.00    -0.248 NA
ATOM     66  C   UNL A   1      44.971  27.930  29.925  1.00  0.00     0.031 C 
ATOM     67  C   UNL A   1      43.436  30.488  35.211  1.00  0.00     0.029 A 
ATOM     68  C   UNL A   1      43.384  29.996  33.917  1.00  0.00     0.049 A 
ATOM     69  H   UNL A   1      41.840  30.171  32.492  1.00  0.00     0.167 HD
ATOM     70  C   UNL A   1      44.275  28.842  31.911  1.00  0.00     0.074 A 
ATOM     71  C   UNL A   1      45.308  28.123  31.193  1.00  0.00     0.031 C 
ATOM     72  C   UNL A   1      44.383  29.239  33.204  1.00  0.00     0.034 A 
BRANCH  59  73
ATOM     73  C   UNL A   1      39.485  32.407  35.270  1.00  0.00     0.023 A 
ATOM     74  C   UNL A   1      39.548  33.817  35.250  1.00  0.00     0.012 A 
ATOM     75  C   UNL A   1      38.798  31.765  36.319  1.00  0.00     0.148 A 
ATOM     76  C   UNL A   1      38.983  34.570  36.279  1.00  0.00     0.002 A 
ATOM     77  C   UNL A   1      38.191  32.525  37.311  1.00  0.00     0.091 A 
ATOM     78  F   UNL A   1      38.764  30.424  36.335  1.00  0.00    -0.205 F 
ATOM     79  C   UNL A   1      38.296  33.925  37.302  1.00  0.00     0.022 A 
BRANCH  77  80
ATOM     80  S   UNL A   1      37.209  31.792  38.626  1.00  0.00     0.127 S 
ATOM     81  O   UNL A   1      36.011  32.630  38.601  1.00  0.00    -0.237 OA
ATOM     82  O   UNL A   1      37.008  30.428  38.134  1.00  0.00    -0.237 OA
ATOM     83  O   UNL A   1      38.017  31.890  39.833  1.00  0.00    -0.744 OA
ENDBRANCH  77  80
ENDBRANCH  59  73
BRANCH  60  84
ATOM     84  C   UNL A   1      43.450  27.637  27.430  1.00  0.00     0.023 A 
ATOM     85  C   UNL A   1      44.194  28.394  26.503  1.00  0.00     0.012 A 
ATOM     86  C   UNL A   1      43.322  26.248  27.239  1.00  0.00     0.148 A 
ATOM     87  C   UNL A   1      44.769  27.785  25.388  1.00  0.00     0.002 A 
ATOM     88  C   UNL A   1      43.945  25.639  26.156  1.00  0.00     0.091 A 
ATOM     89  F   UNL A   1      42.607  25.548  28.130  1.00  0.00    -0.205 F 
ATOM     90  C   UNL A   1      44.653  26.408  25.219  1.00  0.00     0.022 A 
BRANCH  88  91
ATOM     91  S   UNL A   1      43.963  23.857  25.931  1.00  0.00     0.127 S 
ATOM     92  O   UNL A   1      45.095  23.682  25.025  1.00  0.00    -0.237 OA
ATOM     93  O   UNL A   1      44.187  23.385  27.298  1.00  0.00    -0.237 OA
ATOM     94  O   UNL A   1      42.657  23.514  25.383  1.00  0.00    -0.744 OA
ENDBRANCH  88  91
ENDBRANCH  60  84
BRANCH  72  95
ATOM     95  C   UNL A   1      45.634  28.855  33.950  1.00  0.00     0.023 A 
ATOM     96  C   UNL A   1      46.747  29.719  33.965  1.00  0.00     0.012 A 
ATOM     97  C   UNL A   1      45.684  27.652  34.681  1.00  0.00     0.148 A 
ATOM     98  C   UNL A   1      47.908  29.367  34.654  1.00  0.00     0.002 A 
ATOM     99  C   UNL A   1      46.822  27.334  35.413  1.00  0.00     0.091 A 
ATOM    100  F   UNL A   1      44.623  26.833  34.640  1.00  0.00    -0.205 F 
ATOM    101  C   UNL A   1      47.940  28.183  35.387  1.00  0.00     0.022 A 
BRANCH  99 102
ATOM    102  S   UNL A   1      46.909  25.882  36.465  1.00  0.00     0.127 S 
ATOM    103  O   UNL A   1      47.581  24.921  35.591  1.00  0.00    -0.237 OA
ATOM    104  O   UNL A   1      47.720  26.358  37.585  1.00  0.00    -0.237 OA
ATOM    105  O   UNL A   1      45.533  25.558  36.813  1.00  0.00    -0.744 OA
ENDBRANCH  99 102
ENDBRANCH  72  95
ENDBRANCH  46  47
ENDBRANCH  38  41
ENDBRANCH  36  37
ENDBRANCH  35  36
ENDBRANCH   1  35
TORSDOF 20
ENDMDL
MODEL 3
REMARK VINA RESULT:     -10.7      4.852      9.909
REMARK SMILES CS(=O)(=O)c1ccc(/C=C(/C(=O)NCCCCCCNC(=O)c2ccc(-c3c4nc(c(-c5cccc(S(=O)(=O)[O-])c5F)c5ccc([nH]5)c(-c5cccc(S(=O)(=O)[O-])c5F)c5nc(c(-c6cccc(S(=O)(=O)[O-])c6F)c6ccc3[nH]6)C=C5)C=C4)cc2)c2ccc(-c3ccc(F)cc3F)cc2)cc1
REMARK SMILES IDX 17 1 16 2 15 3 14 4 13 5 11 6 12 7 10 9 9 10 8 11 5 12 6 13
REMARK SMILES IDX 101 14 7 15 100 16 2 17 1 18 3 19 4 20 86 21 87 22 99 23
REMARK SMILES IDX 88 24 98 25 89 26 90 27 91 28 96 29 92 30 95 31 97 32 93 33
REMARK SMILES IDX 94 34 18 35 19 36 20 37 21 38 22 40 23 41 24 42 85 43 25 44
REMARK SMILES IDX 84 45 26 46 27 47 28 48 78 49 29 50 83 51 77 52 79 53 30 54
REMARK SMILES IDX 82 55 76 56 75 57 31 59 63 60 43 61 62 62 44 63 47 64 61 65
REMARK SMILES IDX 80 66 45 67 46 68 60 70 81 71 48 72 32 73 33 74 41 75 34 76
REMARK SMILES IDX 36 77 42 78 35 79 37 80 38 81 39 82 40 83 64 84 65 85 73 86
REMARK SMILES IDX 66 87 68 88 74 89 67 90 69 91 70 92 71 93 72 94 49 95 50 96
REMARK SMILES IDX 58 97 51 98 53 99 59 100 52 101 54 102 55 103 56 104 57 105
REMARK H PARENT 13 8 20 39 79 58 47 69
REMARK Flexibility Score: inf
ROOT
ATOM      1  C   UNL A   1      35.557  34.253  28.923  1.00  0.00     0.002 C 
ENDROOT
BRANCH   1   2
ATOM      2  C   UNL A   1      36.469  33.402  29.815  1.00  0.00     0.002 C 
BRANCH   2   3
ATOM      3  C   UNL A   1      37.872  33.152  29.237  1.00  0.00     0.021 C 
BRANCH   3   4
ATOM      4  C   UNL A   1      38.707  34.431  29.125  1.00  0.00     0.116 C 
BRANCH   4   5
ATOM      5  N   UNL A   1      39.337  34.694  30.400  1.00  0.00    -0.352 N 
ATOM      6  C   UNL A   1      40.593  34.542  30.884  1.00  0.00     0.251 C 
ATOM      7  O   UNL A   1      40.722  34.745  32.096  1.00  0.00    -0.269 OA
ATOM      8  H   UNL A   1      38.713  35.069  31.064  1.00  0.00     0.163 HD
BRANCH   6   9
ATOM      9  C   UNL A   1      41.804  34.253  30.023  1.00  0.00     0.047 C 
ATOM     10  C   UNL A   1      42.526  33.109  30.096  1.00  0.00     0.022 C 
BRANCH  10  11
ATOM     11  C   UNL A   1      43.636  32.624  29.235  1.00  0.00    -0.025 A 
ATOM     12  C   UNL A   1      45.656  31.479  27.640  1.00  0.00     0.067 A 
ATOM     13  C   UNL A   1      44.964  32.603  27.191  1.00  0.00     0.021 A 
ATOM     14  C   UNL A   1      45.400  30.958  28.908  1.00  0.00     0.021 A 
ATOM     15  C   UNL A   1      43.984  33.185  28.001  1.00  0.00     0.009 A 
ATOM     16  C   UNL A   1      44.387  31.525  29.693  1.00  0.00     0.009 A 
BRANCH  12  17
ATOM     17  S   UNL A   1      46.923  30.763  26.620  1.00  0.00     0.175 S 
ATOM     18  C   UNL A   1      47.467  29.351  27.545  1.00  0.00     0.163 C 
ATOM     19  O   UNL A   1      48.017  31.706  26.545  1.00  0.00    -0.224 OA
ATOM     20  O   UNL A   1      46.280  30.272  25.410  1.00  0.00    -0.224 OA
ENDBRANCH  12  17
ENDBRANCH  10  11
BRANCH   9  21
ATOM     21  C   UNL A   1      42.301  35.393  29.217  1.00  0.00    -0.013 A 
ATOM     22  C   UNL A   1      41.752  35.568  27.938  1.00  0.00     0.009 A 
ATOM     23  C   UNL A   1      43.193  36.351  29.707  1.00  0.00     0.009 A 
ATOM     24  C   UNL A   1      42.021  36.714  27.199  1.00  0.00     0.009 A 
ATOM     25  C   UNL A   1      43.436  37.519  28.971  1.00  0.00     0.009 A 
ATOM     26  C   UNL A   1      42.825  37.738  27.721  1.00  0.00    -0.015 A 
BRANCH  26  27
ATOM     27  C   UNL A   1      42.958  39.012  26.990  1.00  0.00     0.018 A 
ATOM     28  C   UNL A   1      41.807  39.759  26.656  1.00  0.00     0.015 A 
ATOM     29  C   UNL A   1      44.200  39.533  26.598  1.00  0.00     0.133 A 
ATOM     30  C   UNL A   1      41.900  40.955  25.942  1.00  0.00     0.040 A 
ATOM     31  C   UNL A   1      44.304  40.728  25.890  1.00  0.00     0.079 A 
ATOM     32  F   UNL A   1      45.335  38.877  26.887  1.00  0.00    -0.206 F 
ATOM     33  C   UNL A   1      43.150  41.425  25.564  1.00  0.00     0.126 A 
ATOM     34  F   UNL A   1      43.241  42.569  24.874  1.00  0.00    -0.207 F 
ENDBRANCH  26  27
ENDBRANCH   9  21
ENDBRANCH   6   9
ENDBRANCH   4   5
ENDBRANCH   3   4
ENDBRANCH   2   3
ENDBRANCH   1   2
BRANCH   1  35
ATOM     35  C   UNL A   1      34.248  33.570  28.521  1.00  0.00     0.021 C 
BRANCH  35  36
ATOM     36  C   UNL A   1      34.100  32.156  29.068  1.00  0.00     0.116 C 
BRANCH  36  37
ATOM     37  N   UNL A   1      33.752  31.216  28.015  1.00  0.00    -0.352 N 
ATOM     38  C   UNL A   1      34.540  30.270  27.413  1.00  0.00     0.251 C 
ATOM     39  H   UNL A   1      32.824  31.267  27.690  1.00  0.00     0.163 HD
ATOM     40  O   UNL A   1      34.169  29.736  26.372  1.00  0.00    -0.269 OA
BRANCH  38  41
ATOM     41  C   UNL A   1      35.833  29.899  28.024  1.00  0.00     0.039 A 
ATOM     42  C   UNL A   1      37.003  30.046  27.277  1.00  0.00     0.014 A 
ATOM     43  C   UNL A   1      35.885  29.375  29.321  1.00  0.00     0.014 A 
ATOM     44  C   UNL A   1      38.228  29.682  27.837  1.00  0.00     0.010 A 
ATOM     45  C   UNL A   1      37.114  29.099  29.907  1.00  0.00     0.010 A 
ATOM     46  C   UNL A   1      38.295  29.213  29.159  1.00  0.00    -0.014 A 
BRANCH  46  47
ATOM     47  C   UNL A   1      39.586  28.788  29.755  1.00  0.00     0.031 A 
ATOM     48  C   UNL A   1      40.199  29.589  30.874  1.00  0.00     0.074 A 
ATOM     49  C   UNL A   1      40.231  27.716  29.259  1.00  0.00     0.049 A 
ATOM     50  N   UNL A   1      41.317  29.383  31.519  1.00  0.00    -0.248 NA
ATOM     51  C   UNL A   1      39.476  30.799  31.306  1.00  0.00     0.031 C 
ATOM     52  C   UNL A   1      39.780  26.907  28.123  1.00  0.00     0.029 A 
ATOM     53  N   UNL A   1      41.414  27.133  29.633  1.00  0.00    -0.354 N 
ATOM     54  C   UNL A   1      41.451  30.451  32.399  1.00  0.00     0.074 A 
ATOM     55  C   UNL A   1      40.324  31.327  32.174  1.00  0.00     0.031 C 
ATOM     56  C   UNL A   1      40.668  25.926  27.904  1.00  0.00     0.029 A 
ATOM     57  C   UNL A   1      41.763  26.050  28.862  1.00  0.00     0.049 A 
ATOM     58  H   UNL A   1      41.961  27.458  30.384  1.00  0.00     0.167 HD
ATOM     59  C   UNL A   1      42.406  30.670  33.334  1.00  0.00     0.034 A 
ATOM     60  C   UNL A   1      42.843  25.247  28.922  1.00  0.00     0.034 A 
ATOM     61  C   UNL A   1      43.504  29.774  33.580  1.00  0.00     0.049 A 
ATOM     62  C   UNL A   1      43.861  25.475  30.005  1.00  0.00     0.074 A 
ATOM     63  C   UNL A   1      44.480  29.856  34.556  1.00  0.00     0.029 A 
ATOM     64  N   UNL A   1      43.776  28.637  32.836  1.00  0.00    -0.354 N 
ATOM     65  N   UNL A   1      43.890  26.404  30.929  1.00  0.00    -0.248 NA
ATOM     66  C   UNL A   1      44.970  24.514  30.085  1.00  0.00     0.031 C 
ATOM     67  C   UNL A   1      45.362  28.784  34.381  1.00  0.00     0.029 A 
ATOM     68  C   UNL A   1      44.908  28.009  33.326  1.00  0.00     0.049 A 
ATOM     69  H   UNL A   1      43.244  28.321  32.070  1.00  0.00     0.167 HD
ATOM     70  C   UNL A   1      44.991  26.116  31.727  1.00  0.00     0.074 A 
ATOM     71  C   UNL A   1      45.592  24.913  31.186  1.00  0.00     0.031 C 
ATOM     72  C   UNL A   1      45.467  26.786  32.806  1.00  0.00     0.034 A 
BRANCH  59  73
ATOM     73  C   UNL A   1      42.280  31.908  34.184  1.00  0.00     0.023 A 
ATOM     74  C   UNL A   1      43.007  33.070  33.847  1.00  0.00     0.012 A 
ATOM     75  C   UNL A   1      41.417  31.937  35.297  1.00  0.00     0.148 A 
ATOM     76  C   UNL A   1      42.915  34.221  34.629  1.00  0.00     0.002 A 
ATOM     77  C   UNL A   1      41.290  33.104  36.040  1.00  0.00     0.091 A 
ATOM     78  F   UNL A   1      40.749  30.818  35.617  1.00  0.00    -0.205 F 
ATOM     79  C   UNL A   1      42.049  34.241  35.719  1.00  0.00     0.022 A 
BRANCH  77  80
ATOM     80  S   UNL A   1      40.137  33.258  37.409  1.00  0.00     0.127 S 
ATOM     81  O   UNL A   1      40.752  32.388  38.411  1.00  0.00    -0.237 OA
ATOM     82  O   UNL A   1      40.213  34.687  37.715  1.00  0.00    -0.237 OA
ATOM     83  O   UNL A   1      38.847  32.813  36.901  1.00  0.00    -0.744 OA
ENDBRANCH  77  80
ENDBRANCH  59  73
BRANCH  60  84
ATOM     84  C   UNL A   1      42.973  24.107  27.971  1.00  0.00     0.023 A 
ATOM     85  C   UNL A   1      42.100  23.006  28.081  1.00  0.00     0.012 A 
ATOM     86  C   UNL A   1      43.935  24.122  26.943  1.00  0.00     0.148 A 
ATOM     87  C   UNL A   1      42.206  21.926  27.205  1.00  0.00     0.002 A 
ATOM     88  C   UNL A   1      43.998  23.069  26.039  1.00  0.00     0.091 A 
ATOM     89  F   UNL A   1      44.757  25.177  26.860  1.00  0.00    -0.205 F 
ATOM     90  C   UNL A   1      43.148  21.960  26.180  1.00  0.00     0.022 A 
BRANCH  88  91
ATOM     91  S   UNL A   1      45.086  23.087  24.611  1.00  0.00     0.127 S 
ATOM     92  O   UNL A   1      45.300  24.519  24.417  1.00  0.00    -0.237 OA
ATOM     93  O   UNL A   1      46.248  22.351  25.110  1.00  0.00    -0.237 OA
ATOM     94  O   UNL A   1      44.355  22.408  23.548  1.00  0.00    -0.744 OA
ENDBRANCH  88  91
ENDBRANCH  60  84
BRANCH  72  95
ATOM     95  C   UNL A   1      46.662  26.205  33.516  1.00  0.00     0.023 A 
ATOM     96  C   UNL A   1      47.952  26.718  33.275  1.00  0.00     0.012 A 
ATOM     97  C   UNL A   1      46.494  25.178  34.466  1.00  0.00     0.148 A 
ATOM     98  C   UNL A   1      49.061  26.182  33.931  1.00  0.00     0.002 A 
ATOM     99  C   UNL A   1      47.595  24.689  35.158  1.00  0.00     0.091 A 
ATOM    100  F   UNL A   1      45.262  24.689  34.669  1.00  0.00    -0.205 F 
ATOM    101  C   UNL A   1      48.881  25.178  34.880  1.00  0.00     0.022 A 
BRANCH  99 102
ATOM    102  S   UNL A   1      47.438  23.471  36.468  1.00  0.00     0.127 S 
ATOM    103  O   UNL A   1      46.571  24.165  37.418  1.00  0.00    -0.237 OA
ATOM    104  O   UNL A   1      46.808  22.348  35.775  1.00  0.00    -0.237 OA
ATOM    105  O   UNL A   1      48.793  23.208  36.932  1.00  0.00    -0.744 OA
ENDBRANCH  99 102
ENDBRANCH  72  95
ENDBRANCH  46  47
ENDBRANCH  38  41
ENDBRANCH  36  37
ENDBRANCH  35  36
ENDBRANCH   1  35
TORSDOF 20
ENDMDL
