MODEL 1
REMARK VINA RESULT:     -12.3      0.000      0.000
REMARK SMILES Nc1ccc(-c2cc(Cl)cc3c2O[C@H](C(F)(F)F)C(C(=O)NCCCCCCNC(=O)c2ccc(-c4c5nc(c(-c6cccc(S(=O)(=O)[O-])c6F)c6ccc([nH]6)c(-c6cccc(S(=O)(=O)[O-])c6F)c6nc(c(-c7cccc(S(=O)(=O)[O-])c7F)c7ccc4[nH]7)C=C6)C=C5)cc2)=C3)cc1
REMARK SMILES IDX 26 1 25 2 24 3 23 4 22 5 20 6 21 7 19 9 6 10 7 11 12 12 8 13
REMARK SMILES IDX 11 14 13 15 9 16 10 17 95 18 14 19 5 20 2 21 3 22 97 23 4 24
REMARK SMILES IDX 96 25 1 26 15 29 16 30 17 31 18 32 27 33 28 34 29 35 30 36
REMARK SMILES IDX 31 38 32 39 33 40 94 41 34 42 93 43 35 44 36 45 37 46 87 47
REMARK SMILES IDX 38 48 92 49 86 50 88 51 39 52 91 53 85 54 84 55 40 57 72 58
REMARK SMILES IDX 52 59 71 60 53 61 56 62 70 63 89 64 54 65 55 66 69 68 90 69
REMARK SMILES IDX 57 70 41 71 42 72 50 73 43 74 45 75 51 76 44 77 46 78 47 79
REMARK SMILES IDX 48 80 49 81 73 82 74 83 82 84 75 85 77 86 83 87 76 88 78 89
REMARK SMILES IDX 79 90 80 91 81 92 58 93 59 94 67 95 60 96 62 97 68 98 61 99
REMARK SMILES IDX 63 100 64 101 65 102 66 103
REMARK H PARENT 22 8 1 27 1 28 29 37 88 56 56 67
REMARK Flexibility Score: inf
ROOT
ATOM      1  C   UNL A   1      34.712  21.749  24.035  1.00  0.00     0.002 C 
ENDROOT
BRANCH   1   2
ATOM      2  C   UNL A   1      34.188  20.833  25.150  1.00  0.00     0.002 C 
BRANCH   2   3
ATOM      3  C   UNL A   1      32.711  20.440  25.046  1.00  0.00     0.021 C 
BRANCH   3   4
ATOM      4  C   UNL A   1      31.771  21.613  24.780  1.00  0.00     0.116 C 
BRANCH   4   5
ATOM      5  N   UNL A   1      30.911  21.887  25.919  1.00  0.00    -0.352 N 
ATOM      6  C   UNL A   1      30.432  22.974  26.568  1.00  0.00     0.251 C 
ATOM      7  O   UNL A   1      29.677  22.730  27.516  1.00  0.00    -0.270 OA
ATOM      8  H   UNL A   1      30.588  21.054  26.333  1.00  0.00     0.163 HD
BRANCH   6   9
ATOM      9  C   UNL A   1      30.741  24.395  26.226  1.00  0.00     0.067 C 
ATOM     10  C   UNL A   1      31.401  28.452  25.275  1.00  0.00     0.026 A 
ATOM     11  C   UNL A   1      30.687  29.020  24.210  1.00  0.00     0.033 A 
ATOM     12  C   UNL A   1      31.123  27.113  25.617  1.00  0.00     0.135 A 
ATOM     13  C   UNL A   1      29.736  28.268  23.517  1.00  0.00     0.042 A 
ATOM     14  C   UNL A   1      30.177  26.355  24.921  1.00  0.00     0.019 A 
ATOM     15  O   UNL A   1      31.766  26.603  26.712  1.00  0.00    -0.475 OA
ATOM     16  Cl  UNL A   1      28.865  28.989  22.217  1.00  0.00    -0.084 Cl
ATOM     17  C   UNL A   1      29.479  26.941  23.863  1.00  0.00     0.032 A 
ATOM     18  C   UNL A   1      29.917  24.979  25.334  1.00  0.00     0.025 C 
ATOM     19  C   UNL A   1      31.903  25.165  26.783  1.00  0.00     0.314 C 
BRANCH  10  20
ATOM     20  C   UNL A   1      32.418  29.225  26.006  1.00  0.00    -0.014 A 
ATOM     21  C   UNL A   1      34.397  30.828  27.248  1.00  0.00     0.031 A 
ATOM     22  C   UNL A   1      33.060  31.221  27.252  1.00  0.00     0.026 A 
ATOM     23  C   UNL A   1      34.727  29.595  26.684  1.00  0.00     0.026 A 
ATOM     24  C   UNL A   1      32.083  30.437  26.632  1.00  0.00     0.011 A 
ATOM     25  C   UNL A   1      33.754  28.805  26.059  1.00  0.00     0.011 A 
BRANCH  21  26
ATOM     26  N   UNL A   1      35.353  31.582  27.907  1.00  0.00    -0.399 N 
ATOM     27  H   UNL A   1      36.149  31.144  28.287  1.00  0.00     0.156 HD
ATOM     28  H   UNL A   1      35.238  32.556  27.997  1.00  0.00     0.156 HD
ENDBRANCH  21  26
ENDBRANCH  10  20
BRANCH  19  29
ATOM     29  C   UNL A   1      33.249  24.748  26.162  1.00  0.00     0.429 C 
ATOM     30  F   UNL A   1      34.175  25.726  26.318  1.00  0.00    -0.167 F 
ATOM     31  F   UNL A   1      33.763  23.637  26.740  1.00  0.00    -0.167 F 
ATOM     32  F   UNL A   1      33.150  24.492  24.838  1.00  0.00    -0.167 F 
ENDBRANCH  19  29
ENDBRANCH   6   9
ENDBRANCH   4   5
ENDBRANCH   3   4
ENDBRANCH   2   3
ENDBRANCH   1   2
BRANCH   1  33
ATOM     33  C   UNL A   1      35.981  22.539  24.364  1.00  0.00     0.021 C 
BRANCH  33  34
ATOM     34  C   UNL A   1      36.539  22.308  25.764  1.00  0.00     0.116 C 
BRANCH  34  35
ATOM     35  N   UNL A   1      37.558  21.271  25.794  1.00  0.00    -0.352 N 
ATOM     36  C   UNL A   1      38.892  21.377  26.110  1.00  0.00     0.251 C 
ATOM     37  H   UNL A   1      37.249  20.367  25.557  1.00  0.00     0.163 HD
ATOM     38  O   UNL A   1      39.641  20.421  25.935  1.00  0.00    -0.269 OA
BRANCH  36  39
ATOM     39  C   UNL A   1      39.419  22.659  26.628  1.00  0.00     0.039 A 
ATOM     40  C   UNL A   1      38.930  23.874  26.143  1.00  0.00     0.014 A 
ATOM     41  C   UNL A   1      40.435  22.640  27.586  1.00  0.00     0.014 A 
ATOM     42  C   UNL A   1      39.562  25.060  26.499  1.00  0.00     0.010 A 
ATOM     43  C   UNL A   1      41.019  23.840  27.999  1.00  0.00     0.010 A 
ATOM     44  C   UNL A   1      40.620  25.057  27.423  1.00  0.00    -0.014 A 
BRANCH  44  45
ATOM     45  C   UNL A   1      41.289  26.335  27.771  1.00  0.00     0.031 A 
ATOM     46  C   UNL A   1      42.639  26.683  27.207  1.00  0.00     0.074 A 
ATOM     47  C   UNL A   1      40.649  27.213  28.568  1.00  0.00     0.049 A 
ATOM     48  N   UNL A   1      43.349  27.767  27.385  1.00  0.00    -0.248 NA
ATOM     49  C   UNL A   1      43.279  25.688  26.330  1.00  0.00     0.031 C 
ATOM     50  C   UNL A   1      39.344  26.984  29.191  1.00  0.00     0.029 A 
ATOM     51  N   UNL A   1      40.998  28.475  28.977  1.00  0.00    -0.354 N 
ATOM     52  C   UNL A   1      44.526  27.576  26.672  1.00  0.00     0.074 A 
ATOM     53  C   UNL A   1      44.444  26.265  26.066  1.00  0.00     0.031 C 
ATOM     54  C   UNL A   1      38.982  28.084  29.865  1.00  0.00     0.029 A 
ATOM     55  C   UNL A   1      40.047  29.077  29.765  1.00  0.00     0.049 A 
ATOM     56  H   UNL A   1      41.847  28.907  28.730  1.00  0.00     0.167 HD
ATOM     57  C   UNL A   1      45.569  28.425  26.515  1.00  0.00     0.034 A 
ATOM     58  C   UNL A   1      40.029  30.292  30.347  1.00  0.00     0.034 A 
ATOM     59  C   UNL A   1      45.634  29.744  27.082  1.00  0.00     0.049 A 
ATOM     60  C   UNL A   1      41.191  31.220  30.151  1.00  0.00     0.074 A 
ATOM     61  C   UNL A   1      46.646  30.680  26.961  1.00  0.00     0.029 A 
ATOM     62  N   UNL A   1      44.648  30.318  27.867  1.00  0.00    -0.354 N 
ATOM     63  N   UNL A   1      42.270  31.038  29.430  1.00  0.00    -0.248 NA
ATOM     64  C   UNL A   1      41.133  32.519  30.835  1.00  0.00     0.031 C 
ATOM     65  C   UNL A   1      46.267  31.826  27.670  1.00  0.00     0.029 A 
ATOM     66  C   UNL A   1      45.020  31.601  28.230  1.00  0.00     0.049 A 
ATOM     67  H   UNL A   1      43.806  29.879  28.128  1.00  0.00     0.167 HD
ATOM     68  C   UNL A   1      43.020  32.199  29.569  1.00  0.00     0.074 A 
ATOM     69  C   UNL A   1      42.259  33.089  30.424  1.00  0.00     0.031 C 
ATOM     70  C   UNL A   1      44.237  32.489  29.050  1.00  0.00     0.034 A 
BRANCH  57  71
ATOM     71  C   UNL A   1      46.705  27.977  25.638  1.00  0.00     0.023 A 
ATOM     72  C   UNL A   1      46.614  28.180  24.246  1.00  0.00     0.012 A 
ATOM     73  C   UNL A   1      47.880  27.425  26.183  1.00  0.00     0.148 A 
ATOM     74  C   UNL A   1      47.668  27.825  23.407  1.00  0.00     0.002 A 
ATOM     75  C   UNL A   1      48.938  27.098  25.343  1.00  0.00     0.091 A 
ATOM     76  F   UNL A   1      47.936  27.223  27.507  1.00  0.00    -0.205 F 
ATOM     77  C   UNL A   1      48.832  27.293  23.954  1.00  0.00     0.022 A 
BRANCH  75  78
ATOM     78  S   UNL A   1      50.500  26.453  25.953  1.00  0.00     0.127 S 
ATOM     79  O   UNL A   1      50.079  25.195  26.567  1.00  0.00    -0.237 OA
ATOM     80  O   UNL A   1      51.275  26.302  24.721  1.00  0.00    -0.237 OA
ATOM     81  O   UNL A   1      51.014  27.457  26.875  1.00  0.00    -0.744 OA
ENDBRANCH  75  78
ENDBRANCH  57  71
BRANCH  58  82
ATOM     82  C   UNL A   1      38.825  30.693  31.120  1.00  0.00     0.023 A 
ATOM     83  C   UNL A   1      38.694  30.271  32.456  1.00  0.00     0.012 A 
ATOM     84  C   UNL A   1      37.887  31.596  30.582  1.00  0.00     0.148 A 
ATOM     85  C   UNL A   1      37.650  30.748  33.249  1.00  0.00     0.002 A 
ATOM     86  C   UNL A   1      36.876  32.102  31.391  1.00  0.00     0.091 A 
ATOM     87  F   UNL A   1      38.041  31.983  29.309  1.00  0.00    -0.205 F 
ATOM     88  C   UNL A   1      36.751  31.672  32.722  1.00  0.00     0.022 A 
BRANCH  86  89
ATOM     89  S   UNL A   1      35.751  33.389  30.845  1.00  0.00     0.127 S 
ATOM     90  O   UNL A   1      36.380  33.831  29.603  1.00  0.00    -0.237 OA
ATOM     91  O   UNL A   1      34.507  32.640  30.673  1.00  0.00    -0.237 OA
ATOM     92  O   UNL A   1      35.726  34.377  31.914  1.00  0.00    -0.744 OA
ENDBRANCH  86  89
ENDBRANCH  58  82
BRANCH  70  93
ATOM     93  C   UNL A   1      44.847  33.820  29.392  1.00  0.00     0.023 A 
ATOM     94  C   UNL A   1      45.714  33.912  30.497  1.00  0.00     0.012 A 
ATOM     95  C   UNL A   1      44.661  34.937  28.556  1.00  0.00     0.148 A 
ATOM     96  C   UNL A   1      46.385  35.101  30.770  1.00  0.00     0.002 A 
ATOM     97  C   UNL A   1      45.356  36.112  28.816  1.00  0.00     0.091 A 
ATOM     98  F   UNL A   1      43.821  34.823  27.516  1.00  0.00    -0.205 F 
ATOM     99  C   UNL A   1      46.216  36.196  29.925  1.00  0.00     0.022 A 
BRANCH  97 100
ATOM    100  S   UNL A   1      45.258  37.554  27.750  1.00  0.00     0.127 S 
ATOM    101  O   UNL A   1      43.815  37.774  27.680  1.00  0.00    -0.237 OA
ATOM    102  O   UNL A   1      45.993  38.557  28.520  1.00  0.00    -0.237 OA
ATOM    103  O   UNL A   1      45.888  37.170  26.493  1.00  0.00    -0.744 OA
ENDBRANCH  97 100
ENDBRANCH  70  93
ENDBRANCH  44  45
ENDBRANCH  36  39
ENDBRANCH  34  35
ENDBRANCH  33  34
ENDBRANCH   1  33
TORSDOF 19
ENDMDL
MODEL 2
REMARK VINA RESULT:     -12.2      0.386      7.452
REMARK SMILES Nc1ccc(-c2cc(Cl)cc3c2O[C@H](C(F)(F)F)C(C(=O)NCCCCCCNC(=O)c2ccc(-c4c5nc(c(-c6cccc(S(=O)(=O)[O-])c6F)c6ccc([nH]6)c(-c6cccc(S(=O)(=O)[O-])c6F)c6nc(c(-c7cccc(S(=O)(=O)[O-])c7F)c7ccc4[nH]7)C=C6)C=C5)cc2)=C3)cc1
REMARK SMILES IDX 26 1 25 2 24 3 23 4 22 5 20 6 21 7 19 9 6 10 7 11 12 12 8 13
REMARK SMILES IDX 11 14 13 15 9 16 10 17 95 18 14 19 5 20 2 21 3 22 97 23 4 24
REMARK SMILES IDX 96 25 1 26 15 29 16 30 17 31 18 32 27 33 28 34 29 35 30 36
REMARK SMILES IDX 31 38 32 39 33 40 94 41 34 42 93 43 35 44 36 45 37 46 87 47
REMARK SMILES IDX 38 48 92 49 86 50 88 51 39 52 91 53 85 54 84 55 40 57 72 58
REMARK SMILES IDX 52 59 71 60 53 61 56 62 70 63 89 64 54 65 55 66 69 68 90 69
REMARK SMILES IDX 57 70 41 71 42 72 50 73 43 74 45 75 51 76 44 77 46 78 47 79
REMARK SMILES IDX 48 80 49 81 73 82 74 83 82 84 75 85 77 86 83 87 76 88 78 89
REMARK SMILES IDX 79 90 80 91 81 92 58 93 59 94 67 95 60 96 62 97 68 98 61 99
REMARK SMILES IDX 63 100 64 101 65 102 66 103
REMARK H PARENT 22 8 1 27 1 28 29 37 88 56 56 67
REMARK Flexibility Score: inf
ROOT
ATOM      1  C   UNL A   1      34.519  21.794  24.122  1.00  0.00     0.002 C 
ENDROOT
BRANCH   1   2
ATOM      2  C   UNL A   1      34.153  20.571  24.973  1.00  0.00     0.002 C 
BRANCH   2   3
ATOM      3  C   UNL A   1      32.671  20.437  25.339  1.00  0.00     0.021 C 
BRANCH   3   4
ATOM      4  C   UNL A   1      31.835  21.672  25.013  1.00  0.00     0.116 C 
BRANCH   4   5
ATOM      5  N   UNL A   1      30.912  21.999  26.087  1.00  0.00    -0.352 N 
ATOM      6  C   UNL A   1      30.404  23.116  26.660  1.00  0.00     0.251 C 
ATOM      7  O   UNL A   1      29.593  22.917  27.571  1.00  0.00    -0.270 OA
ATOM      8  H   UNL A   1      30.558  21.186  26.516  1.00  0.00     0.163 HD
BRANCH   6   9
ATOM      9  C   UNL A   1      30.745  24.519  26.277  1.00  0.00     0.067 C 
ATOM     10  C   UNL A   1      31.496  28.532  25.212  1.00  0.00     0.026 A 
ATOM     11  C   UNL A   1      30.784  29.090  24.141  1.00  0.00     0.033 A 
ATOM     12  C   UNL A   1      31.188  27.209  25.592  1.00  0.00     0.135 A 
ATOM     13  C   UNL A   1      29.805  28.345  23.479  1.00  0.00     0.042 A 
ATOM     14  C   UNL A   1      30.215  26.459  24.928  1.00  0.00     0.019 A 
ATOM     15  O   UNL A   1      31.832  26.712  26.693  1.00  0.00    -0.475 OA
ATOM     16  Cl  UNL A   1      28.937  29.054  22.172  1.00  0.00    -0.084 Cl
ATOM     17  C   UNL A   1      29.519  27.035  23.864  1.00  0.00     0.032 A 
ATOM     18  C   UNL A   1      29.925  25.101  25.380  1.00  0.00     0.025 C 
ATOM     19  C   UNL A   1      31.933  25.273  26.800  1.00  0.00     0.314 C 
BRANCH  10  20
ATOM     20  C   UNL A   1      32.542  29.297  25.911  1.00  0.00    -0.014 A 
ATOM     21  C   UNL A   1      34.528  30.646  27.414  1.00  0.00     0.031 A 
ATOM     22  C   UNL A   1      34.847  29.505  26.682  1.00  0.00     0.026 A 
ATOM     23  C   UNL A   1      33.229  31.150  27.331  1.00  0.00     0.026 A 
ATOM     24  C   UNL A   1      33.866  28.831  25.947  1.00  0.00     0.011 A 
ATOM     25  C   UNL A   1      32.242  30.480  26.598  1.00  0.00     0.011 A 
BRANCH  21  26
ATOM     26  N   UNL A   1      35.513  31.339  28.100  1.00  0.00    -0.399 N 
ATOM     27  H   UNL A   1      35.966  30.920  28.866  1.00  0.00     0.156 HD
ATOM     28  H   UNL A   1      35.759  32.251  27.821  1.00  0.00     0.156 HD
ENDBRANCH  21  26
ENDBRANCH  10  20
BRANCH  19  29
ATOM     29  C   UNL A   1      33.261  24.806  26.175  1.00  0.00     0.429 C 
ATOM     30  F   UNL A   1      33.730  23.703  26.807  1.00  0.00    -0.167 F 
ATOM     31  F   UNL A   1      33.128  24.473  24.869  1.00  0.00    -0.167 F 
ATOM     32  F   UNL A   1      34.224  25.753  26.242  1.00  0.00    -0.167 F 
ENDBRANCH  19  29
ENDBRANCH   6   9
ENDBRANCH   4   5
ENDBRANCH   3   4
ENDBRANCH   2   3
ENDBRANCH   1   2
BRANCH   1  33
ATOM     33  C   UNL A   1      35.885  22.422  24.412  1.00  0.00     0.021 C 
BRANCH  33  34
ATOM     34  C   UNL A   1      36.421  22.178  25.818  1.00  0.00     0.116 C 
BRANCH  34  35
ATOM     35  N   UNL A   1      37.451  21.153  25.851  1.00  0.00    -0.352 N 
ATOM     36  C   UNL A   1      38.798  21.286  26.099  1.00  0.00     0.251 C 
ATOM     37  H   UNL A   1      37.142  20.235  25.672  1.00  0.00     0.163 HD
ATOM     38  O   UNL A   1      39.549  20.329  25.935  1.00  0.00    -0.269 OA
BRANCH  36  39
ATOM     39  C   UNL A   1      39.333  22.596  26.529  1.00  0.00     0.039 A 
ATOM     40  C   UNL A   1      38.856  23.778  25.959  1.00  0.00     0.014 A 
ATOM     41  C   UNL A   1      40.346  22.635  27.489  1.00  0.00     0.014 A 
ATOM     42  C   UNL A   1      39.497  24.981  26.234  1.00  0.00     0.010 A 
ATOM     43  C   UNL A   1      40.940  23.857  27.821  1.00  0.00     0.010 A 
ATOM     44  C   UNL A   1      40.552  25.033  27.161  1.00  0.00    -0.014 A 
BRANCH  44  45
ATOM     45  C   UNL A   1      41.230  26.328  27.422  1.00  0.00     0.031 A 
ATOM     46  C   UNL A   1      40.616  27.354  28.334  1.00  0.00     0.074 A 
ATOM     47  C   UNL A   1      42.436  26.559  26.867  1.00  0.00     0.049 A 
ATOM     48  N   UNL A   1      41.088  28.521  28.691  1.00  0.00    -0.248 NA
ATOM     49  C   UNL A   1      39.305  27.035  28.921  1.00  0.00     0.031 C 
ATOM     50  C   UNL A   1      43.127  25.648  25.952  1.00  0.00     0.029 A 
ATOM     51  N   UNL A   1      43.298  27.616  27.001  1.00  0.00    -0.354 N 
ATOM     52  C   UNL A   1      40.125  29.087  29.516  1.00  0.00     0.074 A 
ATOM     53  C   UNL A   1      39.033  28.142  29.600  1.00  0.00     0.031 C 
ATOM     54  C   UNL A   1      44.324  26.164  25.643  1.00  0.00     0.029 A 
ATOM     55  C   UNL A   1      44.468  27.461  26.295  1.00  0.00     0.049 A 
ATOM     56  H   UNL A   1      43.100  28.409  27.550  1.00  0.00     0.167 HD
ATOM     57  C   UNL A   1      40.157  30.274  30.167  1.00  0.00     0.034 A 
ATOM     58  C   UNL A   1      45.538  28.271  26.180  1.00  0.00     0.034 A 
ATOM     59  C   UNL A   1      41.259  31.196  30.118  1.00  0.00     0.049 A 
ATOM     60  C   UNL A   1      45.557  29.577  26.917  1.00  0.00     0.074 A 
ATOM     61  C   UNL A   1      41.385  32.416  30.759  1.00  0.00     0.029 A 
ATOM     62  N   UNL A   1      42.426  30.999  29.398  1.00  0.00    -0.354 N 
ATOM     63  N   UNL A   1      44.657  30.068  27.734  1.00  0.00    -0.248 NA
ATOM     64  C   UNL A   1      46.735  30.434  26.730  1.00  0.00     0.031 C 
ATOM     65  C   UNL A   1      42.634  32.954  30.431  1.00  0.00     0.029 A 
ATOM     66  C   UNL A   1      43.284  32.069  29.586  1.00  0.00     0.049 A 
ATOM     67  H   UNL A   1      42.617  30.213  28.836  1.00  0.00     0.167 HD
ATOM     68  C   UNL A   1      45.159  31.290  28.162  1.00  0.00     0.074 A 
ATOM     69  C   UNL A   1      46.455  31.454  27.533  1.00  0.00     0.031 C 
ATOM     70  C   UNL A   1      44.585  32.201  28.984  1.00  0.00     0.034 A 
BRANCH  57  71
ATOM     71  C   UNL A   1      38.987  30.619  31.045  1.00  0.00     0.023 A 
ATOM     72  C   UNL A   1      38.861  29.982  32.296  1.00  0.00     0.012 A 
ATOM     73  C   UNL A   1      38.058  31.610  30.674  1.00  0.00     0.148 A 
ATOM     74  C   UNL A   1      37.818  30.313  33.159  1.00  0.00     0.002 A 
ATOM     75  C   UNL A   1      37.035  31.955  31.552  1.00  0.00     0.091 A 
ATOM     76  F   UNL A   1      38.185  32.188  29.472  1.00  0.00    -0.205 F 
ATOM     77  C   UNL A   1      36.912  31.304  32.792  1.00  0.00     0.022 A 
BRANCH  75  78
ATOM     78  S   UNL A   1      35.845  33.252  31.196  1.00  0.00     0.127 S 
ATOM     79  O   UNL A   1      36.127  33.532  29.789  1.00  0.00    -0.237 OA
ATOM     80  O   UNL A   1      34.570  32.579  31.441  1.00  0.00    -0.237 OA
ATOM     81  O   UNL A   1      36.147  34.336  32.122  1.00  0.00    -0.744 OA
ENDBRANCH  75  78
ENDBRANCH  57  71
BRANCH  58  82
ATOM     82  C   UNL A   1      46.694  27.811  25.366  1.00  0.00     0.023 A 
ATOM     83  C   UNL A   1      46.690  28.038  23.978  1.00  0.00     0.012 A 
ATOM     84  C   UNL A   1      47.845  27.279  25.980  1.00  0.00     0.148 A 
ATOM     85  C   UNL A   1      47.819  27.749  23.211  1.00  0.00     0.002 A 
ATOM     86  C   UNL A   1      48.980  27.035  25.218  1.00  0.00     0.091 A 
ATOM     87  F   UNL A   1      47.819  27.078  27.304  1.00  0.00    -0.205 F 
ATOM     88  C   UNL A   1      48.967  27.261  23.832  1.00  0.00     0.022 A 
BRANCH  86  89
ATOM     89  S   UNL A   1      50.544  26.530  25.942  1.00  0.00     0.127 S 
ATOM     90  O   UNL A   1      50.858  27.669  26.801  1.00  0.00    -0.237 OA
ATOM     91  O   UNL A   1      50.160  25.310  26.652  1.00  0.00    -0.237 OA
ATOM     92  O   UNL A   1      51.454  26.326  24.823  1.00  0.00    -0.744 OA
ENDBRANCH  86  89
ENDBRANCH  58  82
BRANCH  70  93
ATOM     93  C   UNL A   1      45.338  33.473  29.257  1.00  0.00     0.023 A 
ATOM     94  C   UNL A   1      46.255  33.510  30.324  1.00  0.00     0.012 A 
ATOM     95  C   UNL A   1      45.228  34.579  28.393  1.00  0.00     0.148 A 
ATOM     96  C   UNL A   1      47.052  34.633  30.532  1.00  0.00     0.002 A 
ATOM     97  C   UNL A   1      46.047  35.685  28.587  1.00  0.00     0.091 A 
ATOM     98  F   UNL A   1      44.338  34.520  27.391  1.00  0.00    -0.205 F 
ATOM     99  C   UNL A   1      46.957  35.715  29.658  1.00  0.00     0.022 A 
BRANCH  97 100
ATOM    100  S   UNL A   1      46.047  37.098  27.478  1.00  0.00     0.127 S 
ATOM    101  O   UNL A   1      46.666  36.534  26.280  1.00  0.00    -0.237 OA
ATOM    102  O   UNL A   1      44.620  37.390  27.351  1.00  0.00    -0.237 OA
ATOM    103  O   UNL A   1      46.823  38.135  28.146  1.00  0.00    -0.744 OA
ENDBRANCH  97 100
ENDBRANCH  70  93
ENDBRANCH  44  45
ENDBRANCH  36  39
ENDBRANCH  34  35
ENDBRANCH  33  34
ENDBRANCH   1  33
TORSDOF 19
ENDMDL
MODEL 3
REMARK VINA RESULT:     -12.2      4.710     10.192
REMARK SMILES Nc1ccc(-c2cc(Cl)cc3c2O[C@H](C(F)(F)F)C(C(=O)NCCCCCCNC(=O)c2ccc(-c4c5nc(c(-c6cccc(S(=O)(=O)[O-])c6F)c6ccc([nH]6)c(-c6cccc(S(=O)(=O)[O-])c6F)c6nc(c(-c7cccc(S(=O)(=O)[O-])c7F)c7ccc4[nH]7)C=C6)C=C5)cc2)=C3)cc1
REMARK SMILES IDX 26 1 25 2 24 3 23 4 22 5 20 6 21 7 19 9 6 10 7 11 12 12 8 13
REMARK SMILES IDX 11 14 13 15 9 16 10 17 95 18 14 19 5 20 2 21 3 22 97 23 4 24
REMARK SMILES IDX 96 25 1 26 15 29 16 30 17 31 18 32 27 33 28 34 29 35 30 36
REMARK SMILES IDX 31 38 32 39 33 40 94 41 34 42 93 43 35 44 36 45 37 46 87 47
REMARK SMILES IDX 38 48 92 49 86 50 88 51 39 52 91 53 85 54 84 55 40 57 72 58
REMARK SMILES IDX 52 59 71 60 53 61 56 62 70 63 89 64 54 65 55 66 69 68 90 69
REMARK SMILES IDX 57 70 41 71 42 72 50 73 43 74 45 75 51 76 44 77 46 78 47 79
REMARK SMILES IDX 48 80 49 81 73 82 74 83 82 84 75 85 77 86 83 87 76 88 78 89
REMARK SMILES IDX 79 90 80 91 81 92 58 93 59 94 67 95 60 96 62 97 68 98 61 99
REMARK SMILES IDX 63 100 64 101 65 102 66 103
REMARK H PARENT 22 8 1 27 1 28 29 37 88 56 56 67
REMARK Flexibility Score: inf
ROOT
ATOM      1  C   UNL A   1      32.927  28.916  24.797  1.00  0.00     0.002 C 
ENDROOT
BRANCH   1   2
ATOM      2  C   UNL A   1      32.742  28.654  23.296  1.00  0.00     0.002 C 
BRANCH   2   3
ATOM      3  C   UNL A   1      32.396  27.212  22.912  1.00  0.00     0.021 C 
BRANCH   3   4
ATOM      4  C   UNL A   1      30.905  26.890  22.977  1.00  0.00     0.116 C 
BRANCH   4   5
ATOM      5  N   UNL A   1      30.459  26.662  24.341  1.00  0.00    -0.352 N 
ATOM      6  C   UNL A   1      30.736  25.805  25.351  1.00  0.00     0.251 C 
ATOM      7  O   UNL A   1      30.107  26.002  26.396  1.00  0.00    -0.270 OA
ATOM      8  H   UNL A   1      29.765  27.311  24.604  1.00  0.00     0.163 HD
BRANCH   6   9
ATOM      9  C   UNL A   1      31.715  24.678  25.289  1.00  0.00     0.067 C 
ATOM     10  C   UNL A   1      34.558  21.561  25.307  1.00  0.00     0.026 A 
ATOM     11  C   UNL A   1      35.908  21.880  25.511  1.00  0.00     0.033 A 
ATOM     12  C   UNL A   1      33.616  22.608  25.365  1.00  0.00     0.135 A 
ATOM     13  C   UNL A   1      36.292  23.200  25.758  1.00  0.00     0.042 A 
ATOM     14  C   UNL A   1      33.997  23.931  25.605  1.00  0.00     0.019 A 
ATOM     15  O   UNL A   1      32.295  22.265  25.249  1.00  0.00    -0.475 OA
ATOM     16  Cl  UNL A   1      37.955  23.567  26.014  1.00  0.00    -0.084 Cl
ATOM     17  C   UNL A   1      35.347  24.225  25.804  1.00  0.00     0.032 A 
ATOM     18  C   UNL A   1      32.974  24.970  25.674  1.00  0.00     0.025 C 
ATOM     19  C   UNL A   1      31.385  23.297  24.803  1.00  0.00     0.314 C 
BRANCH  10  20
ATOM     20  C   UNL A   1      34.137  20.177  25.029  1.00  0.00    -0.014 A 
ATOM     21  C   UNL A   1      33.353  17.476  24.692  1.00  0.00     0.031 A 
ATOM     22  C   UNL A   1      32.427  18.439  25.088  1.00  0.00     0.026 A 
ATOM     23  C   UNL A   1      34.654  17.885  24.395  1.00  0.00     0.026 A 
ATOM     24  C   UNL A   1      32.814  19.771  25.265  1.00  0.00     0.011 A 
ATOM     25  C   UNL A   1      35.048  19.217  24.571  1.00  0.00     0.011 A 
BRANCH  21  26
ATOM     26  N   UNL A   1      32.955  16.168  24.469  1.00  0.00    -0.399 N 
ATOM     27  H   UNL A   1      33.139  15.476  25.145  1.00  0.00     0.156 HD
ATOM     28  H   UNL A   1      32.490  15.930  23.635  1.00  0.00     0.156 HD
ENDBRANCH  21  26
ENDBRANCH  10  20
BRANCH  19  29
ATOM     29  C   UNL A   1      31.237  23.220  23.272  1.00  0.00     0.429 C 
ATOM     30  F   UNL A   1      30.027  23.688  22.881  1.00  0.00    -0.167 F 
ATOM     31  F   UNL A   1      32.165  23.965  22.625  1.00  0.00    -0.167 F 
ATOM     32  F   UNL A   1      31.354  21.956  22.805  1.00  0.00    -0.167 F 
ENDBRANCH  19  29
ENDBRANCH   6   9
ENDBRANCH   4   5
ENDBRANCH   3   4
ENDBRANCH   2   3
ENDBRANCH   1   2
BRANCH   1  33
ATOM     33  C   UNL A   1      31.807  29.707  25.478  1.00  0.00     0.021 C 
BRANCH  33  34
ATOM     34  C   UNL A   1      32.142  30.229  26.870  1.00  0.00     0.116 C 
BRANCH  34  35
ATOM     35  N   UNL A   1      32.055  31.678  26.958  1.00  0.00    -0.352 N 
ATOM     36  C   UNL A   1      32.952  32.569  27.500  1.00  0.00     0.251 C 
ATOM     37  H   UNL A   1      31.241  32.077  26.574  1.00  0.00     0.163 HD
ATOM     38  O   UNL A   1      32.644  33.750  27.624  1.00  0.00    -0.269 OA
BRANCH  36  39
ATOM     39  C   UNL A   1      34.271  32.085  27.961  1.00  0.00     0.039 A 
ATOM     40  C   UNL A   1      34.447  30.749  28.329  1.00  0.00     0.014 A 
ATOM     41  C   UNL A   1      35.333  32.987  28.056  1.00  0.00     0.014 A 
ATOM     42  C   UNL A   1      35.634  30.354  28.936  1.00  0.00     0.010 A 
ATOM     43  C   UNL A   1      36.552  32.569  28.597  1.00  0.00     0.010 A 
ATOM     44  C   UNL A   1      36.697  31.261  29.086  1.00  0.00    -0.014 A 
BRANCH  44  45
ATOM     45  C   UNL A   1      37.946  30.817  29.753  1.00  0.00     0.031 A 
ATOM     46  C   UNL A   1      38.262  31.235  31.163  1.00  0.00     0.074 A 
ATOM     47  C   UNL A   1      38.782  29.990  29.096  1.00  0.00     0.049 A 
ATOM     48  N   UNL A   1      39.292  30.914  31.903  1.00  0.00    -0.248 NA
ATOM     49  C   UNL A   1      37.301  32.127  31.833  1.00  0.00     0.031 C 
ATOM     50  C   UNL A   1      38.593  29.528  27.720  1.00  0.00     0.029 A 
ATOM     51  N   UNL A   1      39.941  29.379  29.498  1.00  0.00    -0.354 N 
ATOM     52  C   UNL A   1      39.122  31.584  33.108  1.00  0.00     0.074 A 
ATOM     53  C   UNL A   1      37.894  32.342  33.000  1.00  0.00     0.031 C 
ATOM     54  C   UNL A   1      39.577  28.673  27.407  1.00  0.00     0.029 A 
ATOM     55  C   UNL A   1      40.491  28.562  28.539  1.00  0.00     0.049 A 
ATOM     56  H   UNL A   1      40.341  29.512  30.388  1.00  0.00     0.167 HD
ATOM     57  C   UNL A   1      39.903  31.552  34.213  1.00  0.00     0.034 A 
ATOM     58  C   UNL A   1      41.607  27.808  28.561  1.00  0.00     0.034 A 
ATOM     59  C   UNL A   1      41.101  30.767  34.338  1.00  0.00     0.049 A 
ATOM     60  C   UNL A   1      42.452  27.780  29.800  1.00  0.00     0.074 A 
ATOM     61  C   UNL A   1      41.947  30.661  35.428  1.00  0.00     0.029 A 
ATOM     62  N   UNL A   1      41.619  29.949  33.347  1.00  0.00    -0.354 N 
ATOM     63  N   UNL A   1      42.244  28.380  30.946  1.00  0.00    -0.248 NA
ATOM     64  C   UNL A   1      43.674  26.966  29.757  1.00  0.00     0.031 C 
ATOM     65  C   UNL A   1      42.975  29.771  35.097  1.00  0.00     0.029 A 
ATOM     66  C   UNL A   1      42.768  29.325  33.801  1.00  0.00     0.049 A 
ATOM     67  H   UNL A   1      41.227  29.829  32.451  1.00  0.00     0.167 HD
ATOM     68  C   UNL A   1      43.306  28.017  31.764  1.00  0.00     0.074 A 
ATOM     69  C   UNL A   1      44.144  27.123  30.990  1.00  0.00     0.031 C 
ATOM     70  C   UNL A   1      43.570  28.408  33.034  1.00  0.00     0.034 A 
BRANCH  57  71
ATOM     71  C   UNL A   1      39.451  32.343  35.409  1.00  0.00     0.023 A 
ATOM     72  C   UNL A   1      38.577  31.740  36.335  1.00  0.00     0.012 A 
ATOM     73  C   UNL A   1      39.934  33.642  35.655  1.00  0.00     0.148 A 
ATOM     74  C   UNL A   1      38.177  32.423  37.482  1.00  0.00     0.002 A 
ATOM     75  C   UNL A   1      39.552  34.308  36.815  1.00  0.00     0.091 A 
ATOM     76  F   UNL A   1      40.749  34.203  34.751  1.00  0.00    -0.205 F 
ATOM     77  C   UNL A   1      38.670  33.702  37.726  1.00  0.00     0.022 A 
BRANCH  75  78
ATOM     78  S   UNL A   1      40.170  35.938  37.248  1.00  0.00     0.127 S 
ATOM     79  O   UNL A   1      39.686  36.743  36.127  1.00  0.00    -0.237 OA
ATOM     80  O   UNL A   1      39.497  36.197  38.521  1.00  0.00    -0.237 OA
ATOM     81  O   UNL A   1      41.617  35.805  37.342  1.00  0.00    -0.744 OA
ENDBRANCH  75  78
ENDBRANCH  57  71
BRANCH  58  82
ATOM     82  C   UNL A   1      41.932  26.981  27.369  1.00  0.00     0.023 A 
ATOM     83  C   UNL A   1      42.521  27.595  26.248  1.00  0.00     0.012 A 
ATOM     84  C   UNL A   1      41.785  25.581  27.398  1.00  0.00     0.148 A 
ATOM     85  C   UNL A   1      42.967  26.824  25.174  1.00  0.00     0.002 A 
ATOM     86  C   UNL A   1      42.272  24.816  26.346  1.00  0.00     0.091 A 
ATOM     87  F   UNL A   1      41.225  25.027  28.482  1.00  0.00    -0.205 F 
ATOM     88  C   UNL A   1      42.856  25.436  25.229  1.00  0.00     0.022 A 
BRANCH  86  89
ATOM     89  S   UNL A   1      42.293  23.022  26.379  1.00  0.00     0.127 S 
ATOM     90  O   UNL A   1      42.669  22.701  25.004  1.00  0.00    -0.237 OA
ATOM     91  O   UNL A   1      43.328  22.757  27.378  1.00  0.00    -0.237 OA
ATOM     92  O   UNL A   1      40.950  22.614  26.767  1.00  0.00    -0.744 OA
ENDBRANCH  86  89
ENDBRANCH  58  82
BRANCH  70  93
ATOM     93  C   UNL A   1      44.823  27.888  33.683  1.00  0.00     0.023 A 
ATOM     94  C   UNL A   1      46.000  28.656  33.611  1.00  0.00     0.012 A 
ATOM     95  C   UNL A   1      44.802  26.713  34.457  1.00  0.00     0.148 A 
ATOM     96  C   UNL A   1      47.144  28.259  34.299  1.00  0.00     0.002 A 
ATOM     97  C   UNL A   1      45.937  26.338  35.165  1.00  0.00     0.091 A 
ATOM     98  F   UNL A   1      43.668  25.996  34.498  1.00  0.00    -0.205 F 
ATOM     99  C   UNL A   1      47.111  27.108  35.084  1.00  0.00     0.022 A 
BRANCH  97 100
ATOM    100  S   UNL A   1      45.973  24.911  36.256  1.00  0.00     0.127 S 
ATOM    101  O   UNL A   1      44.743  25.094  37.024  1.00  0.00    -0.237 OA
ATOM    102  O   UNL A   1      45.943  23.798  35.308  1.00  0.00    -0.237 OA
ATOM    103  O   UNL A   1      47.206  25.022  37.025  1.00  0.00    -0.744 OA
ENDBRANCH  97 100
ENDBRANCH  70  93
ENDBRANCH  44  45
ENDBRANCH  36  39
ENDBRANCH  34  35
ENDBRANCH  33  34
ENDBRANCH   1  33
TORSDOF 19
ENDMDL
