MODEL 1
REMARK VINA RESULT:     -10.2      0.000      0.000
REMARK SMILES N#CCCNC(=O)COc1ccc(C(=O)NCCCCCCNC(=O)c2ccc(-c3c4nc(c(-c5cccc(S(=O)(=O)[O-])c5F)c5ccc([nH]5)c(-c5cccc(S(=O)(=O)[O-])c5F)c5nc(c(-c6cccc(S(=O)(=O)[O-])c6F)c6ccc3[nH]6)C=C5)C=C4)cc2)nc1
REMARK SMILES IDX 18 1 17 2 16 3 14 4 15 5 13 7 10 8 11 9 90 10 12 11 89 12
REMARK SMILES IDX 9 13 8 14 6 15 5 16 7 18 4 19 3 20 2 21 1 22 19 23 20 24
REMARK SMILES IDX 21 25 22 26 23 27 24 28 25 30 26 31 27 32 88 33 28 34 87 35
REMARK SMILES IDX 29 36 30 37 31 38 81 39 32 40 86 41 80 42 82 43 33 44 85 45
REMARK SMILES IDX 79 46 78 47 34 49 66 50 46 51 65 52 47 53 50 54 64 55 83 56
REMARK SMILES IDX 48 57 49 58 63 60 84 61 51 62 35 63 36 64 44 65 37 66 39 67
REMARK SMILES IDX 45 68 38 69 40 70 41 71 42 72 43 73 67 74 68 75 76 76 69 77
REMARK SMILES IDX 71 78 77 79 70 80 72 81 73 82 74 83 75 84 52 85 53 86 61 87
REMARK SMILES IDX 54 88 56 89 62 90 55 91 57 92 58 93 59 94 60 95
REMARK H PARENT 16 6 5 17 23 29 82 48 50 59
REMARK Flexibility Score: inf
ROOT
ATOM      1  C   UNL A   1      34.047  23.862  26.523  1.00  0.00     0.021 C 
ENDROOT
BRANCH   1   2
ATOM      2  C   UNL A   1      33.273  22.576  26.252  1.00  0.00     0.116 C 
BRANCH   2   3
ATOM      3  N   UNL A   1      32.015  22.504  26.975  1.00  0.00    -0.351 N 
ATOM      4  C   UNL A   1      30.803  23.144  26.801  1.00  0.00     0.269 C 
ATOM      5  O   UNL A   1      29.930  22.920  27.642  1.00  0.00    -0.268 OA
ATOM      6  H   UNL A   1      32.028  21.880  27.735  1.00  0.00     0.163 HD
BRANCH   4   7
ATOM      7  C   UNL A   1      30.526  24.097  25.669  1.00  0.00     0.128 A 
ATOM      8  C   UNL A   1      30.071  26.015  23.722  1.00  0.00     0.138 A 
ATOM      9  C   UNL A   1      30.601  24.782  23.367  1.00  0.00     0.050 A 
ATOM     10  C   UNL A   1      29.729  26.188  25.057  1.00  0.00     0.158 A 
ATOM     11  C   UNL A   1      30.791  23.799  24.341  1.00  0.00     0.038 A 
ATOM     12  N   UNL A   1      29.958  25.278  26.034  1.00  0.00    -0.247 NA
BRANCH   8  13
ATOM     13  O   UNL A   1      29.894  27.092  22.906  1.00  0.00    -0.482 OA
BRANCH  13  14
ATOM     14  C   UNL A   1      30.962  28.020  22.794  1.00  0.00     0.329 C 
BRANCH  14  15
ATOM     15  C   UNL A   1      31.034  29.193  23.781  1.00  0.00     0.257 C 
ATOM     16  N   UNL A   1      32.114  29.357  24.594  1.00  0.00    -0.352 N 
ATOM     17  H   UNL A   1      32.113  30.181  25.133  1.00  0.00     0.163 HD
ATOM     18  O   UNL A   1      30.109  30.003  23.858  1.00  0.00    -0.271 OA
BRANCH  16  19
ATOM     19  C   UNL A   1      33.269  28.493  24.784  1.00  0.00     0.131 C 
BRANCH  19  20
ATOM     20  C   UNL A   1      33.505  28.095  26.242  1.00  0.00     0.141 C 
BRANCH  20  21
ATOM     21  C   UNL A   1      34.210  29.211  26.996  1.00  0.00     0.064 C 
ATOM     22  N   UNL A   1      34.796  30.136  27.622  1.00  0.00    -0.198 NA
ENDBRANCH  20  21
ENDBRANCH  19  20
ENDBRANCH  16  19
ENDBRANCH  14  15
ENDBRANCH  13  14
ENDBRANCH   8  13
ENDBRANCH   4   7
ENDBRANCH   2   3
ENDBRANCH   1   2
BRANCH   1  23
ATOM     23  C   UNL A   1      34.439  24.676  25.289  1.00  0.00     0.002 C 
BRANCH  23  24
ATOM     24  C   UNL A   1      34.741  23.866  24.023  1.00  0.00     0.002 C 
BRANCH  24  25
ATOM     25  C   UNL A   1      36.152  23.276  23.926  1.00  0.00     0.021 C 
BRANCH  25  26
ATOM     26  C   UNL A   1      37.130  23.751  24.996  1.00  0.00     0.116 C 
BRANCH  26  27
ATOM     27  N   UNL A   1      37.942  22.663  25.514  1.00  0.00    -0.352 N 
ATOM     28  C   UNL A   1      39.123  22.710  26.213  1.00  0.00     0.251 C 
ATOM     29  H   UNL A   1      37.596  21.759  25.337  1.00  0.00     0.163 HD
ATOM     30  O   UNL A   1      39.777  21.686  26.378  1.00  0.00    -0.269 OA
BRANCH  28  31
ATOM     31  C   UNL A   1      39.608  23.996  26.761  1.00  0.00     0.039 A 
ATOM     32  C   UNL A   1      40.403  24.817  25.958  1.00  0.00     0.014 A 
ATOM     33  C   UNL A   1      39.300  24.379  28.070  1.00  0.00     0.014 A 
ATOM     34  C   UNL A   1      40.849  26.045  26.451  1.00  0.00     0.010 A 
ATOM     35  C   UNL A   1      39.682  25.636  28.532  1.00  0.00     0.010 A 
ATOM     36  C   UNL A   1      40.472  26.477  27.733  1.00  0.00    -0.014 A 
BRANCH  36  37
ATOM     37  C   UNL A   1      40.882  27.807  28.249  1.00  0.00     0.031 A 
ATOM     38  C   UNL A   1      42.339  28.134  28.437  1.00  0.00     0.074 A 
ATOM     39  C   UNL A   1      39.940  28.689  28.635  1.00  0.00     0.049 A 
ATOM     40  N   UNL A   1      42.884  29.221  28.919  1.00  0.00    -0.248 NA
ATOM     41  C   UNL A   1      43.311  27.094  28.061  1.00  0.00     0.031 C 
ATOM     42  C   UNL A   1      38.495  28.453  28.588  1.00  0.00     0.029 A 
ATOM     43  N   UNL A   1      40.054  29.945  29.175  1.00  0.00    -0.354 N 
ATOM     44  C   UNL A   1      44.252  28.981  28.947  1.00  0.00     0.074 A 
ATOM     45  C   UNL A   1      44.454  27.634  28.459  1.00  0.00     0.031 C 
ATOM     46  C   UNL A   1      37.858  29.526  29.082  1.00  0.00     0.029 A 
ATOM     47  C   UNL A   1      38.847  30.512  29.510  1.00  0.00     0.049 A 
ATOM     48  H   UNL A   1      40.918  30.398  29.310  1.00  0.00     0.167 HD
ATOM     49  C   UNL A   1      45.253  29.813  29.323  1.00  0.00     0.034 A 
ATOM     50  C   UNL A   1      38.564  31.685  30.108  1.00  0.00     0.034 A 
ATOM     51  C   UNL A   1      45.049  31.164  29.771  1.00  0.00     0.049 A 
ATOM     52  C   UNL A   1      39.691  32.614  30.467  1.00  0.00     0.074 A 
ATOM     53  C   UNL A   1      46.000  32.125  30.065  1.00  0.00     0.029 A 
ATOM     54  N   UNL A   1      43.811  31.742  30.007  1.00  0.00    -0.354 N 
ATOM     55  N   UNL A   1      40.981  32.440  30.316  1.00  0.00    -0.248 NA
ATOM     56  C   UNL A   1      39.324  33.917  31.040  1.00  0.00     0.031 C 
ATOM     57  C   UNL A   1      45.337  33.271  30.517  1.00  0.00     0.029 A 
ATOM     58  C   UNL A   1      43.972  33.039  30.465  1.00  0.00     0.049 A 
ATOM     59  H   UNL A   1      42.944  31.295  29.870  1.00  0.00     0.167 HD
ATOM     60  C   UNL A   1      41.579  33.618  30.747  1.00  0.00     0.074 A 
ATOM     61  C   UNL A   1      40.507  34.508  31.143  1.00  0.00     0.031 C 
ATOM     62  C   UNL A   1      42.897  33.931  30.818  1.00  0.00     0.034 A 
BRANCH  49  63
ATOM     63  C   UNL A   1      46.667  29.295  29.237  1.00  0.00     0.023 A 
ATOM     64  C   UNL A   1      47.212  28.560  30.310  1.00  0.00     0.012 A 
ATOM     65  C   UNL A   1      47.437  29.493  28.075  1.00  0.00     0.148 A 
ATOM     66  C   UNL A   1      48.514  28.066  30.245  1.00  0.00     0.002 A 
ATOM     67  C   UNL A   1      48.717  28.956  27.998  1.00  0.00     0.091 A 
ATOM     68  F   UNL A   1      46.912  30.212  27.072  1.00  0.00    -0.205 F 
ATOM     69  C   UNL A   1      49.262  28.255  29.087  1.00  0.00     0.022 A 
BRANCH  67  70
ATOM     70  S   UNL A   1      49.727  29.069  26.516  1.00  0.00     0.127 S 
ATOM     71  O   UNL A   1      49.894  30.515  26.383  1.00  0.00    -0.237 OA
ATOM     72  O   UNL A   1      50.938  28.350  26.914  1.00  0.00    -0.237 OA
ATOM     73  O   UNL A   1      48.961  28.427  25.457  1.00  0.00    -0.744 OA
ENDBRANCH  67  70
ENDBRANCH  49  63
BRANCH  50  74
ATOM     74  C   UNL A   1      37.144  32.062  30.358  1.00  0.00     0.023 A 
ATOM     75  C   UNL A   1      36.550  31.764  31.598  1.00  0.00     0.012 A 
ATOM     76  C   UNL A   1      36.397  32.760  29.387  1.00  0.00     0.148 A 
ATOM     77  C   UNL A   1      35.228  32.127  31.859  1.00  0.00     0.002 A 
ATOM     78  C   UNL A   1      35.101  33.169  29.675  1.00  0.00     0.091 A 
ATOM     79  F   UNL A   1      36.980  33.027  28.210  1.00  0.00    -0.205 F 
ATOM     80  C   UNL A   1      34.509  32.840  30.903  1.00  0.00     0.022 A 
BRANCH  78  81
ATOM     81  S   UNL A   1      34.150  34.210  28.561  1.00  0.00     0.127 S 
ATOM     82  O   UNL A   1      32.953  34.480  29.354  1.00  0.00    -0.237 OA
ATOM     83  O   UNL A   1      35.043  35.355  28.384  1.00  0.00    -0.237 OA
ATOM     84  O   UNL A   1      33.945  33.416  27.357  1.00  0.00    -0.744 OA
ENDBRANCH  78  81
ENDBRANCH  50  74
BRANCH  62  85
ATOM     85  C   UNL A   1      43.265  35.306  31.312  1.00  0.00     0.023 A 
ATOM     86  C   UNL A   1      43.494  35.523  32.685  1.00  0.00     0.012 A 
ATOM     87  C   UNL A   1      43.457  36.365  30.402  1.00  0.00     0.148 A 
ATOM     88  C   UNL A   1      43.876  36.782  33.149  1.00  0.00     0.002 A 
ATOM     89  C   UNL A   1      43.891  37.601  30.866  1.00  0.00     0.091 A 
ATOM     90  F   UNL A   1      43.217  36.143  29.101  1.00  0.00    -0.205 F 
ATOM     91  C   UNL A   1      44.087  37.816  32.239  1.00  0.00     0.022 A 
BRANCH  89  92
ATOM     92  S   UNL A   1      44.283  38.961  29.759  1.00  0.00     0.127 S 
ATOM     93  O   UNL A   1      45.301  38.360  28.898  1.00  0.00    -0.237 OA
ATOM     94  O   UNL A   1      42.999  39.208  29.104  1.00  0.00    -0.237 OA
ATOM     95  O   UNL A   1      44.749  40.050  30.607  1.00  0.00    -0.744 OA
ENDBRANCH  89  92
ENDBRANCH  62  85
ENDBRANCH  36  37
ENDBRANCH  28  31
ENDBRANCH  26  27
ENDBRANCH  25  26
ENDBRANCH  24  25
ENDBRANCH  23  24
ENDBRANCH   1  23
TORSDOF 22
ENDMDL
MODEL 2
REMARK VINA RESULT:     -10.0      4.466      9.205
REMARK SMILES N#CCCNC(=O)COc1ccc(C(=O)NCCCCCCNC(=O)c2ccc(-c3c4nc(c(-c5cccc(S(=O)(=O)[O-])c5F)c5ccc([nH]5)c(-c5cccc(S(=O)(=O)[O-])c5F)c5nc(c(-c6cccc(S(=O)(=O)[O-])c6F)c6ccc3[nH]6)C=C5)C=C4)cc2)nc1
REMARK SMILES IDX 18 1 17 2 16 3 14 4 15 5 13 7 10 8 11 9 90 10 12 11 89 12
REMARK SMILES IDX 9 13 8 14 6 15 5 16 7 18 4 19 3 20 2 21 1 22 19 23 20 24
REMARK SMILES IDX 21 25 22 26 23 27 24 28 25 30 26 31 27 32 88 33 28 34 87 35
REMARK SMILES IDX 29 36 30 37 31 38 81 39 32 40 86 41 80 42 82 43 33 44 85 45
REMARK SMILES IDX 79 46 78 47 34 49 66 50 46 51 65 52 47 53 50 54 64 55 83 56
REMARK SMILES IDX 48 57 49 58 63 60 84 61 51 62 35 63 36 64 44 65 37 66 39 67
REMARK SMILES IDX 45 68 38 69 40 70 41 71 42 72 43 73 67 74 68 75 76 76 69 77
REMARK SMILES IDX 71 78 77 79 70 80 72 81 73 82 74 83 75 84 52 85 53 86 61 87
REMARK SMILES IDX 54 88 56 89 62 90 55 91 57 92 58 93 59 94 60 95
REMARK H PARENT 16 6 5 17 23 29 82 48 50 59
REMARK Flexibility Score: inf
ROOT
ATOM      1  C   UNL A   1      34.647  25.103  25.276  1.00  0.00     0.021 C 
ENDROOT
BRANCH   1   2
ATOM      2  C   UNL A   1      34.443  23.594  25.182  1.00  0.00     0.116 C 
BRANCH   2   3
ATOM      3  N   UNL A   1      33.610  23.063  26.247  1.00  0.00    -0.351 N 
ATOM      4  C   UNL A   1      32.295  23.294  26.603  1.00  0.00     0.269 C 
ATOM      5  O   UNL A   1      31.888  22.732  27.622  1.00  0.00    -0.268 OA
ATOM      6  H   UNL A   1      34.070  22.414  26.825  1.00  0.00     0.163 HD
BRANCH   4   7
ATOM      7  C   UNL A   1      31.375  24.200  25.830  1.00  0.00     0.128 A 
ATOM      8  C   UNL A   1      29.753  26.033  24.531  1.00  0.00     0.138 A 
ATOM      9  C   UNL A   1      30.328  24.992  23.816  1.00  0.00     0.050 A 
ATOM     10  C   UNL A   1      29.976  26.050  25.902  1.00  0.00     0.158 A 
ATOM     11  C   UNL A   1      31.112  24.043  24.477  1.00  0.00     0.038 A 
ATOM     12  N   UNL A   1      30.780  25.180  26.561  1.00  0.00    -0.247 NA
BRANCH   8  13
ATOM     13  O   UNL A   1      29.028  27.069  24.023  1.00  0.00    -0.482 OA
BRANCH  13  14
ATOM     14  C   UNL A   1      29.431  27.608  22.773  1.00  0.00     0.329 C 
BRANCH  14  15
ATOM     15  C   UNL A   1      30.466  28.740  22.751  1.00  0.00     0.257 C 
ATOM     16  N   UNL A   1      30.114  30.015  23.077  1.00  0.00    -0.352 N 
ATOM     17  H   UNL A   1      30.859  30.659  23.118  1.00  0.00     0.163 HD
ATOM     18  O   UNL A   1      31.633  28.514  22.429  1.00  0.00    -0.271 OA
BRANCH  16  19
ATOM     19  C   UNL A   1      28.801  30.565  23.373  1.00  0.00     0.131 C 
BRANCH  19  20
ATOM     20  C   UNL A   1      28.330  31.609  22.359  1.00  0.00     0.141 C 
BRANCH  20  21
ATOM     21  C   UNL A   1      28.679  33.012  22.830  1.00  0.00     0.064 C 
ATOM     22  N   UNL A   1      28.969  34.175  23.220  1.00  0.00    -0.198 NA
ENDBRANCH  20  21
ENDBRANCH  19  20
ENDBRANCH  16  19
ENDBRANCH  14  15
ENDBRANCH  13  14
ENDBRANCH   8  13
ENDBRANCH   4   7
ENDBRANCH   2   3
ENDBRANCH   1   2
BRANCH   1  23
ATOM     23  C   UNL A   1      34.015  25.932  24.157  1.00  0.00     0.002 C 
BRANCH  23  24
ATOM     24  C   UNL A   1      33.915  27.440  24.419  1.00  0.00     0.002 C 
BRANCH  24  25
ATOM     25  C   UNL A   1      33.021  27.858  25.591  1.00  0.00     0.021 C 
BRANCH  25  26
ATOM     26  C   UNL A   1      33.761  28.388  26.815  1.00  0.00     0.116 C 
BRANCH  26  27
ATOM     27  N   UNL A   1      33.726  29.839  26.886  1.00  0.00    -0.352 N 
ATOM     28  C   UNL A   1      34.559  30.702  27.555  1.00  0.00     0.251 C 
ATOM     29  H   UNL A   1      32.998  30.268  26.381  1.00  0.00     0.163 HD
ATOM     30  O   UNL A   1      34.246  31.881  27.678  1.00  0.00    -0.269 OA
BRANCH  28  31
ATOM     31  C   UNL A   1      35.828  30.207  28.132  1.00  0.00     0.039 A 
ATOM     32  C   UNL A   1      35.835  29.737  29.448  1.00  0.00     0.014 A 
ATOM     33  C   UNL A   1      37.011  30.228  27.387  1.00  0.00     0.014 A 
ATOM     34  C   UNL A   1      37.019  29.244  30.000  1.00  0.00     0.010 A 
ATOM     35  C   UNL A   1      38.171  29.667  27.914  1.00  0.00     0.010 A 
ATOM     36  C   UNL A   1      38.192  29.181  29.230  1.00  0.00    -0.014 A 
BRANCH  36  37
ATOM     37  C   UNL A   1      39.443  28.600  29.778  1.00  0.00     0.031 A 
ATOM     38  C   UNL A   1      40.109  29.220  30.977  1.00  0.00     0.074 A 
ATOM     39  C   UNL A   1      40.030  27.567  29.142  1.00  0.00     0.049 A 
ATOM     40  N   UNL A   1      41.227  28.882  31.565  1.00  0.00    -0.248 NA
ATOM     41  C   UNL A   1      39.448  30.391  31.577  1.00  0.00     0.031 C 
ATOM     42  C   UNL A   1      39.530  26.938  27.918  1.00  0.00     0.029 A 
ATOM     43  N   UNL A   1      41.191  26.889  29.415  1.00  0.00    -0.354 N 
ATOM     44  C   UNL A   1      41.427  29.820  32.571  1.00  0.00     0.074 A 
ATOM     45  C   UNL A   1      40.329  30.758  32.496  1.00  0.00     0.031 C 
ATOM     46  C   UNL A   1      40.381  25.969  27.543  1.00  0.00     0.029 A 
ATOM     47  C   UNL A   1      41.500  25.930  28.479  1.00  0.00     0.049 A 
ATOM     48  H   UNL A   1      41.750  27.071  30.204  1.00  0.00     0.167 HD
ATOM     49  C   UNL A   1      42.422  29.883  33.488  1.00  0.00     0.034 A 
ATOM     50  C   UNL A   1      42.571  25.118  28.375  1.00  0.00     0.034 A 
ATOM     51  C   UNL A   1      43.490  28.925  33.581  1.00  0.00     0.049 A 
ATOM     52  C   UNL A   1      43.635  25.171  29.436  1.00  0.00     0.074 A 
ATOM     53  C   UNL A   1      44.481  28.833  34.542  1.00  0.00     0.029 A 
ATOM     54  N   UNL A   1      43.720  27.903  32.672  1.00  0.00    -0.354 N 
ATOM     55  N   UNL A   1      43.712  25.950  30.487  1.00  0.00    -0.248 NA
ATOM     56  C   UNL A   1      44.739  24.207  29.321  1.00  0.00     0.031 C 
ATOM     57  C   UNL A   1      45.333  27.780  34.192  1.00  0.00     0.029 A 
ATOM     58  C   UNL A   1      44.850  27.190  33.036  1.00  0.00     0.049 A 
ATOM     59  H   UNL A   1      43.162  27.714  31.883  1.00  0.00     0.167 HD
ATOM     60  C   UNL A   1      44.852  25.553  31.175  1.00  0.00     0.074 A 
ATOM     61  C   UNL A   1      45.423  24.447  30.432  1.00  0.00     0.031 C 
ATOM     62  C   UNL A   1      45.386  26.064  32.312  1.00  0.00     0.034 A 
BRANCH  49  63
ATOM     63  C   UNL A   1      42.385  31.011  34.488  1.00  0.00     0.023 A 
ATOM     64  C   UNL A   1      41.757  30.821  35.737  1.00  0.00     0.012 A 
ATOM     65  C   UNL A   1      43.016  32.239  34.213  1.00  0.00     0.148 A 
ATOM     66  C   UNL A   1      41.720  31.850  36.677  1.00  0.00     0.002 A 
ATOM     67  C   UNL A   1      43.017  33.243  35.175  1.00  0.00     0.091 A 
ATOM     68  F   UNL A   1      43.591  32.411  33.014  1.00  0.00    -0.205 F 
ATOM     69  C   UNL A   1      42.358  33.055  36.401  1.00  0.00     0.022 A 
BRANCH  67  70
ATOM     70  S   UNL A   1      43.886  34.799  34.949  1.00  0.00     0.127 S 
ATOM     71  O   UNL A   1      45.254  34.342  34.711  1.00  0.00    -0.237 OA
ATOM     72  O   UNL A   1      43.217  35.356  33.773  1.00  0.00    -0.237 OA
ATOM     73  O   UNL A   1      43.683  35.555  36.176  1.00  0.00    -0.744 OA
ENDBRANCH  67  70
ENDBRANCH  49  63
BRANCH  50  74
ATOM     74  C   UNL A   1      42.657  24.153  27.243  1.00  0.00     0.023 A 
ATOM     75  C   UNL A   1      43.368  24.502  26.080  1.00  0.00     0.012 A 
ATOM     76  C   UNL A   1      42.077  22.871  27.336  1.00  0.00     0.148 A 
ATOM     77  C   UNL A   1      43.478  23.604  25.017  1.00  0.00     0.002 A 
ATOM     78  C   UNL A   1      42.239  21.962  26.299  1.00  0.00     0.091 A 
ATOM     79  F   UNL A   1      41.397  22.563  28.449  1.00  0.00    -0.205 F 
ATOM     80  C   UNL A   1      42.925  22.332  25.132  1.00  0.00     0.022 A 
BRANCH  78  81
ATOM     81  S   UNL A   1      41.683  20.258  26.415  1.00  0.00     0.127 S 
ATOM     82  O   UNL A   1      42.379  19.639  25.289  1.00  0.00    -0.237 OA
ATOM     83  O   UNL A   1      42.180  19.870  27.735  1.00  0.00    -0.237 OA
ATOM     84  O   UNL A   1      40.231  20.308  26.310  1.00  0.00    -0.744 OA
ENDBRANCH  78  81
ENDBRANCH  50  74
BRANCH  62  85
ATOM     85  C   UNL A   1      46.635  25.418  32.852  1.00  0.00     0.023 A 
ATOM     86  C   UNL A   1      47.901  25.920  32.489  1.00  0.00     0.012 A 
ATOM     87  C   UNL A   1      46.550  24.362  33.781  1.00  0.00     0.148 A 
ATOM     88  C   UNL A   1      49.063  25.357  33.016  1.00  0.00     0.002 A 
ATOM     89  C   UNL A   1      47.709  23.842  34.343  1.00  0.00     0.091 A 
ATOM     90  F   UNL A   1      45.336  23.887  34.100  1.00  0.00    -0.205 F 
ATOM     91  C   UNL A   1      48.967  24.329  33.951  1.00  0.00     0.022 A 
BRANCH  89  92
ATOM     92  S   UNL A   1      47.679  22.586  35.627  1.00  0.00     0.127 S 
ATOM     93  O   UNL A   1      46.802  23.201  36.623  1.00  0.00    -0.237 OA
ATOM     94  O   UNL A   1      47.098  21.441  34.927  1.00  0.00    -0.237 OA
ATOM     95  O   UNL A   1      49.062  22.402  36.044  1.00  0.00    -0.744 OA
ENDBRANCH  89  92
ENDBRANCH  62  85
ENDBRANCH  36  37
ENDBRANCH  28  31
ENDBRANCH  26  27
ENDBRANCH  25  26
ENDBRANCH  24  25
ENDBRANCH  23  24
ENDBRANCH   1  23
TORSDOF 22
ENDMDL
MODEL 3
REMARK VINA RESULT:      -9.4      4.725      9.284
REMARK SMILES N#CCCNC(=O)COc1ccc(C(=O)NCCCCCCNC(=O)c2ccc(-c3c4nc(c(-c5cccc(S(=O)(=O)[O-])c5F)c5ccc([nH]5)c(-c5cccc(S(=O)(=O)[O-])c5F)c5nc(c(-c6cccc(S(=O)(=O)[O-])c6F)c6ccc3[nH]6)C=C5)C=C4)cc2)nc1
REMARK SMILES IDX 18 1 17 2 16 3 14 4 15 5 13 7 10 8 11 9 90 10 12 11 89 12
REMARK SMILES IDX 9 13 8 14 6 15 5 16 7 18 4 19 3 20 2 21 1 22 19 23 20 24
REMARK SMILES IDX 21 25 22 26 23 27 24 28 25 30 26 31 27 32 88 33 28 34 87 35
REMARK SMILES IDX 29 36 30 37 31 38 81 39 32 40 86 41 80 42 82 43 33 44 85 45
REMARK SMILES IDX 79 46 78 47 34 49 66 50 46 51 65 52 47 53 50 54 64 55 83 56
REMARK SMILES IDX 48 57 49 58 63 60 84 61 51 62 35 63 36 64 44 65 37 66 39 67
REMARK SMILES IDX 45 68 38 69 40 70 41 71 42 72 43 73 67 74 68 75 76 76 69 77
REMARK SMILES IDX 71 78 77 79 70 80 72 81 73 82 74 83 75 84 52 85 53 86 61 87
REMARK SMILES IDX 54 88 56 89 62 90 55 91 57 92 58 93 59 94 60 95
REMARK H PARENT 16 6 5 17 23 29 82 48 50 59
REMARK Flexibility Score: inf
ROOT
ATOM      1  C   UNL A   1      34.057  26.215  26.050  1.00  0.00     0.021 C 
ENDROOT
BRANCH   1   2
ATOM      2  C   UNL A   1      34.548  24.858  25.555  1.00  0.00     0.116 C 
BRANCH   2   3
ATOM      3  N   UNL A   1      33.784  23.745  26.091  1.00  0.00    -0.351 N 
ATOM      4  C   UNL A   1      32.433  23.458  26.092  1.00  0.00     0.269 C 
ATOM      5  O   UNL A   1      32.079  22.448  26.704  1.00  0.00    -0.268 OA
ATOM      6  H   UNL A   1      34.335  23.063  26.538  1.00  0.00     0.163 HD
BRANCH   4   7
ATOM      7  C   UNL A   1      31.403  24.323  25.415  1.00  0.00     0.128 A 
ATOM      8  C   UNL A   1      29.557  26.071  24.314  1.00  0.00     0.138 A 
ATOM      9  C   UNL A   1      30.265  25.207  23.491  1.00  0.00     0.050 A 
ATOM     10  C   UNL A   1      29.774  25.953  25.681  1.00  0.00     0.158 A 
ATOM     11  C   UNL A   1      31.165  24.296  24.049  1.00  0.00     0.038 A 
ATOM     12  N   UNL A   1      30.683  25.123  26.247  1.00  0.00    -0.247 NA
BRANCH   8  13
ATOM     13  O   UNL A   1      28.703  27.058  23.919  1.00  0.00    -0.482 OA
BRANCH  13  14
ATOM     14  C   UNL A   1      29.157  27.969  22.929  1.00  0.00     0.329 C 
BRANCH  14  15
ATOM     15  C   UNL A   1      29.770  29.303  23.373  1.00  0.00     0.257 C 
ATOM     16  N   UNL A   1      29.631  30.424  22.612  1.00  0.00    -0.352 N 
ATOM     17  H   UNL A   1      29.983  31.251  23.014  1.00  0.00     0.163 HD
ATOM     18  O   UNL A   1      30.407  29.380  24.425  1.00  0.00    -0.271 OA
BRANCH  16  19
ATOM     19  C   UNL A   1      29.039  30.578  21.293  1.00  0.00     0.131 C 
BRANCH  19  20
ATOM     20  C   UNL A   1      28.154  31.819  21.158  1.00  0.00     0.141 C 
BRANCH  20  21
ATOM     21  C   UNL A   1      28.527  32.861  22.201  1.00  0.00     0.064 C 
ATOM     22  N   UNL A   1      28.837  33.724  23.066  1.00  0.00    -0.198 NA
ENDBRANCH  20  21
ENDBRANCH  19  20
ENDBRANCH  16  19
ENDBRANCH  14  15
ENDBRANCH  13  14
ENDBRANCH   8  13
ENDBRANCH   4   7
ENDBRANCH   2   3
ENDBRANCH   1   2
BRANCH   1  23
ATOM     23  C   UNL A   1      33.530  27.165  24.974  1.00  0.00     0.002 C 
BRANCH  23  24
ATOM     24  C   UNL A   1      33.825  28.653  25.194  1.00  0.00     0.002 C 
BRANCH  24  25
ATOM     25  C   UNL A   1      33.548  29.189  26.602  1.00  0.00     0.021 C 
BRANCH  25  26
ATOM     26  C   UNL A   1      34.771  29.705  27.354  1.00  0.00     0.116 C 
BRANCH  26  27
ATOM     27  N   UNL A   1      34.465  30.883  28.148  1.00  0.00    -0.352 N 
ATOM     28  C   UNL A   1      35.120  31.395  29.242  1.00  0.00     0.251 C 
ATOM     29  H   UNL A   1      33.673  31.390  27.860  1.00  0.00     0.163 HD
ATOM     30  O   UNL A   1      34.592  32.274  29.914  1.00  0.00    -0.269 OA
BRANCH  28  31
ATOM     31  C   UNL A   1      36.457  30.880  29.611  1.00  0.00     0.039 A 
ATOM     32  C   UNL A   1      36.546  29.809  30.503  1.00  0.00     0.014 A 
ATOM     33  C   UNL A   1      37.618  31.466  29.098  1.00  0.00     0.014 A 
ATOM     34  C   UNL A   1      37.799  29.295  30.845  1.00  0.00     0.010 A 
ATOM     35  C   UNL A   1      38.860  30.904  29.381  1.00  0.00     0.010 A 
ATOM     36  C   UNL A   1      38.966  29.821  30.267  1.00  0.00    -0.014 A 
BRANCH  36  37
ATOM     37  C   UNL A   1      40.301  29.245  30.567  1.00  0.00     0.031 A 
ATOM     38  C   UNL A   1      41.150  29.824  31.666  1.00  0.00     0.074 A 
ATOM     39  C   UNL A   1      40.788  28.259  29.790  1.00  0.00     0.049 A 
ATOM     40  N   UNL A   1      42.357  29.487  32.040  1.00  0.00    -0.248 NA
ATOM     41  C   UNL A   1      40.582  30.949  32.428  1.00  0.00     0.031 C 
ATOM     42  C   UNL A   1      40.098  27.676  28.637  1.00  0.00     0.029 A 
ATOM     43  N   UNL A   1      41.990  27.597  29.829  1.00  0.00    -0.354 N 
ATOM     44  C   UNL A   1      42.710  30.380  33.044  1.00  0.00     0.074 A 
ATOM     45  C   UNL A   1      41.599  31.294  33.203  1.00  0.00     0.031 C 
ATOM     46  C   UNL A   1      40.888  26.747  28.075  1.00  0.00     0.029 A 
ATOM     47  C   UNL A   1      42.151  26.691  28.807  1.00  0.00     0.049 A 
ATOM     48  H   UNL A   1      42.671  27.755  30.521  1.00  0.00     0.167 HD
ATOM     49  C   UNL A   1      43.844  30.424  33.782  1.00  0.00     0.034 A 
ATOM     50  C   UNL A   1      43.201  25.911  28.483  1.00  0.00     0.034 A 
ATOM     51  C   UNL A   1      44.928  29.489  33.646  1.00  0.00     0.049 A 
ATOM     52  C   UNL A   1      44.429  25.939  29.352  1.00  0.00     0.074 A 
ATOM     53  C   UNL A   1      46.068  29.377  34.421  1.00  0.00     0.029 A 
ATOM     54  N   UNL A   1      45.017  28.517  32.661  1.00  0.00    -0.354 N 
ATOM     55  N   UNL A   1      44.670  26.670  30.413  1.00  0.00    -0.248 NA
ATOM     56  C   UNL A   1      45.512  25.009  29.004  1.00  0.00     0.031 C 
ATOM     57  C   UNL A   1      46.866  28.362  33.880  1.00  0.00     0.029 A 
ATOM     58  C   UNL A   1      46.203  27.815  32.793  1.00  0.00     0.049 A 
ATOM     59  H   UNL A   1      44.336  28.352  31.968  1.00  0.00     0.167 HD
ATOM     60  C   UNL A   1      45.916  26.269  30.877  1.00  0.00     0.074 A 
ATOM     61  C   UNL A   1      46.371  25.214  29.994  1.00  0.00     0.031 C 
ATOM     62  C   UNL A   1      46.626  26.739  31.933  1.00  0.00     0.034 A 
BRANCH  49  63
ATOM     63  C   UNL A   1      43.959  31.503  34.830  1.00  0.00     0.023 A 
ATOM     64  C   UNL A   1      44.291  32.820  34.449  1.00  0.00     0.012 A 
ATOM     65  C   UNL A   1      43.689  31.225  36.184  1.00  0.00     0.148 A 
ATOM     66  C   UNL A   1      44.394  33.831  35.402  1.00  0.00     0.002 A 
ATOM     67  C   UNL A   1      43.745  32.249  37.122  1.00  0.00     0.091 A 
ATOM     68  F   UNL A   1      43.395  29.964  36.533  1.00  0.00    -0.205 F 
ATOM     69  C   UNL A   1      44.111  33.549  36.735  1.00  0.00     0.022 A 
BRANCH  67  70
ATOM     70  S   UNL A   1      43.314  32.005  38.849  1.00  0.00     0.127 S 
ATOM     71  O   UNL A   1      44.129  30.843  39.196  1.00  0.00    -0.237 OA
ATOM     72  O   UNL A   1      43.755  33.262  39.456  1.00  0.00    -0.237 OA
ATOM     73  O   UNL A   1      41.874  31.792  38.877  1.00  0.00    -0.744 OA
ENDBRANCH  67  70
ENDBRANCH  49  63
BRANCH  50  74
ATOM     74  C   UNL A   1      43.110  25.003  27.306  1.00  0.00     0.023 A 
ATOM     75  C   UNL A   1      43.672  25.395  26.077  1.00  0.00     0.012 A 
ATOM     76  C   UNL A   1      42.510  23.732  27.414  1.00  0.00     0.148 A 
ATOM     77  C   UNL A   1      43.615  24.550  24.967  1.00  0.00     0.002 A 
ATOM     78  C   UNL A   1      42.509  22.873  26.323  1.00  0.00     0.091 A 
ATOM     79  F   UNL A   1      41.975  23.382  28.592  1.00  0.00    -0.205 F 
ATOM     80  C   UNL A   1      43.045  23.285  25.094  1.00  0.00     0.022 A 
BRANCH  78  81
ATOM     81  S   UNL A   1      41.924  21.177  26.431  1.00  0.00     0.127 S 
ATOM     82  O   UNL A   1      40.499  21.335  26.152  1.00  0.00    -0.237 OA
ATOM     83  O   UNL A   1      42.691  20.527  25.368  1.00  0.00    -0.237 OA
ATOM     84  O   UNL A   1      42.259  20.729  27.775  1.00  0.00    -0.744 OA
ENDBRANCH  78  81
ENDBRANCH  50  74
BRANCH  62  85
ATOM     85  C   UNL A   1      47.960  26.098  32.222  1.00  0.00     0.023 A 
ATOM     86  C   UNL A   1      49.113  26.536  31.543  1.00  0.00     0.012 A 
ATOM     87  C   UNL A   1      48.078  25.115  33.224  1.00  0.00     0.148 A 
ATOM     88  C   UNL A   1      50.359  25.980  31.832  1.00  0.00     0.002 A 
ATOM     89  C   UNL A   1      49.330  24.605  33.545  1.00  0.00     0.091 A 
ATOM     90  F   UNL A   1      46.965  24.699  33.848  1.00  0.00    -0.205 F 
ATOM     91  C   UNL A   1      50.469  25.026  32.841  1.00  0.00     0.022 A 
BRANCH  89  92
ATOM     92  S   UNL A   1      49.582  23.446  34.895  1.00  0.00     0.127 S 
ATOM     93  O   UNL A   1      49.496  22.160  34.203  1.00  0.00    -0.237 OA
ATOM     94  O   UNL A   1      50.922  23.800  35.361  1.00  0.00    -0.237 OA
ATOM     95  O   UNL A   1      48.518  23.709  35.855  1.00  0.00    -0.744 OA
ENDBRANCH  89  92
ENDBRANCH  62  85
ENDBRANCH  36  37
ENDBRANCH  28  31
ENDBRANCH  26  27
ENDBRANCH  25  26
ENDBRANCH  24  25
ENDBRANCH  23  24
ENDBRANCH   1  23
TORSDOF 22
ENDMDL
