MODEL 1
REMARK VINA RESULT:     -11.4      0.000      0.000
REMARK SMILES CC(C)C[C@H](NC(=O)c1cc(Cl)nnc1Cl)C(=O)NCCCCCCNC(=O)c1ccc(-c2c3nc(c(-c4cccc(S(=O)(=O)[O-])c4F)c4ccc([nH]4)c(-c4cccc(S(=O)(=O)[O-])c4F)c4nc(c(-c5cccc(S(=O)(=O)[O-])c5F)c5ccc2[nH]5)C=C4)C=C3)cc1
REMARK SMILES IDX 23 1 22 2 21 3 20 4 19 5 17 6 18 7 5 9 4 10 2 11 1 12 3 13
REMARK SMILES IDX 6 14 7 15 8 17 9 18 10 19 15 20 11 21 14 22 16 23 12 24
REMARK SMILES IDX 13 25 24 26 25 27 26 28 27 29 28 31 29 32 30 33 91 34 31 35
REMARK SMILES IDX 90 36 32 37 33 38 34 39 84 40 35 41 89 42 83 43 85 44 36 45
REMARK SMILES IDX 88 46 82 47 81 48 37 50 69 51 49 52 68 53 50 54 53 55 67 56
REMARK SMILES IDX 86 57 51 58 52 59 66 61 87 62 54 63 38 64 39 65 47 66 40 67
REMARK SMILES IDX 42 68 48 69 41 70 43 71 44 72 45 73 46 74 70 75 71 76 79 77
REMARK SMILES IDX 72 78 74 79 80 80 73 81 75 82 76 83 77 84 78 85 55 86 56 87
REMARK SMILES IDX 64 88 57 89 59 90 65 91 58 92 60 93 61 94 62 95 63 96
REMARK H PARENT 19 8 6 16 26 30 85 49 53 60
REMARK Flexibility Score: inf
ROOT
ATOM      1  C   UNL A   1      34.919  21.404  25.044  1.00  0.00     0.002 C 
ENDROOT
BRANCH   1   2
ATOM      2  C   UNL A   1      33.535  22.029  25.246  1.00  0.00     0.002 C 
BRANCH   2   3
ATOM      3  C   UNL A   1      33.276  22.608  26.643  1.00  0.00     0.021 C 
BRANCH   3   4
ATOM      4  C   UNL A   1      32.915  24.091  26.655  1.00  0.00     0.116 C 
BRANCH   4   5
ATOM      5  N   UNL A   1      31.478  24.273  26.767  1.00  0.00    -0.354 N 
ATOM      6  C   UNL A   1      30.679  25.327  26.457  1.00  0.00     0.242 C 
ATOM      7  O   UNL A   1      29.460  25.177  26.586  1.00  0.00    -0.273 OA
ATOM      8  H   UNL A   1      30.999  23.494  27.130  1.00  0.00     0.163 HD
BRANCH   6   9
ATOM      9  C   UNL A   1      31.248  26.633  25.875  1.00  0.00     0.171 C 
BRANCH   9  10
ATOM     10  C   UNL A   1      31.611  27.635  26.985  1.00  0.00     0.038 C 
BRANCH  10  11
ATOM     11  C   UNL A   1      32.966  28.342  26.756  1.00  0.00    -0.015 C 
ATOM     12  C   UNL A   1      33.928  27.485  25.932  1.00  0.00     0.007 C 
ATOM     13  C   UNL A   1      32.742  29.686  26.058  1.00  0.00     0.007 C 
ENDBRANCH  10  11
ENDBRANCH   9  10
BRANCH   9  14
ATOM     14  N   UNL A   1      30.345  27.202  24.866  1.00  0.00    -0.340 N 
ATOM     15  C   UNL A   1      30.452  27.170  23.502  1.00  0.00     0.255 C 
ATOM     16  H   UNL A   1      29.555  27.670  25.220  1.00  0.00     0.164 HD
ATOM     17  O   UNL A   1      29.623  27.721  22.784  1.00  0.00    -0.269 OA
BRANCH  15  18
ATOM     18  C   UNL A   1      31.594  26.512  22.872  1.00  0.00     0.082 A 
ATOM     19  C   UNL A   1      31.591  25.121  22.784  1.00  0.00     0.060 A 
ATOM     20  C   UNL A   1      32.693  27.220  22.420  1.00  0.00     0.164 A 
ATOM     21  C   UNL A   1      32.675  24.526  22.180  1.00  0.00     0.152 A 
ATOM     22  N   UNL A   1      33.729  26.600  21.819  1.00  0.00    -0.136 NA
ATOM     23  Cl  UNL A   1      32.892  28.917  22.577  1.00  0.00    -0.059 Cl
ATOM     24  Cl  UNL A   1      32.789  22.831  21.998  1.00  0.00    -0.060 Cl
ATOM     25  N   UNL A   1      33.714  25.233  21.687  1.00  0.00    -0.137 NA
ENDBRANCH  15  18
ENDBRANCH   9  14
ENDBRANCH   6   9
ENDBRANCH   4   5
ENDBRANCH   3   4
ENDBRANCH   2   3
ENDBRANCH   1   2
BRANCH   1  26
ATOM     26  C   UNL A   1      36.041  22.036  25.871  1.00  0.00     0.021 C 
BRANCH  26  27
ATOM     27  C   UNL A   1      37.401  22.049  25.184  1.00  0.00     0.116 C 
BRANCH  27  28
ATOM     28  N   UNL A   1      38.255  20.966  25.645  1.00  0.00    -0.352 N 
ATOM     29  C   UNL A   1      39.469  21.056  26.278  1.00  0.00     0.251 C 
ATOM     30  H   UNL A   1      37.920  20.055  25.483  1.00  0.00     0.163 HD
ATOM     31  O   UNL A   1      40.163  20.060  26.451  1.00  0.00    -0.269 OA
BRANCH  29  32
ATOM     32  C   UNL A   1      39.932  22.382  26.731  1.00  0.00     0.039 A 
ATOM     33  C   UNL A   1      40.865  22.461  27.765  1.00  0.00     0.014 A 
ATOM     34  C   UNL A   1      39.468  23.539  26.094  1.00  0.00     0.014 A 
ATOM     35  C   UNL A   1      41.376  23.706  28.133  1.00  0.00     0.010 A 
ATOM     36  C   UNL A   1      40.015  24.772  26.429  1.00  0.00     0.010 A 
ATOM     37  C   UNL A   1      40.968  24.867  27.454  1.00  0.00    -0.014 A 
BRANCH  37  38
ATOM     38  C   UNL A   1      41.502  26.198  27.825  1.00  0.00     0.031 A 
ATOM     39  C   UNL A   1      42.919  26.552  27.468  1.00  0.00     0.074 A 
ATOM     40  C   UNL A   1      40.737  27.061  28.520  1.00  0.00     0.049 A 
ATOM     41  N   UNL A   1      43.583  27.645  27.737  1.00  0.00    -0.248 NA
ATOM     42  C   UNL A   1      43.696  25.546  26.720  1.00  0.00     0.031 C 
ATOM     43  C   UNL A   1      39.359  26.814  28.955  1.00  0.00     0.029 A 
ATOM     44  N   UNL A   1      41.012  28.319  28.995  1.00  0.00    -0.354 N 
ATOM     45  C   UNL A   1      44.854  27.452  27.211  1.00  0.00     0.074 A 
ATOM     46  C   UNL A   1      44.883  26.131  26.629  1.00  0.00     0.031 C 
ATOM     47  C   UNL A   1      38.907  27.892  29.618  1.00  0.00     0.029 A 
ATOM     48  C   UNL A   1      39.966  28.895  29.677  1.00  0.00     0.049 A 
ATOM     49  H   UNL A   1      41.878  28.767  28.859  1.00  0.00     0.167 HD
ATOM     50  C   UNL A   1      45.893  28.317  27.186  1.00  0.00     0.034 A 
ATOM     51  C   UNL A   1      39.872  30.100  30.276  1.00  0.00     0.034 A 
ATOM     52  C   UNL A   1      45.848  29.649  27.719  1.00  0.00     0.049 A 
ATOM     53  C   UNL A   1      41.049  31.038  30.229  1.00  0.00     0.074 A 
ATOM     54  C   UNL A   1      46.839  30.613  27.689  1.00  0.00     0.029 A 
ATOM     55  N   UNL A   1      44.759  30.206  28.365  1.00  0.00    -0.354 N 
ATOM     56  N   UNL A   1      42.207  30.874  29.639  1.00  0.00    -0.248 NA
ATOM     57  C   UNL A   1      40.897  32.335  30.906  1.00  0.00     0.031 C 
ATOM     58  C   UNL A   1      46.350  31.758  28.322  1.00  0.00     0.029 A 
ATOM     59  C   UNL A   1      45.052  31.505  28.736  1.00  0.00     0.049 A 
ATOM     60  H   UNL A   1      43.905  29.747  28.535  1.00  0.00     0.167 HD
ATOM     61  C   UNL A   1      42.906  32.059  29.838  1.00  0.00     0.074 A 
ATOM     62  C   UNL A   1      42.041  32.935  30.601  1.00  0.00     0.031 C 
ATOM     63  C   UNL A   1      44.155  32.386  29.434  1.00  0.00     0.034 A 
BRANCH  50  64
ATOM     64  C   UNL A   1      47.154  27.898  26.488  1.00  0.00     0.023 A 
ATOM     65  C   UNL A   1      48.143  27.219  27.224  1.00  0.00     0.012 A 
ATOM     66  C   UNL A   1      47.292  28.039  25.094  1.00  0.00     0.148 A 
ATOM     67  C   UNL A   1      49.254  26.677  26.582  1.00  0.00     0.002 A 
ATOM     68  C   UNL A   1      48.388  27.472  24.457  1.00  0.00     0.091 A 
ATOM     69  F   UNL A   1      46.336  28.696  24.423  1.00  0.00    -0.205 F 
ATOM     70  C   UNL A   1      49.370  26.793  25.199  1.00  0.00     0.022 A 
BRANCH  68  71
ATOM     71  S   UNL A   1      48.607  27.512  22.675  1.00  0.00     0.127 S 
ATOM     72  O   UNL A   1      48.618  26.087  22.346  1.00  0.00    -0.237 OA
ATOM     73  O   UNL A   1      47.411  28.230  22.239  1.00  0.00    -0.237 OA
ATOM     74  O   UNL A   1      49.866  28.203  22.437  1.00  0.00    -0.744 OA
ENDBRANCH  68  71
ENDBRANCH  50  64
BRANCH  51  75
ATOM     75  C   UNL A   1      38.590  30.527  30.898  1.00  0.00     0.023 A 
ATOM     76  C   UNL A   1      38.359  30.230  32.256  1.00  0.00     0.012 A 
ATOM     77  C   UNL A   1      37.611  31.229  30.171  1.00  0.00     0.148 A 
ATOM     78  C   UNL A   1      37.166  30.605  32.873  1.00  0.00     0.002 A 
ATOM     79  C   UNL A   1      36.439  31.633  30.802  1.00  0.00     0.091 A 
ATOM     80  F   UNL A   1      37.850  31.493  28.878  1.00  0.00    -0.205 F 
ATOM     81  C   UNL A   1      36.210  31.311  32.149  1.00  0.00     0.022 A 
BRANCH  79  82
ATOM     82  S   UNL A   1      35.189  32.625  29.978  1.00  0.00     0.127 S 
ATOM     83  O   UNL A   1      34.712  31.708  28.946  1.00  0.00    -0.237 OA
ATOM     84  O   UNL A   1      34.241  32.878  31.064  1.00  0.00    -0.237 OA
ATOM     85  O   UNL A   1      35.880  33.813  29.496  1.00  0.00    -0.744 OA
ENDBRANCH  79  82
ENDBRANCH  51  75
BRANCH  63  86
ATOM     86  C   UNL A   1      44.676  33.756  29.761  1.00  0.00     0.023 A 
ATOM     87  C   UNL A   1      45.450  33.942  30.921  1.00  0.00     0.012 A 
ATOM     88  C   UNL A   1      44.525  34.814  28.843  1.00  0.00     0.148 A 
ATOM     89  C   UNL A   1      46.067  35.168  31.166  1.00  0.00     0.002 A 
ATOM     90  C   UNL A   1      45.171  36.020  29.076  1.00  0.00     0.091 A 
ATOM     91  F   UNL A   1      43.777  34.607  27.749  1.00  0.00    -0.205 F 
ATOM     92  C   UNL A   1      45.939  36.201  30.239  1.00  0.00     0.022 A 
BRANCH  90  93
ATOM     93  S   UNL A   1      45.133  37.382  27.905  1.00  0.00     0.127 S 
ATOM     94  O   UNL A   1      43.703  37.685  27.849  1.00  0.00    -0.237 OA
ATOM     95  O   UNL A   1      45.946  38.392  28.580  1.00  0.00    -0.237 OA
ATOM     96  O   UNL A   1      45.705  36.867  26.667  1.00  0.00    -0.744 OA
ENDBRANCH  90  93
ENDBRANCH  63  86
ENDBRANCH  37  38
ENDBRANCH  29  32
ENDBRANCH  27  28
ENDBRANCH  26  27
ENDBRANCH   1  26
TORSDOF 20
ENDMDL
MODEL 2
REMARK VINA RESULT:     -11.4      1.625      2.473
REMARK SMILES CC(C)C[C@H](NC(=O)c1cc(Cl)nnc1Cl)C(=O)NCCCCCCNC(=O)c1ccc(-c2c3nc(c(-c4cccc(S(=O)(=O)[O-])c4F)c4ccc([nH]4)c(-c4cccc(S(=O)(=O)[O-])c4F)c4nc(c(-c5cccc(S(=O)(=O)[O-])c5F)c5ccc2[nH]5)C=C4)C=C3)cc1
REMARK SMILES IDX 23 1 22 2 21 3 20 4 19 5 17 6 18 7 5 9 4 10 2 11 1 12 3 13
REMARK SMILES IDX 6 14 7 15 8 17 9 18 10 19 15 20 11 21 14 22 16 23 12 24
REMARK SMILES IDX 13 25 24 26 25 27 26 28 27 29 28 31 29 32 30 33 91 34 31 35
REMARK SMILES IDX 90 36 32 37 33 38 34 39 84 40 35 41 89 42 83 43 85 44 36 45
REMARK SMILES IDX 88 46 82 47 81 48 37 50 69 51 49 52 68 53 50 54 53 55 67 56
REMARK SMILES IDX 86 57 51 58 52 59 66 61 87 62 54 63 38 64 39 65 47 66 40 67
REMARK SMILES IDX 42 68 48 69 41 70 43 71 44 72 45 73 46 74 70 75 71 76 79 77
REMARK SMILES IDX 72 78 74 79 80 80 73 81 75 82 76 83 77 84 78 85 55 86 56 87
REMARK SMILES IDX 64 88 57 89 59 90 65 91 58 92 60 93 61 94 62 95 63 96
REMARK H PARENT 19 8 6 16 26 30 85 49 53 60
REMARK Flexibility Score: inf
ROOT
ATOM      1  C   UNL A   1      36.789  20.321  24.983  1.00  0.00     0.002 C 
ENDROOT
BRANCH   1   2
ATOM      2  C   UNL A   1      36.734  21.850  25.066  1.00  0.00     0.002 C 
BRANCH   2   3
ATOM      3  C   UNL A   1      35.325  22.456  25.048  1.00  0.00     0.021 C 
BRANCH   3   4
ATOM      4  C   UNL A   1      35.062  23.479  26.151  1.00  0.00     0.116 C 
BRANCH   4   5
ATOM      5  N   UNL A   1      33.909  23.098  26.946  1.00  0.00    -0.354 N 
ATOM      6  C   UNL A   1      32.614  23.508  26.906  1.00  0.00     0.242 C 
ATOM      7  O   UNL A   1      31.815  22.951  27.664  1.00  0.00    -0.273 OA
ATOM      8  H   UNL A   1      34.099  22.422  27.636  1.00  0.00     0.163 HD
BRANCH   6   9
ATOM      9  C   UNL A   1      32.128  24.559  25.893  1.00  0.00     0.171 C 
BRANCH   9  10
ATOM     10  C   UNL A   1      31.607  25.825  26.597  1.00  0.00     0.038 C 
BRANCH  10  11
ATOM     11  C   UNL A   1      32.614  26.996  26.582  1.00  0.00    -0.015 C 
ATOM     12  C   UNL A   1      33.792  26.727  25.643  1.00  0.00     0.007 C 
ATOM     13  C   UNL A   1      31.907  28.288  26.166  1.00  0.00     0.007 C 
ENDBRANCH  10  11
ENDBRANCH   9  10
BRANCH   9  14
ATOM     14  N   UNL A   1      31.151  23.983  24.959  1.00  0.00    -0.340 N 
ATOM     15  C   UNL A   1      30.969  24.255  23.631  1.00  0.00     0.255 C 
ATOM     16  H   UNL A   1      30.546  23.309  25.342  1.00  0.00     0.164 HD
ATOM     17  O   UNL A   1      30.084  23.707  22.982  1.00  0.00    -0.269 OA
BRANCH  15  18
ATOM     18  C   UNL A   1      31.806  25.252  22.965  1.00  0.00     0.082 A 
ATOM     19  C   UNL A   1      31.398  26.585  22.994  1.00  0.00     0.060 A 
ATOM     20  C   UNL A   1      32.947  24.904  22.265  1.00  0.00     0.164 A 
ATOM     21  C   UNL A   1      32.208  27.504  22.367  1.00  0.00     0.152 A 
ATOM     22  N   UNL A   1      33.722  25.839  21.677  1.00  0.00    -0.136 NA
ATOM     23  Cl  UNL A   1      33.500  23.296  22.037  1.00  0.00    -0.059 Cl
ATOM     24  Cl  UNL A   1      31.828  29.170  22.339  1.00  0.00    -0.060 Cl
ATOM     25  N   UNL A   1      33.352  27.159  21.739  1.00  0.00    -0.137 NA
ENDBRANCH  15  18
ENDBRANCH   9  14
ENDBRANCH   6   9
ENDBRANCH   4   5
ENDBRANCH   3   4
ENDBRANCH   2   3
ENDBRANCH   1   2
BRANCH   1  26
ATOM     26  C   UNL A   1      38.188  19.735  24.783  1.00  0.00     0.021 C 
BRANCH  26  27
ATOM     27  C   UNL A   1      39.191  20.110  25.868  1.00  0.00     0.116 C 
BRANCH  27  28
ATOM     28  N   UNL A   1      40.273  19.143  25.966  1.00  0.00    -0.352 N 
ATOM     29  C   UNL A   1      41.612  19.387  26.143  1.00  0.00     0.251 C 
ATOM     30  H   UNL A   1      40.013  18.197  25.897  1.00  0.00     0.163 HD
ATOM     31  O   UNL A   1      42.436  18.486  26.028  1.00  0.00    -0.269 OA
BRANCH  29  32
ATOM     32  C   UNL A   1      42.043  20.763  26.455  1.00  0.00     0.039 A 
ATOM     33  C   UNL A   1      42.188  21.684  25.416  1.00  0.00     0.014 A 
ATOM     34  C   UNL A   1      42.259  21.143  27.784  1.00  0.00     0.014 A 
ATOM     35  C   UNL A   1      42.504  23.009  25.715  1.00  0.00     0.010 A 
ATOM     36  C   UNL A   1      42.525  22.475  28.083  1.00  0.00     0.010 A 
ATOM     37  C   UNL A   1      42.655  23.417  27.051  1.00  0.00    -0.014 A 
BRANCH  37  38
ATOM     38  C   UNL A   1      42.985  24.820  27.390  1.00  0.00     0.031 A 
ATOM     39  C   UNL A   1      44.390  25.318  27.197  1.00  0.00     0.074 A 
ATOM     40  C   UNL A   1      42.041  25.627  27.914  1.00  0.00     0.049 A 
ATOM     41  N   UNL A   1      44.888  26.495  27.469  1.00  0.00    -0.248 NA
ATOM     42  C   UNL A   1      45.368  24.369  26.632  1.00  0.00     0.031 C 
ATOM     43  C   UNL A   1      40.652  25.245  28.182  1.00  0.00     0.029 A 
ATOM     44  N   UNL A   1      42.110  26.934  28.327  1.00  0.00    -0.354 N 
ATOM     45  C   UNL A   1      46.233  26.423  27.129  1.00  0.00     0.074 A 
ATOM     46  C   UNL A   1      46.486  25.083  26.654  1.00  0.00     0.031 C 
ATOM     47  C   UNL A   1      39.998  26.299  28.699  1.00  0.00     0.029 A 
ATOM     48  C   UNL A   1      40.924  27.422  28.822  1.00  0.00     0.049 A 
ATOM     49  H   UNL A   1      42.932  27.472  28.272  1.00  0.00     0.167 HD
ATOM     50  C   UNL A   1      47.165  27.401  27.176  1.00  0.00     0.034 A 
ATOM     51  C   UNL A   1      40.617  28.639  29.314  1.00  0.00     0.034 A 
ATOM     52  C   UNL A   1      46.902  28.747  27.599  1.00  0.00     0.049 A 
ATOM     53  C   UNL A   1      41.680  29.705  29.352  1.00  0.00     0.074 A 
ATOM     54  C   UNL A   1      47.777  29.818  27.629  1.00  0.00     0.029 A 
ATOM     55  N   UNL A   1      45.681  29.209  28.055  1.00  0.00    -0.354 N 
ATOM     56  N   UNL A   1      42.919  29.644  28.932  1.00  0.00    -0.248 NA
ATOM     57  C   UNL A   1      41.296  31.013  29.906  1.00  0.00     0.031 C 
ATOM     58  C   UNL A   1      47.084  30.932  28.106  1.00  0.00     0.029 A 
ATOM     59  C   UNL A   1      45.776  30.553  28.364  1.00  0.00     0.049 A 
ATOM     60  H   UNL A   1      44.866  28.664  28.145  1.00  0.00     0.167 HD
ATOM     61  C   UNL A   1      43.450  30.913  29.133  1.00  0.00     0.074 A 
ATOM     62  C   UNL A   1      42.399  31.724  29.710  1.00  0.00     0.031 C 
ATOM     63  C   UNL A   1      44.701  31.361  28.873  1.00  0.00     0.034 A 
BRANCH  50  64
ATOM     64  C   UNL A   1      48.548  27.093  26.682  1.00  0.00     0.023 A 
ATOM     65  C   UNL A   1      49.401  26.318  27.490  1.00  0.00     0.012 A 
ATOM     66  C   UNL A   1      48.944  27.438  25.376  1.00  0.00     0.148 A 
ATOM     67  C   UNL A   1      50.631  25.881  27.003  1.00  0.00     0.002 A 
ATOM     68  C   UNL A   1      50.159  26.975  24.888  1.00  0.00     0.091 A 
ATOM     69  F   UNL A   1      48.114  28.183  24.634  1.00  0.00    -0.205 F 
ATOM     70  C   UNL A   1      51.003  26.198  25.700  1.00  0.00     0.022 A 
BRANCH  68  71
ATOM     71  S   UNL A   1      50.712  27.277  23.206  1.00  0.00     0.127 S 
ATOM     72  O   UNL A   1      50.761  28.738  23.169  1.00  0.00    -0.237 OA
ATOM     73  O   UNL A   1      52.019  26.623  23.194  1.00  0.00    -0.237 OA
ATOM     74  O   UNL A   1      49.711  26.677  22.336  1.00  0.00    -0.744 OA
ENDBRANCH  68  71
ENDBRANCH  50  64
BRANCH  51  75
ATOM     75  C   UNL A   1      39.222  28.948  29.730  1.00  0.00     0.023 A 
ATOM     76  C   UNL A   1      38.832  28.681  31.057  1.00  0.00     0.012 A 
ATOM     77  C   UNL A   1      38.290  29.511  28.838  1.00  0.00     0.148 A 
ATOM     78  C   UNL A   1      37.531  28.946  31.482  1.00  0.00     0.002 A 
ATOM     79  C   UNL A   1      37.005  29.809  29.279  1.00  0.00     0.091 A 
ATOM     80  F   UNL A   1      38.682  29.749  27.578  1.00  0.00    -0.205 F 
ATOM     81  C   UNL A   1      36.620  29.515  30.597  1.00  0.00     0.022 A 
BRANCH  79  82
ATOM     82  S   UNL A   1      35.790  30.626  28.239  1.00  0.00     0.127 S 
ATOM     83  O   UNL A   1      34.786  31.034  29.217  1.00  0.00    -0.237 OA
ATOM     84  O   UNL A   1      36.573  31.722  27.666  1.00  0.00    -0.237 OA
ATOM     85  O   UNL A   1      35.360  29.626  27.272  1.00  0.00    -0.744 OA
ENDBRANCH  79  82
ENDBRANCH  51  75
BRANCH  63  86
ATOM     86  C   UNL A   1      45.020  32.800  29.163  1.00  0.00     0.023 A 
ATOM     87  C   UNL A   1      45.602  33.143  30.397  1.00  0.00     0.012 A 
ATOM     88  C   UNL A   1      44.881  33.778  28.159  1.00  0.00     0.148 A 
ATOM     89  C   UNL A   1      46.042  34.445  30.630  1.00  0.00     0.002 A 
ATOM     90  C   UNL A   1      45.353  35.063  28.385  1.00  0.00     0.091 A 
ATOM     91  F   UNL A   1      44.317  33.421  26.995  1.00  0.00    -0.205 F 
ATOM     92  C   UNL A   1      45.930  35.400  29.621  1.00  0.00     0.022 A 
BRANCH  90  93
ATOM     93  S   UNL A   1      45.327  36.340  27.122  1.00  0.00     0.127 S 
ATOM     94  O   UNL A   1      46.017  35.678  26.015  1.00  0.00    -0.237 OA
ATOM     95  O   UNL A   1      43.894  36.541  26.915  1.00  0.00    -0.237 OA
ATOM     96  O   UNL A   1      46.027  37.485  27.689  1.00  0.00    -0.744 OA
ENDBRANCH  90  93
ENDBRANCH  63  86
ENDBRANCH  37  38
ENDBRANCH  29  32
ENDBRANCH  27  28
ENDBRANCH  26  27
ENDBRANCH   1  26
TORSDOF 20
ENDMDL
MODEL 3
REMARK VINA RESULT:     -11.3      2.503      7.692
REMARK SMILES CC(C)C[C@H](NC(=O)c1cc(Cl)nnc1Cl)C(=O)NCCCCCCNC(=O)c1ccc(-c2c3nc(c(-c4cccc(S(=O)(=O)[O-])c4F)c4ccc([nH]4)c(-c4cccc(S(=O)(=O)[O-])c4F)c4nc(c(-c5cccc(S(=O)(=O)[O-])c5F)c5ccc2[nH]5)C=C4)C=C3)cc1
REMARK SMILES IDX 23 1 22 2 21 3 20 4 19 5 17 6 18 7 5 9 4 10 2 11 1 12 3 13
REMARK SMILES IDX 6 14 7 15 8 17 9 18 10 19 15 20 11 21 14 22 16 23 12 24
REMARK SMILES IDX 13 25 24 26 25 27 26 28 27 29 28 31 29 32 30 33 91 34 31 35
REMARK SMILES IDX 90 36 32 37 33 38 34 39 84 40 35 41 89 42 83 43 85 44 36 45
REMARK SMILES IDX 88 46 82 47 81 48 37 50 69 51 49 52 68 53 50 54 53 55 67 56
REMARK SMILES IDX 86 57 51 58 52 59 66 61 87 62 54 63 38 64 39 65 47 66 40 67
REMARK SMILES IDX 42 68 48 69 41 70 43 71 44 72 45 73 46 74 70 75 71 76 79 77
REMARK SMILES IDX 72 78 74 79 80 80 73 81 75 82 76 83 77 84 78 85 55 86 56 87
REMARK SMILES IDX 64 88 57 89 59 90 65 91 58 92 60 93 61 94 62 95 63 96
REMARK H PARENT 19 8 6 16 26 30 85 49 53 60
REMARK Flexibility Score: inf
ROOT
ATOM      1  C   UNL A   1      35.578  21.651  24.573  1.00  0.00     0.002 C 
ENDROOT
BRANCH   1   2
ATOM      2  C   UNL A   1      34.206  20.987  24.727  1.00  0.00     0.002 C 
BRANCH   2   3
ATOM      3  C   UNL A   1      33.228  21.716  25.657  1.00  0.00     0.021 C 
BRANCH   3   4
ATOM      4  C   UNL A   1      31.794  21.786  25.136  1.00  0.00     0.116 C 
BRANCH   4   5
ATOM      5  N   UNL A   1      30.882  22.206  26.185  1.00  0.00    -0.354 N 
ATOM      6  C   UNL A   1      30.491  23.442  26.594  1.00  0.00     0.242 C 
ATOM      7  O   UNL A   1      29.630  23.505  27.477  1.00  0.00    -0.273 OA
ATOM      8  H   UNL A   1      30.474  21.465  26.687  1.00  0.00     0.163 HD
BRANCH   6   9
ATOM      9  C   UNL A   1      31.022  24.722  25.926  1.00  0.00     0.171 C 
BRANCH   9  10
ATOM     10  C   UNL A   1      31.809  25.594  26.921  1.00  0.00     0.038 C 
BRANCH  10  11
ATOM     11  C   UNL A   1      32.038  27.039  26.425  1.00  0.00    -0.015 C 
ATOM     12  C   UNL A   1      31.648  28.077  27.479  1.00  0.00     0.007 C 
ATOM     13  C   UNL A   1      33.504  27.229  26.030  1.00  0.00     0.007 C 
ENDBRANCH  10  11
ENDBRANCH   9  10
BRANCH   9  14
ATOM     14  N   UNL A   1      29.942  25.457  25.255  1.00  0.00    -0.340 N 
ATOM     15  C   UNL A   1      29.928  26.011  24.004  1.00  0.00     0.255 C 
ATOM     16  H   UNL A   1      29.114  25.564  25.777  1.00  0.00     0.164 HD
ATOM     17  O   UNL A   1      28.951  26.625  23.588  1.00  0.00    -0.269 OA
BRANCH  15  18
ATOM     18  C   UNL A   1      31.111  25.921  23.150  1.00  0.00     0.082 A 
ATOM     19  C   UNL A   1      31.611  24.657  22.843  1.00  0.00     0.060 A 
ATOM     20  C   UNL A   1      31.775  27.046  22.695  1.00  0.00     0.164 A 
ATOM     21  C   UNL A   1      32.721  24.600  22.031  1.00  0.00     0.152 A 
ATOM     22  N   UNL A   1      32.851  26.945  21.887  1.00  0.00    -0.136 NA
ATOM     23  Cl  UNL A   1      31.353  28.659  23.096  1.00  0.00    -0.059 Cl
ATOM     24  Cl  UNL A   1      33.424  23.113  21.569  1.00  0.00    -0.060 Cl
ATOM     25  N   UNL A   1      33.324  25.703  21.542  1.00  0.00    -0.137 NA
ENDBRANCH  15  18
ENDBRANCH   9  14
ENDBRANCH   6   9
ENDBRANCH   4   5
ENDBRANCH   3   4
ENDBRANCH   2   3
ENDBRANCH   1   2
BRANCH   1  26
ATOM     26  C   UNL A   1      35.617  23.142  24.913  1.00  0.00     0.021 C 
BRANCH  26  27
ATOM     27  C   UNL A   1      36.612  23.516  26.005  1.00  0.00     0.116 C 
BRANCH  27  28
ATOM     28  N   UNL A   1      37.701  22.556  26.100  1.00  0.00    -0.352 N 
ATOM     29  C   UNL A   1      39.015  22.795  26.415  1.00  0.00     0.251 C 
ATOM     30  H   UNL A   1      37.466  21.618  25.916  1.00  0.00     0.163 HD
ATOM     31  O   UNL A   1      39.863  21.920  26.284  1.00  0.00    -0.269 OA
BRANCH  29  32
ATOM     32  C   UNL A   1      39.391  24.138  26.898  1.00  0.00     0.039 A 
ATOM     33  C   UNL A   1      39.212  24.452  28.246  1.00  0.00     0.014 A 
ATOM     34  C   UNL A   1      39.962  25.063  26.016  1.00  0.00     0.014 A 
ATOM     35  C   UNL A   1      39.653  25.686  28.725  1.00  0.00     0.010 A 
ATOM     36  C   UNL A   1      40.444  26.271  26.507  1.00  0.00     0.010 A 
ATOM     37  C   UNL A   1      40.289  26.595  27.863  1.00  0.00    -0.014 A 
BRANCH  37  38
ATOM     38  C   UNL A   1      40.769  27.908  28.353  1.00  0.00     0.031 A 
ATOM     39  C   UNL A   1      39.775  28.926  28.836  1.00  0.00     0.074 A 
ATOM     40  C   UNL A   1      42.084  28.200  28.320  1.00  0.00     0.049 A 
ATOM     41  N   UNL A   1      39.988  30.141  29.265  1.00  0.00    -0.248 NA
ATOM     42  C   UNL A   1      38.353  28.535  28.827  1.00  0.00     0.031 C 
ATOM     43  C   UNL A   1      43.140  27.305  27.839  1.00  0.00     0.029 A 
ATOM     44  N   UNL A   1      42.757  29.338  28.686  1.00  0.00    -0.354 N 
ATOM     45  C   UNL A   1      38.736  30.664  29.558  1.00  0.00     0.074 A 
ATOM     46  C   UNL A   1      37.760  29.649  29.237  1.00  0.00     0.031 C 
ATOM     47  C   UNL A   1      44.327  27.924  27.954  1.00  0.00     0.029 A 
ATOM     48  C   UNL A   1      44.117  29.264  28.494  1.00  0.00     0.049 A 
ATOM     49  H   UNL A   1      42.308  30.133  29.054  1.00  0.00     0.167 HD
ATOM     50  C   UNL A   1      38.430  31.872  30.083  1.00  0.00     0.034 A 
ATOM     51  C   UNL A   1      45.084  30.173  28.734  1.00  0.00     0.034 A 
ATOM     52  C   UNL A   1      39.402  32.861  30.451  1.00  0.00     0.049 A 
ATOM     53  C   UNL A   1      44.708  31.508  29.319  1.00  0.00     0.074 A 
ATOM     54  C   UNL A   1      39.184  34.094  31.039  1.00  0.00     0.029 A 
ATOM     55  N   UNL A   1      40.768  32.731  30.277  1.00  0.00    -0.354 N 
ATOM     56  N   UNL A   1      43.526  31.943  29.682  1.00  0.00    -0.248 NA
ATOM     57  C   UNL A   1      45.800  32.467  29.552  1.00  0.00     0.031 C 
ATOM     58  C   UNL A   1      40.422  34.714  31.220  1.00  0.00     0.029 A 
ATOM     59  C   UNL A   1      41.408  33.860  30.752  1.00  0.00     0.049 A 
ATOM     60  H   UNL A   1      41.217  31.952  29.876  1.00  0.00     0.167 HD
ATOM     61  C   UNL A   1      43.737  33.207  30.222  1.00  0.00     0.074 A 
ATOM     62  C   UNL A   1      45.158  33.468  30.142  1.00  0.00     0.031 C 
ATOM     63  C   UNL A   1      42.830  34.075  30.727  1.00  0.00     0.034 A 
BRANCH  50  64
ATOM     64  C   UNL A   1      36.991  32.179  30.379  1.00  0.00     0.023 A 
ATOM     65  C   UNL A   1      36.493  31.919  31.670  1.00  0.00     0.012 A 
ATOM     66  C   UNL A   1      36.186  32.852  29.440  1.00  0.00     0.148 A 
ATOM     67  C   UNL A   1      35.212  32.333  32.029  1.00  0.00     0.002 A 
ATOM     68  C   UNL A   1      34.921  33.286  29.815  1.00  0.00     0.091 A 
ATOM     69  F   UNL A   1      36.686  33.078  28.218  1.00  0.00    -0.205 F 
ATOM     70  C   UNL A   1      34.433  33.027  31.107  1.00  0.00     0.022 A 
BRANCH  68  71
ATOM     71  S   UNL A   1      33.856  34.237  28.725  1.00  0.00     0.127 S 
ATOM     72  O   UNL A   1      32.801  34.666  29.643  1.00  0.00    -0.237 OA
ATOM     73  O   UNL A   1      34.750  35.305  28.282  1.00  0.00    -0.237 OA
ATOM     74  O   UNL A   1      33.421  33.320  27.682  1.00  0.00    -0.744 OA
ENDBRANCH  68  71
ENDBRANCH  50  64
BRANCH  51  75
ATOM     75  C   UNL A   1      46.512  29.823  28.504  1.00  0.00     0.023 A 
ATOM     76  C   UNL A   1      47.099  30.141  27.264  1.00  0.00     0.012 A 
ATOM     77  C   UNL A   1      47.290  29.198  29.495  1.00  0.00     0.148 A 
ATOM     78  C   UNL A   1      48.432  29.822  27.006  1.00  0.00     0.002 A 
ATOM     79  C   UNL A   1      48.629  28.916  29.245  1.00  0.00     0.091 A 
ATOM     80  F   UNL A   1      46.707  28.898  30.664  1.00  0.00    -0.205 F 
ATOM     81  C   UNL A   1      49.198  29.215  27.997  1.00  0.00     0.022 A 
BRANCH  79  82
ATOM     82  S   UNL A   1      49.720  28.219  30.490  1.00  0.00     0.127 S 
ATOM     83  O   UNL A   1      49.606  29.197  31.569  1.00  0.00    -0.237 OA
ATOM     84  O   UNL A   1      49.085  26.928  30.759  1.00  0.00    -0.237 OA
ATOM     85  O   UNL A   1      51.030  28.124  29.861  1.00  0.00    -0.744 OA
ENDBRANCH  79  82
ENDBRANCH  51  75
BRANCH  63  86
ATOM     86  C   UNL A   1      43.323  35.383  31.277  1.00  0.00     0.023 A 
ATOM     87  C   UNL A   1      43.770  35.448  32.609  1.00  0.00     0.012 A 
ATOM     88  C   UNL A   1      43.482  36.498  30.431  1.00  0.00     0.148 A 
ATOM     89  C   UNL A   1      44.369  36.609  33.095  1.00  0.00     0.002 A 
ATOM     90  C   UNL A   1      44.110  37.638  30.911  1.00  0.00     0.091 A 
ATOM     91  F   UNL A   1      43.040  36.407  29.167  1.00  0.00    -0.205 F 
ATOM     92  C   UNL A   1      44.551  37.698  32.244  1.00  0.00     0.022 A 
BRANCH  90  93
ATOM     93  S   UNL A   1      44.462  39.061  29.872  1.00  0.00     0.127 S 
ATOM     94  O   UNL A   1      43.144  39.350  29.308  1.00  0.00    -0.237 OA
ATOM     95  O   UNL A   1      44.939  40.043  30.845  1.00  0.00    -0.237 OA
ATOM     96  O   UNL A   1      45.464  38.621  28.910  1.00  0.00    -0.744 OA
ENDBRANCH  90  93
ENDBRANCH  63  86
ENDBRANCH  37  38
ENDBRANCH  29  32
ENDBRANCH  27  28
ENDBRANCH  26  27
ENDBRANCH   1  26
TORSDOF 20
ENDMDL
