MODEL 1
REMARK VINA RESULT:     -12.9      0.000      0.000
REMARK SMILES O=C(NCCCCCCNC(=O)[C@@H]1CCCN1S(=O)(=O)c1ccc2[nH]c(=O)c(=O)[nH]c2c1)c1ccc(-c2c3nc(c(-c4cccc(S(=O)(=O)[O-])c4F)c4ccc([nH]4)c(-c4cccc(S(=O)(=O)[O-])c4F)c4nc(c(-c5cccc(S(=O)(=O)[O-])c5F)c5ccc2[nH]5)C=C4)C=C3)cc1
REMARK SMILES IDX 6 1 5 2 4 3 3 4 1 5 2 6 33 8 34 9 95 10 35 11 94 12 36 13
REMARK SMILES IDX 37 14 38 15 88 16 39 17 93 18 87 19 89 20 40 21 92 22 86 23
REMARK SMILES IDX 85 24 41 26 73 27 53 28 72 29 54 30 57 31 71 32 90 33 55 34
REMARK SMILES IDX 56 35 70 37 91 38 58 39 42 40 43 41 51 42 44 43 46 44 52 45
REMARK SMILES IDX 45 46 47 47 48 48 49 49 50 50 74 51 75 52 83 53 76 54 78 55
REMARK SMILES IDX 84 56 77 57 79 58 80 59 81 60 82 61 59 62 60 63 68 64 61 65
REMARK SMILES IDX 63 66 69 67 62 68 64 69 65 70 66 71 67 72 7 73 8 74 9 75
REMARK SMILES IDX 10 76 11 77 12 79 13 80 14 81 17 82 15 83 16 84 18 85 19 86
REMARK SMILES IDX 20 87 21 88 22 89 32 90 23 91 31 92 24 93 30 94 25 95 28 96
REMARK SMILES IDX 26 98 29 100 27 101
REMARK H PARENT 3 7 89 25 57 36 10 78 30 97 25 99
REMARK Flexibility Score: inf
ROOT
ATOM      1  C   UNL A   1      31.334  28.600  23.636  1.00  0.00     0.002 C 
ENDROOT
BRANCH   1   2
ATOM      2  C   UNL A   1      31.725  28.466  25.105  1.00  0.00     0.021 C 
BRANCH   2   3
ATOM      3  C   UNL A   1      32.850  29.391  25.542  1.00  0.00     0.116 C 
BRANCH   3   4
ATOM      4  N   UNL A   1      32.368  30.720  25.873  1.00  0.00    -0.352 N 
ATOM      5  O   UNL A   1      32.161  32.566  27.153  1.00  0.00    -0.269 OA
ATOM      6  C   UNL A   1      32.811  31.568  26.862  1.00  0.00     0.251 C 
ATOM      7  H   UNL A   1      31.626  31.057  25.321  1.00  0.00     0.163 HD
BRANCH   6   8
ATOM      8  C   UNL A   1      34.067  31.249  27.579  1.00  0.00     0.039 A 
ATOM      9  C   UNL A   1      34.275  29.970  28.101  1.00  0.00     0.014 A 
ATOM     10  C   UNL A   1      35.042  32.237  27.737  1.00  0.00     0.014 A 
ATOM     11  C   UNL A   1      35.387  29.719  28.894  1.00  0.00     0.010 A 
ATOM     12  C   UNL A   1      36.208  31.954  28.458  1.00  0.00     0.010 A 
ATOM     13  C   UNL A   1      36.380  30.699  29.061  1.00  0.00    -0.014 A 
BRANCH  13  14
ATOM     14  C   UNL A   1      37.630  30.334  29.776  1.00  0.00     0.031 A 
ATOM     15  C   UNL A   1      37.919  30.809  31.173  1.00  0.00     0.074 A 
ATOM     16  C   UNL A   1      38.507  29.530  29.140  1.00  0.00     0.049 A 
ATOM     17  N   UNL A   1      38.933  30.512  31.945  1.00  0.00    -0.248 NA
ATOM     18  C   UNL A   1      36.957  31.740  31.784  1.00  0.00     0.031 C 
ATOM     19  C   UNL A   1      38.361  29.057  27.759  1.00  0.00     0.029 A 
ATOM     20  N   UNL A   1      39.680  28.960  29.561  1.00  0.00    -0.354 N 
ATOM     21  C   UNL A   1      38.753  31.236  33.116  1.00  0.00     0.074 A 
ATOM     22  C   UNL A   1      37.533  31.999  32.952  1.00  0.00     0.031 C 
ATOM     23  C   UNL A   1      39.379  28.240  27.462  1.00  0.00     0.029 A 
ATOM     24  C   UNL A   1      40.277  28.168  28.608  1.00  0.00     0.049 A 
ATOM     25  H   UNL A   1      40.058  29.103  30.458  1.00  0.00     0.167 HD
ATOM     26  C   UNL A   1      39.523  31.249  34.230  1.00  0.00     0.034 A 
ATOM     27  C   UNL A   1      41.425  27.466  28.644  1.00  0.00     0.034 A 
ATOM     28  C   UNL A   1      40.721  30.466  34.396  1.00  0.00     0.049 A 
ATOM     29  C   UNL A   1      42.230  27.465  29.911  1.00  0.00     0.074 A 
ATOM     30  C   UNL A   1      41.546  30.378  35.505  1.00  0.00     0.029 A 
ATOM     31  N   UNL A   1      41.267  29.634  33.429  1.00  0.00    -0.354 N 
ATOM     32  N   UNL A   1      41.971  28.057  31.051  1.00  0.00    -0.248 NA
ATOM     33  C   UNL A   1      43.469  26.677  29.906  1.00  0.00     0.031 C 
ATOM     34  C   UNL A   1      42.594  29.500  35.205  1.00  0.00     0.029 A 
ATOM     35  C   UNL A   1      42.416  29.032  33.914  1.00  0.00     0.049 A 
ATOM     36  H   UNL A   1      40.893  29.494  32.530  1.00  0.00     0.167 HD
ATOM     37  C   UNL A   1      43.009  27.708  31.904  1.00  0.00     0.074 A 
ATOM     38  C   UNL A   1      43.876  26.814  31.161  1.00  0.00     0.031 C 
ATOM     39  C   UNL A   1      43.243  28.113  33.175  1.00  0.00     0.034 A 
BRANCH  26  40
ATOM     40  C   UNL A   1      39.074  32.095  35.394  1.00  0.00     0.023 A 
ATOM     41  C   UNL A   1      38.164  31.555  36.325  1.00  0.00     0.012 A 
ATOM     42  C   UNL A   1      39.617  33.375  35.622  1.00  0.00     0.148 A 
ATOM     43  C   UNL A   1      37.788  32.279  37.455  1.00  0.00     0.002 A 
ATOM     44  C   UNL A   1      39.264  34.078  36.769  1.00  0.00     0.091 A 
ATOM     45  F   UNL A   1      40.467  33.879  34.716  1.00  0.00    -0.205 F 
ATOM     46  C   UNL A   1      38.346  33.535  37.683  1.00  0.00     0.022 A 
BRANCH  44  47
ATOM     47  S   UNL A   1      39.976  35.673  37.193  1.00  0.00     0.127 S 
ATOM     48  O   UNL A   1      39.646  36.466  36.009  1.00  0.00    -0.237 OA
ATOM     49  O   UNL A   1      39.227  36.035  38.396  1.00  0.00    -0.237 OA
ATOM     50  O   UNL A   1      41.396  35.434  37.409  1.00  0.00    -0.744 OA
ENDBRANCH  44  47
ENDBRANCH  26  40
BRANCH  27  51
ATOM     51  C   UNL A   1      41.845  26.673  27.455  1.00  0.00     0.023 A 
ATOM     52  C   UNL A   1      42.528  27.308  26.401  1.00  0.00     0.012 A 
ATOM     53  C   UNL A   1      41.616  25.286  27.387  1.00  0.00     0.148 A 
ATOM     54  C   UNL A   1      42.953  26.579  25.290  1.00  0.00     0.002 A 
ATOM     55  C   UNL A   1      42.098  24.555  26.307  1.00  0.00     0.091 A 
ATOM     56  F   UNL A   1      40.943  24.698  28.387  1.00  0.00    -0.205 F 
ATOM     57  C   UNL A   1      42.753  25.202  25.250  1.00  0.00     0.022 A 
BRANCH  55  58
ATOM     58  S   UNL A   1      42.013  22.762  26.280  1.00  0.00     0.127 S 
ATOM     59  O   UNL A   1      40.572  22.528  26.297  1.00  0.00    -0.237 OA
ATOM     60  O   UNL A   1      42.676  22.435  25.017  1.00  0.00    -0.237 OA
ATOM     61  O   UNL A   1      42.750  22.333  27.463  1.00  0.00    -0.744 OA
ENDBRANCH  55  58
ENDBRANCH  27  51
BRANCH  39  62
ATOM     62  C   UNL A   1      44.488  27.591  33.839  1.00  0.00     0.023 A 
ATOM     63  C   UNL A   1      45.669  28.360  33.795  1.00  0.00     0.012 A 
ATOM     64  C   UNL A   1      44.484  26.367  34.533  1.00  0.00     0.148 A 
ATOM     65  C   UNL A   1      46.838  27.899  34.399  1.00  0.00     0.002 A 
ATOM     66  C   UNL A   1      45.642  25.935  35.170  1.00  0.00     0.091 A 
ATOM     67  F   UNL A   1      43.359  25.638  34.544  1.00  0.00    -0.205 F 
ATOM     68  C   UNL A   1      46.821  26.693  35.095  1.00  0.00     0.022 A 
BRANCH  66  69
ATOM     69  S   UNL A   1      45.681  24.434  36.157  1.00  0.00     0.127 S 
ATOM     70  O   UNL A   1      47.040  24.464  36.692  1.00  0.00    -0.237 OA
ATOM     71  O   UNL A   1      44.630  24.678  37.146  1.00  0.00    -0.237 OA
ATOM     72  O   UNL A   1      45.390  23.347  35.231  1.00  0.00    -0.744 OA
ENDBRANCH  66  69
ENDBRANCH  39  62
ENDBRANCH  13  14
ENDBRANCH   6   8
ENDBRANCH   3   4
ENDBRANCH   2   3
ENDBRANCH   1   2
BRANCH   1  73
ATOM     73  C   UNL A   1      30.155  27.728  23.197  1.00  0.00     0.002 C 
BRANCH  73  74
ATOM     74  C   UNL A   1      29.896  26.475  24.046  1.00  0.00     0.021 C 
BRANCH  74  75
ATOM     75  C   UNL A   1      30.485  25.180  23.494  1.00  0.00     0.116 C 
BRANCH  75  76
ATOM     76  N   UNL A   1      30.477  24.103  24.466  1.00  0.00    -0.355 N 
ATOM     77  C   UNL A   1      31.389  23.608  25.341  1.00  0.00     0.238 C 
ATOM     78  H   UNL A   1      29.618  23.622  24.498  1.00  0.00     0.163 HD
ATOM     79  O   UNL A   1      31.009  22.618  25.986  1.00  0.00    -0.273 OA
BRANCH  77  80
ATOM     80  C   UNL A   1      32.779  24.159  25.601  1.00  0.00     0.162 C 
ATOM     81  C   UNL A   1      33.165  25.559  25.157  1.00  0.00     0.032 C 
ATOM     82  N   UNL A   1      34.027  23.345  25.369  1.00  0.00    -0.185 NA
ATOM     83  C   UNL A   1      34.547  25.701  25.764  1.00  0.00     0.019 C 
ATOM     84  C   UNL A   1      35.169  24.317  25.596  1.00  0.00     0.103 C 
BRANCH  82  85
ATOM     85  S   UNL A   1      34.258  22.463  23.925  1.00  0.00     0.243 S 
ATOM     86  O   UNL A   1      33.400  23.053  22.912  1.00  0.00    -0.207 OA
ATOM     87  O   UNL A   1      35.684  22.399  23.702  1.00  0.00    -0.207 OA
BRANCH  85  88
ATOM     88  C   UNL A   1      33.728  20.785  24.173  1.00  0.00     0.084 A 
ATOM     89  C   UNL A   1      32.479  20.371  23.711  1.00  0.00     0.024 A 
ATOM     90  C   UNL A   1      34.644  19.827  24.626  1.00  0.00     0.050 A 
ATOM     91  C   UNL A   1      32.060  19.049  23.850  1.00  0.00     0.030 A 
ATOM     92  C   UNL A   1      34.257  18.486  24.681  1.00  0.00     0.066 A 
ATOM     93  C   UNL A   1      32.954  18.107  24.340  1.00  0.00     0.065 A 
ATOM     94  N   UNL A   1      35.188  17.505  25.038  1.00  0.00    -0.316 N 
ATOM     95  N   UNL A   1      32.553  16.776  24.463  1.00  0.00    -0.316 N 
ATOM     96  C   UNL A   1      34.881  16.163  25.105  1.00  0.00     0.314 A 
ATOM     97  H   UNL A   1      36.107  17.787  25.252  1.00  0.00     0.170 HD
ATOM     98  C   UNL A   1      33.402  15.769  24.863  1.00  0.00     0.314 A 
ATOM     99  H   UNL A   1      31.619  16.546  24.255  1.00  0.00     0.170 HD
ATOM    100  O   UNL A   1      35.733  15.318  25.348  1.00  0.00    -0.263 OA
ATOM    101  O   UNL A   1      33.013  14.618  25.010  1.00  0.00    -0.263 OA
ENDBRANCH  85  88
ENDBRANCH  82  85
ENDBRANCH  77  80
ENDBRANCH  75  76
ENDBRANCH  74  75
ENDBRANCH  73  74
ENDBRANCH   1  73
TORSDOF 18
ENDMDL
MODEL 2
REMARK VINA RESULT:     -12.6      3.118      8.992
REMARK SMILES O=C(NCCCCCCNC(=O)[C@@H]1CCCN1S(=O)(=O)c1ccc2[nH]c(=O)c(=O)[nH]c2c1)c1ccc(-c2c3nc(c(-c4cccc(S(=O)(=O)[O-])c4F)c4ccc([nH]4)c(-c4cccc(S(=O)(=O)[O-])c4F)c4nc(c(-c5cccc(S(=O)(=O)[O-])c5F)c5ccc2[nH]5)C=C4)C=C3)cc1
REMARK SMILES IDX 6 1 5 2 4 3 3 4 1 5 2 6 33 8 34 9 95 10 35 11 94 12 36 13
REMARK SMILES IDX 37 14 38 15 88 16 39 17 93 18 87 19 89 20 40 21 92 22 86 23
REMARK SMILES IDX 85 24 41 26 73 27 53 28 72 29 54 30 57 31 71 32 90 33 55 34
REMARK SMILES IDX 56 35 70 37 91 38 58 39 42 40 43 41 51 42 44 43 46 44 52 45
REMARK SMILES IDX 45 46 47 47 48 48 49 49 50 50 74 51 75 52 83 53 76 54 78 55
REMARK SMILES IDX 84 56 77 57 79 58 80 59 81 60 82 61 59 62 60 63 68 64 61 65
REMARK SMILES IDX 63 66 69 67 62 68 64 69 65 70 66 71 67 72 7 73 8 74 9 75
REMARK SMILES IDX 10 76 11 77 12 79 13 80 14 81 17 82 15 83 16 84 18 85 19 86
REMARK SMILES IDX 20 87 21 88 22 89 32 90 23 91 31 92 24 93 30 94 25 95 28 96
REMARK SMILES IDX 26 98 29 100 27 101
REMARK H PARENT 3 7 89 25 57 36 10 78 30 97 25 99
REMARK Flexibility Score: inf
ROOT
ATOM      1  C   UNL A   1      31.443  31.004  25.889  1.00  0.00     0.002 C 
ENDROOT
BRANCH   1   2
ATOM      2  C   UNL A   1      31.307  32.308  26.668  1.00  0.00     0.021 C 
BRANCH   2   3
ATOM      3  C   UNL A   1      32.606  32.815  27.277  1.00  0.00     0.116 C 
BRANCH   3   4
ATOM      4  N   UNL A   1      32.525  34.216  27.651  1.00  0.00    -0.352 N 
ATOM      5  O   UNL A   1      32.864  36.006  28.981  1.00  0.00    -0.269 OA
ATOM      6  C   UNL A   1      33.202  34.874  28.653  1.00  0.00     0.251 C 
ATOM      7  H   UNL A   1      31.904  34.766  27.122  1.00  0.00     0.163 HD
BRANCH   6   8
ATOM      8  C   UNL A   1      34.323  34.191  29.338  1.00  0.00     0.039 A 
ATOM      9  C   UNL A   1      34.069  33.256  30.345  1.00  0.00     0.014 A 
ATOM     10  C   UNL A   1      35.639  34.489  28.975  1.00  0.00     0.014 A 
ATOM     11  C   UNL A   1      35.122  32.728  31.080  1.00  0.00     0.010 A 
ATOM     12  C   UNL A   1      36.701  33.884  29.655  1.00  0.00     0.010 A 
ATOM     13  C   UNL A   1      36.452  33.014  30.728  1.00  0.00    -0.014 A 
BRANCH  13  14
ATOM     14  C   UNL A   1      37.547  32.297  31.432  1.00  0.00     0.031 A 
ATOM     15  C   UNL A   1      38.292  31.157  30.795  1.00  0.00     0.074 A 
ATOM     16  C   UNL A   1      37.878  32.715  32.671  1.00  0.00     0.049 A 
ATOM     17  N   UNL A   1      39.315  30.487  31.262  1.00  0.00    -0.248 NA
ATOM     18  C   UNL A   1      37.836  30.704  29.472  1.00  0.00     0.031 C 
ATOM     19  C   UNL A   1      37.182  33.771  33.413  1.00  0.00     0.029 A 
ATOM     20  N   UNL A   1      38.879  32.320  33.519  1.00  0.00    -0.354 N 
ATOM     21  C   UNL A   1      39.607  29.516  30.312  1.00  0.00     0.074 A 
ATOM     22  C   UNL A   1      38.645  29.678  29.241  1.00  0.00     0.031 C 
ATOM     23  C   UNL A   1      37.799  33.967  34.585  1.00  0.00     0.029 A 
ATOM     24  C   UNL A   1      38.903  33.022  34.702  1.00  0.00     0.049 A 
ATOM     25  H   UNL A   1      39.519  31.605  33.302  1.00  0.00     0.167 HD
ATOM     26  C   UNL A   1      40.595  28.590  30.324  1.00  0.00     0.034 A 
ATOM     27  C   UNL A   1      39.715  32.914  35.770  1.00  0.00     0.034 A 
ATOM     28  C   UNL A   1      41.565  28.455  31.381  1.00  0.00     0.049 A 
ATOM     29  C   UNL A   1      40.828  31.910  35.731  1.00  0.00     0.074 A 
ATOM     30  C   UNL A   1      42.632  27.576  31.463  1.00  0.00     0.029 A 
ATOM     31  N   UNL A   1      41.591  29.218  32.539  1.00  0.00    -0.354 N 
ATOM     32  N   UNL A   1      41.163  31.089  34.765  1.00  0.00    -0.248 NA
ATOM     33  C   UNL A   1      41.694  31.835  36.915  1.00  0.00     0.031 C 
ATOM     34  C   UNL A   1      43.296  27.802  32.674  1.00  0.00     0.029 A 
ATOM     35  C   UNL A   1      42.650  28.829  33.341  1.00  0.00     0.049 A 
ATOM     36  H   UNL A   1      40.948  29.930  32.759  1.00  0.00     0.167 HD
ATOM     37  C   UNL A   1      42.283  30.406  35.219  1.00  0.00     0.074 A 
ATOM     38  C   UNL A   1      42.596  30.943  36.528  1.00  0.00     0.031 C 
ATOM     39  C   UNL A   1      42.971  29.404  34.622  1.00  0.00     0.034 A 
BRANCH  26  40
ATOM     40  C   UNL A   1      40.726  27.676  29.133  1.00  0.00     0.023 A 
ATOM     41  C   UNL A   1      39.874  26.557  29.030  1.00  0.00     0.012 A 
ATOM     42  C   UNL A   1      41.612  27.969  28.078  1.00  0.00     0.148 A 
ATOM     43  C   UNL A   1      39.912  25.735  27.904  1.00  0.00     0.002 A 
ATOM     44  C   UNL A   1      41.620  27.164  26.943  1.00  0.00     0.091 A 
ATOM     45  F   UNL A   1      42.426  29.027  28.202  1.00  0.00    -0.205 F 
ATOM     46  C   UNL A   1      40.776  26.045  26.857  1.00  0.00     0.022 A 
BRANCH  44  47
ATOM     47  S   UNL A   1      42.644  27.514  25.508  1.00  0.00     0.127 S 
ATOM     48  O   UNL A   1      43.954  27.720  26.125  1.00  0.00    -0.237 OA
ATOM     49  O   UNL A   1      42.523  26.278  24.734  1.00  0.00    -0.237 OA
ATOM     50  O   UNL A   1      42.061  28.688  24.874  1.00  0.00    -0.744 OA
ENDBRANCH  44  47
ENDBRANCH  26  40
BRANCH  27  51
ATOM     51  C   UNL A   1      39.523  33.817  36.939  1.00  0.00     0.023 A 
ATOM     52  C   UNL A   1      39.893  35.172  36.840  1.00  0.00     0.012 A 
ATOM     53  C   UNL A   1      38.928  33.354  38.128  1.00  0.00     0.148 A 
ATOM     54  C   UNL A   1      39.697  36.041  37.914  1.00  0.00     0.002 A 
ATOM     55  C   UNL A   1      38.678  34.239  39.169  1.00  0.00     0.091 A 
ATOM     56  F   UNL A   1      38.602  32.056  38.216  1.00  0.00    -0.205 F 
ATOM     57  C   UNL A   1      39.077  35.580  39.071  1.00  0.00     0.022 A 
BRANCH  55  58
ATOM     58  S   UNL A   1      37.737  33.739  40.615  1.00  0.00     0.127 S 
ATOM     59  O   UNL A   1      38.652  32.802  41.260  1.00  0.00    -0.237 OA
ATOM     60  O   UNL A   1      37.553  35.007  41.323  1.00  0.00    -0.237 OA
ATOM     61  O   UNL A   1      36.503  33.174  40.083  1.00  0.00    -0.744 OA
ENDBRANCH  55  58
ENDBRANCH  27  51
BRANCH  39  62
ATOM     62  C   UNL A   1      44.131  28.825  35.386  1.00  0.00     0.023 A 
ATOM     63  C   UNL A   1      45.424  29.349  35.182  1.00  0.00     0.012 A 
ATOM     64  C   UNL A   1      43.942  27.794  36.325  1.00  0.00     0.148 A 
ATOM     65  C   UNL A   1      46.517  28.830  35.875  1.00  0.00     0.002 A 
ATOM     66  C   UNL A   1      45.031  27.311  37.044  1.00  0.00     0.091 A 
ATOM     67  F   UNL A   1      42.710  27.291  36.488  1.00  0.00    -0.205 F 
ATOM     68  C   UNL A   1      46.318  27.820  36.812  1.00  0.00     0.022 A 
BRANCH  66  69
ATOM     69  S   UNL A   1      44.847  26.068  38.327  1.00  0.00     0.127 S 
ATOM     70  O   UNL A   1      43.816  25.202  37.759  1.00  0.00    -0.237 OA
ATOM     71  O   UNL A   1      46.182  25.472  38.384  1.00  0.00    -0.237 OA
ATOM     72  O   UNL A   1      44.466  26.798  39.530  1.00  0.00    -0.744 OA
ENDBRANCH  66  69
ENDBRANCH  39  62
ENDBRANCH  13  14
ENDBRANCH   6   8
ENDBRANCH   3   4
ENDBRANCH   2   3
ENDBRANCH   1   2
BRANCH   1  73
ATOM     73  C   UNL A   1      32.159  29.875  26.635  1.00  0.00     0.002 C 
BRANCH  73  74
ATOM     74  C   UNL A   1      31.846  28.451  26.154  1.00  0.00     0.021 C 
BRANCH  74  75
ATOM     75  C   UNL A   1      32.582  27.337  26.892  1.00  0.00     0.116 C 
BRANCH  75  76
ATOM     76  N   UNL A   1      33.636  26.738  26.093  1.00  0.00    -0.355 N 
ATOM     77  C   UNL A   1      33.905  25.477  25.670  1.00  0.00     0.238 C 
ATOM     78  H   UNL A   1      34.306  27.393  25.790  1.00  0.00     0.163 HD
ATOM     79  O   UNL A   1      34.959  25.356  25.028  1.00  0.00    -0.273 OA
BRANCH  77  80
ATOM     80  C   UNL A   1      33.041  24.248  25.894  1.00  0.00     0.162 C 
ATOM     81  C   UNL A   1      33.642  22.854  25.896  1.00  0.00     0.032 C 
ATOM     82  N   UNL A   1      31.703  24.069  25.224  1.00  0.00    -0.185 NA
ATOM     83  C   UNL A   1      32.453  22.009  26.306  1.00  0.00     0.019 C 
ATOM     84  C   UNL A   1      31.271  22.663  25.595  1.00  0.00     0.103 C 
BRANCH  82  85
ATOM     85  S   UNL A   1      31.503  24.343  23.549  1.00  0.00     0.243 S 
ATOM     86  O   UNL A   1      32.746  23.970  22.895  1.00  0.00    -0.207 OA
ATOM     87  O   UNL A   1      30.273  23.691  23.166  1.00  0.00    -0.207 OA
BRANCH  85  88
ATOM     88  C   UNL A   1      31.243  26.079  23.267  1.00  0.00     0.084 A 
ATOM     89  C   UNL A   1      32.246  26.849  22.679  1.00  0.00     0.024 A 
ATOM     90  C   UNL A   1      29.963  26.624  23.426  1.00  0.00     0.050 A 
ATOM     91  C   UNL A   1      32.048  28.201  22.403  1.00  0.00     0.030 A 
ATOM     92  C   UNL A   1      29.738  27.955  23.065  1.00  0.00     0.066 A 
ATOM     93  C   UNL A   1      30.790  28.753  22.602  1.00  0.00     0.065 A 
ATOM     94  N   UNL A   1      28.447  28.486  23.125  1.00  0.00    -0.316 N 
ATOM     95  N   UNL A   1      30.575  30.100  22.308  1.00  0.00    -0.316 N 
ATOM     96  C   UNL A   1      28.149  29.786  22.777  1.00  0.00     0.314 A 
ATOM     97  H   UNL A   1      27.715  27.903  23.431  1.00  0.00     0.170 HD
ATOM     98  C   UNL A   1      29.340  30.701  22.399  1.00  0.00     0.314 A 
ATOM     99  H   UNL A   1      31.342  30.647  22.022  1.00  0.00     0.170 HD
ATOM    100  O   UNL A   1      26.998  30.204  22.769  1.00  0.00    -0.263 OA
ATOM    101  O   UNL A   1      29.187  31.896  22.184  1.00  0.00    -0.263 OA
ENDBRANCH  85  88
ENDBRANCH  82  85
ENDBRANCH  77  80
ENDBRANCH  75  76
ENDBRANCH  74  75
ENDBRANCH  73  74
ENDBRANCH   1  73
TORSDOF 18
ENDMDL
MODEL 3
REMARK VINA RESULT:     -12.6      2.894      8.918
REMARK SMILES O=C(NCCCCCCNC(=O)[C@@H]1CCCN1S(=O)(=O)c1ccc2[nH]c(=O)c(=O)[nH]c2c1)c1ccc(-c2c3nc(c(-c4cccc(S(=O)(=O)[O-])c4F)c4ccc([nH]4)c(-c4cccc(S(=O)(=O)[O-])c4F)c4nc(c(-c5cccc(S(=O)(=O)[O-])c5F)c5ccc2[nH]5)C=C4)C=C3)cc1
REMARK SMILES IDX 6 1 5 2 4 3 3 4 1 5 2 6 33 8 34 9 95 10 35 11 94 12 36 13
REMARK SMILES IDX 37 14 38 15 88 16 39 17 93 18 87 19 89 20 40 21 92 22 86 23
REMARK SMILES IDX 85 24 41 26 73 27 53 28 72 29 54 30 57 31 71 32 90 33 55 34
REMARK SMILES IDX 56 35 70 37 91 38 58 39 42 40 43 41 51 42 44 43 46 44 52 45
REMARK SMILES IDX 45 46 47 47 48 48 49 49 50 50 74 51 75 52 83 53 76 54 78 55
REMARK SMILES IDX 84 56 77 57 79 58 80 59 81 60 82 61 59 62 60 63 68 64 61 65
REMARK SMILES IDX 63 66 69 67 62 68 64 69 65 70 66 71 67 72 7 73 8 74 9 75
REMARK SMILES IDX 10 76 11 77 12 79 13 80 14 81 17 82 15 83 16 84 18 85 19 86
REMARK SMILES IDX 20 87 21 88 22 89 32 90 23 91 31 92 24 93 30 94 25 95 28 96
REMARK SMILES IDX 26 98 29 100 27 101
REMARK H PARENT 3 7 89 25 57 36 10 78 30 97 25 99
REMARK Flexibility Score: inf
ROOT
ATOM      1  C   UNL A   1      31.045  31.011  25.562  1.00  0.00     0.002 C 
ENDROOT
BRANCH   1   2
ATOM      2  C   UNL A   1      31.172  32.020  26.699  1.00  0.00     0.021 C 
BRANCH   2   3
ATOM      3  C   UNL A   1      32.573  32.581  26.887  1.00  0.00     0.116 C 
BRANCH   3   4
ATOM      4  N   UNL A   1      32.553  33.965  27.329  1.00  0.00    -0.352 N 
ATOM      5  O   UNL A   1      32.969  35.672  28.744  1.00  0.00    -0.269 OA
ATOM      6  C   UNL A   1      33.257  34.543  28.360  1.00  0.00     0.251 C 
ATOM      7  H   UNL A   1      31.958  34.567  26.826  1.00  0.00     0.163 HD
BRANCH   6   8
ATOM      8  C   UNL A   1      34.345  33.779  29.011  1.00  0.00     0.039 A 
ATOM      9  C   UNL A   1      35.681  34.117  28.778  1.00  0.00     0.014 A 
ATOM     10  C   UNL A   1      34.030  32.713  29.859  1.00  0.00     0.014 A 
ATOM     11  C   UNL A   1      36.695  33.309  29.275  1.00  0.00     0.010 A 
ATOM     12  C   UNL A   1      35.056  31.957  30.435  1.00  0.00     0.010 A 
ATOM     13  C   UNL A   1      36.398  32.235  30.131  1.00  0.00    -0.014 A 
BRANCH  13  14
ATOM     14  C   UNL A   1      37.520  31.503  30.774  1.00  0.00     0.031 A 
ATOM     15  C   UNL A   1      38.333  30.479  30.033  1.00  0.00     0.074 A 
ATOM     16  C   UNL A   1      37.813  31.802  32.057  1.00  0.00     0.049 A 
ATOM     17  N   UNL A   1      39.383  29.815  30.444  1.00  0.00    -0.248 NA
ATOM     18  C   UNL A   1      37.917  30.147  28.661  1.00  0.00     0.031 C 
ATOM     19  C   UNL A   1      37.053  32.735  32.895  1.00  0.00     0.029 A 
ATOM     20  N   UNL A   1      38.823  31.370  32.876  1.00  0.00    -0.354 N 
ATOM     21  C   UNL A   1      39.738  28.968  29.401  1.00  0.00     0.074 A 
ATOM     22  C   UNL A   1      38.783  29.195  28.336  1.00  0.00     0.031 C 
ATOM     23  C   UNL A   1      37.644  32.835  34.092  1.00  0.00     0.029 A 
ATOM     24  C   UNL A   1      38.794  31.941  34.128  1.00  0.00     0.049 A 
ATOM     25  H   UNL A   1      39.503  30.716  32.596  1.00  0.00     0.167 HD
ATOM     26  C   UNL A   1      40.774  28.099  29.332  1.00  0.00     0.034 A 
ATOM     27  C   UNL A   1      39.598  31.760  35.192  1.00  0.00     0.034 A 
ATOM     28  C   UNL A   1      41.737  27.900  30.385  1.00  0.00     0.049 A 
ATOM     29  C   UNL A   1      40.764  30.824  35.066  1.00  0.00     0.074 A 
ATOM     30  C   UNL A   1      42.847  27.073  30.393  1.00  0.00     0.029 A 
ATOM     31  N   UNL A   1      41.707  28.534  31.619  1.00  0.00    -0.354 N 
ATOM     32  N   UNL A   1      41.153  30.131  34.024  1.00  0.00    -0.248 NA
ATOM     33  C   UNL A   1      41.617  30.667  36.250  1.00  0.00     0.031 C 
ATOM     34  C   UNL A   1      43.483  27.201  31.633  1.00  0.00     0.029 A 
ATOM     35  C   UNL A   1      42.776  28.117  32.394  1.00  0.00     0.049 A 
ATOM     36  H   UNL A   1      41.024  29.185  31.902  1.00  0.00     0.167 HD
ATOM     37  C   UNL A   1      42.302  29.462  34.422  1.00  0.00     0.074 A 
ATOM     38  C   UNL A   1      42.570  29.870  35.787  1.00  0.00     0.031 C 
ATOM     39  C   UNL A   1      43.050  28.566  33.735  1.00  0.00     0.034 A 
BRANCH  26  40
ATOM     40  C   UNL A   1      40.967  27.325  28.053  1.00  0.00     0.023 A 
ATOM     41  C   UNL A   1      41.548  27.970  26.942  1.00  0.00     0.012 A 
ATOM     42  C   UNL A   1      40.669  25.950  27.976  1.00  0.00     0.148 A 
ATOM     43  C   UNL A   1      41.815  27.265  25.769  1.00  0.00     0.002 A 
ATOM     44  C   UNL A   1      40.970  25.245  26.815  1.00  0.00     0.091 A 
ATOM     45  F   UNL A   1      40.101  25.359  29.037  1.00  0.00    -0.205 F 
ATOM     46  C   UNL A   1      41.536  25.901  25.709  1.00  0.00     0.022 A 
BRANCH  44  47
ATOM     47  S   UNL A   1      40.715  23.473  26.657  1.00  0.00     0.127 S 
ATOM     48  O   UNL A   1      40.952  23.019  28.027  1.00  0.00    -0.237 OA
ATOM     49  O   UNL A   1      39.320  23.400  26.224  1.00  0.00    -0.237 OA
ATOM     50  O   UNL A   1      41.684  23.014  25.671  1.00  0.00    -0.744 OA
ENDBRANCH  44  47
ENDBRANCH  26  40
BRANCH  27  51
ATOM     51  C   UNL A   1      39.344  32.522  36.447  1.00  0.00     0.023 A 
ATOM     52  C   UNL A   1      39.960  33.773  36.639  1.00  0.00     0.012 A 
ATOM     53  C   UNL A   1      38.456  32.037  37.426  1.00  0.00     0.148 A 
ATOM     54  C   UNL A   1      39.714  34.514  37.796  1.00  0.00     0.002 A 
ATOM     55  C   UNL A   1      38.167  32.809  38.544  1.00  0.00     0.091 A 
ATOM     56  F   UNL A   1      37.895  30.833  37.241  1.00  0.00    -0.205 F 
ATOM     57  C   UNL A   1      38.808  34.041  38.740  1.00  0.00     0.022 A 
BRANCH  55  58
ATOM     58  S   UNL A   1      36.888  32.326  39.709  1.00  0.00     0.127 S 
ATOM     59  O   UNL A   1      37.000  33.365  40.728  1.00  0.00    -0.237 OA
ATOM     60  O   UNL A   1      35.677  32.392  38.890  1.00  0.00    -0.237 OA
ATOM     61  O   UNL A   1      37.249  30.975  40.123  1.00  0.00    -0.744 OA
ENDBRANCH  55  58
ENDBRANCH  27  51
BRANCH  39  62
ATOM     62  C   UNL A   1      44.229  27.968  34.453  1.00  0.00     0.023 A 
ATOM     63  C   UNL A   1      45.473  28.632  34.412  1.00  0.00     0.012 A 
ATOM     64  C   UNL A   1      44.104  26.778  35.194  1.00  0.00     0.148 A 
ATOM     65  C   UNL A   1      46.582  28.099  35.066  1.00  0.00     0.002 A 
ATOM     66  C   UNL A   1      45.204  26.277  35.880  1.00  0.00     0.091 A 
ATOM     67  F   UNL A   1      42.920  26.148  35.203  1.00  0.00    -0.205 F 
ATOM     68  C   UNL A   1      46.445  26.929  35.808  1.00  0.00     0.022 A 
BRANCH  66  69
ATOM     69  S   UNL A   1      45.091  24.820  36.925  1.00  0.00     0.127 S 
ATOM     70  O   UNL A   1      44.022  25.197  37.848  1.00  0.00    -0.237 OA
ATOM     71  O   UNL A   1      44.731  23.772  35.969  1.00  0.00    -0.237 OA
ATOM     72  O   UNL A   1      46.412  24.659  37.520  1.00  0.00    -0.744 OA
ENDBRANCH  66  69
ENDBRANCH  39  62
ENDBRANCH  13  14
ENDBRANCH   6   8
ENDBRANCH   3   4
ENDBRANCH   2   3
ENDBRANCH   1   2
BRANCH   1  73
ATOM     73  C   UNL A   1      31.825  29.709  25.761  1.00  0.00     0.002 C 
BRANCH  73  74
ATOM     74  C   UNL A   1      31.778  29.110  27.174  1.00  0.00     0.021 C 
BRANCH  74  75
ATOM     75  C   UNL A   1      31.979  27.600  27.250  1.00  0.00     0.116 C 
BRANCH  75  76
ATOM     76  N   UNL A   1      33.072  27.138  26.414  1.00  0.00    -0.355 N 
ATOM     77  C   UNL A   1      33.453  25.928  25.933  1.00  0.00     0.238 C 
ATOM     78  H   UNL A   1      33.674  27.866  26.134  1.00  0.00     0.163 HD
ATOM     79  O   UNL A   1      34.504  25.935  25.275  1.00  0.00    -0.273 OA
BRANCH  77  80
ATOM     80  C   UNL A   1      32.711  24.615  26.111  1.00  0.00     0.162 C 
ATOM     81  C   UNL A   1      33.460  23.299  26.234  1.00  0.00     0.032 C 
ATOM     82  N   UNL A   1      31.485  24.264  25.307  1.00  0.00    -0.185 NA
ATOM     83  C   UNL A   1      32.333  22.335  26.546  1.00  0.00     0.019 C 
ATOM     84  C   UNL A   1      31.174  22.829  25.685  1.00  0.00     0.103 C 
BRANCH  82  85
ATOM     85  S   UNL A   1      31.446  24.467  23.611  1.00  0.00     0.243 S 
ATOM     86  O   UNL A   1      32.757  24.107  23.098  1.00  0.00    -0.207 OA
ATOM     87  O   UNL A   1      30.278  23.763  23.136  1.00  0.00    -0.207 OA
BRANCH  85  88
ATOM     88  C   UNL A   1      31.169  26.182  23.233  1.00  0.00     0.084 A 
ATOM     89  C   UNL A   1      32.129  26.906  22.526  1.00  0.00     0.024 A 
ATOM     90  C   UNL A   1      29.904  26.743  23.444  1.00  0.00     0.050 A 
ATOM     91  C   UNL A   1      31.914  28.238  22.176  1.00  0.00     0.030 A 
ATOM     92  C   UNL A   1      29.656  28.049  23.013  1.00  0.00     0.066 A 
ATOM     93  C   UNL A   1      30.673  28.808  22.424  1.00  0.00     0.065 A 
ATOM     94  N   UNL A   1      28.372  28.590  23.127  1.00  0.00    -0.316 N 
ATOM     95  N   UNL A   1      30.440  30.134  22.058  1.00  0.00    -0.316 N 
ATOM     96  C   UNL A   1      28.052  29.866  22.716  1.00  0.00     0.314 A 
ATOM     97  H   UNL A   1      27.663  28.033  23.522  1.00  0.00     0.170 HD
ATOM     98  C   UNL A   1      29.215  30.747  22.195  1.00  0.00     0.314 A 
ATOM     99  H   UNL A   1      31.186  30.656  21.683  1.00  0.00     0.170 HD
ATOM    100  O   UNL A   1      26.904  30.289  22.760  1.00  0.00    -0.263 OA
ATOM    101  O   UNL A   1      29.049  31.926  21.912  1.00  0.00    -0.263 OA
ENDBRANCH  85  88
ENDBRANCH  82  85
ENDBRANCH  77  80
ENDBRANCH  75  76
ENDBRANCH  74  75
ENDBRANCH  73  74
ENDBRANCH   1  73
TORSDOF 18
ENDMDL
