MODEL 1
REMARK VINA RESULT:     -10.4      0.000      0.000
REMARK SMILES C=C(CC)C[C@H](C(=O)NCCCCCCNC(=O)c1ccc(-c2c3nc(c(-c4cccc(S(=O)(=O)[O-])c4F)c4ccc([nH]4)c(-c4cccc(S(=O)(=O)[O-])c4F)c4nc(c(-c5cccc(S(=O)(=O)[O-])c5F)c5ccc2[nH]5)C=C4)C=C3)cc1)c1ccccc1C
REMARK SMILES IDX 12 1 11 2 10 3 9 4 7 5 8 6 6 8 5 9 2 10 1 11 3 12 4 13 82 14
REMARK SMILES IDX 83 15 87 16 84 17 86 18 88 19 85 20 13 21 14 22 15 23 16 24
REMARK SMILES IDX 17 25 18 27 19 28 20 29 81 30 21 31 80 32 22 33 23 34 24 35
REMARK SMILES IDX 74 36 25 37 79 38 73 39 75 40 26 41 78 42 72 43 71 44 27 46
REMARK SMILES IDX 59 47 39 48 58 49 40 50 43 51 57 52 76 53 41 54 42 55 56 57
REMARK SMILES IDX 77 58 44 59 28 60 29 61 37 62 30 63 32 64 38 65 31 66 33 67
REMARK SMILES IDX 34 68 35 69 36 70 60 71 61 72 69 73 62 74 64 75 70 76 63 77
REMARK SMILES IDX 65 78 66 79 67 80 68 81 45 82 46 83 54 84 47 85 49 86 55 87
REMARK SMILES IDX 48 88 50 89 51 90 52 91 53 92
REMARK H PARENT 9 7 16 26 75 45 43 56
REMARK Flexibility Score: inf
ROOT
ATOM      1  C   UNL A   1      34.294  25.132  25.240  1.00  0.00     0.002 C 
ENDROOT
BRANCH   1   2
ATOM      2  C   UNL A   1      33.232  24.637  26.224  1.00  0.00     0.021 C 
BRANCH   2   3
ATOM      3  C   UNL A   1      32.002  25.519  26.369  1.00  0.00     0.116 C 
BRANCH   3   4
ATOM      4  N   UNL A   1      32.263  26.886  26.740  1.00  0.00    -0.356 N 
ATOM      5  C   UNL A   1      31.725  28.022  26.189  1.00  0.00     0.227 C 
ATOM      6  O   UNL A   1      31.936  29.060  26.824  1.00  0.00    -0.274 OA
ATOM      7  H   UNL A   1      32.902  27.023  27.476  1.00  0.00     0.163 HD
BRANCH   5   8
ATOM      8  C   UNL A   1      31.029  27.974  24.797  1.00  0.00     0.113 C 
BRANCH   8   9
ATOM      9  C   UNL A   1      30.516  29.277  24.106  1.00  0.00     0.048 C 
BRANCH   9  10
ATOM     10  C   UNL A   1      29.392  29.321  23.098  1.00  0.00    -0.077 C 
ATOM     11  C   UNL A   1      28.420  28.386  23.109  1.00  0.00     0.008 C 
BRANCH  10  12
ATOM     12  C   UNL A   1      29.471  30.272  21.921  1.00  0.00     0.027 C 
ATOM     13  C   UNL A   1      28.177  30.560  21.174  1.00  0.00     0.008 C 
ENDBRANCH  10  12
ENDBRANCH   9  10
ENDBRANCH   8   9
BRANCH   8  14
ATOM     14  C   UNL A   1      31.829  27.224  23.698  1.00  0.00    -0.032 A 
ATOM     15  C   UNL A   1      32.967  27.840  23.131  1.00  0.00     0.005 A 
ATOM     16  C   UNL A   1      31.363  26.025  23.105  1.00  0.00    -0.047 A 
ATOM     17  C   UNL A   1      33.643  27.288  22.042  1.00  0.00     0.000 A 
ATOM     18  C   UNL A   1      32.051  25.492  21.993  1.00  0.00     0.004 A 
ATOM     19  C   UNL A   1      30.108  25.299  23.513  1.00  0.00     0.044 C 
ATOM     20  C   UNL A   1      33.182  26.114  21.469  1.00  0.00     0.000 A 
ENDBRANCH   8  14
ENDBRANCH   5   8
ENDBRANCH   3   4
ENDBRANCH   2   3
ENDBRANCH   1   2
BRANCH   1  21
ATOM     21  C   UNL A   1      34.930  24.084  24.319  1.00  0.00     0.002 C 
BRANCH  21  22
ATOM     22  C   UNL A   1      36.375  23.679  24.624  1.00  0.00     0.021 C 
BRANCH  22  23
ATOM     23  C   UNL A   1      36.656  23.205  26.047  1.00  0.00     0.116 C 
BRANCH  23  24
ATOM     24  N   UNL A   1      37.836  22.365  26.142  1.00  0.00    -0.352 N 
ATOM     25  C   UNL A   1      39.135  22.697  26.444  1.00  0.00     0.251 C 
ATOM     26  H   UNL A   1      37.683  21.409  25.962  1.00  0.00     0.163 HD
ATOM     27  O   UNL A   1      40.015  21.849  26.344  1.00  0.00    -0.269 OA
BRANCH  25  28
ATOM     28  C   UNL A   1      39.477  24.074  26.864  1.00  0.00     0.039 A 
ATOM     29  C   UNL A   1      39.273  24.435  28.200  1.00  0.00     0.014 A 
ATOM     30  C   UNL A   1      39.974  25.012  25.956  1.00  0.00     0.014 A 
ATOM     31  C   UNL A   1      39.622  25.715  28.634  1.00  0.00     0.010 A 
ATOM     32  C   UNL A   1      40.390  26.263  26.407  1.00  0.00     0.010 A 
ATOM     33  C   UNL A   1      40.213  26.631  27.750  1.00  0.00    -0.014 A 
BRANCH  33  34
ATOM     34  C   UNL A   1      40.662  27.969  28.217  1.00  0.00     0.031 A 
ATOM     35  C   UNL A   1      42.129  28.306  28.269  1.00  0.00     0.074 A 
ATOM     36  C   UNL A   1      39.752  28.855  28.669  1.00  0.00     0.049 A 
ATOM     37  N   UNL A   1      42.708  29.399  28.694  1.00  0.00    -0.248 NA
ATOM     38  C   UNL A   1      43.068  27.272  27.807  1.00  0.00     0.031 C 
ATOM     39  C   UNL A   1      38.309  28.620  28.742  1.00  0.00     0.029 A 
ATOM     40  N   UNL A   1      39.908  30.121  29.178  1.00  0.00    -0.354 N 
ATOM     41  C   UNL A   1      44.075  29.174  28.582  1.00  0.00     0.074 A 
ATOM     42  C   UNL A   1      44.239  27.826  28.084  1.00  0.00     0.031 C 
ATOM     43  C   UNL A   1      37.712  29.705  29.261  1.00  0.00     0.029 A 
ATOM     44  C   UNL A   1      38.730  30.698  29.592  1.00  0.00     0.049 A 
ATOM     45  H   UNL A   1      40.780  30.573  29.240  1.00  0.00     0.167 HD
ATOM     46  C   UNL A   1      45.101  30.020  28.843  1.00  0.00     0.034 A 
ATOM     47  C   UNL A   1      38.494  31.885  30.182  1.00  0.00     0.034 A 
ATOM     48  C   UNL A   1      44.932  31.371  29.309  1.00  0.00     0.049 A 
ATOM     49  C   UNL A   1      39.648  32.817  30.437  1.00  0.00     0.074 A 
ATOM     50  C   UNL A   1      45.902  32.332  29.526  1.00  0.00     0.029 A 
ATOM     51  N   UNL A   1      43.717  31.948  29.642  1.00  0.00    -0.354 N 
ATOM     52  N   UNL A   1      40.921  32.643  30.181  1.00  0.00    -0.248 NA
ATOM     53  C   UNL A   1      39.328  34.125  31.027  1.00  0.00     0.031 C 
ATOM     54  C   UNL A   1      45.276  33.482  30.021  1.00  0.00     0.029 A 
ATOM     55  C   UNL A   1      43.912  33.249  30.075  1.00  0.00     0.049 A 
ATOM     56  H   UNL A   1      42.842  31.499  29.580  1.00  0.00     0.167 HD
ATOM     57  C   UNL A   1      41.549  33.829  30.543  1.00  0.00     0.074 A 
ATOM     58  C   UNL A   1      40.512  34.722  31.017  1.00  0.00     0.031 C 
ATOM     59  C   UNL A   1      42.867  34.145  30.499  1.00  0.00     0.034 A 
BRANCH  46  60
ATOM     60  C   UNL A   1      46.501  29.524  28.586  1.00  0.00     0.023 A 
ATOM     61  C   UNL A   1      47.097  29.741  27.327  1.00  0.00     0.012 A 
ATOM     62  C   UNL A   1      47.246  28.894  29.602  1.00  0.00     0.148 A 
ATOM     63  C   UNL A   1      48.396  29.306  27.069  1.00  0.00     0.002 A 
ATOM     64  C   UNL A   1      48.558  28.505  29.353  1.00  0.00     0.091 A 
ATOM     65  F   UNL A   1      46.657  28.678  30.787  1.00  0.00    -0.205 F 
ATOM     66  C   UNL A   1      49.130  28.698  28.085  1.00  0.00     0.022 A 
BRANCH  64  67
ATOM     67  S   UNL A   1      49.613  27.788  30.618  1.00  0.00     0.127 S 
ATOM     68  O   UNL A   1      50.872  27.623  29.891  1.00  0.00    -0.237 OA
ATOM     69  O   UNL A   1      49.630  28.839  31.636  1.00  0.00    -0.237 OA
ATOM     70  O   UNL A   1      48.964  26.552  31.031  1.00  0.00    -0.744 OA
ENDBRANCH  64  67
ENDBRANCH  46  60
BRANCH  47  71
ATOM     71  C   UNL A   1      37.099  32.280  30.530  1.00  0.00     0.023 A 
ATOM     72  C   UNL A   1      36.615  32.052  31.832  1.00  0.00     0.012 A 
ATOM     73  C   UNL A   1      36.261  32.903  29.585  1.00  0.00     0.148 A 
ATOM     74  C   UNL A   1      35.310  32.405  32.177  1.00  0.00     0.002 A 
ATOM     75  C   UNL A   1      34.983  33.306  29.952  1.00  0.00     0.091 A 
ATOM     76  F   UNL A   1      36.739  33.104  28.348  1.00  0.00    -0.205 F 
ATOM     77  C   UNL A   1      34.498  33.040  31.242  1.00  0.00     0.022 A 
BRANCH  75  78
ATOM     78  S   UNL A   1      33.918  34.248  28.855  1.00  0.00     0.127 S 
ATOM     79  O   UNL A   1      34.818  35.304  28.398  1.00  0.00    -0.237 OA
ATOM     80  O   UNL A   1      33.571  33.251  27.842  1.00  0.00    -0.237 OA
ATOM     81  O   UNL A   1      32.796  34.686  29.676  1.00  0.00    -0.744 OA
ENDBRANCH  75  78
ENDBRANCH  47  71
BRANCH  59  82
ATOM     82  C   UNL A   1      43.270  35.531  30.935  1.00  0.00     0.023 A 
ATOM     83  C   UNL A   1      43.551  35.791  32.290  1.00  0.00     0.012 A 
ATOM     84  C   UNL A   1      43.437  36.558  29.985  1.00  0.00     0.148 A 
ATOM     85  C   UNL A   1      43.958  37.061  32.699  1.00  0.00     0.002 A 
ATOM     86  C   UNL A   1      43.894  37.806  30.391  1.00  0.00     0.091 A 
ATOM     87  F   UNL A   1      43.148  36.297  28.702  1.00  0.00    -0.205 F 
ATOM     88  C   UNL A   1      44.142  38.062  31.749  1.00  0.00     0.022 A 
BRANCH  86  89
ATOM     89  S   UNL A   1      44.255  39.127  29.229  1.00  0.00     0.127 S 
ATOM     90  O   UNL A   1      45.542  38.700  28.684  1.00  0.00    -0.237 OA
ATOM     91  O   UNL A   1      43.133  39.032  28.294  1.00  0.00    -0.237 OA
ATOM     92  O   UNL A   1      44.286  40.354  30.013  1.00  0.00    -0.744 OA
ENDBRANCH  86  89
ENDBRANCH  59  82
ENDBRANCH  33  34
ENDBRANCH  25  28
ENDBRANCH  23  24
ENDBRANCH  22  23
ENDBRANCH  21  22
ENDBRANCH   1  21
TORSDOF 20
ENDMDL
MODEL 2
REMARK VINA RESULT:     -10.4      3.667      8.846
REMARK SMILES C=C(CC)C[C@H](C(=O)NCCCCCCNC(=O)c1ccc(-c2c3nc(c(-c4cccc(S(=O)(=O)[O-])c4F)c4ccc([nH]4)c(-c4cccc(S(=O)(=O)[O-])c4F)c4nc(c(-c5cccc(S(=O)(=O)[O-])c5F)c5ccc2[nH]5)C=C4)C=C3)cc1)c1ccccc1C
REMARK SMILES IDX 12 1 11 2 10 3 9 4 7 5 8 6 6 8 5 9 2 10 1 11 3 12 4 13 82 14
REMARK SMILES IDX 83 15 87 16 84 17 86 18 88 19 85 20 13 21 14 22 15 23 16 24
REMARK SMILES IDX 17 25 18 27 19 28 20 29 81 30 21 31 80 32 22 33 23 34 24 35
REMARK SMILES IDX 74 36 25 37 79 38 73 39 75 40 26 41 78 42 72 43 71 44 27 46
REMARK SMILES IDX 59 47 39 48 58 49 40 50 43 51 57 52 76 53 41 54 42 55 56 57
REMARK SMILES IDX 77 58 44 59 28 60 29 61 37 62 30 63 32 64 38 65 31 66 33 67
REMARK SMILES IDX 34 68 35 69 36 70 60 71 61 72 69 73 62 74 64 75 70 76 63 77
REMARK SMILES IDX 65 78 66 79 67 80 68 81 45 82 46 83 54 84 47 85 49 86 55 87
REMARK SMILES IDX 48 88 50 89 51 90 52 91 53 92
REMARK H PARENT 9 7 16 26 75 45 43 56
REMARK Flexibility Score: inf
ROOT
ATOM      1  C   UNL A   1      37.189  21.773  24.716  1.00  0.00     0.002 C 
ENDROOT
BRANCH   1   2
ATOM      2  C   UNL A   1      36.660  22.631  23.565  1.00  0.00     0.021 C 
BRANCH   2   3
ATOM      3  C   UNL A   1      35.599  23.656  23.937  1.00  0.00     0.116 C 
BRANCH   3   4
ATOM      4  N   UNL A   1      34.583  23.882  22.941  1.00  0.00    -0.356 N 
ATOM      5  C   UNL A   1      33.224  23.761  23.087  1.00  0.00     0.227 C 
ATOM      6  O   UNL A   1      32.557  24.222  22.157  1.00  0.00    -0.274 OA
ATOM      7  H   UNL A   1      34.901  24.157  22.051  1.00  0.00     0.163 HD
BRANCH   5   8
ATOM      8  C   UNL A   1      32.624  22.972  24.287  1.00  0.00     0.113 C 
BRANCH   8   9
ATOM      9  C   UNL A   1      31.145  23.191  24.738  1.00  0.00     0.048 C 
BRANCH   9  10
ATOM     10  C   UNL A   1      30.739  23.774  26.071  1.00  0.00    -0.077 C 
ATOM     11  C   UNL A   1      29.984  23.064  26.933  1.00  0.00     0.008 C 
BRANCH  10  12
ATOM     12  C   UNL A   1      30.974  25.245  26.353  1.00  0.00     0.027 C 
ATOM     13  C   UNL A   1      32.374  25.783  26.098  1.00  0.00     0.008 C 
ENDBRANCH  10  12
ENDBRANCH   9  10
ENDBRANCH   8   9
BRANCH   8  14
ATOM     14  C   UNL A   1      32.794  21.431  24.199  1.00  0.00    -0.032 A 
ATOM     15  C   UNL A   1      32.306  20.746  23.063  1.00  0.00     0.005 A 
ATOM     16  C   UNL A   1      33.251  20.653  25.292  1.00  0.00    -0.047 A 
ATOM     17  C   UNL A   1      32.294  19.353  22.986  1.00  0.00     0.000 A 
ATOM     18  C   UNL A   1      33.214  19.245  25.201  1.00  0.00     0.004 A 
ATOM     19  C   UNL A   1      33.700  21.217  26.615  1.00  0.00     0.044 C 
ATOM     20  C   UNL A   1      32.746  18.600  24.059  1.00  0.00     0.000 A 
ENDBRANCH   8  14
ENDBRANCH   5   8
ENDBRANCH   3   4
ENDBRANCH   2   3
ENDBRANCH   1   2
BRANCH   1  21
ATOM     21  C   UNL A   1      36.875  20.273  24.665  1.00  0.00     0.002 C 
BRANCH  21  22
ATOM     22  C   UNL A   1      38.030  19.313  24.962  1.00  0.00     0.021 C 
BRANCH  22  23
ATOM     23  C   UNL A   1      39.067  19.798  25.970  1.00  0.00     0.116 C 
BRANCH  23  24
ATOM     24  N   UNL A   1      40.290  19.014  25.949  1.00  0.00    -0.352 N 
ATOM     25  C   UNL A   1      41.598  19.415  26.067  1.00  0.00     0.251 C 
ATOM     26  H   UNL A   1      40.161  18.045  25.830  1.00  0.00     0.163 HD
ATOM     27  O   UNL A   1      42.499  18.602  25.891  1.00  0.00    -0.269 OA
BRANCH  25  28
ATOM     28  C   UNL A   1      41.924  20.824  26.380  1.00  0.00     0.039 A 
ATOM     29  C   UNL A   1      42.247  21.158  27.699  1.00  0.00     0.014 A 
ATOM     30  C   UNL A   1      41.894  21.817  25.398  1.00  0.00     0.014 A 
ATOM     31  C   UNL A   1      42.596  22.472  28.019  1.00  0.00     0.010 A 
ATOM     32  C   UNL A   1      42.313  23.110  25.703  1.00  0.00     0.010 A 
ATOM     33  C   UNL A   1      42.663  23.454  27.018  1.00  0.00    -0.014 A 
BRANCH  33  34
ATOM     34  C   UNL A   1      43.109  24.838  27.329  1.00  0.00     0.031 A 
ATOM     35  C   UNL A   1      42.169  25.813  27.985  1.00  0.00     0.074 A 
ATOM     36  C   UNL A   1      44.338  25.241  26.948  1.00  0.00     0.049 A 
ATOM     37  N   UNL A   1      42.365  27.070  28.286  1.00  0.00    -0.248 NA
ATOM     38  C   UNL A   1      40.826  25.317  28.329  1.00  0.00     0.031 C 
ATOM     39  C   UNL A   1      45.314  24.414  26.235  1.00  0.00     0.029 A 
ATOM     40  N   UNL A   1      44.965  26.455  27.082  1.00  0.00    -0.354 N 
ATOM     41  C   UNL A   1      41.166  27.526  28.820  1.00  0.00     0.074 A 
ATOM     42  C   UNL A   1      40.236  26.419  28.770  1.00  0.00     0.031 C 
ATOM     43  C   UNL A   1      46.417  25.143  25.997  1.00  0.00     0.029 A 
ATOM     44  C   UNL A   1      46.215  26.496  26.507  1.00  0.00     0.049 A 
ATOM     45  H   UNL A   1      44.560  27.222  27.545  1.00  0.00     0.167 HD
ATOM     46  C   UNL A   1      40.870  28.745  29.333  1.00  0.00     0.034 A 
ATOM     47  C   UNL A   1      47.094  27.509  26.390  1.00  0.00     0.034 A 
ATOM     48  C   UNL A   1      41.808  29.834  29.411  1.00  0.00     0.049 A 
ATOM     49  C   UNL A   1      46.753  28.846  26.992  1.00  0.00     0.074 A 
ATOM     50  C   UNL A   1      41.631  31.080  29.984  1.00  0.00     0.029 A 
ATOM     51  N   UNL A   1      43.091  29.813  28.890  1.00  0.00    -0.354 N 
ATOM     52  N   UNL A   1      45.668  29.211  27.630  1.00  0.00    -0.248 NA
ATOM     53  C   UNL A   1      47.773  29.900  26.891  1.00  0.00     0.031 C 
ATOM     54  C   UNL A   1      42.799  31.825  29.782  1.00  0.00     0.029 A 
ATOM     55  C   UNL A   1      43.716  31.028  29.116  1.00  0.00     0.049 A 
ATOM     56  H   UNL A   1      43.501  29.046  28.426  1.00  0.00     0.167 HD
ATOM     57  C   UNL A   1      45.889  30.521  28.038  1.00  0.00     0.074 A 
ATOM     58  C   UNL A   1      47.220  30.879  27.593  1.00  0.00     0.031 C 
ATOM     59  C   UNL A   1      45.058  31.357  28.710  1.00  0.00     0.034 A 
BRANCH  46  60
ATOM     60  C   UNL A   1      39.487  28.953  29.895  1.00  0.00     0.023 A 
ATOM     61  C   UNL A   1      39.192  28.513  31.201  1.00  0.00     0.012 A 
ATOM     62  C   UNL A   1      38.498  29.630  29.156  1.00  0.00     0.148 A 
ATOM     63  C   UNL A   1      37.925  28.707  31.750  1.00  0.00     0.002 A 
ATOM     64  C   UNL A   1      37.251  29.863  29.727  1.00  0.00     0.091 A 
ATOM     65  F   UNL A   1      38.789  30.026  27.908  1.00  0.00    -0.205 F 
ATOM     66  C   UNL A   1      36.959  29.392  31.016  1.00  0.00     0.022 A 
BRANCH  64  67
ATOM     67  S   UNL A   1      35.966  30.806  28.897  1.00  0.00     0.127 S 
ATOM     68  O   UNL A   1      35.247  31.385  30.032  1.00  0.00    -0.237 OA
ATOM     69  O   UNL A   1      36.745  31.766  28.115  1.00  0.00    -0.237 OA
ATOM     70  O   UNL A   1      35.211  29.846  28.104  1.00  0.00    -0.744 OA
ENDBRANCH  64  67
ENDBRANCH  46  60
BRANCH  47  71
ATOM     71  C   UNL A   1      48.404  27.284  25.716  1.00  0.00     0.023 A 
ATOM     72  C   UNL A   1      49.513  26.860  26.473  1.00  0.00     0.012 A 
ATOM     73  C   UNL A   1      48.549  27.463  24.326  1.00  0.00     0.148 A 
ATOM     74  C   UNL A   1      50.752  26.652  25.865  1.00  0.00     0.002 A 
ATOM     75  C   UNL A   1      49.770  27.197  23.718  1.00  0.00     0.091 A 
ATOM     76  F   UNL A   1      47.484  27.875  23.625  1.00  0.00    -0.205 F 
ATOM     77  C   UNL A   1      50.878  26.811  24.488  1.00  0.00     0.022 A 
BRANCH  75  78
ATOM     78  S   UNL A   1      49.988  27.245  21.936  1.00  0.00     0.127 S 
ATOM     79  O   UNL A   1      48.965  26.306  21.484  1.00  0.00    -0.237 OA
ATOM     80  O   UNL A   1      49.712  28.651  21.636  1.00  0.00    -0.237 OA
ATOM     81  O   UNL A   1      51.368  26.841  21.696  1.00  0.00    -0.744 OA
ENDBRANCH  75  78
ENDBRANCH  47  71
BRANCH  59  82
ATOM     82  C   UNL A   1      45.573  32.733  29.048  1.00  0.00     0.023 A 
ATOM     83  C   UNL A   1      46.175  32.974  30.297  1.00  0.00     0.012 A 
ATOM     84  C   UNL A   1      45.521  33.769  28.094  1.00  0.00     0.148 A 
ATOM     85  C   UNL A   1      46.687  34.234  30.607  1.00  0.00     0.002 A 
ATOM     86  C   UNL A   1      46.079  35.007  28.389  1.00  0.00     0.091 A 
ATOM     87  F   UNL A   1      44.928  33.526  26.917  1.00  0.00    -0.205 F 
ATOM     88  C   UNL A   1      46.650  35.245  29.649  1.00  0.00     0.022 A 
BRANCH  86  89
ATOM     89  S   UNL A   1      46.168  36.337  27.185  1.00  0.00     0.127 S 
ATOM     90  O   UNL A   1      45.068  37.199  27.614  1.00  0.00    -0.237 OA
ATOM     91  O   UNL A   1      47.503  36.885  27.427  1.00  0.00    -0.237 OA
ATOM     92  O   UNL A   1      45.998  35.712  25.881  1.00  0.00    -0.744 OA
ENDBRANCH  86  89
ENDBRANCH  59  82
ENDBRANCH  33  34
ENDBRANCH  25  28
ENDBRANCH  23  24
ENDBRANCH  22  23
ENDBRANCH  21  22
ENDBRANCH   1  21
TORSDOF 20
ENDMDL
MODEL 3
REMARK VINA RESULT:      -9.9      4.493      9.766
REMARK SMILES C=C(CC)C[C@H](C(=O)NCCCCCCNC(=O)c1ccc(-c2c3nc(c(-c4cccc(S(=O)(=O)[O-])c4F)c4ccc([nH]4)c(-c4cccc(S(=O)(=O)[O-])c4F)c4nc(c(-c5cccc(S(=O)(=O)[O-])c5F)c5ccc2[nH]5)C=C4)C=C3)cc1)c1ccccc1C
REMARK SMILES IDX 12 1 11 2 10 3 9 4 7 5 8 6 6 8 5 9 2 10 1 11 3 12 4 13 82 14
REMARK SMILES IDX 83 15 87 16 84 17 86 18 88 19 85 20 13 21 14 22 15 23 16 24
REMARK SMILES IDX 17 25 18 27 19 28 20 29 81 30 21 31 80 32 22 33 23 34 24 35
REMARK SMILES IDX 74 36 25 37 79 38 73 39 75 40 26 41 78 42 72 43 71 44 27 46
REMARK SMILES IDX 59 47 39 48 58 49 40 50 43 51 57 52 76 53 41 54 42 55 56 57
REMARK SMILES IDX 77 58 44 59 28 60 29 61 37 62 30 63 32 64 38 65 31 66 33 67
REMARK SMILES IDX 34 68 35 69 36 70 60 71 61 72 69 73 62 74 64 75 70 76 63 77
REMARK SMILES IDX 65 78 66 79 67 80 68 81 45 82 46 83 54 84 47 85 49 86 55 87
REMARK SMILES IDX 48 88 50 89 51 90 52 91 53 92
REMARK H PARENT 9 7 16 26 75 45 43 56
REMARK Flexibility Score: inf
ROOT
ATOM      1  C   UNL A   1      31.929  26.732  26.492  1.00  0.00     0.002 C 
ENDROOT
BRANCH   1   2
ATOM      2  C   UNL A   1      31.118  26.414  25.234  1.00  0.00     0.021 C 
BRANCH   2   3
ATOM      3  C   UNL A   1      30.634  24.978  25.105  1.00  0.00     0.116 C 
BRANCH   3   4
ATOM      4  N   UNL A   1      30.740  24.181  26.301  1.00  0.00    -0.356 N 
ATOM      5  C   UNL A   1      31.800  23.409  26.703  1.00  0.00     0.227 C 
ATOM      6  O   UNL A   1      31.737  23.001  27.867  1.00  0.00    -0.274 OA
ATOM      7  H   UNL A   1      29.960  24.193  26.901  1.00  0.00     0.163 HD
BRANCH   5   8
ATOM      8  C   UNL A   1      32.906  22.992  25.689  1.00  0.00     0.113 C 
BRANCH   8   9
ATOM      9  C   UNL A   1      34.420  23.105  26.054  1.00  0.00     0.048 C 
BRANCH   9  10
ATOM     10  C   UNL A   1      35.545  23.047  25.048  1.00  0.00    -0.077 C 
ATOM     11  C   UNL A   1      35.404  23.593  23.824  1.00  0.00     0.008 C 
BRANCH  10  12
ATOM     12  C   UNL A   1      36.753  22.171  25.318  1.00  0.00     0.027 C 
ATOM     13  C   UNL A   1      36.686  20.731  24.834  1.00  0.00     0.008 C 
ENDBRANCH  10  12
ENDBRANCH   9  10
ENDBRANCH   8   9
BRANCH   8  14
ATOM     14  C   UNL A   1      32.740  21.566  25.099  1.00  0.00    -0.032 A 
ATOM     15  C   UNL A   1      33.170  20.452  25.855  1.00  0.00     0.005 A 
ATOM     16  C   UNL A   1      32.345  21.339  23.758  1.00  0.00    -0.047 A 
ATOM     17  C   UNL A   1      33.185  19.159  25.327  1.00  0.00     0.000 A 
ATOM     18  C   UNL A   1      32.384  20.027  23.238  1.00  0.00     0.004 A 
ATOM     19  C   UNL A   1      31.964  22.423  22.783  1.00  0.00     0.044 C 
ATOM     20  C   UNL A   1      32.795  18.947  24.015  1.00  0.00     0.000 A 
ENDBRANCH   8  14
ENDBRANCH   5   8
ENDBRANCH   3   4
ENDBRANCH   2   3
ENDBRANCH   1   2
BRANCH   1  21
ATOM     21  C   UNL A   1      31.853  28.169  27.021  1.00  0.00     0.002 C 
BRANCH  21  22
ATOM     22  C   UNL A   1      32.795  29.193  26.383  1.00  0.00     0.021 C 
BRANCH  22  23
ATOM     23  C   UNL A   1      33.959  29.669  27.248  1.00  0.00     0.116 C 
BRANCH  23  24
ATOM     24  N   UNL A   1      33.919  31.096  27.517  1.00  0.00    -0.352 N 
ATOM     25  C   UNL A   1      34.767  31.877  28.264  1.00  0.00     0.251 C 
ATOM     26  H   UNL A   1      33.168  31.578  27.101  1.00  0.00     0.163 HD
ATOM     27  O   UNL A   1      34.481  33.051  28.473  1.00  0.00    -0.269 OA
BRANCH  25  28
ATOM     28  C   UNL A   1      36.007  31.304  28.834  1.00  0.00     0.039 A 
ATOM     29  C   UNL A   1      35.898  30.238  29.732  1.00  0.00     0.014 A 
ATOM     30  C   UNL A   1      37.265  31.816  28.509  1.00  0.00     0.014 A 
ATOM     31  C   UNL A   1      37.051  29.651  30.258  1.00  0.00     0.010 A 
ATOM     32  C   UNL A   1      38.415  31.182  28.975  1.00  0.00     0.010 A 
ATOM     33  C   UNL A   1      38.321  30.097  29.859  1.00  0.00    -0.014 A 
BRANCH  33  34
ATOM     34  C   UNL A   1      39.557  29.431  30.349  1.00  0.00     0.031 A 
ATOM     35  C   UNL A   1      40.251  29.927  31.589  1.00  0.00     0.074 A 
ATOM     36  C   UNL A   1      40.099  28.426  29.631  1.00  0.00     0.049 A 
ATOM     37  N   UNL A   1      41.362  29.505  32.136  1.00  0.00    -0.248 NA
ATOM     38  C   UNL A   1      39.630  31.059  32.294  1.00  0.00     0.031 C 
ATOM     39  C   UNL A   1      39.564  27.905  28.371  1.00  0.00     0.029 A 
ATOM     40  N   UNL A   1      41.233  27.682  29.843  1.00  0.00    -0.354 N 
ATOM     41  C   UNL A   1      41.591  30.336  33.225  1.00  0.00     0.074 A 
ATOM     42  C   UNL A   1      40.522  31.311  33.241  1.00  0.00     0.031 C 
ATOM     43  C   UNL A   1      40.367  26.926  27.924  1.00  0.00     0.029 A 
ATOM     44  C   UNL A   1      41.490  26.772  28.844  1.00  0.00     0.049 A 
ATOM     45  H   UNL A   1      41.807  27.789  30.635  1.00  0.00     0.167 HD
ATOM     46  C   UNL A   1      42.583  30.279  34.146  1.00  0.00     0.034 A 
ATOM     47  C   UNL A   1      42.520  25.920  28.677  1.00  0.00     0.034 A 
ATOM     48  C   UNL A   1      43.626  29.288  34.145  1.00  0.00     0.049 A 
ATOM     49  C   UNL A   1      43.595  25.857  29.727  1.00  0.00     0.074 A 
ATOM     50  C   UNL A   1      44.630  29.097  35.078  1.00  0.00     0.029 A 
ATOM     51  N   UNL A   1      43.810  28.332  33.159  1.00  0.00    -0.354 N 
ATOM     52  N   UNL A   1      43.710  26.552  30.833  1.00  0.00    -0.248 NA
ATOM     53  C   UNL A   1      44.663  24.867  29.528  1.00  0.00     0.031 C 
ATOM     54  C   UNL A   1      45.439  28.043  34.639  1.00  0.00     0.029 A 
ATOM     55  C   UNL A   1      44.917  27.554  33.453  1.00  0.00     0.049 A 
ATOM     56  H   UNL A   1      43.236  28.221  32.366  1.00  0.00     0.167 HD
ATOM     57  C   UNL A   1      44.839  26.059  31.478  1.00  0.00     0.074 A 
ATOM     58  C   UNL A   1      45.360  24.992  30.649  1.00  0.00     0.031 C 
ATOM     59  C   UNL A   1      45.399  26.463  32.645  1.00  0.00     0.034 A 
BRANCH  46  60
ATOM     60  C   UNL A   1      42.562  31.292  35.263  1.00  0.00     0.023 A 
ATOM     61  C   UNL A   1      42.011  30.941  36.512  1.00  0.00     0.012 A 
ATOM     62  C   UNL A   1      43.134  32.568  35.096  1.00  0.00     0.148 A 
ATOM     63  C   UNL A   1      41.994  31.854  37.565  1.00  0.00     0.002 A 
ATOM     64  C   UNL A   1      43.157  33.457  36.165  1.00  0.00     0.091 A 
ATOM     65  F   UNL A   1      43.637  32.893  33.896  1.00  0.00    -0.205 F 
ATOM     66  C   UNL A   1      42.576  33.107  37.395  1.00  0.00     0.022 A 
BRANCH  64  67
ATOM     67  S   UNL A   1      43.955  35.064  36.074  1.00  0.00     0.127 S 
ATOM     68  O   UNL A   1      43.727  35.582  37.423  1.00  0.00    -0.237 OA
ATOM     69  O   UNL A   1      45.343  34.702  35.786  1.00  0.00    -0.237 OA
ATOM     70  O   UNL A   1      43.282  35.788  35.005  1.00  0.00    -0.744 OA
ENDBRANCH  64  67
ENDBRANCH  46  60
BRANCH  47  71
ATOM     71  C   UNL A   1      42.557  25.021  27.488  1.00  0.00     0.023 A 
ATOM     72  C   UNL A   1      43.119  25.484  26.283  1.00  0.00     0.012 A 
ATOM     73  C   UNL A   1      42.063  23.704  27.554  1.00  0.00     0.148 A 
ATOM     74  C   UNL A   1      43.156  24.664  25.155  1.00  0.00     0.002 A 
ATOM     75  C   UNL A   1      42.157  22.873  26.445  1.00  0.00     0.091 A 
ATOM     76  F   UNL A   1      41.525  23.286  28.708  1.00  0.00    -0.205 F 
ATOM     77  C   UNL A   1      42.685  23.357  25.238  1.00  0.00     0.022 A 
BRANCH  75  78
ATOM     78  S   UNL A   1      41.700  21.137  26.500  1.00  0.00     0.127 S 
ATOM     79  O   UNL A   1      42.194  20.739  27.816  1.00  0.00    -0.237 OA
ATOM     80  O   UNL A   1      40.242  21.206  26.383  1.00  0.00    -0.237 OA
ATOM     81  O   UNL A   1      42.364  20.517  25.361  1.00  0.00    -0.744 OA
ENDBRANCH  75  78
ENDBRANCH  47  71
BRANCH  59  82
ATOM     82  C   UNL A   1      46.621  25.724  33.126  1.00  0.00     0.023 A 
ATOM     83  C   UNL A   1      47.906  26.230  32.850  1.00  0.00     0.012 A 
ATOM     84  C   UNL A   1      46.490  24.564  33.916  1.00  0.00     0.148 A 
ATOM     85  C   UNL A   1      49.044  25.573  33.321  1.00  0.00     0.002 A 
ATOM     86  C   UNL A   1      47.624  23.945  34.426  1.00  0.00     0.091 A 
ATOM     87  F   UNL A   1      45.260  24.089  34.154  1.00  0.00    -0.205 F 
ATOM     88  C   UNL A   1      48.902  24.440  34.118  1.00  0.00     0.022 A 
BRANCH  86  89
ATOM     89  S   UNL A   1      47.538  22.541  35.543  1.00  0.00     0.127 S 
ATOM     90  O   UNL A   1      46.962  21.511  34.681  1.00  0.00    -0.237 OA
ATOM     91  O   UNL A   1      48.945  22.332  35.887  1.00  0.00    -0.237 OA
ATOM     92  O   UNL A   1      46.699  22.963  36.656  1.00  0.00    -0.744 OA
ENDBRANCH  86  89
ENDBRANCH  59  82
ENDBRANCH  33  34
ENDBRANCH  25  28
ENDBRANCH  23  24
ENDBRANCH  22  23
ENDBRANCH  21  22
ENDBRANCH   1  21
TORSDOF 20
ENDMDL
