MODEL 1
REMARK VINA RESULT:     -13.4      0.000      0.000
REMARK SMILES O=C1C[C@H](c2cn[nH]c2C(=O)NCCCCCCNC(=O)c2ccc(-c3c4nc(c(-c5cccc(S(=O)(=O)[O-])c5F)c5ccc([nH]5)c(-c5cccc(S(=O)(=O)[O-])c5F)c5nc(c(-c6cccc(S(=O)(=O)[O-])c6F)c6ccc3[nH]6)C=C5)C=C4)cc2)c2c(-c3cccs3)n[nH]c2N1
REMARK SMILES IDX 16 1 15 2 14 3 13 4 12 5 10 6 11 7 9 9 5 10 6 11 7 12 8 13
REMARK SMILES IDX 4 15 1 16 2 17 3 18 95 19 94 20 85 22 93 23 86 24 92 25
REMARK SMILES IDX 87 27 88 28 91 29 89 30 90 31 17 32 18 33 19 34 20 35 21 37
REMARK SMILES IDX 22 38 23 39 84 40 24 41 83 42 25 43 26 44 27 45 77 46 28 47
REMARK SMILES IDX 82 48 76 49 78 50 29 51 81 52 75 53 74 54 30 56 62 57 42 58
REMARK SMILES IDX 61 59 43 60 46 61 60 62 79 63 44 64 45 65 59 67 80 68 47 69
REMARK SMILES IDX 31 70 32 71 40 72 33 73 35 74 41 75 34 76 36 77 37 78 38 79
REMARK SMILES IDX 39 80 63 81 64 82 72 83 65 84 67 85 73 86 66 87 68 88 69 89
REMARK SMILES IDX 70 90 71 91 48 92 49 93 57 94 50 95 52 96 58 97 51 98 53 99
REMARK SMILES IDX 54 100 55 101 56 102
REMARK H PARENT 12 8 8 14 95 21 93 26 19 36 78 55 46 66
REMARK Flexibility Score: inf
ROOT
ATOM      1  C   UNL A   1      38.847  21.581  25.744  1.00  0.00     0.002 C 
ENDROOT
BRANCH   1   2
ATOM      2  C   UNL A   1      37.627  22.045  24.935  1.00  0.00     0.002 C 
BRANCH   2   3
ATOM      3  C   UNL A   1      37.304  23.537  25.029  1.00  0.00     0.021 C 
BRANCH   3   4
ATOM      4  C   UNL A   1      36.030  23.905  26.158  1.00  0.00     0.116 C 
BRANCH   4   5
ATOM      5  N   UNL A   1      34.086  22.980  26.352  1.00  0.00    -0.351 N 
ATOM      6  C   UNL A   1      32.671  22.913  26.404  1.00  0.00     0.269 C 
ATOM      7  O   UNL A   1      32.195  21.779  26.523  1.00  0.00    -0.268 OA
ATOM      8  H   UNL A   1      34.332  22.036  26.484  1.00  0.00     0.163 HD
BRANCH   6   9
ATOM      9  C   UNL A   1      31.804  24.050  26.215  1.00  0.00     0.126 A 
ATOM     10  C   UNL A   1      31.892  25.169  25.399  1.00  0.00     0.011 A 
ATOM     11  C   UNL A   1      30.682  25.856  25.598  1.00  0.00     0.140 A 
ATOM     12  N   UNL A   1      29.877  25.230  26.462  1.00  0.00    -0.183 NA
ATOM     13  N   UNL A   1      30.605  24.169  26.854  1.00  0.00    -0.273 N 
ATOM     14  H   UNL A   1      30.300  23.534  27.542  1.00  0.00     0.190 HD
BRANCH  10  15
ATOM     15  C   UNL A   1      33.041  25.483  24.505  1.00  0.00     0.069 C 
ATOM     16  O   UNL A   1      33.515  23.730  21.212  1.00  0.00    -0.275 OA
ATOM     17  C   UNL A   1      32.857  24.327  22.068  1.00  0.00     0.226 C 
ATOM     18  C   UNL A   1      33.377  24.336  23.528  1.00  0.00     0.114 C 
ATOM     19  N   UNL A   1      31.742  25.039  21.684  1.00  0.00    -0.311 N 
ATOM     20  C   UNL A   1      31.587  26.243  22.316  1.00  0.00     0.132 A 
ATOM     21  H   UNL A   1      31.106  24.708  21.009  1.00  0.00     0.171 HD
ATOM     22  C   UNL A   1      32.567  26.629  23.737  1.00  0.00     0.031 A 
ATOM     23  N   UNL A   1      30.743  27.795  21.773  1.00  0.00    -0.262 N 
ATOM     24  C   UNL A   1      32.360  28.525  24.109  1.00  0.00     0.108 A 
ATOM     25  N   UNL A   1      31.275  29.220  22.895  1.00  0.00    -0.173 NA
ATOM     26  H   UNL A   1      30.115  27.868  21.018  1.00  0.00     0.192 HD
BRANCH  24  27
ATOM     27  C   UNL A   1      32.765  29.124  25.407  1.00  0.00     0.055 A 
ATOM     28  C   UNL A   1      33.942  28.814  26.044  1.00  0.00     0.022 A 
ATOM     29  S   UNL A   1      31.923  30.397  26.154  1.00  0.00    -0.142 S 
ATOM     30  C   UNL A   1      34.198  29.712  27.123  1.00  0.00     0.012 A 
ATOM     31  C   UNL A   1      33.151  30.586  27.330  1.00  0.00     0.065 A 
ENDBRANCH  24  27
ENDBRANCH  10  15
ENDBRANCH   6   9
ENDBRANCH   4   5
ENDBRANCH   3   4
ENDBRANCH   2   3
ENDBRANCH   1   2
BRANCH   1  32
ATOM     32  C   UNL A   1      39.346  20.160  25.426  1.00  0.00     0.021 C 
BRANCH  32  33
ATOM     33  C   UNL A   1      40.118  19.551  26.579  1.00  0.00     0.116 C 
BRANCH  33  34
ATOM     34  N   UNL A   1      41.457  19.134  26.149  1.00  0.00    -0.352 N 
ATOM     35  C   UNL A   1      42.502  19.893  25.682  1.00  0.00     0.251 C 
ATOM     36  H   UNL A   1      41.634  18.167  26.205  1.00  0.00     0.163 HD
ATOM     37  O   UNL A   1      43.427  19.397  25.052  1.00  0.00    -0.269 OA
BRANCH  35  38
ATOM     38  C   UNL A   1      42.543  21.287  26.111  1.00  0.00     0.039 A 
ATOM     39  C   UNL A   1      42.510  22.397  25.270  1.00  0.00     0.014 A 
ATOM     40  C   UNL A   1      42.792  21.474  27.455  1.00  0.00     0.014 A 
ATOM     41  C   UNL A   1      42.788  23.638  25.851  1.00  0.00     0.010 A 
ATOM     42  C   UNL A   1      42.410  22.650  27.979  1.00  0.00     0.010 A 
ATOM     43  C   UNL A   1      42.892  23.701  27.249  1.00  0.00    -0.014 A 
BRANCH  43  44
ATOM     44  C   UNL A   1      42.994  24.890  28.071  1.00  0.00     0.031 A 
ATOM     45  C   UNL A   1      41.675  25.595  28.045  1.00  0.00     0.074 A 
ATOM     46  C   UNL A   1      44.058  25.092  28.897  1.00  0.00     0.049 A 
ATOM     47  N   UNL A   1      41.362  26.532  27.207  1.00  0.00    -0.248 NA
ATOM     48  C   UNL A   1      40.470  24.988  28.669  1.00  0.00     0.031 C 
ATOM     49  C   UNL A   1      45.272  24.288  29.144  1.00  0.00     0.029 A 
ATOM     50  N   UNL A   1      44.262  26.129  29.758  1.00  0.00    -0.354 N 
ATOM     51  C   UNL A   1      40.049  26.867  27.515  1.00  0.00     0.074 A 
ATOM     52  C   UNL A   1      39.485  25.697  28.107  1.00  0.00     0.031 C 
ATOM     53  C   UNL A   1      45.936  24.755  30.238  1.00  0.00     0.029 A 
ATOM     54  C   UNL A   1      45.293  25.969  30.698  1.00  0.00     0.049 A 
ATOM     55  H   UNL A   1      43.715  26.947  29.721  1.00  0.00     0.167 HD
ATOM     56  C   UNL A   1      39.695  28.177  27.633  1.00  0.00     0.034 A 
ATOM     57  C   UNL A   1      45.538  26.801  31.761  1.00  0.00     0.034 A 
ATOM     58  C   UNL A   1      40.757  29.004  27.098  1.00  0.00     0.049 A 
ATOM     59  C   UNL A   1      44.892  28.098  31.416  1.00  0.00     0.074 A 
ATOM     60  C   UNL A   1      41.351  29.128  25.858  1.00  0.00     0.029 A 
ATOM     61  N   UNL A   1      41.683  29.430  28.023  1.00  0.00    -0.354 N 
ATOM     62  N   UNL A   1      45.300  28.811  30.397  1.00  0.00    -0.248 NA
ATOM     63  C   UNL A   1      43.485  28.237  31.777  1.00  0.00     0.031 C 
ATOM     64  C   UNL A   1      42.752  29.176  26.130  1.00  0.00     0.029 A 
ATOM     65  C   UNL A   1      42.943  29.260  27.509  1.00  0.00     0.049 A 
ATOM     66  H   UNL A   1      41.474  29.796  28.913  1.00  0.00     0.167 HD
ATOM     67  C   UNL A   1      44.134  29.093  29.698  1.00  0.00     0.074 A 
ATOM     68  C   UNL A   1      43.040  28.720  30.610  1.00  0.00     0.031 C 
ATOM     69  C   UNL A   1      44.131  29.204  28.334  1.00  0.00     0.034 A 
BRANCH  56  70
ATOM     70  C   UNL A   1      38.677  28.746  28.602  1.00  0.00     0.023 A 
ATOM     71  C   UNL A   1      37.723  29.630  28.049  1.00  0.00     0.012 A 
ATOM     72  C   UNL A   1      38.741  28.690  30.016  1.00  0.00     0.148 A 
ATOM     73  C   UNL A   1      36.928  30.459  28.846  1.00  0.00     0.002 A 
ATOM     74  C   UNL A   1      37.916  29.484  30.811  1.00  0.00     0.091 A 
ATOM     75  F   UNL A   1      39.661  27.941  30.623  1.00  0.00    -0.205 F 
ATOM     76  C   UNL A   1      37.027  30.389  30.228  1.00  0.00     0.022 A 
BRANCH  74  77
ATOM     77  S   UNL A   1      37.972  29.439  32.611  1.00  0.00     0.127 S 
ATOM     78  O   UNL A   1      39.376  29.744  32.870  1.00  0.00    -0.237 OA
ATOM     79  O   UNL A   1      37.033  30.504  32.960  1.00  0.00    -0.237 OA
ATOM     80  O   UNL A   1      37.535  28.103  32.994  1.00  0.00    -0.744 OA
ENDBRANCH  74  77
ENDBRANCH  56  70
BRANCH  57  81
ATOM     81  C   UNL A   1      45.827  26.437  33.188  1.00  0.00     0.023 A 
ATOM     82  C   UNL A   1      46.849  27.061  33.948  1.00  0.00     0.012 A 
ATOM     83  C   UNL A   1      44.880  25.671  33.898  1.00  0.00     0.148 A 
ATOM     84  C   UNL A   1      46.905  26.929  35.353  1.00  0.00     0.002 A 
ATOM     85  C   UNL A   1      44.944  25.531  35.282  1.00  0.00     0.091 A 
ATOM     86  F   UNL A   1      43.845  25.153  33.228  1.00  0.00    -0.205 F 
ATOM     87  C   UNL A   1      45.946  26.169  36.020  1.00  0.00     0.022 A 
BRANCH  85  88
ATOM     88  S   UNL A   1      43.726  24.540  36.162  1.00  0.00     0.127 S 
ATOM     89  O   UNL A   1      43.979  23.201  35.626  1.00  0.00    -0.237 OA
ATOM     90  O   UNL A   1      44.130  24.727  37.550  1.00  0.00    -0.237 OA
ATOM     91  O   UNL A   1      42.422  25.075  35.775  1.00  0.00    -0.744 OA
ENDBRANCH  85  88
ENDBRANCH  57  81
BRANCH  69  92
ATOM     92  C   UNL A   1      45.456  29.172  27.597  1.00  0.00     0.023 A 
ATOM     93  C   UNL A   1      46.469  30.157  27.693  1.00  0.00     0.012 A 
ATOM     94  C   UNL A   1      45.745  27.984  26.917  1.00  0.00     0.148 A 
ATOM     95  C   UNL A   1      47.723  29.965  27.089  1.00  0.00     0.002 A 
ATOM     96  C   UNL A   1      46.998  27.777  26.359  1.00  0.00     0.091 A 
ATOM     97  F   UNL A   1      44.790  27.046  26.871  1.00  0.00    -0.205 F 
ATOM     98  C   UNL A   1      47.987  28.770  26.425  1.00  0.00     0.022 A 
BRANCH  96  99
ATOM     99  S   UNL A   1      47.424  26.208  25.611  1.00  0.00     0.127 S 
ATOM    100  O   UNL A   1      48.718  26.509  25.002  1.00  0.00    -0.237 OA
ATOM    101  O   UNL A   1      47.481  25.318  26.770  1.00  0.00    -0.237 OA
ATOM    102  O   UNL A   1      46.350  25.901  24.674  1.00  0.00    -0.744 OA
ENDBRANCH  96  99
ENDBRANCH  69  92
ENDBRANCH  43  44
ENDBRANCH  35  38
ENDBRANCH  33  34
ENDBRANCH  32  33
ENDBRANCH   1  32
TORSDOF 18
ENDMDL
MODEL 2
REMARK VINA RESULT:     -13.4      4.079      9.493
REMARK SMILES O=C1C[C@H](c2cn[nH]c2C(=O)NCCCCCCNC(=O)c2ccc(-c3c4nc(c(-c5cccc(S(=O)(=O)[O-])c5F)c5ccc([nH]5)c(-c5cccc(S(=O)(=O)[O-])c5F)c5nc(c(-c6cccc(S(=O)(=O)[O-])c6F)c6ccc3[nH]6)C=C5)C=C4)cc2)c2c(-c3cccs3)n[nH]c2N1
REMARK SMILES IDX 16 1 15 2 14 3 13 4 12 5 10 6 11 7 9 9 5 10 6 11 7 12 8 13
REMARK SMILES IDX 4 15 1 16 2 17 3 18 95 19 94 20 85 22 93 23 86 24 92 25
REMARK SMILES IDX 87 27 88 28 91 29 89 30 90 31 17 32 18 33 19 34 20 35 21 37
REMARK SMILES IDX 22 38 23 39 84 40 24 41 83 42 25 43 26 44 27 45 77 46 28 47
REMARK SMILES IDX 82 48 76 49 78 50 29 51 81 52 75 53 74 54 30 56 62 57 42 58
REMARK SMILES IDX 61 59 43 60 46 61 60 62 79 63 44 64 45 65 59 67 80 68 47 69
REMARK SMILES IDX 31 70 32 71 40 72 33 73 35 74 41 75 34 76 36 77 37 78 38 79
REMARK SMILES IDX 39 80 63 81 64 82 72 83 65 84 67 85 73 86 66 87 68 88 69 89
REMARK SMILES IDX 70 90 71 91 48 92 49 93 57 94 50 95 52 96 58 97 51 98 53 99
REMARK SMILES IDX 54 100 55 101 56 102
REMARK H PARENT 12 8 8 14 95 21 93 26 19 36 78 55 46 66
REMARK Flexibility Score: inf
ROOT
ATOM      1  C   UNL A   1      31.782  32.909  26.908  1.00  0.00     0.002 C 
ENDROOT
BRANCH   1   2
ATOM      2  C   UNL A   1      31.473  31.458  26.514  1.00  0.00     0.002 C 
BRANCH   2   3
ATOM      3  C   UNL A   1      30.615  31.285  25.259  1.00  0.00     0.021 C 
BRANCH   3   4
ATOM      4  C   UNL A   1      30.897  29.783  24.425  1.00  0.00     0.116 C 
BRANCH   4   5
ATOM      5  N   UNL A   1      32.704  29.088  23.464  1.00  0.00    -0.351 N 
ATOM      6  C   UNL A   1      33.631  28.147  22.951  1.00  0.00     0.269 C 
ATOM      7  O   UNL A   1      34.620  28.626  22.385  1.00  0.00    -0.268 OA
ATOM      8  H   UNL A   1      33.155  29.939  23.258  1.00  0.00     0.163 HD
BRANCH   6   9
ATOM      9  C   UNL A   1      33.419  26.720  22.961  1.00  0.00     0.126 A 
ATOM     10  C   UNL A   1      33.429  25.780  23.982  1.00  0.00     0.011 A 
ATOM     11  C   UNL A   1      33.050  24.575  23.364  1.00  0.00     0.140 A 
ATOM     12  N   UNL A   1      32.807  24.725  22.060  1.00  0.00    -0.183 NA
ATOM     13  N   UNL A   1      33.088  26.022  21.837  1.00  0.00    -0.273 N 
ATOM     14  H   UNL A   1      33.058  26.432  20.942  1.00  0.00     0.190 HD
BRANCH  10  15
ATOM     15  C   UNL A   1      33.747  26.072  25.407  1.00  0.00     0.069 C 
ATOM     16  O   UNL A   1      31.302  27.841  27.651  1.00  0.00    -0.275 OA
ATOM     17  C   UNL A   1      31.632  26.996  26.816  1.00  0.00     0.226 C 
ATOM     18  C   UNL A   1      32.916  27.239  25.984  1.00  0.00     0.114 C 
ATOM     19  N   UNL A   1      30.906  25.829  26.716  1.00  0.00    -0.311 N 
ATOM     20  C   UNL A   1      31.659  24.702  26.523  1.00  0.00     0.132 A 
ATOM     21  H   UNL A   1      29.924  25.806  26.777  1.00  0.00     0.171 HD
ATOM     22  C   UNL A   1      33.369  24.844  26.096  1.00  0.00     0.031 A 
ATOM     23  N   UNL A   1      31.330  22.937  26.961  1.00  0.00    -0.262 N 
ATOM     24  C   UNL A   1      34.182  23.090  26.292  1.00  0.00     0.108 A 
ATOM     25  N   UNL A   1      32.940  21.954  26.843  1.00  0.00    -0.173 NA
ATOM     26  H   UNL A   1      30.454  22.567  27.217  1.00  0.00     0.192 HD
BRANCH  24  27
ATOM     27  C   UNL A   1      35.508  22.763  25.707  1.00  0.00     0.055 A 
ATOM     28  C   UNL A   1      36.635  23.516  25.932  1.00  0.00     0.022 A 
ATOM     29  S   UNL A   1      35.830  21.326  24.859  1.00  0.00    -0.142 S 
ATOM     30  C   UNL A   1      37.807  22.843  25.472  1.00  0.00     0.012 A 
ATOM     31  C   UNL A   1      37.506  21.668  24.815  1.00  0.00     0.065 A 
ENDBRANCH  24  27
ENDBRANCH  10  15
ENDBRANCH   6   9
ENDBRANCH   4   5
ENDBRANCH   3   4
ENDBRANCH   2   3
ENDBRANCH   1   2
BRANCH   1  32
ATOM     32  C   UNL A   1      32.896  33.085  27.957  1.00  0.00     0.021 C 
BRANCH  32  33
ATOM     33  C   UNL A   1      33.197  34.543  28.235  1.00  0.00     0.116 C 
BRANCH  33  34
ATOM     34  N   UNL A   1      33.065  34.840  29.666  1.00  0.00    -0.352 N 
ATOM     35  C   UNL A   1      33.807  34.381  30.727  1.00  0.00     0.251 C 
ATOM     36  H   UNL A   1      32.338  35.462  29.901  1.00  0.00     0.163 HD
ATOM     37  O   UNL A   1      33.391  34.438  31.876  1.00  0.00    -0.269 OA
BRANCH  35  38
ATOM     38  C   UNL A   1      35.180  33.975  30.439  1.00  0.00     0.039 A 
ATOM     39  C   UNL A   1      35.961  34.445  29.386  1.00  0.00     0.014 A 
ATOM     40  C   UNL A   1      35.646  32.924  31.202  1.00  0.00     0.014 A 
ATOM     41  C   UNL A   1      37.162  33.771  29.142  1.00  0.00     0.010 A 
ATOM     42  C   UNL A   1      36.979  32.802  31.304  1.00  0.00     0.010 A 
ATOM     43  C   UNL A   1      37.577  32.808  30.074  1.00  0.00    -0.014 A 
BRANCH  43  44
ATOM     44  C   UNL A   1      38.852  32.123  30.122  1.00  0.00     0.031 A 
ATOM     45  C   UNL A   1      38.688  30.774  29.496  1.00  0.00     0.074 A 
ATOM     46  C   UNL A   1      39.999  32.782  30.449  1.00  0.00     0.049 A 
ATOM     47  N   UNL A   1      38.391  29.696  30.150  1.00  0.00    -0.248 NA
ATOM     48  C   UNL A   1      38.408  30.633  28.044  1.00  0.00     0.031 C 
ATOM     49  C   UNL A   1      40.246  34.187  30.831  1.00  0.00     0.029 A 
ATOM     50  N   UNL A   1      41.268  32.283  30.487  1.00  0.00    -0.354 N 
ATOM     51  C   UNL A   1      38.301  28.702  29.183  1.00  0.00     0.074 A 
ATOM     52  C   UNL A   1      37.955  29.377  27.973  1.00  0.00     0.031 C 
ATOM     53  C   UNL A   1      41.581  34.453  30.823  1.00  0.00     0.029 A 
ATOM     54  C   UNL A   1      42.307  33.222  30.579  1.00  0.00     0.049 A 
ATOM     55  H   UNL A   1      41.444  31.315  30.450  1.00  0.00     0.167 HD
ATOM     56  C   UNL A   1      38.919  27.504  29.383  1.00  0.00     0.034 A 
ATOM     57  C   UNL A   1      43.644  32.948  30.443  1.00  0.00     0.034 A 
ATOM     58  C   UNL A   1      39.325  27.407  30.769  1.00  0.00     0.049 A 
ATOM     59  C   UNL A   1      43.785  31.489  30.711  1.00  0.00     0.074 A 
ATOM     60  C   UNL A   1      38.651  27.424  31.974  1.00  0.00     0.029 A 
ATOM     61  N   UNL A   1      40.608  27.830  31.029  1.00  0.00    -0.354 N 
ATOM     62  N   UNL A   1      43.510  30.985  31.887  1.00  0.00    -0.248 NA
ATOM     63  C   UNL A   1      43.602  30.600  29.569  1.00  0.00     0.031 C 
ATOM     64  C   UNL A   1      39.418  28.293  32.808  1.00  0.00     0.029 A 
ATOM     65  C   UNL A   1      40.603  28.623  32.149  1.00  0.00     0.049 A 
ATOM     66  H   UNL A   1      41.404  27.601  30.496  1.00  0.00     0.167 HD
ATOM     67  C   UNL A   1      42.668  29.918  31.604  1.00  0.00     0.074 A 
ATOM     68  C   UNL A   1      42.771  29.723  30.148  1.00  0.00     0.031 C 
ATOM     69  C   UNL A   1      41.665  29.555  32.462  1.00  0.00     0.034 A 
BRANCH  56  70
ATOM     70  C   UNL A   1      39.571  26.644  28.317  1.00  0.00     0.023 A 
ATOM     71  C   UNL A   1      39.270  25.264  28.368  1.00  0.00     0.012 A 
ATOM     72  C   UNL A   1      40.630  27.030  27.459  1.00  0.00     0.148 A 
ATOM     73  C   UNL A   1      40.018  24.315  27.663  1.00  0.00     0.002 A 
ATOM     74  C   UNL A   1      41.345  26.087  26.722  1.00  0.00     0.091 A 
ATOM     75  F   UNL A   1      41.031  28.300  27.406  1.00  0.00    -0.205 F 
ATOM     76  C   UNL A   1      41.058  24.726  26.843  1.00  0.00     0.022 A 
BRANCH  74  77
ATOM     77  S   UNL A   1      42.697  26.542  25.623  1.00  0.00     0.127 S 
ATOM     78  O   UNL A   1      43.712  26.989  26.572  1.00  0.00    -0.237 OA
ATOM     79  O   UNL A   1      42.983  25.266  24.967  1.00  0.00    -0.237 OA
ATOM     80  O   UNL A   1      42.167  27.568  24.734  1.00  0.00    -0.744 OA
ENDBRANCH  74  77
ENDBRANCH  56  70
BRANCH  57  81
ATOM     81  C   UNL A   1      44.677  33.690  29.646  1.00  0.00     0.023 A 
ATOM     82  C   UNL A   1      45.901  34.140  30.205  1.00  0.00     0.012 A 
ATOM     83  C   UNL A   1      44.577  33.693  28.240  1.00  0.00     0.148 A 
ATOM     84  C   UNL A   1      46.973  34.557  29.386  1.00  0.00     0.002 A 
ATOM     85  C   UNL A   1      45.631  34.115  27.434  1.00  0.00     0.091 A 
ATOM     86  F   UNL A   1      43.478  33.180  27.677  1.00  0.00    -0.205 F 
ATOM     87  C   UNL A   1      46.840  34.537  27.999  1.00  0.00     0.022 A 
BRANCH  85  88
ATOM     88  S   UNL A   1      45.473  34.115  25.642  1.00  0.00     0.127 S 
ATOM     89  O   UNL A   1      45.250  32.697  25.356  1.00  0.00    -0.237 OA
ATOM     90  O   UNL A   1      44.308  34.967  25.440  1.00  0.00    -0.237 OA
ATOM     91  O   UNL A   1      46.750  34.609  25.129  1.00  0.00    -0.744 OA
ENDBRANCH  85  88
ENDBRANCH  57  81
BRANCH  69  92
ATOM     92  C   UNL A   1      41.581  30.237  33.813  1.00  0.00     0.023 A 
ATOM     93  C   UNL A   1      42.511  30.077  34.869  1.00  0.00     0.012 A 
ATOM     94  C   UNL A   1      40.598  31.225  33.936  1.00  0.00     0.148 A 
ATOM     95  C   UNL A   1      42.429  30.866  36.029  1.00  0.00     0.002 A 
ATOM     96  C   UNL A   1      40.546  32.033  35.062  1.00  0.00     0.091 A 
ATOM     97  F   UNL A   1      39.751  31.391  32.910  1.00  0.00    -0.205 F 
ATOM     98  C   UNL A   1      41.447  31.848  36.121  1.00  0.00     0.022 A 
BRANCH  96  99
ATOM     99  S   UNL A   1      39.384  33.390  35.167  1.00  0.00     0.127 S 
ATOM    100  O   UNL A   1      38.132  32.741  34.784  1.00  0.00    -0.237 OA
ATOM    101  O   UNL A   1      39.476  33.767  36.578  1.00  0.00    -0.237 OA
ATOM    102  O   UNL A   1      39.867  34.409  34.243  1.00  0.00    -0.744 OA
ENDBRANCH  96  99
ENDBRANCH  69  92
ENDBRANCH  43  44
ENDBRANCH  35  38
ENDBRANCH  33  34
ENDBRANCH  32  33
ENDBRANCH   1  32
TORSDOF 18
ENDMDL
MODEL 3
REMARK VINA RESULT:     -13.4      2.704      7.810
REMARK SMILES O=C1C[C@H](c2cn[nH]c2C(=O)NCCCCCCNC(=O)c2ccc(-c3c4nc(c(-c5cccc(S(=O)(=O)[O-])c5F)c5ccc([nH]5)c(-c5cccc(S(=O)(=O)[O-])c5F)c5nc(c(-c6cccc(S(=O)(=O)[O-])c6F)c6ccc3[nH]6)C=C5)C=C4)cc2)c2c(-c3cccs3)n[nH]c2N1
REMARK SMILES IDX 16 1 15 2 14 3 13 4 12 5 10 6 11 7 9 9 5 10 6 11 7 12 8 13
REMARK SMILES IDX 4 15 1 16 2 17 3 18 95 19 94 20 85 22 93 23 86 24 92 25
REMARK SMILES IDX 87 27 88 28 91 29 89 30 90 31 17 32 18 33 19 34 20 35 21 37
REMARK SMILES IDX 22 38 23 39 84 40 24 41 83 42 25 43 26 44 27 45 77 46 28 47
REMARK SMILES IDX 82 48 76 49 78 50 29 51 81 52 75 53 74 54 30 56 62 57 42 58
REMARK SMILES IDX 61 59 43 60 46 61 60 62 79 63 44 64 45 65 59 67 80 68 47 69
REMARK SMILES IDX 31 70 32 71 40 72 33 73 35 74 41 75 34 76 36 77 37 78 38 79
REMARK SMILES IDX 39 80 63 81 64 82 72 83 65 84 67 85 73 86 66 87 68 88 69 89
REMARK SMILES IDX 70 90 71 91 48 92 49 93 57 94 50 95 52 96 58 97 51 98 53 99
REMARK SMILES IDX 54 100 55 101 56 102
REMARK H PARENT 12 8 8 14 95 21 93 26 19 36 78 55 46 66
REMARK Flexibility Score: inf
ROOT
ATOM      1  C   UNL A   1      35.209  29.654  27.261  1.00  0.00     0.002 C 
ENDROOT
BRANCH   1   2
ATOM      2  C   UNL A   1      34.237  28.729  26.515  1.00  0.00     0.002 C 
BRANCH   2   3
ATOM      3  C   UNL A   1      33.638  29.303  25.230  1.00  0.00     0.021 C 
BRANCH   3   4
ATOM      4  C   UNL A   1      34.129  28.452  23.792  1.00  0.00     0.116 C 
BRANCH   4   5
ATOM      5  N   UNL A   1      32.943  27.202  22.489  1.00  0.00    -0.351 N 
ATOM      6  C   UNL A   1      32.420  25.997  21.956  1.00  0.00     0.269 C 
ATOM      7  O   UNL A   1      31.578  26.132  21.060  1.00  0.00    -0.268 OA
ATOM      8  H   UNL A   1      32.497  27.875  21.926  1.00  0.00     0.163 HD
BRANCH   6   9
ATOM      9  C   UNL A   1      32.729  24.686  22.472  1.00  0.00     0.126 A 
ATOM     10  C   UNL A   1      33.067  24.237  23.740  1.00  0.00     0.011 A 
ATOM     11  C   UNL A   1      33.145  22.838  23.617  1.00  0.00     0.140 A 
ATOM     12  N   UNL A   1      32.872  22.420  22.378  1.00  0.00    -0.183 NA
ATOM     13  N   UNL A   1      32.674  23.564  21.698  1.00  0.00    -0.273 N 
ATOM     14  H   UNL A   1      32.505  23.590  20.729  1.00  0.00     0.190 HD
BRANCH  10  15
ATOM     15  C   UNL A   1      33.254  25.109  24.932  1.00  0.00     0.069 C 
ATOM     16  O   UNL A   1      30.328  26.640  26.732  1.00  0.00    -0.275 OA
ATOM     17  C   UNL A   1      30.941  25.714  26.197  1.00  0.00     0.226 C 
ATOM     18  C   UNL A   1      32.059  26.056  25.180  1.00  0.00     0.114 C 
ATOM     19  N   UNL A   1      30.678  24.418  26.587  1.00  0.00    -0.311 N 
ATOM     20  C   UNL A   1      31.783  23.619  26.694  1.00  0.00     0.132 A 
ATOM     21  H   UNL A   1      29.768  24.093  26.772  1.00  0.00     0.171 HD
ATOM     22  C   UNL A   1      33.334  24.160  26.036  1.00  0.00     0.031 A 
ATOM     23  N   UNL A   1      32.102  22.127  27.738  1.00  0.00    -0.262 N 
ATOM     24  C   UNL A   1      34.717  22.972  26.711  1.00  0.00     0.108 A 
ATOM     25  N   UNL A   1      33.957  21.766  27.761  1.00  0.00    -0.173 NA
ATOM     26  H   UNL A   1      31.414  21.604  28.210  1.00  0.00     0.192 HD
BRANCH  24  27
ATOM     27  C   UNL A   1      36.076  22.921  26.112  1.00  0.00     0.055 A 
ATOM     28  C   UNL A   1      36.984  23.946  26.218  1.00  0.00     0.022 A 
ATOM     29  S   UNL A   1      36.732  21.525  25.399  1.00  0.00    -0.142 S 
ATOM     30  C   UNL A   1      38.280  23.535  25.783  1.00  0.00     0.012 A 
ATOM     31  C   UNL A   1      38.271  22.260  25.258  1.00  0.00     0.065 A 
ENDBRANCH  24  27
ENDBRANCH  10  15
ENDBRANCH   6   9
ENDBRANCH   4   5
ENDBRANCH   3   4
ENDBRANCH   2   3
ENDBRANCH   1   2
BRANCH   1  32
ATOM     32  C   UNL A   1      34.659  31.051  27.603  1.00  0.00     0.021 C 
BRANCH  32  33
ATOM     33  C   UNL A   1      35.762  32.042  27.915  1.00  0.00     0.116 C 
BRANCH  33  34
ATOM     34  N   UNL A   1      35.635  32.551  29.286  1.00  0.00    -0.352 N 
ATOM     35  C   UNL A   1      35.931  31.937  30.478  1.00  0.00     0.251 C 
ATOM     36  H   UNL A   1      35.286  33.469  29.362  1.00  0.00     0.163 HD
ATOM     37  O   UNL A   1      35.472  32.337  31.539  1.00  0.00    -0.269 OA
BRANCH  35  38
ATOM     38  C   UNL A   1      36.948  30.891  30.441  1.00  0.00     0.039 A 
ATOM     39  C   UNL A   1      36.702  29.519  30.435  1.00  0.00     0.014 A 
ATOM     40  C   UNL A   1      38.246  31.337  30.583  1.00  0.00     0.014 A 
ATOM     41  C   UNL A   1      37.804  28.680  30.629  1.00  0.00     0.010 A 
ATOM     42  C   UNL A   1      39.213  30.526  30.126  1.00  0.00     0.010 A 
ATOM     43  C   UNL A   1      39.082  29.260  30.627  1.00  0.00    -0.014 A 
BRANCH  43  44
ATOM     44  C   UNL A   1      40.358  28.576  30.629  1.00  0.00     0.031 A 
ATOM     45  C   UNL A   1      40.892  28.578  32.026  1.00  0.00     0.074 A 
ATOM     46  C   UNL A   1      40.778  27.854  29.552  1.00  0.00     0.049 A 
ATOM     47  N   UNL A   1      41.685  29.485  32.505  1.00  0.00    -0.248 NA
ATOM     48  C   UNL A   1      40.219  27.809  33.104  1.00  0.00     0.031 C 
ATOM     49  C   UNL A   1      40.159  27.614  28.233  1.00  0.00     0.029 A 
ATOM     50  N   UNL A   1      41.922  27.123  29.431  1.00  0.00    -0.354 N 
ATOM     51  C   UNL A   1      41.892  29.118  33.829  1.00  0.00     0.074 A 
ATOM     52  C   UNL A   1      40.736  28.368  34.204  1.00  0.00     0.031 C 
ATOM     53  C   UNL A   1      40.822  26.626  27.571  1.00  0.00     0.029 A 
ATOM     54  C   UNL A   1      41.994  26.249  28.335  1.00  0.00     0.049 A 
ATOM     55  H   UNL A   1      42.659  27.204  30.080  1.00  0.00     0.167 HD
ATOM     56  C   UNL A   1      43.155  29.112  34.340  1.00  0.00     0.034 A 
ATOM     57  C   UNL A   1      42.962  25.299  28.135  1.00  0.00     0.034 A 
ATOM     58  C   UNL A   1      44.039  29.805  33.426  1.00  0.00     0.049 A 
ATOM     59  C   UNL A   1      44.126  25.729  28.961  1.00  0.00     0.074 A 
ATOM     60  C   UNL A   1      44.093  31.091  32.927  1.00  0.00     0.029 A 
ATOM     61  N   UNL A   1      44.673  28.999  32.509  1.00  0.00    -0.354 N 
ATOM     62  N   UNL A   1      44.764  26.843  28.708  1.00  0.00    -0.248 NA
ATOM     63  C   UNL A   1      44.134  25.282  30.350  1.00  0.00     0.031 C 
ATOM     64  C   UNL A   1      44.339  30.929  31.530  1.00  0.00     0.029 A 
ATOM     65  C   UNL A   1      44.600  29.583  31.270  1.00  0.00     0.049 A 
ATOM     66  H   UNL A   1      45.109  28.139  32.710  1.00  0.00     0.167 HD
ATOM     67  C   UNL A   1      44.824  27.481  29.939  1.00  0.00     0.074 A 
ATOM     68  C   UNL A   1      44.426  26.458  30.921  1.00  0.00     0.031 C 
ATOM     69  C   UNL A   1      44.780  28.845  30.038  1.00  0.00     0.034 A 
BRANCH  56  70
ATOM     70  C   UNL A   1      43.702  28.135  35.363  1.00  0.00     0.023 A 
ATOM     71  C   UNL A   1      44.359  28.708  36.476  1.00  0.00     0.012 A 
ATOM     72  C   UNL A   1      43.849  26.736  35.194  1.00  0.00     0.148 A 
ATOM     73  C   UNL A   1      45.170  27.954  37.329  1.00  0.00     0.002 A 
ATOM     74  C   UNL A   1      44.620  25.977  36.073  1.00  0.00     0.091 A 
ATOM     75  F   UNL A   1      43.327  26.124  34.132  1.00  0.00    -0.205 F 
ATOM     76  C   UNL A   1      45.303  26.588  37.126  1.00  0.00     0.022 A 
BRANCH  74  77
ATOM     77  S   UNL A   1      44.830  24.198  35.887  1.00  0.00     0.127 S 
ATOM     78  O   UNL A   1      43.446  23.749  35.758  1.00  0.00    -0.237 OA
ATOM     79  O   UNL A   1      45.621  24.123  34.659  1.00  0.00    -0.237 OA
ATOM     80  O   UNL A   1      45.531  23.748  37.082  1.00  0.00    -0.744 OA
ENDBRANCH  74  77
ENDBRANCH  56  70
BRANCH  57  81
ATOM     81  C   UNL A   1      42.799  23.866  27.718  1.00  0.00     0.023 A 
ATOM     82  C   UNL A   1      41.644  23.103  28.028  1.00  0.00     0.012 A 
ATOM     83  C   UNL A   1      43.672  23.338  26.745  1.00  0.00     0.148 A 
ATOM     84  C   UNL A   1      41.377  21.878  27.378  1.00  0.00     0.002 A 
ATOM     85  C   UNL A   1      43.414  22.124  26.115  1.00  0.00     0.091 A 
ATOM     86  F   UNL A   1      44.716  24.077  26.356  1.00  0.00    -0.205 F 
ATOM     87  C   UNL A   1      42.260  21.392  26.415  1.00  0.00     0.022 A 
BRANCH  85  88
ATOM     88  S   UNL A   1      44.550  21.470  24.882  1.00  0.00     0.127 S 
ATOM     89  O   UNL A   1      44.049  20.107  24.699  1.00  0.00    -0.237 OA
ATOM     90  O   UNL A   1      44.317  22.362  23.752  1.00  0.00    -0.237 OA
ATOM     91  O   UNL A   1      45.875  21.516  25.497  1.00  0.00    -0.744 OA
ENDBRANCH  85  88
ENDBRANCH  57  81
BRANCH  69  92
ATOM     92  C   UNL A   1      44.826  29.669  28.765  1.00  0.00     0.023 A 
ATOM     93  C   UNL A   1      43.698  30.063  28.005  1.00  0.00     0.012 A 
ATOM     94  C   UNL A   1      46.072  30.214  28.438  1.00  0.00     0.148 A 
ATOM     95  C   UNL A   1      43.830  30.950  26.924  1.00  0.00     0.002 A 
ATOM     96  C   UNL A   1      46.194  31.124  27.398  1.00  0.00     0.091 A 
ATOM     97  F   UNL A   1      47.122  29.862  29.193  1.00  0.00    -0.205 F 
ATOM     98  C   UNL A   1      45.080  31.484  26.625  1.00  0.00     0.022 A 
BRANCH  96  99
ATOM     99  S   UNL A   1      47.754  31.932  27.062  1.00  0.00     0.127 S 
ATOM    100  O   UNL A   1      48.067  32.530  28.359  1.00  0.00    -0.237 OA
ATOM    101  O   UNL A   1      48.608  30.809  26.679  1.00  0.00    -0.237 OA
ATOM    102  O   UNL A   1      47.495  32.881  25.985  1.00  0.00    -0.744 OA
ENDBRANCH  96  99
ENDBRANCH  69  92
ENDBRANCH  43  44
ENDBRANCH  35  38
ENDBRANCH  33  34
ENDBRANCH  32  33
ENDBRANCH   1  32
TORSDOF 18
ENDMDL
