MODEL 1
REMARK VINA RESULT:     -10.6      0.000      0.000
REMARK SMILES O=C(C[C@@H]1C=CS(=O)(=O)C1)NCCCCCCNC(=O)c1ccc(-c2c3nc(c(-c4cccc(S(=O)(=O)[O-])c4F)c4ccc([nH]4)c(-c4cccc(S(=O)(=O)[O-])c4F)c4nc(c(-c5cccc(S(=O)(=O)[O-])c5F)c5ccc2[nH]5)C=C4)C=C3)cc1
REMARK SMILES IDX 15 1 14 2 13 3 12 4 11 5 1 6 2 7 3 9 4 10 5 11 10 12 6 13
REMARK SMILES IDX 7 14 8 15 9 16 16 17 17 18 18 19 19 20 20 22 21 23 22 24
REMARK SMILES IDX 83 25 23 26 82 27 24 28 25 29 26 30 76 31 27 32 81 33 75 34
REMARK SMILES IDX 77 35 28 36 80 37 74 38 73 39 29 41 61 42 41 43 60 44 42 45
REMARK SMILES IDX 45 46 59 47 78 48 43 49 44 50 58 52 79 53 46 54 30 55 31 56
REMARK SMILES IDX 39 57 32 58 34 59 40 60 33 61 35 62 36 63 37 64 38 65 62 66
REMARK SMILES IDX 63 67 71 68 64 69 66 70 72 71 65 72 67 73 68 74 69 75 70 76
REMARK SMILES IDX 47 77 48 78 56 79 49 80 51 81 57 82 50 83 52 84 53 85 54 86
REMARK SMILES IDX 55 87
REMARK H PARENT 11 8 18 21 77 40 45 51
REMARK Flexibility Score: inf
ROOT
ATOM      1  C   UNL A   1      35.879  23.437  23.971  1.00  0.00     0.002 C 
ENDROOT
BRANCH   1   2
ATOM      2  C   UNL A   1      35.444  24.274  25.176  1.00  0.00     0.002 C 
BRANCH   2   3
ATOM      3  C   UNL A   1      33.961  24.671  25.207  1.00  0.00     0.021 C 
BRANCH   3   4
ATOM      4  C   UNL A   1      33.137  24.043  26.333  1.00  0.00     0.116 C 
BRANCH   4   5
ATOM      5  N   UNL A   1      33.168  22.596  26.282  1.00  0.00    -0.356 N 
ATOM      6  O   UNL A   1      31.789  22.323  24.452  1.00  0.00    -0.275 OA
ATOM      7  C   UNL A   1      32.491  21.857  25.341  1.00  0.00     0.220 C 
ATOM      8  H   UNL A   1      33.702  22.117  26.956  1.00  0.00     0.163 HD
BRANCH   7   9
ATOM      9  C   UNL A   1      32.754  20.373  25.463  1.00  0.00     0.108 C 
BRANCH   9  10
ATOM     10  C   UNL A   1      33.493  19.773  24.253  1.00  0.00     0.037 C 
ATOM     11  C   UNL A   1      32.464  19.193  23.296  1.00  0.00    -0.010 C 
ATOM     12  C   UNL A   1      34.449  18.604  24.545  1.00  0.00     0.150 C 
ATOM     13  C   UNL A   1      32.317  17.859  23.338  1.00  0.00     0.102 C 
ATOM     14  S   UNL A   1      33.401  17.154  24.492  1.00  0.00     0.171 S 
ATOM     15  O   UNL A   1      34.122  16.053  23.891  1.00  0.00    -0.224 OA
ATOM     16  O   UNL A   1      32.719  17.039  25.765  1.00  0.00    -0.224 OA
ENDBRANCH   9  10
ENDBRANCH   7   9
ENDBRANCH   4   5
ENDBRANCH   3   4
ENDBRANCH   2   3
ENDBRANCH   1   2
BRANCH   1  17
ATOM     17  C   UNL A   1      36.237  21.983  24.284  1.00  0.00     0.021 C 
BRANCH  17  18
ATOM     18  C   UNL A   1      36.750  21.731  25.698  1.00  0.00     0.116 C 
BRANCH  18  19
ATOM     19  N   UNL A   1      37.838  20.764  25.747  1.00  0.00    -0.352 N 
ATOM     20  C   UNL A   1      39.155  20.972  26.081  1.00  0.00     0.251 C 
ATOM     21  H   UNL A   1      37.598  19.840  25.511  1.00  0.00     0.163 HD
ATOM     22  O   UNL A   1      39.978  20.068  25.962  1.00  0.00    -0.269 OA
BRANCH  20  23
ATOM     23  C   UNL A   1      39.583  22.307  26.552  1.00  0.00     0.039 A 
ATOM     24  C   UNL A   1      40.562  22.393  27.546  1.00  0.00     0.014 A 
ATOM     25  C   UNL A   1      39.048  23.467  25.986  1.00  0.00     0.014 A 
ATOM     26  C   UNL A   1      41.059  23.644  27.919  1.00  0.00     0.010 A 
ATOM     27  C   UNL A   1      39.590  24.706  26.312  1.00  0.00     0.010 A 
ATOM     28  C   UNL A   1      40.606  24.808  27.276  1.00  0.00    -0.014 A 
BRANCH  28  29
ATOM     29  C   UNL A   1      41.207  26.136  27.563  1.00  0.00     0.031 A 
ATOM     30  C   UNL A   1      42.624  26.432  27.162  1.00  0.00     0.074 A 
ATOM     31  C   UNL A   1      40.511  27.033  28.288  1.00  0.00     0.049 A 
ATOM     32  N   UNL A   1      43.341  27.500  27.400  1.00  0.00    -0.248 NA
ATOM     33  C   UNL A   1      43.340  25.380  26.423  1.00  0.00     0.031 C 
ATOM     34  C   UNL A   1      39.161  26.827  28.817  1.00  0.00     0.029 A 
ATOM     35  N   UNL A   1      40.857  28.283  28.740  1.00  0.00    -0.354 N 
ATOM     36  C   UNL A   1      44.600  27.237  26.874  1.00  0.00     0.074 A 
ATOM     37  C   UNL A   1      44.558  25.895  26.333  1.00  0.00     0.031 C 
ATOM     38  C   UNL A   1      38.800  27.904  29.534  1.00  0.00     0.029 A 
ATOM     39  C   UNL A   1      39.898  28.866  29.535  1.00  0.00     0.049 A 
ATOM     40  H   UNL A   1      41.711  28.718  28.517  1.00  0.00     0.167 HD
ATOM     41  C   UNL A   1      45.684  28.047  26.819  1.00  0.00     0.034 A 
ATOM     42  C   UNL A   1      39.904  30.037  30.202  1.00  0.00     0.034 A 
ATOM     43  C   UNL A   1      45.708  29.396  27.318  1.00  0.00     0.049 A 
ATOM     44  C   UNL A   1      41.098  30.942  30.082  1.00  0.00     0.074 A 
ATOM     45  C   UNL A   1      46.721  30.333  27.216  1.00  0.00     0.029 A 
ATOM     46  N   UNL A   1      44.678  29.997  28.025  1.00  0.00    -0.354 N 
ATOM     47  N   UNL A   1      42.215  30.750  29.422  1.00  0.00    -0.248 NA
ATOM     48  C   UNL A   1      41.021  32.242  30.765  1.00  0.00     0.031 C 
ATOM     49  C   UNL A   1      46.308  31.496  27.876  1.00  0.00     0.029 A 
ATOM     50  C   UNL A   1      45.033  31.289  28.375  1.00  0.00     0.049 A 
ATOM     51  H   UNL A   1      43.819  29.569  28.244  1.00  0.00     0.167 HD
ATOM     52  C   UNL A   1      42.962  31.910  29.588  1.00  0.00     0.074 A 
ATOM     53  C   UNL A   1      42.160  32.812  30.391  1.00  0.00     0.031 C 
ATOM     54  C   UNL A   1      44.207  32.195  29.133  1.00  0.00     0.034 A 
BRANCH  41  55
ATOM     55  C   UNL A   1      46.915  27.516  26.134  1.00  0.00     0.023 A 
ATOM     56  C   UNL A   1      47.104  27.767  24.759  1.00  0.00     0.012 A 
ATOM     57  C   UNL A   1      47.903  26.810  26.849  1.00  0.00     0.148 A 
ATOM     58  C   UNL A   1      48.235  27.292  24.097  1.00  0.00     0.002 A 
ATOM     59  C   UNL A   1      49.049  26.377  26.190  1.00  0.00     0.091 A 
ATOM     60  F   UNL A   1      47.697  26.559  28.149  1.00  0.00    -0.205 F 
ATOM     61  C   UNL A   1      49.212  26.606  24.814  1.00  0.00     0.022 A 
BRANCH  59  62
ATOM     62  S   UNL A   1      50.396  25.551  27.046  1.00  0.00     0.127 S 
ATOM     63  O   UNL A   1      51.357  25.351  25.963  1.00  0.00    -0.237 OA
ATOM     64  O   UNL A   1      50.796  26.553  28.037  1.00  0.00    -0.237 OA
ATOM     65  O   UNL A   1      49.822  24.339  27.614  1.00  0.00    -0.744 OA
ENDBRANCH  59  62
ENDBRANCH  41  55
BRANCH  42  66
ATOM     66  C   UNL A   1      38.707  30.440  30.991  1.00  0.00     0.023 A 
ATOM     67  C   UNL A   1      38.654  30.143  32.367  1.00  0.00     0.012 A 
ATOM     68  C   UNL A   1      37.650  31.162  30.402  1.00  0.00     0.148 A 
ATOM     69  C   UNL A   1      37.559  30.538  33.138  1.00  0.00     0.002 A 
ATOM     70  C   UNL A   1      36.589  31.600  31.187  1.00  0.00     0.091 A 
ATOM     71  F   UNL A   1      37.713  31.422  29.089  1.00  0.00    -0.205 F 
ATOM     72  C   UNL A   1      36.534  31.276  32.551  1.00  0.00     0.022 A 
BRANCH  70  73
ATOM     73  S   UNL A   1      35.297  32.670  30.545  1.00  0.00     0.127 S 
ATOM     74  O   UNL A   1      36.050  33.871  30.194  1.00  0.00    -0.237 OA
ATOM     75  O   UNL A   1      34.803  31.898  29.404  1.00  0.00    -0.237 OA
ATOM     76  O   UNL A   1      34.335  32.817  31.629  1.00  0.00    -0.744 OA
ENDBRANCH  70  73
ENDBRANCH  42  66
BRANCH  54  77
ATOM     77  C   UNL A   1      44.786  33.543  29.476  1.00  0.00     0.023 A 
ATOM     78  C   UNL A   1      45.581  33.684  30.631  1.00  0.00     0.012 A 
ATOM     79  C   UNL A   1      44.612  34.646  28.616  1.00  0.00     0.148 A 
ATOM     80  C   UNL A   1      46.172  34.909  30.938  1.00  0.00     0.002 A 
ATOM     81  C   UNL A   1      45.241  35.850  28.906  1.00  0.00     0.091 A 
ATOM     82  F   UNL A   1      43.836  34.496  27.533  1.00  0.00    -0.205 F 
ATOM     83  C   UNL A   1      46.013  35.987  30.070  1.00  0.00     0.022 A 
BRANCH  81  84
ATOM     84  S   UNL A   1      45.168  37.266  27.800  1.00  0.00     0.127 S 
ATOM     85  O   UNL A   1      45.916  38.270  28.553  1.00  0.00    -0.237 OA
ATOM     86  O   UNL A   1      45.849  36.765  26.606  1.00  0.00    -0.237 OA
ATOM     87  O   UNL A   1      43.752  37.552  27.611  1.00  0.00    -0.744 OA
ENDBRANCH  81  84
ENDBRANCH  54  77
ENDBRANCH  28  29
ENDBRANCH  20  23
ENDBRANCH  18  19
ENDBRANCH  17  18
ENDBRANCH   1  17
TORSDOF 17
ENDMDL
MODEL 2
REMARK VINA RESULT:     -10.3      5.108     10.016
REMARK SMILES O=C(C[C@@H]1C=CS(=O)(=O)C1)NCCCCCCNC(=O)c1ccc(-c2c3nc(c(-c4cccc(S(=O)(=O)[O-])c4F)c4ccc([nH]4)c(-c4cccc(S(=O)(=O)[O-])c4F)c4nc(c(-c5cccc(S(=O)(=O)[O-])c5F)c5ccc2[nH]5)C=C4)C=C3)cc1
REMARK SMILES IDX 15 1 14 2 13 3 12 4 11 5 1 6 2 7 3 9 4 10 5 11 10 12 6 13
REMARK SMILES IDX 7 14 8 15 9 16 16 17 17 18 18 19 19 20 20 22 21 23 22 24
REMARK SMILES IDX 83 25 23 26 82 27 24 28 25 29 26 30 76 31 27 32 81 33 75 34
REMARK SMILES IDX 77 35 28 36 80 37 74 38 73 39 29 41 61 42 41 43 60 44 42 45
REMARK SMILES IDX 45 46 59 47 78 48 43 49 44 50 58 52 79 53 46 54 30 55 31 56
REMARK SMILES IDX 39 57 32 58 34 59 40 60 33 61 35 62 36 63 37 64 38 65 62 66
REMARK SMILES IDX 63 67 71 68 64 69 66 70 72 71 65 72 67 73 68 74 69 75 70 76
REMARK SMILES IDX 47 77 48 78 56 79 49 80 51 81 57 82 50 83 52 84 53 85 54 86
REMARK SMILES IDX 55 87
REMARK H PARENT 11 8 18 21 77 40 45 51
REMARK Flexibility Score: inf
ROOT
ATOM      1  C   UNL A   1      31.474  27.795  26.199  1.00  0.00     0.002 C 
ENDROOT
BRANCH   1   2
ATOM      2  C   UNL A   1      32.287  26.547  26.550  1.00  0.00     0.002 C 
BRANCH   2   3
ATOM      3  C   UNL A   1      33.209  26.024  25.438  1.00  0.00     0.021 C 
BRANCH   3   4
ATOM      4  C   UNL A   1      34.061  24.808  25.809  1.00  0.00     0.116 C 
BRANCH   4   5
ATOM      5  N   UNL A   1      33.480  23.574  25.324  1.00  0.00    -0.356 N 
ATOM      6  O   UNL A   1      32.294  23.024  27.226  1.00  0.00    -0.275 OA
ATOM      7  C   UNL A   1      32.642  22.786  26.077  1.00  0.00     0.220 C 
ATOM      8  H   UNL A   1      33.697  23.284  24.409  1.00  0.00     0.163 HD
BRANCH   7   9
ATOM      9  C   UNL A   1      32.113  21.595  25.309  1.00  0.00     0.108 C 
BRANCH   9  10
ATOM     10  C   UNL A   1      33.105  21.035  24.274  1.00  0.00     0.037 C 
ATOM     11  C   UNL A   1      32.318  20.327  23.183  1.00  0.00    -0.010 C 
ATOM     12  C   UNL A   1      34.098  19.975  24.780  1.00  0.00     0.150 C 
ATOM     13  C   UNL A   1      32.290  18.987  23.261  1.00  0.00     0.102 C 
ATOM     14  S   UNL A   1      33.214  18.427  24.616  1.00  0.00     0.171 S 
ATOM     15  O   UNL A   1      34.127  17.386  24.200  1.00  0.00    -0.224 OA
ATOM     16  O   UNL A   1      32.332  18.284  25.757  1.00  0.00    -0.224 OA
ENDBRANCH   9  10
ENDBRANCH   7   9
ENDBRANCH   4   5
ENDBRANCH   3   4
ENDBRANCH   2   3
ENDBRANCH   1   2
BRANCH   1  17
ATOM     17  C   UNL A   1      31.833  29.051  26.995  1.00  0.00     0.021 C 
BRANCH  17  18
ATOM     18  C   UNL A   1      32.899  29.938  26.362  1.00  0.00     0.116 C 
BRANCH  18  19
ATOM     19  N   UNL A   1      32.789  31.335  26.757  1.00  0.00    -0.352 N 
ATOM     20  C   UNL A   1      33.637  32.073  27.548  1.00  0.00     0.251 C 
ATOM     21  H   UNL A   1      32.002  31.815  26.410  1.00  0.00     0.163 HD
ATOM     22  O   UNL A   1      33.340  33.216  27.883  1.00  0.00    -0.269 OA
BRANCH  20  23
ATOM     23  C   UNL A   1      34.898  31.464  28.025  1.00  0.00     0.039 A 
ATOM     24  C   UNL A   1      36.041  32.262  28.121  1.00  0.00     0.014 A 
ATOM     25  C   UNL A   1      34.939  30.122  28.413  1.00  0.00     0.014 A 
ATOM     26  C   UNL A   1      37.207  31.732  28.678  1.00  0.00     0.010 A 
ATOM     27  C   UNL A   1      36.080  29.617  29.026  1.00  0.00     0.010 A 
ATOM     28  C   UNL A   1      37.224  30.417  29.172  1.00  0.00    -0.014 A 
BRANCH  28  29
ATOM     29  C   UNL A   1      38.409  29.871  29.882  1.00  0.00     0.031 A 
ATOM     30  C   UNL A   1      38.796  30.399  31.235  1.00  0.00     0.074 A 
ATOM     31  C   UNL A   1      39.202  28.980  29.256  1.00  0.00     0.049 A 
ATOM     32  N   UNL A   1      39.839  30.103  31.967  1.00  0.00    -0.248 NA
ATOM     33  C   UNL A   1      37.912  31.413  31.830  1.00  0.00     0.031 C 
ATOM     34  C   UNL A   1      38.986  28.461  27.903  1.00  0.00     0.029 A 
ATOM     35  N   UNL A   1      40.372  28.383  29.657  1.00  0.00    -0.354 N 
ATOM     36  C   UNL A   1      39.758  30.918  33.090  1.00  0.00     0.074 A 
ATOM     37  C   UNL A   1      38.580  31.742  32.927  1.00  0.00     0.031 C 
ATOM     38  C   UNL A   1      39.996  27.637  27.581  1.00  0.00     0.029 A 
ATOM     39  C   UNL A   1      40.943  27.586  28.692  1.00  0.00     0.049 A 
ATOM     40  H   UNL A   1      40.765  28.515  30.549  1.00  0.00     0.167 HD
ATOM     41  C   UNL A   1      40.570  30.955  34.172  1.00  0.00     0.034 A 
ATOM     42  C   UNL A   1      42.103  26.901  28.692  1.00  0.00     0.034 A 
ATOM     43  C   UNL A   1      41.715  30.102  34.351  1.00  0.00     0.049 A 
ATOM     44  C   UNL A   1      42.963  26.917  29.926  1.00  0.00     0.074 A 
ATOM     45  C   UNL A   1      42.540  29.990  35.456  1.00  0.00     0.029 A 
ATOM     46  N   UNL A   1      42.204  29.224  33.396  1.00  0.00    -0.354 N 
ATOM     47  N   UNL A   1      42.771  27.555  31.056  1.00  0.00    -0.248 NA
ATOM     48  C   UNL A   1      44.178  26.090  29.903  1.00  0.00     0.031 C 
ATOM     49  C   UNL A   1      43.539  29.054  35.162  1.00  0.00     0.029 A 
ATOM     50  C   UNL A   1      43.327  28.573  33.881  1.00  0.00     0.049 A 
ATOM     51  H   UNL A   1      41.812  29.084  32.505  1.00  0.00     0.167 HD
ATOM     52  C   UNL A   1      43.824  27.190  31.885  1.00  0.00     0.074 A 
ATOM     53  C   UNL A   1      44.639  26.253  31.137  1.00  0.00     0.031 C 
ATOM     54  C   UNL A   1      44.102  27.606  33.145  1.00  0.00     0.034 A 
BRANCH  41  55
ATOM     55  C   UNL A   1      40.209  31.909  35.280  1.00  0.00     0.023 A 
ATOM     56  C   UNL A   1      40.890  33.139  35.382  1.00  0.00     0.012 A 
ATOM     57  C   UNL A   1      39.173  31.616  36.189  1.00  0.00     0.148 A 
ATOM     58  C   UNL A   1      40.575  34.046  36.394  1.00  0.00     0.002 A 
ATOM     59  C   UNL A   1      38.837  32.544  37.169  1.00  0.00     0.091 A 
ATOM     60  F   UNL A   1      38.552  30.433  36.093  1.00  0.00    -0.205 F 
ATOM     61  C   UNL A   1      39.543  33.752  37.280  1.00  0.00     0.022 A 
BRANCH  59  62
ATOM     62  S   UNL A   1      37.471  32.287  38.309  1.00  0.00     0.127 S 
ATOM     63  O   UNL A   1      36.373  32.952  37.610  1.00  0.00    -0.237 OA
ATOM     64  O   UNL A   1      37.370  30.826  38.349  1.00  0.00    -0.237 OA
ATOM     65  O   UNL A   1      37.882  32.897  39.565  1.00  0.00    -0.744 OA
ENDBRANCH  59  62
ENDBRANCH  41  55
BRANCH  42  66
ATOM     66  C   UNL A   1      42.481  26.093  27.499  1.00  0.00     0.023 A 
ATOM     67  C   UNL A   1      43.272  26.676  26.492  1.00  0.00     0.012 A 
ATOM     68  C   UNL A   1      42.109  24.739  27.386  1.00  0.00     0.148 A 
ATOM     69  C   UNL A   1      43.669  25.932  25.379  1.00  0.00     0.002 A 
ATOM     70  C   UNL A   1      42.553  23.989  26.302  1.00  0.00     0.091 A 
ATOM     71  F   UNL A   1      41.344  24.206  28.348  1.00  0.00    -0.205 F 
ATOM     72  C   UNL A   1      43.320  24.587  25.291  1.00  0.00     0.022 A 
BRANCH  70  73
ATOM     73  S   UNL A   1      42.268  22.220  26.177  1.00  0.00     0.127 S 
ATOM     74  O   UNL A   1      40.816  22.160  26.032  1.00  0.00    -0.237 OA
ATOM     75  O   UNL A   1      43.021  21.875  24.970  1.00  0.00    -0.237 OA
ATOM     76  O   UNL A   1      42.808  21.647  27.403  1.00  0.00    -0.744 OA
ENDBRANCH  70  73
ENDBRANCH  42  66
BRANCH  54  77
ATOM     77  C   UNL A   1      45.332  27.047  33.812  1.00  0.00     0.023 A 
ATOM     78  C   UNL A   1      46.552  27.744  33.715  1.00  0.00     0.012 A 
ATOM     79  C   UNL A   1      45.261  25.881  34.599  1.00  0.00     0.148 A 
ATOM     80  C   UNL A   1      47.690  27.275  34.370  1.00  0.00     0.002 A 
ATOM     81  C   UNL A   1      46.388  25.444  35.285  1.00  0.00     0.091 A 
ATOM     82  F   UNL A   1      44.095  25.221  34.662  1.00  0.00    -0.205 F 
ATOM     83  C   UNL A   1      47.605  26.133  35.164  1.00  0.00     0.022 A 
BRANCH  81  84
ATOM     84  S   UNL A   1      46.351  24.037  36.403  1.00  0.00     0.127 S 
ATOM     85  O   UNL A   1      47.757  23.923  36.784  1.00  0.00    -0.237 OA
ATOM     86  O   UNL A   1      45.466  24.508  37.468  1.00  0.00    -0.237 OA
ATOM     87  O   UNL A   1      45.821  22.924  35.627  1.00  0.00    -0.744 OA
ENDBRANCH  81  84
ENDBRANCH  54  77
ENDBRANCH  28  29
ENDBRANCH  20  23
ENDBRANCH  18  19
ENDBRANCH  17  18
ENDBRANCH   1  17
TORSDOF 17
ENDMDL
MODEL 3
REMARK VINA RESULT:     -10.2      2.626      8.553
REMARK SMILES O=C(C[C@@H]1C=CS(=O)(=O)C1)NCCCCCCNC(=O)c1ccc(-c2c3nc(c(-c4cccc(S(=O)(=O)[O-])c4F)c4ccc([nH]4)c(-c4cccc(S(=O)(=O)[O-])c4F)c4nc(c(-c5cccc(S(=O)(=O)[O-])c5F)c5ccc2[nH]5)C=C4)C=C3)cc1
REMARK SMILES IDX 15 1 14 2 13 3 12 4 11 5 1 6 2 7 3 9 4 10 5 11 10 12 6 13
REMARK SMILES IDX 7 14 8 15 9 16 16 17 17 18 18 19 19 20 20 22 21 23 22 24
REMARK SMILES IDX 83 25 23 26 82 27 24 28 25 29 26 30 76 31 27 32 81 33 75 34
REMARK SMILES IDX 77 35 28 36 80 37 74 38 73 39 29 41 61 42 41 43 60 44 42 45
REMARK SMILES IDX 45 46 59 47 78 48 43 49 44 50 58 52 79 53 46 54 30 55 31 56
REMARK SMILES IDX 39 57 32 58 34 59 40 60 33 61 35 62 36 63 37 64 38 65 62 66
REMARK SMILES IDX 63 67 71 68 64 69 66 70 72 71 65 72 67 73 68 74 69 75 70 76
REMARK SMILES IDX 47 77 48 78 56 79 49 80 51 81 57 82 50 83 52 84 53 85 54 86
REMARK SMILES IDX 55 87
REMARK H PARENT 11 8 18 21 77 40 45 51
REMARK Flexibility Score: inf
ROOT
ATOM      1  C   UNL A   1      36.390  22.209  24.438  1.00  0.00     0.002 C 
ENDROOT
BRANCH   1   2
ATOM      2  C   UNL A   1      35.579  22.639  25.663  1.00  0.00     0.002 C 
BRANCH   2   3
ATOM      3  C   UNL A   1      34.602  21.589  26.212  1.00  0.00     0.021 C 
BRANCH   3   4
ATOM      4  C   UNL A   1      33.118  21.939  26.076  1.00  0.00     0.116 C 
BRANCH   4   5
ATOM      5  N   UNL A   1      32.922  23.331  25.728  1.00  0.00    -0.356 N 
ATOM      6  O   UNL A   1      31.402  23.851  27.385  1.00  0.00    -0.275 OA
ATOM      7  C   UNL A   1      32.079  24.171  26.416  1.00  0.00     0.220 C 
ATOM      8  H   UNL A   1      33.418  23.694  24.959  1.00  0.00     0.163 HD
BRANCH   7   9
ATOM      9  C   UNL A   1      32.116  25.591  25.896  1.00  0.00     0.108 C 
BRANCH   9  10
ATOM     10  C   UNL A   1      33.514  26.049  25.444  1.00  0.00     0.037 C 
ATOM     11  C   UNL A   1      33.826  27.380  26.109  1.00  0.00    -0.010 C 
ATOM     12  C   UNL A   1      33.694  26.319  23.940  1.00  0.00     0.150 C 
ATOM     13  C   UNL A   1      33.678  28.467  25.333  1.00  0.00     0.102 C 
ATOM     14  S   UNL A   1      33.183  28.022  23.733  1.00  0.00     0.171 S 
ATOM     15  O   UNL A   1      34.027  28.668  22.753  1.00  0.00    -0.224 OA
ATOM     16  O   UNL A   1      31.736  28.057  23.664  1.00  0.00    -0.224 OA
ENDBRANCH   9  10
ENDBRANCH   7   9
ENDBRANCH   4   5
ENDBRANCH   3   4
ENDBRANCH   2   3
ENDBRANCH   1   2
BRANCH   1  17
ATOM     17  C   UNL A   1      37.292  20.991  24.650  1.00  0.00     0.021 C 
BRANCH  17  18
ATOM     18  C   UNL A   1      38.340  21.143  25.746  1.00  0.00     0.116 C 
BRANCH  18  19
ATOM     19  N   UNL A   1      39.220  19.987  25.859  1.00  0.00    -0.352 N 
ATOM     20  C   UNL A   1      40.561  19.956  26.161  1.00  0.00     0.251 C 
ATOM     21  H   UNL A   1      38.797  19.113  25.700  1.00  0.00     0.163 HD
ATOM     22  O   UNL A   1      41.187  18.902  26.104  1.00  0.00    -0.269 OA
BRANCH  20  23
ATOM     23  C   UNL A   1      41.254  21.212  26.519  1.00  0.00     0.039 A 
ATOM     24  C   UNL A   1      41.799  21.999  25.501  1.00  0.00     0.014 A 
ATOM     25  C   UNL A   1      41.330  21.629  27.851  1.00  0.00     0.014 A 
ATOM     26  C   UNL A   1      42.354  23.243  25.812  1.00  0.00     0.010 A 
ATOM     27  C   UNL A   1      41.824  22.894  28.150  1.00  0.00     0.010 A 
ATOM     28  C   UNL A   1      42.335  23.718  27.134  1.00  0.00    -0.014 A 
BRANCH  28  29
ATOM     29  C   UNL A   1      42.802  25.086  27.473  1.00  0.00     0.031 A 
ATOM     30  C   UNL A   1      41.862  26.080  28.093  1.00  0.00     0.074 A 
ATOM     31  C   UNL A   1      44.044  25.468  27.113  1.00  0.00     0.049 A 
ATOM     32  N   UNL A   1      42.067  27.339  28.381  1.00  0.00    -0.248 NA
ATOM     33  C   UNL A   1      40.504  25.606  28.404  1.00  0.00     0.031 C 
ATOM     34  C   UNL A   1      45.019  24.625  26.419  1.00  0.00     0.029 A 
ATOM     35  N   UNL A   1      44.684  26.676  27.245  1.00  0.00    -0.354 N 
ATOM     36  C   UNL A   1      40.858  27.818  28.872  1.00  0.00     0.074 A 
ATOM     37  C   UNL A   1      39.916  26.721  28.814  1.00  0.00     0.031 C 
ATOM     38  C   UNL A   1      46.126  25.344  26.173  1.00  0.00     0.029 A 
ATOM     39  C   UNL A   1      45.933  26.703  26.669  1.00  0.00     0.049 A 
ATOM     40  H   UNL A   1      44.286  27.449  27.707  1.00  0.00     0.167 HD
ATOM     41  C   UNL A   1      40.566  29.049  29.357  1.00  0.00     0.034 A 
ATOM     42  C   UNL A   1      46.818  27.710  26.541  1.00  0.00     0.034 A 
ATOM     43  C   UNL A   1      41.517  30.123  29.456  1.00  0.00     0.049 A 
ATOM     44  C   UNL A   1      46.492  29.053  27.134  1.00  0.00     0.074 A 
ATOM     45  C   UNL A   1      41.348  31.371  30.028  1.00  0.00     0.029 A 
ATOM     46  N   UNL A   1      42.811  30.082  28.960  1.00  0.00    -0.354 N 
ATOM     47  N   UNL A   1      45.405  29.434  27.762  1.00  0.00    -0.248 NA
ATOM     48  C   UNL A   1      47.525  30.095  27.036  1.00  0.00     0.031 C 
ATOM     49  C   UNL A   1      42.537  32.092  29.863  1.00  0.00     0.029 A 
ATOM     50  C   UNL A   1      43.451  31.287  29.203  1.00  0.00     0.049 A 
ATOM     51  H   UNL A   1      43.217  29.310  28.504  1.00  0.00     0.167 HD
ATOM     52  C   UNL A   1      45.632  30.748  28.156  1.00  0.00     0.074 A 
ATOM     53  C   UNL A   1      46.971  31.090  27.717  1.00  0.00     0.031 C 
ATOM     54  C   UNL A   1      44.800  31.600  28.805  1.00  0.00     0.034 A 
BRANCH  41  55
ATOM     55  C   UNL A   1      39.172  29.276  29.881  1.00  0.00     0.023 A 
ATOM     56  C   UNL A   1      38.826  28.790  31.158  1.00  0.00     0.012 A 
ATOM     57  C   UNL A   1      38.222  30.004  29.138  1.00  0.00     0.148 A 
ATOM     58  C   UNL A   1      37.546  28.989  31.673  1.00  0.00     0.002 A 
ATOM     59  C   UNL A   1      36.960  30.234  29.677  1.00  0.00     0.091 A 
ATOM     60  F   UNL A   1      38.559  30.439  27.916  1.00  0.00    -0.205 F 
ATOM     61  C   UNL A   1      36.617  29.719  30.937  1.00  0.00     0.022 A 
BRANCH  59  62
ATOM     62  S   UNL A   1      35.722  31.228  28.835  1.00  0.00     0.127 S 
ATOM     63  O   UNL A   1      35.123  30.250  27.929  1.00  0.00    -0.237 OA
ATOM     64  O   UNL A   1      34.855  31.645  29.938  1.00  0.00    -0.237 OA
ATOM     65  O   UNL A   1      36.451  32.316  28.198  1.00  0.00    -0.744 OA
ENDBRANCH  59  62
ENDBRANCH  41  55
BRANCH  42  66
ATOM     66  C   UNL A   1      48.126  27.459  25.874  1.00  0.00     0.023 A 
ATOM     67  C   UNL A   1      49.224  27.028  26.643  1.00  0.00     0.012 A 
ATOM     68  C   UNL A   1      48.273  27.591  24.479  1.00  0.00     0.148 A 
ATOM     69  C   UNL A   1      50.451  26.753  26.039  1.00  0.00     0.002 A 
ATOM     70  C   UNL A   1      49.483  27.264  23.876  1.00  0.00     0.091 A 
ATOM     71  F   UNL A   1      47.220  28.016  23.766  1.00  0.00    -0.205 F 
ATOM     72  C   UNL A   1      50.577  26.860  24.656  1.00  0.00     0.022 A 
BRANCH  70  73
ATOM     73  S   UNL A   1      49.692  27.239  22.093  1.00  0.00     0.127 S 
ATOM     74  O   UNL A   1      49.445  28.635  21.742  1.00  0.00    -0.237 OA
ATOM     75  O   UNL A   1      51.084  26.808  21.957  1.00  0.00    -0.237 OA
ATOM     76  O   UNL A   1      48.717  26.278  21.596  1.00  0.00    -0.744 OA
ENDBRANCH  70  73
ENDBRANCH  42  66
BRANCH  54  77
ATOM     77  C   UNL A   1      45.309  32.987  29.098  1.00  0.00     0.023 A 
ATOM     78  C   UNL A   1      45.970  33.241  30.315  1.00  0.00     0.012 A 
ATOM     79  C   UNL A   1      45.204  34.014  28.138  1.00  0.00     0.148 A 
ATOM     80  C   UNL A   1      46.498  34.504  30.584  1.00  0.00     0.002 A 
ATOM     81  C   UNL A   1      45.772  35.256  28.396  1.00  0.00     0.091 A 
ATOM     82  F   UNL A   1      44.554  33.757  26.994  1.00  0.00    -0.205 F 
ATOM     83  C   UNL A   1      46.410  35.506  29.621  1.00  0.00     0.022 A 
BRANCH  81  84
ATOM     84  S   UNL A   1      45.788  36.578  27.179  1.00  0.00     0.127 S 
ATOM     85  O   UNL A   1      46.788  37.485  27.738  1.00  0.00    -0.237 OA
ATOM     86  O   UNL A   1      46.208  35.880  25.964  1.00  0.00    -0.237 OA
ATOM     87  O   UNL A   1      44.427  37.098  27.135  1.00  0.00    -0.744 OA
ENDBRANCH  81  84
ENDBRANCH  54  77
ENDBRANCH  28  29
ENDBRANCH  20  23
ENDBRANCH  18  19
ENDBRANCH  17  18
ENDBRANCH   1  17
TORSDOF 17
ENDMDL
