MODEL 1
REMARK VINA RESULT:     -12.9      0.000      0.000
REMARK SMILES C[C@H](CN(C)C(=O)CCc1nc2ccccc2o1)C(=O)NCCCCCCNC(=O)c1ccc(-c2c3nc(c(-c4cccc(S(=O)(=O)[O-])c4F)c4ccc([nH]4)c(-c4cccc(S(=O)(=O)[O-])c4F)c4nc(c(-c5cccc(S(=O)(=O)[O-])c5F)c5ccc2[nH]5)C=C4)C=C3)cc1
REMARK SMILES IDX 23 1 22 2 21 3 19 4 20 5 2 7 1 8 3 9 4 10 5 11 6 12 7 13
REMARK SMILES IDX 8 14 9 15 10 16 11 17 18 18 12 19 17 20 13 21 16 22 14 23
REMARK SMILES IDX 15 24 24 25 25 26 26 27 27 28 28 29 29 30 30 32 31 33 32 34
REMARK SMILES IDX 93 35 33 36 92 37 34 38 35 39 36 40 86 41 37 42 91 43 85 44
REMARK SMILES IDX 87 45 38 46 90 47 84 48 83 49 39 51 71 52 51 53 70 54 52 55
REMARK SMILES IDX 55 56 69 57 88 58 53 59 54 60 68 62 89 63 56 64 40 65 41 66
REMARK SMILES IDX 49 67 42 68 44 69 50 70 43 71 45 72 46 73 47 74 48 75 72 76
REMARK SMILES IDX 73 77 81 78 74 79 76 80 82 81 75 82 77 83 78 84 79 85 80 86
REMARK SMILES IDX 57 87 58 88 66 89 59 90 61 91 67 92 60 93 62 94 63 95 64 96
REMARK SMILES IDX 65 97
REMARK H PARENT 21 6 28 31 87 50 55 61
REMARK Flexibility Score: inf
ROOT
ATOM      1  C   UNL A   1      32.969  23.950  21.719  1.00  0.00     0.021 C 
ENDROOT
BRANCH   1   2
ATOM      2  C   UNL A   1      32.681  25.546  20.993  1.00  0.00     0.116 C 
BRANCH   2   3
ATOM      3  N   UNL A   1      32.934  26.944  21.569  1.00  0.00    -0.356 N 
ATOM      4  C   UNL A   1      32.475  27.623  22.678  1.00  0.00     0.224 C 
ATOM      5  O   UNL A   1      32.558  28.848  22.775  1.00  0.00    -0.275 OA
ATOM      6  H   UNL A   1      33.561  27.474  21.027  1.00  0.00     0.163 HD
BRANCH   4   7
ATOM      7  C   UNL A   1      31.931  26.812  23.788  1.00  0.00     0.095 C 
ATOM      8  C   UNL A   1      30.446  27.207  23.880  1.00  0.00     0.020 C 
BRANCH   7   9
ATOM      9  C   UNL A   1      32.817  26.938  25.016  1.00  0.00     0.132 C 
BRANCH   9  10
ATOM     10  N   UNL A   1      32.338  26.384  26.298  1.00  0.00    -0.345 N 
ATOM     11  C   UNL A   1      31.713  27.452  27.129  1.00  0.00     0.146 C 
BRANCH  10  12
ATOM     12  C   UNL A   1      31.985  25.004  26.443  1.00  0.00     0.222 C 
ATOM     13  O   UNL A   1      30.766  24.787  26.586  1.00  0.00    -0.275 OA
BRANCH  12  14
ATOM     14  C   UNL A   1      33.039  23.547  26.390  1.00  0.00     0.110 C 
BRANCH  14  15
ATOM     15  C   UNL A   1      33.123  21.771  26.575  1.00  0.00     0.107 C 
BRANCH  15  16
ATOM     16  C   UNL A   1      33.230  20.562  25.509  1.00  0.00     0.195 A 
ATOM     17  N   UNL A   1      34.303  20.144  24.836  1.00  0.00    -0.214 NA
ATOM     18  O   UNL A   1      32.161  19.683  25.340  1.00  0.00    -0.441 OA
ATOM     19  C   UNL A   1      34.043  18.789  24.560  1.00  0.00     0.109 A 
ATOM     20  C   UNL A   1      32.737  18.488  24.914  1.00  0.00     0.154 A 
ATOM     21  C   UNL A   1      34.943  17.714  24.366  1.00  0.00     0.032 A 
ATOM     22  C   UNL A   1      32.257  17.178  25.133  1.00  0.00     0.049 A 
ATOM     23  C   UNL A   1      34.526  16.403  24.691  1.00  0.00     0.003 A 
ATOM     24  C   UNL A   1      33.209  16.143  25.079  1.00  0.00     0.004 A 
ENDBRANCH  15  16
ENDBRANCH  14  15
ENDBRANCH  12  14
ENDBRANCH  10  12
ENDBRANCH   9  10
ENDBRANCH   7   9
ENDBRANCH   4   7
ENDBRANCH   2   3
ENDBRANCH   1   2
BRANCH   1  25
ATOM     25  C   UNL A   1      34.018  23.136  22.668  1.00  0.00     0.002 C 
BRANCH  25  26
ATOM     26  C   UNL A   1      35.161  23.603  23.642  1.00  0.00     0.002 C 
BRANCH  26  27
ATOM     27  C   UNL A   1      36.369  22.702  23.820  1.00  0.00     0.021 C 
BRANCH  27  28
ATOM     28  C   UNL A   1      36.641  22.424  25.280  1.00  0.00     0.116 C 
BRANCH  28  29
ATOM     29  N   UNL A   1      37.525  21.274  25.464  1.00  0.00    -0.352 N 
ATOM     30  C   UNL A   1      38.828  21.285  25.903  1.00  0.00     0.251 C 
ATOM     31  H   UNL A   1      37.144  20.391  25.251  1.00  0.00     0.163 HD
ATOM     32  O   UNL A   1      39.541  20.283  25.825  1.00  0.00    -0.269 OA
BRANCH  30  33
ATOM     33  C   UNL A   1      39.358  22.548  26.454  1.00  0.00     0.039 A 
ATOM     34  C   UNL A   1      40.342  22.527  27.442  1.00  0.00     0.014 A 
ATOM     35  C   UNL A   1      38.958  23.751  25.870  1.00  0.00     0.014 A 
ATOM     36  C   UNL A   1      40.967  23.722  27.804  1.00  0.00     0.010 A 
ATOM     37  C   UNL A   1      39.691  24.898  26.113  1.00  0.00     0.010 A 
ATOM     38  C   UNL A   1      40.666  24.912  27.119  1.00  0.00    -0.014 A 
BRANCH  38  39
ATOM     39  C   UNL A   1      41.280  26.212  27.481  1.00  0.00     0.031 A 
ATOM     40  C   UNL A   1      42.707  26.479  27.066  1.00  0.00     0.074 A 
ATOM     41  C   UNL A   1      40.609  27.098  28.244  1.00  0.00     0.049 A 
ATOM     42  N   UNL A   1      43.476  27.491  27.363  1.00  0.00    -0.248 NA
ATOM     43  C   UNL A   1      43.378  25.446  26.251  1.00  0.00     0.031 C 
ATOM     44  C   UNL A   1      39.257  26.913  28.780  1.00  0.00     0.029 A 
ATOM     45  N   UNL A   1      40.988  28.326  28.725  1.00  0.00    -0.354 N 
ATOM     46  C   UNL A   1      44.725  27.182  26.836  1.00  0.00     0.074 A 
ATOM     47  C   UNL A   1      44.631  25.871  26.241  1.00  0.00     0.031 C 
ATOM     48  C   UNL A   1      38.914  27.997  29.496  1.00  0.00     0.029 A 
ATOM     49  C   UNL A   1      40.031  28.936  29.505  1.00  0.00     0.049 A 
ATOM     50  H   UNL A   1      41.863  28.734  28.531  1.00  0.00     0.167 HD
ATOM     51  C   UNL A   1      45.844  27.939  26.813  1.00  0.00     0.034 A 
ATOM     52  C   UNL A   1      40.061  30.115  30.156  1.00  0.00     0.034 A 
ATOM     53  C   UNL A   1      45.901  29.280  27.316  1.00  0.00     0.049 A 
ATOM     54  C   UNL A   1      41.300  30.968  30.047  1.00  0.00     0.074 A 
ATOM     55  C   UNL A   1      46.939  30.186  27.224  1.00  0.00     0.029 A 
ATOM     56  N   UNL A   1      44.875  29.903  28.006  1.00  0.00    -0.354 N 
ATOM     57  N   UNL A   1      42.412  30.730  29.395  1.00  0.00    -0.248 NA
ATOM     58  C   UNL A   1      41.275  32.267  30.735  1.00  0.00     0.031 C 
ATOM     59  C   UNL A   1      46.555  31.351  27.894  1.00  0.00     0.029 A 
ATOM     60  C   UNL A   1      45.261  31.180  28.364  1.00  0.00     0.049 A 
ATOM     61  H   UNL A   1      44.001  29.498  28.211  1.00  0.00     0.167 HD
ATOM     62  C   UNL A   1      43.197  31.865  29.554  1.00  0.00     0.074 A 
ATOM     63  C   UNL A   1      42.427  32.798  30.349  1.00  0.00     0.031 C 
ATOM     64  C   UNL A   1      44.449  32.113  29.096  1.00  0.00     0.034 A 
BRANCH  51  65
ATOM     65  C   UNL A   1      47.082  27.363  26.181  1.00  0.00     0.023 A 
ATOM     66  C   UNL A   1      47.378  27.628  24.829  1.00  0.00     0.012 A 
ATOM     67  C   UNL A   1      47.998  26.628  26.959  1.00  0.00     0.148 A 
ATOM     68  C   UNL A   1      48.552  27.148  24.252  1.00  0.00     0.002 A 
ATOM     69  C   UNL A   1      49.191  26.199  26.392  1.00  0.00     0.091 A 
ATOM     70  F   UNL A   1      47.685  26.366  28.236  1.00  0.00    -0.205 F 
ATOM     71  C   UNL A   1      49.464  26.448  25.037  1.00  0.00     0.022 A 
BRANCH  69  72
ATOM     72  S   UNL A   1      50.469  25.367  27.339  1.00  0.00     0.127 S 
ATOM     73  O   UNL A   1      51.451  25.057  26.301  1.00  0.00    -0.237 OA
ATOM     74  O   UNL A   1      50.881  26.412  28.277  1.00  0.00    -0.237 OA
ATOM     75  O   UNL A   1      49.831  24.210  27.952  1.00  0.00    -0.744 OA
ENDBRANCH  69  72
ENDBRANCH  51  65
BRANCH  52  76
ATOM     76  C   UNL A   1      38.875  30.595  30.924  1.00  0.00     0.023 A 
ATOM     77  C   UNL A   1      38.813  30.372  32.314  1.00  0.00     0.012 A 
ATOM     78  C   UNL A   1      37.803  31.250  30.288  1.00  0.00     0.148 A 
ATOM     79  C   UNL A   1      37.684  30.743  33.047  1.00  0.00     0.002 A 
ATOM     80  C   UNL A   1      36.706  31.668  31.034  1.00  0.00     0.091 A 
ATOM     81  F   UNL A   1      37.872  31.444  28.963  1.00  0.00    -0.205 F 
ATOM     82  C   UNL A   1      36.635  31.398  32.409  1.00  0.00     0.022 A 
BRANCH  80  83
ATOM     83  S   UNL A   1      35.366  32.624  30.316  1.00  0.00     0.127 S 
ATOM     84  O   UNL A   1      36.006  33.917  30.093  1.00  0.00    -0.237 OA
ATOM     85  O   UNL A   1      35.069  31.865  29.100  1.00  0.00    -0.237 OA
ATOM     86  O   UNL A   1      34.300  32.606  31.309  1.00  0.00    -0.744 OA
ENDBRANCH  80  83
ENDBRANCH  52  76
BRANCH  64  87
ATOM     87  C   UNL A   1      45.047  33.464  29.380  1.00  0.00     0.023 A 
ATOM     88  C   UNL A   1      45.739  33.689  30.584  1.00  0.00     0.012 A 
ATOM     89  C   UNL A   1      45.004  34.475  28.399  1.00  0.00     0.148 A 
ATOM     90  C   UNL A   1      46.356  34.916  30.822  1.00  0.00     0.002 A 
ATOM     91  C   UNL A   1      45.670  35.672  28.620  1.00  0.00     0.091 A 
ATOM     92  F   UNL A   1      44.327  34.239  27.266  1.00  0.00    -0.205 F 
ATOM     93  C   UNL A   1      46.333  35.901  29.836  1.00  0.00     0.022 A 
BRANCH  91  94
ATOM     94  S   UNL A   1      45.788  36.951  27.365  1.00  0.00     0.127 S 
ATOM     95  O   UNL A   1      46.603  37.958  28.043  1.00  0.00    -0.237 OA
ATOM     96  O   UNL A   1      46.465  36.250  26.274  1.00  0.00    -0.237 OA
ATOM     97  O   UNL A   1      44.421  37.354  27.069  1.00  0.00    -0.744 OA
ENDBRANCH  91  94
ENDBRANCH  64  87
ENDBRANCH  38  39
ENDBRANCH  30  33
ENDBRANCH  28  29
ENDBRANCH  27  28
ENDBRANCH  26  27
ENDBRANCH  25  26
ENDBRANCH   1  25
TORSDOF 22
ENDMDL
MODEL 2
REMARK VINA RESULT:     -12.5      1.930      2.258
REMARK SMILES C[C@H](CN(C)C(=O)CCc1nc2ccccc2o1)C(=O)NCCCCCCNC(=O)c1ccc(-c2c3nc(c(-c4cccc(S(=O)(=O)[O-])c4F)c4ccc([nH]4)c(-c4cccc(S(=O)(=O)[O-])c4F)c4nc(c(-c5cccc(S(=O)(=O)[O-])c5F)c5ccc2[nH]5)C=C4)C=C3)cc1
REMARK SMILES IDX 23 1 22 2 21 3 19 4 20 5 2 7 1 8 3 9 4 10 5 11 6 12 7 13
REMARK SMILES IDX 8 14 9 15 10 16 11 17 18 18 12 19 17 20 13 21 16 22 14 23
REMARK SMILES IDX 15 24 24 25 25 26 26 27 27 28 28 29 29 30 30 32 31 33 32 34
REMARK SMILES IDX 93 35 33 36 92 37 34 38 35 39 36 40 86 41 37 42 91 43 85 44
REMARK SMILES IDX 87 45 38 46 90 47 84 48 83 49 39 51 71 52 51 53 70 54 52 55
REMARK SMILES IDX 55 56 69 57 88 58 53 59 54 60 68 62 89 63 56 64 40 65 41 66
REMARK SMILES IDX 49 67 42 68 44 69 50 70 43 71 45 72 46 73 47 74 48 75 72 76
REMARK SMILES IDX 73 77 81 78 74 79 76 80 82 81 75 82 77 83 78 84 79 85 80 86
REMARK SMILES IDX 57 87 58 88 66 89 59 90 61 91 67 92 60 93 62 94 63 95 64 96
REMARK SMILES IDX 65 97
REMARK H PARENT 21 6 28 31 87 50 55 61
REMARK Flexibility Score: inf
ROOT
ATOM      1  C   UNL A   1      33.912  24.855  23.318  1.00  0.00     0.021 C 
ENDROOT
BRANCH   1   2
ATOM      2  C   UNL A   1      32.732  25.439  22.125  1.00  0.00     0.116 C 
BRANCH   2   3
ATOM      3  N   UNL A   1      32.059  26.811  22.004  1.00  0.00    -0.356 N 
ATOM      4  C   UNL A   1      30.868  27.340  22.458  1.00  0.00     0.224 C 
ATOM      5  O   UNL A   1      30.381  28.361  21.974  1.00  0.00    -0.275 OA
ATOM      6  H   UNL A   1      32.592  27.456  21.488  1.00  0.00     0.163 HD
BRANCH   4   7
ATOM      7  C   UNL A   1      30.223  26.662  23.603  1.00  0.00     0.095 C 
ATOM      8  C   UNL A   1      28.729  27.009  23.482  1.00  0.00     0.020 C 
BRANCH   7   9
ATOM      9  C   UNL A   1      30.964  26.983  24.891  1.00  0.00     0.132 C 
BRANCH   9  10
ATOM     10  N   UNL A   1      31.551  25.875  25.669  1.00  0.00    -0.345 N 
ATOM     11  C   UNL A   1      32.698  26.360  26.488  1.00  0.00     0.146 C 
BRANCH  10  12
ATOM     12  C   UNL A   1      30.788  24.720  26.038  1.00  0.00     0.222 C 
ATOM     13  O   UNL A   1      29.755  24.962  26.692  1.00  0.00    -0.275 OA
BRANCH  12  14
ATOM     14  C   UNL A   1      31.079  22.988  25.645  1.00  0.00     0.110 C 
BRANCH  14  15
ATOM     15  C   UNL A   1      32.279  21.769  25.127  1.00  0.00     0.107 C 
BRANCH  15  16
ATOM     16  C   UNL A   1      32.142  20.228  24.664  1.00  0.00     0.195 A 
ATOM     17  N   UNL A   1      32.213  19.724  23.431  1.00  0.00    -0.214 NA
ATOM     18  O   UNL A   1      32.122  19.211  25.617  1.00  0.00    -0.441 OA
ATOM     19  C   UNL A   1      32.641  18.396  23.613  1.00  0.00     0.109 A 
ATOM     20  C   UNL A   1      32.631  18.090  24.964  1.00  0.00     0.154 A 
ATOM     21  C   UNL A   1      33.375  17.552  22.745  1.00  0.00     0.032 A 
ATOM     22  C   UNL A   1      33.342  17.012  25.538  1.00  0.00     0.049 A 
ATOM     23  C   UNL A   1      34.188  16.539  23.302  1.00  0.00     0.003 A 
ATOM     24  C   UNL A   1      34.181  16.282  24.675  1.00  0.00     0.004 A 
ENDBRANCH  15  16
ENDBRANCH  14  15
ENDBRANCH  12  14
ENDBRANCH  10  12
ENDBRANCH   9  10
ENDBRANCH   7   9
ENDBRANCH   4   7
ENDBRANCH   2   3
ENDBRANCH   1   2
BRANCH   1  25
ATOM     25  C   UNL A   1      35.235  23.912  23.468  1.00  0.00     0.002 C 
BRANCH  25  26
ATOM     26  C   UNL A   1      35.428  22.392  23.821  1.00  0.00     0.002 C 
BRANCH  26  27
ATOM     27  C   UNL A   1      36.117  22.038  25.127  1.00  0.00     0.021 C 
BRANCH  27  28
ATOM     28  C   UNL A   1      37.608  22.269  25.046  1.00  0.00     0.116 C 
BRANCH  28  29
ATOM     29  N   UNL A   1      38.369  21.133  25.563  1.00  0.00    -0.352 N 
ATOM     30  C   UNL A   1      39.523  21.173  26.311  1.00  0.00     0.251 C 
ATOM     31  H   UNL A   1      38.015  20.238  25.355  1.00  0.00     0.163 HD
ATOM     32  O   UNL A   1      40.190  20.157  26.518  1.00  0.00    -0.269 OA
BRANCH  30  33
ATOM     33  C   UNL A   1      39.955  22.481  26.841  1.00  0.00     0.039 A 
ATOM     34  C   UNL A   1      41.024  22.560  27.734  1.00  0.00     0.014 A 
ATOM     35  C   UNL A   1      39.366  23.638  26.328  1.00  0.00     0.014 A 
ATOM     36  C   UNL A   1      41.539  23.815  28.066  1.00  0.00     0.010 A 
ATOM     37  C   UNL A   1      39.983  24.858  26.530  1.00  0.00     0.010 A 
ATOM     38  C   UNL A   1      41.041  24.971  27.442  1.00  0.00    -0.014 A 
BRANCH  38  39
ATOM     39  C   UNL A   1      41.533  26.329  27.778  1.00  0.00     0.031 A 
ATOM     40  C   UNL A   1      42.941  26.706  27.383  1.00  0.00     0.074 A 
ATOM     41  C   UNL A   1      40.773  27.174  28.502  1.00  0.00     0.049 A 
ATOM     42  N   UNL A   1      43.614  27.788  27.666  1.00  0.00    -0.248 NA
ATOM     43  C   UNL A   1      43.716  25.713  26.611  1.00  0.00     0.031 C 
ATOM     44  C   UNL A   1      39.430  26.888  29.017  1.00  0.00     0.029 A 
ATOM     45  N   UNL A   1      41.034  28.442  28.955  1.00  0.00    -0.354 N 
ATOM     46  C   UNL A   1      44.896  27.574  27.172  1.00  0.00     0.074 A 
ATOM     47  C   UNL A   1      44.927  26.244  26.614  1.00  0.00     0.031 C 
ATOM     48  C   UNL A   1      38.980  27.957  29.695  1.00  0.00     0.029 A 
ATOM     49  C   UNL A   1      40.012  28.988  29.698  1.00  0.00     0.049 A 
ATOM     50  H   UNL A   1      41.875  28.918  28.766  1.00  0.00     0.167 HD
ATOM     51  C   UNL A   1      45.947  28.423  27.149  1.00  0.00     0.034 A 
ATOM     52  C   UNL A   1      39.927  30.183  30.316  1.00  0.00     0.034 A 
ATOM     53  C   UNL A   1      45.877  29.777  27.615  1.00  0.00     0.049 A 
ATOM     54  C   UNL A   1      41.090  31.136  30.206  1.00  0.00     0.074 A 
ATOM     55  C   UNL A   1      46.836  30.767  27.516  1.00  0.00     0.029 A 
ATOM     56  N   UNL A   1      44.787  30.328  28.266  1.00  0.00    -0.354 N 
ATOM     57  N   UNL A   1      42.233  30.977  29.583  1.00  0.00    -0.248 NA
ATOM     58  C   UNL A   1      40.940  32.447  30.856  1.00  0.00     0.031 C 
ATOM     59  C   UNL A   1      46.339  31.911  28.145  1.00  0.00     0.029 A 
ATOM     60  C   UNL A   1      45.055  31.643  28.594  1.00  0.00     0.049 A 
ATOM     61  H   UNL A   1      43.947  29.855  28.466  1.00  0.00     0.167 HD
ATOM     62  C   UNL A   1      42.915  32.180  29.725  1.00  0.00     0.074 A 
ATOM     63  C   UNL A   1      42.050  33.064  30.477  1.00  0.00     0.031 C 
ATOM     64  C   UNL A   1      44.150  32.522  29.283  1.00  0.00     0.034 A 
BRANCH  51  65
ATOM     65  C   UNL A   1      47.243  27.940  26.558  1.00  0.00     0.023 A 
ATOM     66  C   UNL A   1      48.236  27.383  27.389  1.00  0.00     0.012 A 
ATOM     67  C   UNL A   1      47.439  27.961  25.164  1.00  0.00     0.148 A 
ATOM     68  C   UNL A   1      49.416  26.879  26.844  1.00  0.00     0.002 A 
ATOM     69  C   UNL A   1      48.592  27.409  24.623  1.00  0.00     0.091 A 
ATOM     70  F   UNL A   1      46.492  28.519  24.395  1.00  0.00    -0.205 F 
ATOM     71  C   UNL A   1      49.587  26.878  25.462  1.00  0.00     0.022 A 
BRANCH  69  72
ATOM     72  S   UNL A   1      48.868  27.281  22.854  1.00  0.00     0.127 S 
ATOM     73  O   UNL A   1      50.322  27.411  22.772  1.00  0.00    -0.237 OA
ATOM     74  O   UNL A   1      48.357  25.941  22.564  1.00  0.00    -0.237 OA
ATOM     75  O   UNL A   1      48.114  28.370  22.247  1.00  0.00    -0.744 OA
ENDBRANCH  69  72
ENDBRANCH  51  65
BRANCH  52  76
ATOM     76  C   UNL A   1      38.688  30.580  31.047  1.00  0.00     0.023 A 
ATOM     77  C   UNL A   1      38.545  30.235  32.406  1.00  0.00     0.012 A 
ATOM     78  C   UNL A   1      37.646  31.275  30.404  1.00  0.00     0.148 A 
ATOM     79  C   UNL A   1      37.367  30.527  33.096  1.00  0.00     0.002 A 
ATOM     80  C   UNL A   1      36.499  31.613  31.113  1.00  0.00     0.091 A 
ATOM     81  F   UNL A   1      37.793  31.585  29.108  1.00  0.00    -0.205 F 
ATOM     82  C   UNL A   1      36.347  31.223  32.453  1.00  0.00     0.022 A 
BRANCH  80  83
ATOM     83  S   UNL A   1      35.188  32.612  30.398  1.00  0.00     0.127 S 
ATOM     84  O   UNL A   1      34.221  32.664  31.491  1.00  0.00    -0.237 OA
ATOM     85  O   UNL A   1      35.880  33.872  30.126  1.00  0.00    -0.237 OA
ATOM     86  O   UNL A   1      34.759  31.894  29.205  1.00  0.00    -0.744 OA
ENDBRANCH  80  83
ENDBRANCH  52  76
BRANCH  64  87
ATOM     87  C   UNL A   1      44.624  33.926  29.540  1.00  0.00     0.023 A 
ATOM     88  C   UNL A   1      44.323  34.951  28.624  1.00  0.00     0.012 A 
ATOM     89  C   UNL A   1      45.281  34.239  30.747  1.00  0.00     0.148 A 
ATOM     90  C   UNL A   1      44.698  36.267  28.892  1.00  0.00     0.002 A 
ATOM     91  C   UNL A   1      45.600  35.559  31.032  1.00  0.00     0.091 A 
ATOM     92  F   UNL A   1      45.568  33.242  31.597  1.00  0.00    -0.205 F 
ATOM     93  C   UNL A   1      45.323  36.572  30.100  1.00  0.00     0.022 A 
BRANCH  91  94
ATOM     94  S   UNL A   1      46.303  36.060  32.606  1.00  0.00     0.127 S 
ATOM     95  O   UNL A   1      47.580  35.348  32.600  1.00  0.00    -0.237 OA
ATOM     96  O   UNL A   1      46.410  37.510  32.448  1.00  0.00    -0.237 OA
ATOM     97  O   UNL A   1      45.357  35.631  33.626  1.00  0.00    -0.744 OA
ENDBRANCH  91  94
ENDBRANCH  64  87
ENDBRANCH  38  39
ENDBRANCH  30  33
ENDBRANCH  28  29
ENDBRANCH  27  28
ENDBRANCH  26  27
ENDBRANCH  25  26
ENDBRANCH   1  25
TORSDOF 22
ENDMDL
MODEL 3
REMARK VINA RESULT:     -12.2      2.001      2.636
REMARK SMILES C[C@H](CN(C)C(=O)CCc1nc2ccccc2o1)C(=O)NCCCCCCNC(=O)c1ccc(-c2c3nc(c(-c4cccc(S(=O)(=O)[O-])c4F)c4ccc([nH]4)c(-c4cccc(S(=O)(=O)[O-])c4F)c4nc(c(-c5cccc(S(=O)(=O)[O-])c5F)c5ccc2[nH]5)C=C4)C=C3)cc1
REMARK SMILES IDX 23 1 22 2 21 3 19 4 20 5 2 7 1 8 3 9 4 10 5 11 6 12 7 13
REMARK SMILES IDX 8 14 9 15 10 16 11 17 18 18 12 19 17 20 13 21 16 22 14 23
REMARK SMILES IDX 15 24 24 25 25 26 26 27 27 28 28 29 29 30 30 32 31 33 32 34
REMARK SMILES IDX 93 35 33 36 92 37 34 38 35 39 36 40 86 41 37 42 91 43 85 44
REMARK SMILES IDX 87 45 38 46 90 47 84 48 83 49 39 51 71 52 51 53 70 54 52 55
REMARK SMILES IDX 55 56 69 57 88 58 53 59 54 60 68 62 89 63 56 64 40 65 41 66
REMARK SMILES IDX 49 67 42 68 44 69 50 70 43 71 45 72 46 73 47 74 48 75 72 76
REMARK SMILES IDX 73 77 81 78 74 79 76 80 82 81 75 82 77 83 78 84 79 85 80 86
REMARK SMILES IDX 57 87 58 88 66 89 59 90 61 91 67 92 60 93 62 94 63 95 64 96
REMARK SMILES IDX 65 97
REMARK H PARENT 21 6 28 31 87 50 55 61
REMARK Flexibility Score: inf
ROOT
ATOM      1  C   UNL A   1      33.511  24.686  22.291  1.00  0.00     0.021 C 
ENDROOT
BRANCH   1   2
ATOM      2  C   UNL A   1      33.136  26.385  21.936  1.00  0.00     0.116 C 
BRANCH   2   3
ATOM      3  N   UNL A   1      32.874  27.552  22.896  1.00  0.00    -0.356 N 
ATOM      4  C   UNL A   1      31.735  28.143  23.400  1.00  0.00     0.224 C 
ATOM      5  O   UNL A   1      31.749  29.268  23.901  1.00  0.00    -0.275 OA
ATOM      6  H   UNL A   1      33.701  27.971  23.225  1.00  0.00     0.163 HD
BRANCH   4   7
ATOM      7  C   UNL A   1      30.492  27.343  23.372  1.00  0.00     0.095 C 
ATOM      8  C   UNL A   1      29.422  28.287  22.794  1.00  0.00     0.020 C 
BRANCH   7   9
ATOM      9  C   UNL A   1      30.258  26.687  24.723  1.00  0.00     0.132 C 
BRANCH   9  10
ATOM     10  N   UNL A   1      30.406  25.222  24.837  1.00  0.00    -0.345 N 
ATOM     11  C   UNL A   1      30.257  24.575  23.503  1.00  0.00     0.146 C 
BRANCH  10  12
ATOM     12  C   UNL A   1      31.156  24.616  25.897  1.00  0.00     0.222 C 
ATOM     13  O   UNL A   1      31.440  25.379  26.840  1.00  0.00    -0.275 OA
BRANCH  12  14
ATOM     14  C   UNL A   1      31.691  22.908  26.081  1.00  0.00     0.110 C 
BRANCH  14  15
ATOM     15  C   UNL A   1      32.758  21.615  25.461  1.00  0.00     0.107 C 
BRANCH  15  16
ATOM     16  C   UNL A   1      32.465  20.129  24.899  1.00  0.00     0.195 A 
ATOM     17  N   UNL A   1      32.592  19.676  23.651  1.00  0.00    -0.214 NA
ATOM     18  O   UNL A   1      32.211  19.084  25.786  1.00  0.00    -0.441 OA
ATOM     19  C   UNL A   1      32.818  18.294  23.797  1.00  0.00     0.109 A 
ATOM     20  C   UNL A   1      32.630  17.933  25.121  1.00  0.00     0.154 A 
ATOM     21  C   UNL A   1      33.517  17.395  22.956  1.00  0.00     0.032 A 
ATOM     22  C   UNL A   1      33.128  16.743  25.697  1.00  0.00     0.049 A 
ATOM     23  C   UNL A   1      34.127  16.256  23.528  1.00  0.00     0.003 A 
ATOM     24  C   UNL A   1      33.945  15.943  24.877  1.00  0.00     0.004 A 
ENDBRANCH  15  16
ENDBRANCH  14  15
ENDBRANCH  12  14
ENDBRANCH  10  12
ENDBRANCH   9  10
ENDBRANCH   7   9
ENDBRANCH   4   7
ENDBRANCH   2   3
ENDBRANCH   1   2
BRANCH   1  25
ATOM     25  C   UNL A   1      34.487  23.743  23.196  1.00  0.00     0.002 C 
BRANCH  25  26
ATOM     26  C   UNL A   1      35.407  24.039  24.436  1.00  0.00     0.002 C 
BRANCH  26  27
ATOM     27  C   UNL A   1      36.718  23.283  24.558  1.00  0.00     0.021 C 
BRANCH  27  28
ATOM     28  C   UNL A   1      37.361  23.505  25.907  1.00  0.00     0.116 C 
BRANCH  28  29
ATOM     29  N   UNL A   1      38.269  22.417  26.268  1.00  0.00    -0.352 N 
ATOM     30  C   UNL A   1      39.582  22.523  26.664  1.00  0.00     0.251 C 
ATOM     31  H   UNL A   1      37.899  21.505  26.224  1.00  0.00     0.163 HD
ATOM     32  O   UNL A   1      40.310  21.532  26.746  1.00  0.00    -0.269 OA
BRANCH  30  33
ATOM     33  C   UNL A   1      40.102  23.870  26.970  1.00  0.00     0.039 A 
ATOM     34  C   UNL A   1      40.101  24.864  25.991  1.00  0.00     0.014 A 
ATOM     35  C   UNL A   1      40.461  24.165  28.287  1.00  0.00     0.014 A 
ATOM     36  C   UNL A   1      40.410  26.176  26.356  1.00  0.00     0.010 A 
ATOM     37  C   UNL A   1      40.603  25.485  28.670  1.00  0.00     0.010 A 
ATOM     38  C   UNL A   1      40.633  26.500  27.704  1.00  0.00    -0.014 A 
BRANCH  38  39
ATOM     39  C   UNL A   1      40.991  27.871  28.142  1.00  0.00     0.031 A 
ATOM     40  C   UNL A   1      42.448  28.271  28.150  1.00  0.00     0.074 A 
ATOM     41  C   UNL A   1      40.046  28.710  28.611  1.00  0.00     0.049 A 
ATOM     42  N   UNL A   1      42.998  29.369  28.591  1.00  0.00    -0.248 NA
ATOM     43  C   UNL A   1      43.422  27.284  27.641  1.00  0.00     0.031 C 
ATOM     44  C   UNL A   1      38.618  28.405  28.735  1.00  0.00     0.029 A 
ATOM     45  N   UNL A   1      40.151  29.988  29.098  1.00  0.00    -0.354 N 
ATOM     46  C   UNL A   1      44.371  29.173  28.479  1.00  0.00     0.074 A 
ATOM     47  C   UNL A   1      44.576  27.838  27.974  1.00  0.00     0.031 C 
ATOM     48  C   UNL A   1      37.980  29.473  29.242  1.00  0.00     0.029 A 
ATOM     49  C   UNL A   1      38.954  30.523  29.516  1.00  0.00     0.049 A 
ATOM     50  H   UNL A   1      41.004  30.478  29.143  1.00  0.00     0.167 HD
ATOM     51  C   UNL A   1      45.373  30.042  28.736  1.00  0.00     0.034 A 
ATOM     52  C   UNL A   1      38.682  31.724  30.066  1.00  0.00     0.034 A 
ATOM     53  C   UNL A   1      45.155  31.400  29.142  1.00  0.00     0.049 A 
ATOM     54  C   UNL A   1      39.815  32.697  30.270  1.00  0.00     0.074 A 
ATOM     55  C   UNL A   1      46.088  32.406  29.299  1.00  0.00     0.029 A 
ATOM     56  N   UNL A   1      43.919  31.938  29.453  1.00  0.00    -0.354 N 
ATOM     57  N   UNL A   1      41.088  32.553  29.993  1.00  0.00    -0.248 NA
ATOM     58  C   UNL A   1      39.469  34.012  30.830  1.00  0.00     0.031 C 
ATOM     59  C   UNL A   1      45.418  33.548  29.745  1.00  0.00     0.029 A 
ATOM     60  C   UNL A   1      44.064  33.261  29.821  1.00  0.00     0.049 A 
ATOM     61  H   UNL A   1      43.063  31.451  29.418  1.00  0.00     0.167 HD
ATOM     62  C   UNL A   1      41.685  33.770  30.300  1.00  0.00     0.074 A 
ATOM     63  C   UNL A   1      40.631  34.646  30.766  1.00  0.00     0.031 C 
ATOM     64  C   UNL A   1      42.989  34.131  30.216  1.00  0.00     0.034 A 
BRANCH  51  65
ATOM     65  C   UNL A   1      46.789  29.577  28.539  1.00  0.00     0.023 A 
ATOM     66  C   UNL A   1      47.444  29.795  27.310  1.00  0.00     0.012 A 
ATOM     67  C   UNL A   1      47.500  28.996  29.608  1.00  0.00     0.148 A 
ATOM     68  C   UNL A   1      48.775  29.420  27.139  1.00  0.00     0.002 A 
ATOM     69  C   UNL A   1      48.841  28.675  29.447  1.00  0.00     0.091 A 
ATOM     70  F   UNL A   1      46.850  28.774  30.760  1.00  0.00    -0.205 F 
ATOM     71  C   UNL A   1      49.477  28.875  28.211  1.00  0.00     0.022 A 
BRANCH  69  72
ATOM     72  S   UNL A   1      49.854  28.049  30.790  1.00  0.00     0.127 S 
ATOM     73  O   UNL A   1      49.277  26.722  31.002  1.00  0.00    -0.237 OA
ATOM     74  O   UNL A   1      51.188  28.047  30.188  1.00  0.00    -0.237 OA
ATOM     75  O   UNL A   1      49.683  28.982  31.896  1.00  0.00    -0.744 OA
ENDBRANCH  69  72
ENDBRANCH  51  65
BRANCH  52  76
ATOM     76  C   UNL A   1      37.282  32.105  30.415  1.00  0.00     0.023 A 
ATOM     77  C   UNL A   1      36.778  31.796  31.694  1.00  0.00     0.012 A 
ATOM     78  C   UNL A   1      36.442  32.750  29.487  1.00  0.00     0.148 A 
ATOM     79  C   UNL A   1      35.450  32.074  32.025  1.00  0.00     0.002 A 
ATOM     80  C   UNL A   1      35.138  33.075  29.842  1.00  0.00     0.091 A 
ATOM     81  F   UNL A   1      36.933  33.026  28.270  1.00  0.00    -0.205 F 
ATOM     82  C   UNL A   1      34.633  32.720  31.102  1.00  0.00     0.022 A 
BRANCH  80  83
ATOM     83  S   UNL A   1      34.054  34.013  28.760  1.00  0.00     0.127 S 
ATOM     84  O   UNL A   1      34.869  35.190  28.468  1.00  0.00    -0.237 OA
ATOM     85  O   UNL A   1      33.875  33.093  27.636  1.00  0.00    -0.237 OA
ATOM     86  O   UNL A   1      32.845  34.256  29.535  1.00  0.00    -0.744 OA
ENDBRANCH  80  83
ENDBRANCH  52  76
BRANCH  64  87
ATOM     87  C   UNL A   1      43.351  35.547  30.572  1.00  0.00     0.023 A 
ATOM     88  C   UNL A   1      43.817  35.852  31.864  1.00  0.00     0.012 A 
ATOM     89  C   UNL A   1      43.323  36.551  29.584  1.00  0.00     0.148 A 
ATOM     90  C   UNL A   1      44.221  37.148  32.178  1.00  0.00     0.002 A 
ATOM     91  C   UNL A   1      43.782  37.825  29.889  1.00  0.00     0.091 A 
ATOM     92  F   UNL A   1      42.863  36.237  28.364  1.00  0.00    -0.205 F 
ATOM     93  C   UNL A   1      44.217  38.129  31.189  1.00  0.00     0.022 A 
BRANCH  91  94
ATOM     94  S   UNL A   1      43.916  39.119  28.652  1.00  0.00     0.127 S 
ATOM     95  O   UNL A   1      42.537  39.222  28.178  1.00  0.00    -0.237 OA
ATOM     96  O   UNL A   1      44.377  40.258  29.447  1.00  0.00    -0.237 OA
ATOM     97  O   UNL A   1      44.877  38.640  27.668  1.00  0.00    -0.744 OA
ENDBRANCH  91  94
ENDBRANCH  64  87
ENDBRANCH  38  39
ENDBRANCH  30  33
ENDBRANCH  28  29
ENDBRANCH  27  28
ENDBRANCH  26  27
ENDBRANCH  25  26
ENDBRANCH   1  25
TORSDOF 22
ENDMDL
