MODEL 1
REMARK VINA RESULT:      -9.8      0.000      0.000
REMARK SMILES [NH3+][C@@H](CSCc1nccs1)C(=O)NCCCCCCNC(=O)c1ccc(-c2c3nc(c(-c4cccc(S(=O)(=O)[O-])c4F)c4ccc([nH]4)c(-c4cccc(S(=O)(=O)[O-])c4F)c4nc(c(-c5cccc(S(=O)(=O)[O-])c5F)c5ccc2[nH]5)C=C4)C=C3)cc1
REMARK SMILES IDX 16 1 15 2 14 3 13 4 11 5 12 6 2 8 1 9 3 13 4 14 5 15 6 16
REMARK SMILES IDX 7 17 10 18 8 19 9 20 17 21 18 22 19 23 20 24 21 25 22 27
REMARK SMILES IDX 23 28 24 29 85 30 25 31 84 32 26 33 27 34 28 35 78 36 29 37
REMARK SMILES IDX 83 38 77 39 79 40 30 41 82 42 76 43 75 44 31 46 63 47 43 48
REMARK SMILES IDX 62 49 44 50 47 51 61 52 80 53 45 54 46 55 60 57 81 58 48 59
REMARK SMILES IDX 32 60 33 61 41 62 34 63 36 64 42 65 35 66 37 67 38 68 39 69
REMARK SMILES IDX 40 70 64 71 65 72 73 73 66 74 68 75 74 76 67 77 69 78 70 79
REMARK SMILES IDX 71 80 72 81 49 82 50 83 58 84 51 85 53 86 59 87 52 88 54 89
REMARK SMILES IDX 55 90 56 91 57 92
REMARK H PARENT 13 7 1 10 1 11 1 12 20 26 79 45 47 56
REMARK Flexibility Score: inf
ROOT
ATOM      1  C   UNL A   1      31.324  28.481  24.656  1.00  0.00     0.002 C 
ENDROOT
BRANCH   1   2
ATOM      2  C   UNL A   1      30.765  28.354  23.240  1.00  0.00     0.021 C 
BRANCH   2   3
ATOM      3  C   UNL A   1      30.806  26.952  22.655  1.00  0.00     0.116 C 
BRANCH   3   4
ATOM      4  N   UNL A   1      31.775  26.759  21.607  1.00  0.00    -0.351 N 
ATOM      5  C   UNL A   1      32.521  25.648  21.321  1.00  0.00     0.279 C 
ATOM      6  O   UNL A   1      33.080  25.618  20.219  1.00  0.00    -0.268 OA
ATOM      7  H   UNL A   1      31.920  27.531  21.014  1.00  0.00     0.163 HD
BRANCH   5   8
ATOM      8  C   UNL A   1      32.701  24.473  22.322  1.00  0.00     0.280 C 
BRANCH   8   9
ATOM      9  N   UNL A   1      32.682  23.157  21.653  1.00  0.00    -0.347 N 
ATOM     10  H   UNL A   1      32.927  23.271  20.669  1.00  0.00     0.345 HD
ATOM     11  H   UNL A   1      31.749  22.751  21.726  1.00  0.00     0.345 HD
ATOM     12  H   UNL A   1      33.358  22.537  22.101  1.00  0.00     0.345 HD
ENDBRANCH   8   9
BRANCH   8  13
ATOM     13  C   UNL A   1      33.726  24.675  23.460  1.00  0.00     0.145 C 
BRANCH  13  14
ATOM     14  S   UNL A   1      35.163  23.576  23.727  1.00  0.00    -0.148 SA
BRANCH  14  15
ATOM     15  C   UNL A   1      34.429  22.078  24.461  1.00  0.00     0.137 C 
BRANCH  15  16
ATOM     16  C   UNL A   1      33.198  22.291  25.277  1.00  0.00     0.102 A 
ATOM     17  N   UNL A   1      31.970  22.061  24.868  1.00  0.00    -0.249 NA
ATOM     18  S   UNL A   1      33.325  23.028  26.833  1.00  0.00    -0.126 S 
ATOM     19  C   UNL A   1      31.068  22.552  25.788  1.00  0.00     0.123 A 
ATOM     20  C   UNL A   1      31.618  23.112  26.919  1.00  0.00     0.087 A 
ENDBRANCH  15  16
ENDBRANCH  14  15
ENDBRANCH  13  14
ENDBRANCH   8  13
ENDBRANCH   5   8
ENDBRANCH   3   4
ENDBRANCH   2   3
ENDBRANCH   1   2
BRANCH   1  21
ATOM     21  C   UNL A   1      32.686  29.174  24.777  1.00  0.00     0.002 C 
BRANCH  21  22
ATOM     22  C   UNL A   1      33.727  28.485  25.666  1.00  0.00     0.021 C 
BRANCH  22  23
ATOM     23  C   UNL A   1      33.615  28.765  27.163  1.00  0.00     0.116 C 
BRANCH  23  24
ATOM     24  N   UNL A   1      33.617  30.186  27.466  1.00  0.00    -0.352 N 
ATOM     25  C   UNL A   1      34.533  30.944  28.149  1.00  0.00     0.251 C 
ATOM     26  H   UNL A   1      32.837  30.683  27.128  1.00  0.00     0.163 HD
ATOM     27  O   UNL A   1      34.259  32.109  28.431  1.00  0.00    -0.269 OA
BRANCH  25  28
ATOM     28  C   UNL A   1      35.835  30.373  28.559  1.00  0.00     0.039 A 
ATOM     29  C   UNL A   1      36.951  30.601  27.747  1.00  0.00     0.014 A 
ATOM     30  C   UNL A   1      35.957  29.585  29.706  1.00  0.00     0.014 A 
ATOM     31  C   UNL A   1      38.195  30.079  28.109  1.00  0.00     0.010 A 
ATOM     32  C   UNL A   1      37.212  29.121  30.101  1.00  0.00     0.010 A 
ATOM     33  C   UNL A   1      38.341  29.353  29.302  1.00  0.00    -0.014 A 
BRANCH  33  34
ATOM     34  C   UNL A   1      39.668  28.844  29.731  1.00  0.00     0.031 A 
ATOM     35  C   UNL A   1      40.426  29.520  30.842  1.00  0.00     0.074 A 
ATOM     36  C   UNL A   1      40.228  27.813  29.067  1.00  0.00     0.049 A 
ATOM     37  N   UNL A   1      41.600  29.224  31.338  1.00  0.00    -0.248 NA
ATOM     38  C   UNL A   1      39.797  30.699  31.457  1.00  0.00     0.031 C 
ATOM     39  C   UNL A   1      39.630  27.122  27.922  1.00  0.00     0.029 A 
ATOM     40  N   UNL A   1      41.433  27.179  29.245  1.00  0.00    -0.354 N 
ATOM     41  C   UNL A   1      41.868  30.199  32.293  1.00  0.00     0.074 A 
ATOM     42  C   UNL A   1      40.746  31.113  32.284  1.00  0.00     0.031 C 
ATOM     43  C   UNL A   1      40.461  26.150  27.513  1.00  0.00     0.029 A 
ATOM     44  C   UNL A   1      41.660  26.164  28.346  1.00  0.00     0.049 A 
ATOM     45  H   UNL A   1      42.073  27.429  29.950  1.00  0.00     0.167 HD
ATOM     46  C   UNL A   1      42.935  30.309  33.119  1.00  0.00     0.034 A 
ATOM     47  C   UNL A   1      42.711  25.334  28.211  1.00  0.00     0.034 A 
ATOM     48  C   UNL A   1      44.022  29.367  33.161  1.00  0.00     0.049 A 
ATOM     49  C   UNL A   1      43.862  25.448  29.173  1.00  0.00     0.074 A 
ATOM     50  C   UNL A   1      45.093  29.326  34.037  1.00  0.00     0.029 A 
ATOM     51  N   UNL A   1      44.185  28.308  32.283  1.00  0.00    -0.354 N 
ATOM     52  N   UNL A   1      44.015  26.267  30.186  1.00  0.00    -0.248 NA
ATOM     53  C   UNL A   1      44.971  24.499  28.996  1.00  0.00     0.031 C 
ATOM     54  C   UNL A   1      45.916  28.254  33.672  1.00  0.00     0.029 A 
ATOM     55  C   UNL A   1      45.345  27.615  32.583  1.00  0.00     0.049 A 
ATOM     56  H   UNL A   1      43.565  28.081  31.551  1.00  0.00     0.167 HD
ATOM     57  C   UNL A   1      45.215  25.909  30.789  1.00  0.00     0.074 A 
ATOM     58  C   UNL A   1      45.739  24.786  30.039  1.00  0.00     0.031 C 
ATOM     59  C   UNL A   1      45.833  26.467  31.859  1.00  0.00     0.034 A 
BRANCH  46  60
ATOM     60  C   UNL A   1      42.954  31.466  34.084  1.00  0.00     0.023 A 
ATOM     61  C   UNL A   1      43.594  32.669  33.719  1.00  0.00     0.012 A 
ATOM     62  C   UNL A   1      42.303  31.383  35.331  1.00  0.00     0.148 A 
ATOM     63  C   UNL A   1      43.624  33.754  34.594  1.00  0.00     0.002 A 
ATOM     64  C   UNL A   1      42.299  32.485  36.180  1.00  0.00     0.091 A 
ATOM     65  F   UNL A   1      41.720  30.227  35.674  1.00  0.00    -0.205 F 
ATOM     66  C   UNL A   1      42.969  33.665  35.819  1.00  0.00     0.022 A 
BRANCH  64  67
ATOM     67  S   UNL A   1      41.417  32.490  37.746  1.00  0.00     0.127 S 
ATOM     68  O   UNL A   1      41.441  33.909  38.094  1.00  0.00    -0.237 OA
ATOM     69  O   UNL A   1      40.100  31.978  37.362  1.00  0.00    -0.237 OA
ATOM     70  O   UNL A   1      42.171  31.611  38.628  1.00  0.00    -0.744 OA
ENDBRANCH  64  67
ENDBRANCH  46  60
BRANCH  47  71
ATOM     71  C   UNL A   1      42.680  24.255  27.183  1.00  0.00     0.023 A 
ATOM     72  C   UNL A   1      43.348  24.460  25.960  1.00  0.00     0.012 A 
ATOM     73  C   UNL A   1      42.033  23.028  27.418  1.00  0.00     0.148 A 
ATOM     74  C   UNL A   1      43.349  23.471  24.976  1.00  0.00     0.002 A 
ATOM     75  C   UNL A   1      42.082  22.027  26.453  1.00  0.00     0.091 A 
ATOM     76  F   UNL A   1      41.396  22.858  28.585  1.00  0.00    -0.205 F 
ATOM     77  C   UNL A   1      42.726  22.252  25.226  1.00  0.00     0.022 A 
BRANCH  75  78
ATOM     78  S   UNL A   1      41.416  20.382  26.738  1.00  0.00     0.127 S 
ATOM     79  O   UNL A   1      39.991  20.666  26.915  1.00  0.00    -0.237 OA
ATOM     80  O   UNL A   1      41.754  19.700  25.486  1.00  0.00    -0.237 OA
ATOM     81  O   UNL A   1      42.109  19.873  27.908  1.00  0.00    -0.744 OA
ENDBRANCH  75  78
ENDBRANCH  47  71
BRANCH  59  82
ATOM     82  C   UNL A   1      47.136  25.858  32.307  1.00  0.00     0.023 A 
ATOM     83  C   UNL A   1      48.344  26.274  31.713  1.00  0.00     0.012 A 
ATOM     84  C   UNL A   1      47.171  24.919  33.356  1.00  0.00     0.148 A 
ATOM     85  C   UNL A   1      49.562  25.740  32.133  1.00  0.00     0.002 A 
ATOM     86  C   UNL A   1      48.393  24.427  33.803  1.00  0.00     0.091 A 
ATOM     87  F   UNL A   1      46.010  24.517  33.895  1.00  0.00    -0.205 F 
ATOM     88  C   UNL A   1      49.587  24.827  33.184  1.00  0.00     0.022 A 
BRANCH  86  89
ATOM     89  S   UNL A   1      48.523  23.324  35.214  1.00  0.00     0.127 S 
ATOM     90  O   UNL A   1      47.828  22.133  34.728  1.00  0.00    -0.237 OA
ATOM     91  O   UNL A   1      49.971  23.168  35.356  1.00  0.00    -0.237 OA
ATOM     92  O   UNL A   1      47.881  24.018  36.323  1.00  0.00    -0.744 OA
ENDBRANCH  86  89
ENDBRANCH  59  82
ENDBRANCH  33  34
ENDBRANCH  25  28
ENDBRANCH  23  24
ENDBRANCH  22  23
ENDBRANCH  21  22
ENDBRANCH   1  21
TORSDOF 21
ENDMDL
MODEL 2
REMARK VINA RESULT:      -9.6      2.786      8.344
REMARK SMILES [NH3+][C@@H](CSCc1nccs1)C(=O)NCCCCCCNC(=O)c1ccc(-c2c3nc(c(-c4cccc(S(=O)(=O)[O-])c4F)c4ccc([nH]4)c(-c4cccc(S(=O)(=O)[O-])c4F)c4nc(c(-c5cccc(S(=O)(=O)[O-])c5F)c5ccc2[nH]5)C=C4)C=C3)cc1
REMARK SMILES IDX 16 1 15 2 14 3 13 4 11 5 12 6 2 8 1 9 3 13 4 14 5 15 6 16
REMARK SMILES IDX 7 17 10 18 8 19 9 20 17 21 18 22 19 23 20 24 21 25 22 27
REMARK SMILES IDX 23 28 24 29 85 30 25 31 84 32 26 33 27 34 28 35 78 36 29 37
REMARK SMILES IDX 83 38 77 39 79 40 30 41 82 42 76 43 75 44 31 46 63 47 43 48
REMARK SMILES IDX 62 49 44 50 47 51 61 52 80 53 45 54 46 55 60 57 81 58 48 59
REMARK SMILES IDX 32 60 33 61 41 62 34 63 36 64 42 65 35 66 37 67 38 68 39 69
REMARK SMILES IDX 40 70 64 71 65 72 73 73 66 74 68 75 74 76 67 77 69 78 70 79
REMARK SMILES IDX 71 80 72 81 49 82 50 83 58 84 51 85 53 86 59 87 52 88 54 89
REMARK SMILES IDX 55 90 56 91 57 92
REMARK H PARENT 13 7 1 10 1 11 1 12 20 26 79 45 47 56
REMARK Flexibility Score: inf
ROOT
ATOM      1  C   UNL A   1      33.523  26.471  25.161  1.00  0.00     0.002 C 
ENDROOT
BRANCH   1   2
ATOM      2  C   UNL A   1      33.828  25.588  23.953  1.00  0.00     0.021 C 
BRANCH   2   3
ATOM      3  C   UNL A   1      34.261  24.169  24.285  1.00  0.00     0.116 C 
BRANCH   3   4
ATOM      4  N   UNL A   1      35.636  24.033  24.693  1.00  0.00    -0.351 N 
ATOM      5  C   UNL A   1      36.250  22.973  25.304  1.00  0.00     0.279 C 
ATOM      6  O   UNL A   1      37.486  22.972  25.311  1.00  0.00    -0.268 OA
ATOM      7  H   UNL A   1      36.214  24.807  24.507  1.00  0.00     0.163 HD
BRANCH   5   8
ATOM      8  C   UNL A   1      35.461  21.823  25.989  1.00  0.00     0.280 C 
BRANCH   8   9
ATOM      9  N   UNL A   1      34.772  22.267  27.217  1.00  0.00    -0.347 N 
ATOM     10  H   UNL A   1      35.156  23.163  27.518  1.00  0.00     0.345 HD
ATOM     11  H   UNL A   1      34.909  21.575  27.953  1.00  0.00     0.345 HD
ATOM     12  H   UNL A   1      33.775  22.371  27.029  1.00  0.00     0.345 HD
ENDBRANCH   8   9
BRANCH   8  13
ATOM     13  C   UNL A   1      34.700  20.847  25.062  1.00  0.00     0.145 C 
BRANCH  13  14
ATOM     14  S   UNL A   1      32.879  20.698  25.039  1.00  0.00    -0.148 SA
BRANCH  14  15
ATOM     15  C   UNL A   1      32.576  19.304  23.903  1.00  0.00     0.137 C 
BRANCH  15  16
ATOM     16  C   UNL A   1      32.875  17.947  24.446  1.00  0.00     0.102 A 
ATOM     17  N   UNL A   1      32.156  17.319  25.352  1.00  0.00    -0.249 NA
ATOM     18  S   UNL A   1      34.340  17.153  23.996  1.00  0.00    -0.126 S 
ATOM     19  C   UNL A   1      32.817  16.186  25.774  1.00  0.00     0.123 A 
ATOM     20  C   UNL A   1      34.019  15.932  25.151  1.00  0.00     0.087 A 
ENDBRANCH  15  16
ENDBRANCH  14  15
ENDBRANCH  13  14
ENDBRANCH   8  13
ENDBRANCH   5   8
ENDBRANCH   3   4
ENDBRANCH   2   3
ENDBRANCH   1   2
BRANCH   1  21
ATOM     21  C   UNL A   1      32.040  26.776  25.408  1.00  0.00     0.002 C 
BRANCH  21  22
ATOM     22  C   UNL A   1      31.706  28.187  25.903  1.00  0.00     0.021 C 
BRANCH  22  23
ATOM     23  C   UNL A   1      32.615  29.304  25.395  1.00  0.00     0.116 C 
BRANCH  23  24
ATOM     24  N   UNL A   1      32.189  30.618  25.845  1.00  0.00    -0.352 N 
ATOM     25  C   UNL A   1      32.680  31.411  26.850  1.00  0.00     0.251 C 
ATOM     26  H   UNL A   1      31.427  30.999  25.351  1.00  0.00     0.163 HD
ATOM     27  O   UNL A   1      32.066  32.427  27.170  1.00  0.00    -0.269 OA
BRANCH  25  28
ATOM     28  C   UNL A   1      33.929  31.052  27.558  1.00  0.00     0.039 A 
ATOM     29  C   UNL A   1      34.871  32.056  27.805  1.00  0.00     0.014 A 
ATOM     30  C   UNL A   1      34.198  29.735  27.940  1.00  0.00     0.014 A 
ATOM     31  C   UNL A   1      36.058  31.749  28.474  1.00  0.00     0.010 A 
ATOM     32  C   UNL A   1      35.352  29.443  28.667  1.00  0.00     0.010 A 
ATOM     33  C   UNL A   1      36.298  30.444  28.932  1.00  0.00    -0.014 A 
BRANCH  33  34
ATOM     34  C   UNL A   1      37.528  30.116  29.699  1.00  0.00     0.031 A 
ATOM     35  C   UNL A   1      38.571  29.201  29.117  1.00  0.00     0.074 A 
ATOM     36  C   UNL A   1      37.670  30.584  30.955  1.00  0.00     0.049 A 
ATOM     37  N   UNL A   1      39.696  28.793  29.645  1.00  0.00    -0.248 NA
ATOM     38  C   UNL A   1      38.304  28.649  27.779  1.00  0.00     0.031 C 
ATOM     39  C   UNL A   1      36.693  31.416  31.661  1.00  0.00     0.029 A 
ATOM     40  N   UNL A   1      38.680  30.411  31.868  1.00  0.00    -0.354 N 
ATOM     41  C   UNL A   1      40.251  27.909  28.726  1.00  0.00     0.074 A 
ATOM     42  C   UNL A   1      39.323  27.817  27.620  1.00  0.00     0.031 C 
ATOM     43  C   UNL A   1      37.160  31.696  32.888  1.00  0.00     0.029 A 
ATOM     44  C   UNL A   1      38.454  31.044  33.067  1.00  0.00     0.049 A 
ATOM     45  H   UNL A   1      39.490  29.884  31.680  1.00  0.00     0.167 HD
ATOM     46  C   UNL A   1      41.436  27.255  28.784  1.00  0.00     0.034 A 
ATOM     47  C   UNL A   1      39.206  31.099  34.182  1.00  0.00     0.034 A 
ATOM     48  C   UNL A   1      42.380  27.391  29.862  1.00  0.00     0.049 A 
ATOM     49  C   UNL A   1      40.540  30.402  34.202  1.00  0.00     0.074 A 
ATOM     50  C   UNL A   1      43.654  26.861  29.963  1.00  0.00     0.029 A 
ATOM     51  N   UNL A   1      42.149  28.099  31.031  1.00  0.00    -0.354 N 
ATOM     52  N   UNL A   1      41.127  29.716  33.251  1.00  0.00    -0.248 NA
ATOM     53  C   UNL A   1      41.330  30.517  35.436  1.00  0.00     0.031 C 
ATOM     54  C   UNL A   1      44.184  27.230  31.204  1.00  0.00     0.029 A 
ATOM     55  C   UNL A   1      43.248  28.008  31.867  1.00  0.00     0.049 A 
ATOM     56  H   UNL A   1      41.323  28.594  31.236  1.00  0.00     0.167 HD
ATOM     57  C   UNL A   1      42.369  29.350  33.756  1.00  0.00     0.074 A 
ATOM     58  C   UNL A   1      42.456  29.908  35.091  1.00  0.00     0.031 C 
ATOM     59  C   UNL A   1      43.344  28.609  33.174  1.00  0.00     0.034 A 
BRANCH  46  60
ATOM     60  C   UNL A   1      41.801  26.368  27.621  1.00  0.00     0.023 A 
ATOM     61  C   UNL A   1      42.430  26.926  26.489  1.00  0.00     0.012 A 
ATOM     62  C   UNL A   1      41.563  24.980  27.664  1.00  0.00     0.148 A 
ATOM     63  C   UNL A   1      42.777  26.126  25.401  1.00  0.00     0.002 A 
ATOM     64  C   UNL A   1      41.952  24.182  26.593  1.00  0.00     0.091 A 
ATOM     65  F   UNL A   1      40.943  24.468  28.736  1.00  0.00    -0.205 F 
ATOM     66  C   UNL A   1      42.547  24.754  25.457  1.00  0.00     0.022 A 
BRANCH  64  67
ATOM     67  S   UNL A   1      41.765  22.395  26.608  1.00  0.00     0.127 S 
ATOM     68  O   UNL A   1      42.382  22.044  27.886  1.00  0.00    -0.237 OA
ATOM     69  O   UNL A   1      40.311  22.234  26.568  1.00  0.00    -0.237 OA
ATOM     70  O   UNL A   1      42.457  21.914  25.420  1.00  0.00    -0.744 OA
ENDBRANCH  64  67
ENDBRANCH  46  60
BRANCH  47  71
ATOM     71  C   UNL A   1      38.760  31.924  35.340  1.00  0.00     0.023 A 
ATOM     72  C   UNL A   1      38.858  33.327  35.256  1.00  0.00     0.012 A 
ATOM     73  C   UNL A   1      38.211  31.340  36.497  1.00  0.00     0.148 A 
ATOM     74  C   UNL A   1      38.442  34.134  36.315  1.00  0.00     0.002 A 
ATOM     75  C   UNL A   1      37.751  32.153  37.528  1.00  0.00     0.091 A 
ATOM     76  F   UNL A   1      38.136  30.004  36.560  1.00  0.00    -0.205 F 
ATOM     77  C   UNL A   1      37.880  33.549  37.446  1.00  0.00     0.022 A 
BRANCH  75  78
ATOM     78  S   UNL A   1      36.899  31.494  38.966  1.00  0.00     0.127 S 
ATOM     79  O   UNL A   1      35.662  32.275  38.962  1.00  0.00    -0.237 OA
ATOM     80  O   UNL A   1      36.736  30.085  38.599  1.00  0.00    -0.237 OA
ATOM     81  O   UNL A   1      37.789  31.723  40.091  1.00  0.00    -0.744 OA
ENDBRANCH  75  78
ENDBRANCH  47  71
BRANCH  59  82
ATOM     82  C   UNL A   1      44.608  28.377  33.962  1.00  0.00     0.023 A 
ATOM     83  C   UNL A   1      45.678  29.286  33.852  1.00  0.00     0.012 A 
ATOM     84  C   UNL A   1      44.711  27.293  34.856  1.00  0.00     0.148 A 
ATOM     85  C   UNL A   1      46.845  29.101  34.593  1.00  0.00     0.002 A 
ATOM     86  C   UNL A   1      45.858  27.143  35.628  1.00  0.00     0.091 A 
ATOM     87  F   UNL A   1      43.691  26.425  34.932  1.00  0.00    -0.205 F 
ATOM     88  C   UNL A   1      46.930  28.038  35.488  1.00  0.00     0.022 A 
BRANCH  86  89
ATOM     89  S   UNL A   1      46.011  25.860  36.875  1.00  0.00     0.127 S 
ATOM     90  O   UNL A   1      44.991  26.259  37.842  1.00  0.00    -0.237 OA
ATOM     91  O   UNL A   1      45.691  24.648  36.118  1.00  0.00    -0.237 OA
ATOM     92  O   UNL A   1      47.387  25.927  37.348  1.00  0.00    -0.744 OA
ENDBRANCH  86  89
ENDBRANCH  59  82
ENDBRANCH  33  34
ENDBRANCH  25  28
ENDBRANCH  23  24
ENDBRANCH  22  23
ENDBRANCH  21  22
ENDBRANCH   1  21
TORSDOF 21
ENDMDL
MODEL 3
REMARK VINA RESULT:      -9.6      5.050      9.855
REMARK SMILES [NH3+][C@@H](CSCc1nccs1)C(=O)NCCCCCCNC(=O)c1ccc(-c2c3nc(c(-c4cccc(S(=O)(=O)[O-])c4F)c4ccc([nH]4)c(-c4cccc(S(=O)(=O)[O-])c4F)c4nc(c(-c5cccc(S(=O)(=O)[O-])c5F)c5ccc2[nH]5)C=C4)C=C3)cc1
REMARK SMILES IDX 16 1 15 2 14 3 13 4 11 5 12 6 2 8 1 9 3 13 4 14 5 15 6 16
REMARK SMILES IDX 7 17 10 18 8 19 9 20 17 21 18 22 19 23 20 24 21 25 22 27
REMARK SMILES IDX 23 28 24 29 85 30 25 31 84 32 26 33 27 34 28 35 78 36 29 37
REMARK SMILES IDX 83 38 77 39 79 40 30 41 82 42 76 43 75 44 31 46 63 47 43 48
REMARK SMILES IDX 62 49 44 50 47 51 61 52 80 53 45 54 46 55 60 57 81 58 48 59
REMARK SMILES IDX 32 60 33 61 41 62 34 63 36 64 42 65 35 66 37 67 38 68 39 69
REMARK SMILES IDX 40 70 64 71 65 72 73 73 66 74 68 75 74 76 67 77 69 78 70 79
REMARK SMILES IDX 71 80 72 81 49 82 50 83 58 84 51 85 53 86 59 87 52 88 54 89
REMARK SMILES IDX 55 90 56 91 57 92
REMARK H PARENT 13 7 1 10 1 11 1 12 20 26 79 45 47 56
REMARK Flexibility Score: inf
ROOT
ATOM      1  C   UNL A   1      35.029  23.504  26.276  1.00  0.00     0.002 C 
ENDROOT
BRANCH   1   2
ATOM      2  C   UNL A   1      33.767  24.336  26.059  1.00  0.00     0.021 C 
BRANCH   2   3
ATOM      3  C   UNL A   1      33.863  25.376  24.954  1.00  0.00     0.116 C 
BRANCH   3   4
ATOM      4  N   UNL A   1      33.630  24.874  23.624  1.00  0.00    -0.351 N 
ATOM      5  C   UNL A   1      33.333  25.569  22.484  1.00  0.00     0.279 C 
ATOM      6  O   UNL A   1      33.445  24.961  21.414  1.00  0.00    -0.268 OA
ATOM      7  H   UNL A   1      33.694  23.897  23.521  1.00  0.00     0.163 HD
BRANCH   5   8
ATOM      8  C   UNL A   1      32.849  27.045  22.498  1.00  0.00     0.280 C 
BRANCH   8   9
ATOM      9  N   UNL A   1      33.787  27.952  21.806  1.00  0.00    -0.347 N 
ATOM     10  H   UNL A   1      33.893  27.656  20.836  1.00  0.00     0.345 HD
ATOM     11  H   UNL A   1      34.694  27.923  22.271  1.00  0.00     0.345 HD
ATOM     12  H   UNL A   1      33.422  28.905  21.832  1.00  0.00     0.345 HD
ENDBRANCH   8   9
BRANCH   8  13
ATOM     13  C   UNL A   1      31.338  27.288  22.280  1.00  0.00     0.145 C 
BRANCH  13  14
ATOM     14  S   UNL A   1      30.178  27.685  23.635  1.00  0.00    -0.148 SA
BRANCH  14  15
ATOM     15  C   UNL A   1      30.817  29.256  24.304  1.00  0.00     0.137 C 
BRANCH  15  16
ATOM     16  C   UNL A   1      31.862  29.134  25.362  1.00  0.00     0.102 A 
ATOM     17  N   UNL A   1      33.020  29.757  25.357  1.00  0.00    -0.249 NA
ATOM     18  S   UNL A   1      31.650  27.993  26.640  1.00  0.00    -0.126 S 
ATOM     19  C   UNL A   1      33.821  29.268  26.367  1.00  0.00     0.123 A 
ATOM     20  C   UNL A   1      33.248  28.305  27.167  1.00  0.00     0.087 A 
ENDBRANCH  15  16
ENDBRANCH  14  15
ENDBRANCH  13  14
ENDBRANCH   8  13
ENDBRANCH   5   8
ENDBRANCH   3   4
ENDBRANCH   2   3
ENDBRANCH   1   2
BRANCH   1  21
ATOM     21  C   UNL A   1      35.026  22.107  25.643  1.00  0.00     0.002 C 
BRANCH  21  22
ATOM     22  C   UNL A   1      36.047  21.860  24.528  1.00  0.00     0.021 C 
BRANCH  22  23
ATOM     23  C   UNL A   1      37.477  22.308  24.823  1.00  0.00     0.116 C 
BRANCH  23  24
ATOM     24  N   UNL A   1      38.241  21.301  25.539  1.00  0.00    -0.352 N 
ATOM     25  C   UNL A   1      39.341  21.433  26.347  1.00  0.00     0.251 C 
ATOM     26  H   UNL A   1      37.918  20.378  25.425  1.00  0.00     0.163 HD
ATOM     27  O   UNL A   1      39.932  20.424  26.728  1.00  0.00    -0.269 OA
BRANCH  25  28
ATOM     28  C   UNL A   1      39.828  22.769  26.752  1.00  0.00     0.039 A 
ATOM     29  C   UNL A   1      40.838  22.850  27.717  1.00  0.00     0.014 A 
ATOM     30  C   UNL A   1      39.275  23.939  26.224  1.00  0.00     0.014 A 
ATOM     31  C   UNL A   1      41.322  24.097  28.117  1.00  0.00     0.010 A 
ATOM     32  C   UNL A   1      39.805  25.180  26.575  1.00  0.00     0.010 A 
ATOM     33  C   UNL A   1      40.826  25.273  27.532  1.00  0.00    -0.014 A 
BRANCH  33  34
ATOM     34  C   UNL A   1      41.373  26.603  27.903  1.00  0.00     0.031 A 
ATOM     35  C   UNL A   1      42.805  26.953  27.600  1.00  0.00     0.074 A 
ATOM     36  C   UNL A   1      40.598  27.472  28.582  1.00  0.00     0.049 A 
ATOM     37  N   UNL A   1      43.457  28.057  27.863  1.00  0.00    -0.248 NA
ATOM     38  C   UNL A   1      43.621  25.920  26.943  1.00  0.00     0.031 C 
ATOM     39  C   UNL A   1      39.218  27.221  29.004  1.00  0.00     0.029 A 
ATOM     40  N   UNL A   1      40.866  28.733  29.055  1.00  0.00    -0.354 N 
ATOM     41  C   UNL A   1      44.764  27.838  27.441  1.00  0.00     0.074 A 
ATOM     42  C   UNL A   1      44.819  26.485  26.933  1.00  0.00     0.031 C 
ATOM     43  C   UNL A   1      38.755  28.300  29.656  1.00  0.00     0.029 A 
ATOM     44  C   UNL A   1      39.810  29.307  29.723  1.00  0.00     0.049 A 
ATOM     45  H   UNL A   1      41.733  29.182  28.928  1.00  0.00     0.167 HD
ATOM     46  C   UNL A   1      45.814  28.694  27.450  1.00  0.00     0.034 A 
ATOM     47  C   UNL A   1      39.701  30.511  30.315  1.00  0.00     0.034 A 
ATOM     48  C   UNL A   1      45.741  30.056  27.907  1.00  0.00     0.049 A 
ATOM     49  C   UNL A   1      40.868  31.459  30.269  1.00  0.00     0.074 A 
ATOM     50  C   UNL A   1      46.716  31.036  27.854  1.00  0.00     0.029 A 
ATOM     51  N   UNL A   1      44.633  30.628  28.512  1.00  0.00    -0.354 N 
ATOM     52  N   UNL A   1      42.042  31.298  29.706  1.00  0.00    -0.248 NA
ATOM     53  C   UNL A   1      40.684  32.769  30.910  1.00  0.00     0.031 C 
ATOM     54  C   UNL A   1      46.204  32.195  28.449  1.00  0.00     0.029 A 
ATOM     55  C   UNL A   1      44.903  31.942  28.853  1.00  0.00     0.049 A 
ATOM     56  H   UNL A   1      43.778  30.167  28.676  1.00  0.00     0.167 HD
ATOM     57  C   UNL A   1      42.721  32.496  29.890  1.00  0.00     0.074 A 
ATOM     58  C   UNL A   1      41.820  33.381  30.600  1.00  0.00     0.031 C 
ATOM     59  C   UNL A   1      43.981  32.830  29.516  1.00  0.00     0.034 A 
BRANCH  46  60
ATOM     60  C   UNL A   1      47.126  28.192  26.902  1.00  0.00     0.023 A 
ATOM     61  C   UNL A   1      48.170  27.857  27.788  1.00  0.00     0.012 A 
ATOM     62  C   UNL A   1      47.313  28.011  25.518  1.00  0.00     0.148 A 
ATOM     63  C   UNL A   1      49.392  27.391  27.306  1.00  0.00     0.002 A 
ATOM     64  C   UNL A   1      48.519  27.504  25.046  1.00  0.00     0.091 A 
ATOM     65  F   UNL A   1      46.320  28.357  24.686  1.00  0.00    -0.205 F 
ATOM     66  C   UNL A   1      49.563  27.205  25.937  1.00  0.00     0.022 A 
BRANCH  64  67
ATOM     67  S   UNL A   1      48.804  27.160  23.306  1.00  0.00     0.127 S 
ATOM     68  O   UNL A   1      50.255  26.985  23.273  1.00  0.00    -0.237 OA
ATOM     69  O   UNL A   1      48.037  25.929  23.103  1.00  0.00    -0.237 OA
ATOM     70  O   UNL A   1      48.291  28.315  22.584  1.00  0.00    -0.744 OA
ENDBRANCH  64  67
ENDBRANCH  46  60
BRANCH  47  71
ATOM     71  C   UNL A   1      38.403  30.927  30.919  1.00  0.00     0.023 A 
ATOM     72  C   UNL A   1      38.183  30.694  32.291  1.00  0.00     0.012 A 
ATOM     73  C   UNL A   1      37.411  31.579  30.163  1.00  0.00     0.148 A 
ATOM     74  C   UNL A   1      36.985  31.078  32.894  1.00  0.00     0.002 A 
ATOM     75  C   UNL A   1      36.240  32.004  30.782  1.00  0.00     0.091 A 
ATOM     76  F   UNL A   1      37.637  31.782  28.858  1.00  0.00    -0.205 F 
ATOM     77  C   UNL A   1      36.019  31.741  32.143  1.00  0.00     0.022 A 
BRANCH  75  78
ATOM     78  S   UNL A   1      34.996  32.976  29.924  1.00  0.00     0.127 S 
ATOM     79  O   UNL A   1      34.093  33.334  31.018  1.00  0.00    -0.237 OA
ATOM     80  O   UNL A   1      35.792  34.088  29.399  1.00  0.00    -0.237 OA
ATOM     81  O   UNL A   1      34.442  32.099  28.908  1.00  0.00    -0.744 OA
ENDBRANCH  75  78
ENDBRANCH  47  71
BRANCH  59  82
ATOM     82  C   UNL A   1      44.458  34.222  29.841  1.00  0.00     0.023 A 
ATOM     83  C   UNL A   1      45.172  34.457  31.032  1.00  0.00     0.012 A 
ATOM     84  C   UNL A   1      44.252  35.284  28.938  1.00  0.00     0.148 A 
ATOM     85  C   UNL A   1      45.644  35.733  31.337  1.00  0.00     0.002 A 
ATOM     86  C   UNL A   1      44.768  36.543  29.225  1.00  0.00     0.091 A 
ATOM     87  F   UNL A   1      43.551  35.048  27.819  1.00  0.00    -0.205 F 
ATOM     88  C   UNL A   1      45.453  36.772  30.429  1.00  0.00     0.022 A 
BRANCH  86  89
ATOM     89  S   UNL A   1      44.653  37.912  28.068  1.00  0.00     0.127 S 
ATOM     90  O   UNL A   1      45.343  38.976  28.794  1.00  0.00    -0.237 OA
ATOM     91  O   UNL A   1      45.376  37.400  26.904  1.00  0.00    -0.237 OA
ATOM     92  O   UNL A   1      43.229  38.125  27.844  1.00  0.00    -0.744 OA
ENDBRANCH  86  89
ENDBRANCH  59  82
ENDBRANCH  33  34
ENDBRANCH  25  28
ENDBRANCH  23  24
ENDBRANCH  22  23
ENDBRANCH  21  22
ENDBRANCH   1  21
TORSDOF 21
ENDMDL
