MODEL 1
REMARK VINA RESULT:     -12.7      0.000      0.000
REMARK SMILES O=C(NCCCCCCNC(=O)c1ccc(-c2c3nc(c(-c4cccc(S(=O)(=O)[O-])c4F)c4ccc([nH]4)c(-c4cccc(S(=O)(=O)[O-])c4F)c4nc(c(-c5cccc(S(=O)(=O)[O-])c5F)c5ccc2[nH]5)C=C4)C=C3)cc1)C1=Cc2cc(Cl)cc(-c3ccc(Cl)cc3)c2O[C@@H]1C(F)(F)F
REMARK SMILES IDX 7 1 6 2 5 3 4 4 3 5 1 6 2 7 76 9 77 10 93 11 78 12 92 13
REMARK SMILES IDX 79 14 91 15 80 16 83 17 81 18 82 19 94 20 95 21 96 22 97 23
REMARK SMILES IDX 84 24 85 25 90 26 86 27 89 28 87 29 88 30 8 31 9 32 10 33
REMARK SMILES IDX 11 34 12 36 13 37 14 38 75 39 15 40 74 41 16 42 17 43 18 44
REMARK SMILES IDX 68 45 19 46 73 47 67 48 69 49 20 50 72 51 66 52 65 53 21 55
REMARK SMILES IDX 53 56 33 57 52 58 34 59 37 60 51 61 70 62 35 63 36 64 50 66
REMARK SMILES IDX 71 67 38 68 22 69 23 70 31 71 24 72 26 73 32 74 25 75 27 76
REMARK SMILES IDX 28 77 29 78 30 79 54 80 55 81 63 82 56 83 58 84 64 85 57 86
REMARK SMILES IDX 59 87 60 88 61 89 62 90 39 91 40 92 48 93 41 94 43 95 49 96
REMARK SMILES IDX 42 97 44 98 45 99 46 100 47 101
REMARK H PARENT 3 8 10 35 69 54 37 65
REMARK Flexibility Score: inf
ROOT
ATOM      1  C   UNL A   1      32.315  29.117  24.109  1.00  0.00     0.002 C 
ENDROOT
BRANCH   1   2
ATOM      2  C   UNL A   1      31.167  28.102  24.163  1.00  0.00     0.002 C 
BRANCH   2   3
ATOM      3  C   UNL A   1      30.779  27.574  25.548  1.00  0.00     0.021 C 
BRANCH   3   4
ATOM      4  C   UNL A   1      30.089  26.208  25.595  1.00  0.00     0.116 C 
BRANCH   4   5
ATOM      5  N   UNL A   1      30.624  25.285  26.594  1.00  0.00    -0.352 N 
ATOM      6  O   UNL A   1      32.107  23.902  27.574  1.00  0.00    -0.270 OA
ATOM      7  C   UNL A   1      31.750  24.494  26.558  1.00  0.00     0.251 C 
ATOM      8  H   UNL A   1      30.096  25.218  27.421  1.00  0.00     0.163 HD
BRANCH   7   9
ATOM      9  C   UNL A   1      32.646  24.523  25.369  1.00  0.00     0.067 C 
ATOM     10  C   UNL A   1      33.918  24.943  25.360  1.00  0.00     0.025 C 
ATOM     11  C   UNL A   1      32.257  23.577  24.274  1.00  0.00     0.314 C 
ATOM     12  C   UNL A   1      34.879  23.848  25.122  1.00  0.00     0.019 A 
ATOM     13  O   UNL A   1      33.088  22.397  24.309  1.00  0.00    -0.475 OA
ATOM     14  C   UNL A   1      36.185  23.980  25.609  1.00  0.00     0.032 A 
ATOM     15  C   UNL A   1      34.392  22.576  24.731  1.00  0.00     0.135 A 
ATOM     16  C   UNL A   1      36.983  22.848  25.740  1.00  0.00     0.042 A 
ATOM     17  C   UNL A   1      35.175  21.419  24.921  1.00  0.00     0.026 A 
ATOM     18  Cl  UNL A   1      38.525  22.981  26.492  1.00  0.00    -0.084 Cl
ATOM     19  C   UNL A   1      36.490  21.588  25.402  1.00  0.00     0.033 A 
BRANCH  11  20
ATOM     20  C   UNL A   1      32.281  24.295  22.902  1.00  0.00     0.429 C 
ATOM     21  F   UNL A   1      33.041  25.414  22.940  1.00  0.00    -0.167 F 
ATOM     22  F   UNL A   1      32.810  23.500  21.935  1.00  0.00    -0.167 F 
ATOM     23  F   UNL A   1      31.052  24.665  22.468  1.00  0.00    -0.167 F 
ENDBRANCH  11  20
BRANCH  17  24
ATOM     24  C   UNL A   1      34.609  20.055  24.854  1.00  0.00    -0.015 A 
ATOM     25  C   UNL A   1      35.471  18.973  24.593  1.00  0.00     0.010 A 
ATOM     26  C   UNL A   1      33.255  19.766  25.058  1.00  0.00     0.010 A 
ATOM     27  C   UNL A   1      35.019  17.656  24.528  1.00  0.00     0.021 A 
ATOM     28  C   UNL A   1      32.788  18.444  24.985  1.00  0.00     0.021 A 
ATOM     29  C   UNL A   1      33.670  17.398  24.719  1.00  0.00     0.041 A 
ATOM     30  Cl  UNL A   1      33.094  15.779  24.627  1.00  0.00    -0.084 Cl
ENDBRANCH  17  24
ENDBRANCH   7   9
ENDBRANCH   4   5
ENDBRANCH   3   4
ENDBRANCH   2   3
ENDBRANCH   1   2
BRANCH   1  31
ATOM     31  C   UNL A   1      33.697  28.611  24.529  1.00  0.00     0.021 C 
BRANCH  31  32
ATOM     32  C   UNL A   1      34.014  28.683  26.016  1.00  0.00     0.116 C 
BRANCH  32  33
ATOM     33  N   UNL A   1      33.882  30.039  26.525  1.00  0.00    -0.352 N 
ATOM     34  C   UNL A   1      34.577  30.705  27.506  1.00  0.00     0.251 C 
ATOM     35  H   UNL A   1      33.175  30.571  26.093  1.00  0.00     0.163 HD
ATOM     36  O   UNL A   1      34.113  31.756  27.945  1.00  0.00    -0.269 OA
BRANCH  34  37
ATOM     37  C   UNL A   1      35.863  30.191  28.041  1.00  0.00     0.039 A 
ATOM     38  C   UNL A   1      37.006  30.259  27.235  1.00  0.00     0.014 A 
ATOM     39  C   UNL A   1      35.945  29.573  29.290  1.00  0.00     0.014 A 
ATOM     40  C   UNL A   1      38.224  29.745  27.694  1.00  0.00     0.010 A 
ATOM     41  C   UNL A   1      37.178  29.157  29.788  1.00  0.00     0.010 A 
ATOM     42  C   UNL A   1      38.326  29.208  28.988  1.00  0.00    -0.014 A 
BRANCH  42  43
ATOM     43  C   UNL A   1      39.606  28.661  29.512  1.00  0.00     0.031 A 
ATOM     44  C   UNL A   1      40.330  29.371  30.629  1.00  0.00     0.074 A 
ATOM     45  C   UNL A   1      40.169  27.587  28.925  1.00  0.00     0.049 A 
ATOM     46  N   UNL A   1      41.500  29.112  31.153  1.00  0.00    -0.248 NA
ATOM     47  C   UNL A   1      39.666  30.551  31.211  1.00  0.00     0.031 C 
ATOM     48  C   UNL A   1      39.615  26.862  27.779  1.00  0.00     0.029 A 
ATOM     49  N   UNL A   1      41.349  26.937  29.188  1.00  0.00    -0.354 N 
ATOM     50  C   UNL A   1      41.732  30.118  32.085  1.00  0.00     0.074 A 
ATOM     51  C   UNL A   1      40.601  31.017  32.025  1.00  0.00     0.031 C 
ATOM     52  C   UNL A   1      40.454  25.871  27.438  1.00  0.00     0.029 A 
ATOM     53  C   UNL A   1      41.617  25.907  28.317  1.00  0.00     0.049 A 
ATOM     54  H   UNL A   1      41.947  27.186  29.930  1.00  0.00     0.167 HD
ATOM     55  C   UNL A   1      42.771  30.264  32.942  1.00  0.00     0.034 A 
ATOM     56  C   UNL A   1      42.684  25.087  28.230  1.00  0.00     0.034 A 
ATOM     57  C   UNL A   1      43.865  29.337  33.041  1.00  0.00     0.049 A 
ATOM     58  C   UNL A   1      43.796  25.226  29.234  1.00  0.00     0.074 A 
ATOM     59  C   UNL A   1      44.920  29.340  33.936  1.00  0.00     0.029 A 
ATOM     60  N   UNL A   1      44.043  28.236  32.216  1.00  0.00    -0.354 N 
ATOM     61  N   UNL A   1      43.922  26.095  30.208  1.00  0.00    -0.248 NA
ATOM     62  C   UNL A   1      44.890  24.250  29.154  1.00  0.00     0.031 C 
ATOM     63  C   UNL A   1      45.746  28.249  33.642  1.00  0.00     0.029 A 
ATOM     64  C   UNL A   1      45.192  27.553  32.578  1.00  0.00     0.049 A 
ATOM     65  H   UNL A   1      43.442  27.978  31.481  1.00  0.00     0.167 HD
ATOM     66  C   UNL A   1      45.093  25.753  30.876  1.00  0.00     0.074 A 
ATOM     67  C   UNL A   1      45.625  24.582  30.208  1.00  0.00     0.031 C 
ATOM     68  C   UNL A   1      45.682  26.361  31.935  1.00  0.00     0.034 A 
BRANCH  55  69
ATOM     69  C   UNL A   1      42.736  31.439  33.888  1.00  0.00     0.023 A 
ATOM     70  C   UNL A   1      43.285  32.674  33.481  1.00  0.00     0.012 A 
ATOM     71  C   UNL A   1      42.135  31.340  35.158  1.00  0.00     0.148 A 
ATOM     72  C   UNL A   1      43.280  33.775  34.336  1.00  0.00     0.002 A 
ATOM     73  C   UNL A   1      42.092  32.456  35.988  1.00  0.00     0.091 A 
ATOM     74  F   UNL A   1      41.637  30.156  35.540  1.00  0.00    -0.205 F 
ATOM     75  C   UNL A   1      42.676  33.667  35.585  1.00  0.00     0.022 A 
BRANCH  73  76
ATOM     76  S   UNL A   1      41.265  32.444  37.584  1.00  0.00     0.127 S 
ATOM     77  O   UNL A   1      42.108  31.525  38.345  1.00  0.00    -0.237 OA
ATOM     78  O   UNL A   1      41.366  33.845  37.994  1.00  0.00    -0.237 OA
ATOM     79  O   UNL A   1      39.907  31.985  37.327  1.00  0.00    -0.744 OA
ENDBRANCH  73  76
ENDBRANCH  55  69
BRANCH  56  80
ATOM     80  C   UNL A   1      42.710  24.021  27.189  1.00  0.00     0.023 A 
ATOM     81  C   UNL A   1      43.403  24.248  25.984  1.00  0.00     0.012 A 
ATOM     82  C   UNL A   1      42.104  22.769  27.408  1.00  0.00     0.148 A 
ATOM     83  C   UNL A   1      43.469  23.256  25.004  1.00  0.00     0.002 A 
ATOM     84  C   UNL A   1      42.221  21.766  26.452  1.00  0.00     0.091 A 
ATOM     85  F   UNL A   1      41.441  22.577  28.557  1.00  0.00    -0.205 F 
ATOM     86  C   UNL A   1      42.889  22.013  25.242  1.00  0.00     0.022 A 
BRANCH  84  87
ATOM     87  S   UNL A   1      41.628  20.094  26.729  1.00  0.00     0.127 S 
ATOM     88  O   UNL A   1      42.393  19.695  27.905  1.00  0.00    -0.237 OA
ATOM     89  O   UNL A   1      40.202  20.312  26.962  1.00  0.00    -0.237 OA
ATOM     90  O   UNL A   1      41.929  19.362  25.500  1.00  0.00    -0.744 OA
ENDBRANCH  84  87
ENDBRANCH  56  80
BRANCH  68  91
ATOM     91  C   UNL A   1      46.957  25.760  32.464  1.00  0.00     0.023 A 
ATOM     92  C   UNL A   1      46.917  24.907  33.584  1.00  0.00     0.012 A 
ATOM     93  C   UNL A   1      48.182  25.977  31.803  1.00  0.00     0.148 A 
ATOM     94  C   UNL A   1      48.081  24.304  34.058  1.00  0.00     0.002 A 
ATOM     95  C   UNL A   1      49.329  25.334  32.250  1.00  0.00     0.091 A 
ATOM     96  F   UNL A   1      48.202  26.807  30.749  1.00  0.00    -0.205 F 
ATOM     97  C   UNL A   1      49.283  24.507  33.385  1.00  0.00     0.022 A 
BRANCH  95  98
ATOM     98  S   UNL A   1      50.901  25.460  31.389  1.00  0.00     0.127 S 
ATOM     99  O   UNL A   1      51.716  24.486  32.112  1.00  0.00    -0.237 OA
ATOM    100  O   UNL A   1      50.541  25.063  30.027  1.00  0.00    -0.237 OA
ATOM    101  O   UNL A   1      51.320  26.849  31.522  1.00  0.00    -0.744 OA
ENDBRANCH  95  98
ENDBRANCH  68  91
ENDBRANCH  42  43
ENDBRANCH  34  37
ENDBRANCH  32  33
ENDBRANCH  31  32
ENDBRANCH   1  31
TORSDOF 18
ENDMDL
MODEL 2
REMARK VINA RESULT:     -12.6      2.530      7.609
REMARK SMILES O=C(NCCCCCCNC(=O)c1ccc(-c2c3nc(c(-c4cccc(S(=O)(=O)[O-])c4F)c4ccc([nH]4)c(-c4cccc(S(=O)(=O)[O-])c4F)c4nc(c(-c5cccc(S(=O)(=O)[O-])c5F)c5ccc2[nH]5)C=C4)C=C3)cc1)C1=Cc2cc(Cl)cc(-c3ccc(Cl)cc3)c2O[C@@H]1C(F)(F)F
REMARK SMILES IDX 7 1 6 2 5 3 4 4 3 5 1 6 2 7 76 9 77 10 93 11 78 12 92 13
REMARK SMILES IDX 79 14 91 15 80 16 83 17 81 18 82 19 94 20 95 21 96 22 97 23
REMARK SMILES IDX 84 24 85 25 90 26 86 27 89 28 87 29 88 30 8 31 9 32 10 33
REMARK SMILES IDX 11 34 12 36 13 37 14 38 75 39 15 40 74 41 16 42 17 43 18 44
REMARK SMILES IDX 68 45 19 46 73 47 67 48 69 49 20 50 72 51 66 52 65 53 21 55
REMARK SMILES IDX 53 56 33 57 52 58 34 59 37 60 51 61 70 62 35 63 36 64 50 66
REMARK SMILES IDX 71 67 38 68 22 69 23 70 31 71 24 72 26 73 32 74 25 75 27 76
REMARK SMILES IDX 28 77 29 78 30 79 54 80 55 81 63 82 56 83 58 84 64 85 57 86
REMARK SMILES IDX 59 87 60 88 61 89 62 90 39 91 40 92 48 93 41 94 43 95 49 96
REMARK SMILES IDX 42 97 44 98 45 99 46 100 47 101
REMARK H PARENT 3 8 10 35 69 54 37 65
REMARK Flexibility Score: inf
ROOT
ATOM      1  C   UNL A   1      32.117  27.327  23.844  1.00  0.00     0.002 C 
ENDROOT
BRANCH   1   2
ATOM      2  C   UNL A   1      30.732  26.802  24.241  1.00  0.00     0.002 C 
BRANCH   2   3
ATOM      3  C   UNL A   1      30.530  26.435  25.715  1.00  0.00     0.021 C 
BRANCH   3   4
ATOM      4  C   UNL A   1      29.887  25.075  26.005  1.00  0.00     0.116 C 
BRANCH   4   5
ATOM      5  N   UNL A   1      30.612  24.247  26.966  1.00  0.00    -0.352 N 
ATOM      6  O   UNL A   1      32.286  22.985  27.788  1.00  0.00    -0.270 OA
ATOM      7  C   UNL A   1      31.748  23.487  26.805  1.00  0.00     0.251 C 
ATOM      8  H   UNL A   1      30.226  24.230  27.871  1.00  0.00     0.163 HD
BRANCH   7   9
ATOM      9  C   UNL A   1      32.440  23.448  25.487  1.00  0.00     0.067 C 
ATOM     10  C   UNL A   1      33.694  23.856  25.251  1.00  0.00     0.025 C 
ATOM     11  C   UNL A   1      31.878  22.453  24.518  1.00  0.00     0.314 C 
ATOM     12  C   UNL A   1      34.603  22.742  24.917  1.00  0.00     0.019 A 
ATOM     13  O   UNL A   1      32.703  21.269  24.477  1.00  0.00    -0.475 OA
ATOM     14  C   UNL A   1      35.970  22.886  25.179  1.00  0.00     0.032 A 
ATOM     15  C   UNL A   1      34.057  21.457  24.674  1.00  0.00     0.135 A 
ATOM     16  C   UNL A   1      36.778  21.755  25.237  1.00  0.00     0.042 A 
ATOM     17  C   UNL A   1      34.859  20.304  24.793  1.00  0.00     0.026 A 
ATOM     18  Cl  UNL A   1      38.422  21.911  25.723  1.00  0.00    -0.084 Cl
ATOM     19  C   UNL A   1      36.235  20.484  25.046  1.00  0.00     0.033 A 
BRANCH  11  20
ATOM     20  C   UNL A   1      31.680  23.102  23.125  1.00  0.00     0.429 C 
ATOM     21  F   UNL A   1      32.004  22.246  22.128  1.00  0.00    -0.167 F 
ATOM     22  F   UNL A   1      30.384  23.459  22.923  1.00  0.00    -0.167 F 
ATOM     23  F   UNL A   1      32.422  24.222  22.944  1.00  0.00    -0.167 F 
ENDBRANCH  11  20
BRANCH  17  24
ATOM     24  C   UNL A   1      34.289  18.943  24.887  1.00  0.00    -0.015 A 
ATOM     25  C   UNL A   1      33.118  18.747  25.645  1.00  0.00     0.010 A 
ATOM     26  C   UNL A   1      34.835  17.827  24.244  1.00  0.00     0.010 A 
ATOM     27  C   UNL A   1      32.511  17.499  25.772  1.00  0.00     0.021 A 
ATOM     28  C   UNL A   1      34.237  16.564  24.373  1.00  0.00     0.021 A 
ATOM     29  C   UNL A   1      33.081  16.406  25.136  1.00  0.00     0.041 A 
ATOM     30  Cl  UNL A   1      32.351  14.856  25.295  1.00  0.00    -0.084 Cl
ENDBRANCH  17  24
ENDBRANCH   7   9
ENDBRANCH   4   5
ENDBRANCH   3   4
ENDBRANCH   2   3
ENDBRANCH   1   2
BRANCH   1  31
ATOM     31  C   UNL A   1      33.073  27.671  24.989  1.00  0.00     0.021 C 
BRANCH  31  32
ATOM     32  C   UNL A   1      33.780  29.015  24.891  1.00  0.00     0.116 C 
BRANCH  32  33
ATOM     33  N   UNL A   1      33.018  30.068  25.542  1.00  0.00    -0.352 N 
ATOM     34  C   UNL A   1      33.211  30.712  26.741  1.00  0.00     0.251 C 
ATOM     35  H   UNL A   1      32.227  30.372  25.039  1.00  0.00     0.163 HD
ATOM     36  O   UNL A   1      32.289  31.380  27.206  1.00  0.00    -0.269 OA
BRANCH  34  37
ATOM     37  C   UNL A   1      34.496  30.621  27.479  1.00  0.00     0.039 A 
ATOM     38  C   UNL A   1      35.284  31.772  27.610  1.00  0.00     0.014 A 
ATOM     39  C   UNL A   1      34.975  29.407  27.976  1.00  0.00     0.014 A 
ATOM     40  C   UNL A   1      36.520  31.709  28.264  1.00  0.00     0.010 A 
ATOM     41  C   UNL A   1      36.153  29.367  28.718  1.00  0.00     0.010 A 
ATOM     42  C   UNL A   1      36.956  30.508  28.845  1.00  0.00    -0.014 A 
BRANCH  42  43
ATOM     43  C   UNL A   1      38.259  30.407  29.556  1.00  0.00     0.031 A 
ATOM     44  C   UNL A   1      39.386  29.602  28.958  1.00  0.00     0.074 A 
ATOM     45  C   UNL A   1      38.402  30.954  30.778  1.00  0.00     0.049 A 
ATOM     46  N   UNL A   1      40.556  29.311  29.465  1.00  0.00    -0.248 NA
ATOM     47  C   UNL A   1      39.152  29.015  27.626  1.00  0.00     0.031 C 
ATOM     48  C   UNL A   1      37.360  31.683  31.506  1.00  0.00     0.029 A 
ATOM     49  N   UNL A   1      39.469  30.954  31.642  1.00  0.00    -0.354 N 
ATOM     50  C   UNL A   1      41.175  28.474  28.543  1.00  0.00     0.074 A 
ATOM     51  C   UNL A   1      40.234  28.267  27.464  1.00  0.00     0.031 C 
ATOM     52  C   UNL A   1      37.839  32.056  32.704  1.00  0.00     0.029 A 
ATOM     53  C   UNL A   1      39.208  31.570  32.843  1.00  0.00     0.049 A 
ATOM     54  H   UNL A   1      40.340  30.550  31.421  1.00  0.00     0.167 HD
ATOM     55  C   UNL A   1      42.425  27.953  28.568  1.00  0.00     0.034 A 
ATOM     56  C   UNL A   1      39.979  31.720  33.938  1.00  0.00     0.034 A 
ATOM     57  C   UNL A   1      43.379  28.208  29.613  1.00  0.00     0.049 A 
ATOM     58  C   UNL A   1      41.386  31.189  33.919  1.00  0.00     0.074 A 
ATOM     59  C   UNL A   1      44.699  27.806  29.691  1.00  0.00     0.029 A 
ATOM     60  N   UNL A   1      43.113  28.936  30.763  1.00  0.00    -0.354 N 
ATOM     61  N   UNL A   1      42.004  30.528  32.970  1.00  0.00    -0.248 NA
ATOM     62  C   UNL A   1      42.216  31.460  35.100  1.00  0.00     0.031 C 
ATOM     63  C   UNL A   1      45.229  28.278  30.898  1.00  0.00     0.029 A 
ATOM     64  C   UNL A   1      44.244  28.994  31.560  1.00  0.00     0.049 A 
ATOM     65  H   UNL A   1      42.247  29.351  30.982  1.00  0.00     0.167 HD
ATOM     66  C   UNL A   1      43.302  30.329  33.425  1.00  0.00     0.074 A 
ATOM     67  C   UNL A   1      43.388  30.961  34.726  1.00  0.00     0.031 C 
ATOM     68  C   UNL A   1      44.327  29.670  32.829  1.00  0.00     0.034 A 
BRANCH  55  69
ATOM     69  C   UNL A   1      42.852  27.107  27.394  1.00  0.00     0.023 A 
ATOM     70  C   UNL A   1      43.560  27.704  26.329  1.00  0.00     0.012 A 
ATOM     71  C   UNL A   1      42.589  25.724  27.354  1.00  0.00     0.148 A 
ATOM     72  C   UNL A   1      43.957  26.951  25.225  1.00  0.00     0.002 A 
ATOM     73  C   UNL A   1      43.029  24.970  26.271  1.00  0.00     0.091 A 
ATOM     74  F   UNL A   1      41.897  25.173  28.362  1.00  0.00    -0.205 F 
ATOM     75  C   UNL A   1      43.699  25.584  25.201  1.00  0.00     0.022 A 
BRANCH  73  76
ATOM     76  S   UNL A   1      42.819  23.187  26.181  1.00  0.00     0.127 S 
ATOM     77  O   UNL A   1      43.786  22.727  27.176  1.00  0.00    -0.237 OA
ATOM     78  O   UNL A   1      41.418  23.021  26.570  1.00  0.00    -0.237 OA
ATOM     79  O   UNL A   1      43.112  22.819  24.802  1.00  0.00    -0.744 OA
ENDBRANCH  73  76
ENDBRANCH  55  69
BRANCH  56  80
ATOM     80  C   UNL A   1      39.449  32.463  35.116  1.00  0.00     0.023 A 
ATOM     81  C   UNL A   1      39.504  33.871  35.127  1.00  0.00     0.012 A 
ATOM     82  C   UNL A   1      38.843  31.792  36.195  1.00  0.00     0.148 A 
ATOM     83  C   UNL A   1      38.988  34.595  36.202  1.00  0.00     0.002 A 
ATOM     84  C   UNL A   1      38.281  32.520  37.237  1.00  0.00     0.091 A 
ATOM     85  F   UNL A   1      38.810  30.452  36.170  1.00  0.00    -0.205 F 
ATOM     86  C   UNL A   1      38.367  33.922  37.251  1.00  0.00     0.022 A 
BRANCH  84  87
ATOM     87  S   UNL A   1      37.341  31.748  38.558  1.00  0.00     0.127 S 
ATOM     88  O   UNL A   1      36.158  32.599  38.621  1.00  0.00    -0.237 OA
ATOM     89  O   UNL A   1      37.113  30.407  38.025  1.00  0.00    -0.237 OA
ATOM     90  O   UNL A   1      38.211  31.786  39.732  1.00  0.00    -0.744 OA
ENDBRANCH  84  87
ENDBRANCH  56  80
BRANCH  68  91
ATOM     91  C   UNL A   1      45.643  29.618  33.559  1.00  0.00     0.023 A 
ATOM     92  C   UNL A   1      46.598  30.632  33.351  1.00  0.00     0.012 A 
ATOM     93  C   UNL A   1      45.899  28.610  34.509  1.00  0.00     0.148 A 
ATOM     94  C   UNL A   1      47.802  30.627  34.054  1.00  0.00     0.002 A 
ATOM     95  C   UNL A   1      47.079  28.638  35.241  1.00  0.00     0.091 A 
ATOM     96  F   UNL A   1      44.984  27.644  34.679  1.00  0.00    -0.205 F 
ATOM     97  C   UNL A   1      48.037  29.638  35.007  1.00  0.00     0.022 A 
BRANCH  95  98
ATOM     98  S   UNL A   1      47.424  27.462  36.556  1.00  0.00     0.127 S 
ATOM     99  O   UNL A   1      47.318  26.187  35.850  1.00  0.00    -0.237 OA
ATOM    100  O   UNL A   1      48.785  27.829  36.951  1.00  0.00    -0.237 OA
ATOM    101  O   UNL A   1      46.414  27.698  37.578  1.00  0.00    -0.744 OA
ENDBRANCH  95  98
ENDBRANCH  68  91
ENDBRANCH  42  43
ENDBRANCH  34  37
ENDBRANCH  32  33
ENDBRANCH  31  32
ENDBRANCH   1  31
TORSDOF 18
ENDMDL
MODEL 3
REMARK VINA RESULT:     -12.4      1.872      2.189
REMARK SMILES O=C(NCCCCCCNC(=O)c1ccc(-c2c3nc(c(-c4cccc(S(=O)(=O)[O-])c4F)c4ccc([nH]4)c(-c4cccc(S(=O)(=O)[O-])c4F)c4nc(c(-c5cccc(S(=O)(=O)[O-])c5F)c5ccc2[nH]5)C=C4)C=C3)cc1)C1=Cc2cc(Cl)cc(-c3ccc(Cl)cc3)c2O[C@@H]1C(F)(F)F
REMARK SMILES IDX 7 1 6 2 5 3 4 4 3 5 1 6 2 7 76 9 77 10 93 11 78 12 92 13
REMARK SMILES IDX 79 14 91 15 80 16 83 17 81 18 82 19 94 20 95 21 96 22 97 23
REMARK SMILES IDX 84 24 85 25 90 26 86 27 89 28 87 29 88 30 8 31 9 32 10 33
REMARK SMILES IDX 11 34 12 36 13 37 14 38 75 39 15 40 74 41 16 42 17 43 18 44
REMARK SMILES IDX 68 45 19 46 73 47 67 48 69 49 20 50 72 51 66 52 65 53 21 55
REMARK SMILES IDX 53 56 33 57 52 58 34 59 37 60 51 61 70 62 35 63 36 64 50 66
REMARK SMILES IDX 71 67 38 68 22 69 23 70 31 71 24 72 26 73 32 74 25 75 27 76
REMARK SMILES IDX 28 77 29 78 30 79 54 80 55 81 63 82 56 83 58 84 64 85 57 86
REMARK SMILES IDX 59 87 60 88 61 89 62 90 39 91 40 92 48 93 41 94 43 95 49 96
REMARK SMILES IDX 42 97 44 98 45 99 46 100 47 101
REMARK H PARENT 3 8 10 35 69 54 37 65
REMARK Flexibility Score: inf
ROOT
ATOM      1  C   UNL A   1      32.484  27.514  24.578  1.00  0.00     0.002 C 
ENDROOT
BRANCH   1   2
ATOM      2  C   UNL A   1      31.101  26.873  24.405  1.00  0.00     0.002 C 
BRANCH   2   3
ATOM      3  C   UNL A   1      30.297  26.614  25.682  1.00  0.00     0.021 C 
BRANCH   3   4
ATOM      4  C   UNL A   1      29.802  25.181  25.906  1.00  0.00     0.116 C 
BRANCH   4   5
ATOM      5  N   UNL A   1      30.565  24.416  26.889  1.00  0.00    -0.352 N 
ATOM      6  O   UNL A   1      32.283  23.228  27.732  1.00  0.00    -0.270 OA
ATOM      7  C   UNL A   1      31.712  23.670  26.739  1.00  0.00     0.251 C 
ATOM      8  H   UNL A   1      30.202  24.437  27.804  1.00  0.00     0.163 HD
BRANCH   7   9
ATOM      9  C   UNL A   1      32.374  23.577  25.408  1.00  0.00     0.067 C 
ATOM     10  C   UNL A   1      33.625  23.968  25.129  1.00  0.00     0.025 C 
ATOM     11  C   UNL A   1      31.784  22.550  24.490  1.00  0.00     0.314 C 
ATOM     12  C   UNL A   1      34.519  22.836  24.816  1.00  0.00     0.019 A 
ATOM     13  O   UNL A   1      32.601  21.360  24.475  1.00  0.00    -0.475 OA
ATOM     14  C   UNL A   1      35.893  22.981  25.042  1.00  0.00     0.032 A 
ATOM     15  C   UNL A   1      33.961  21.546  24.634  1.00  0.00     0.135 A 
ATOM     16  C   UNL A   1      36.696  21.848  25.124  1.00  0.00     0.042 A 
ATOM     17  C   UNL A   1      34.759  20.394  24.778  1.00  0.00     0.026 A 
ATOM     18  Cl  UNL A   1      38.351  22.011  25.566  1.00  0.00    -0.084 Cl
ATOM     19  C   UNL A   1      36.142  20.575  24.993  1.00  0.00     0.033 A 
BRANCH  11  20
ATOM     20  C   UNL A   1      31.559  23.148  23.078  1.00  0.00     0.429 C 
ATOM     21  F   UNL A   1      32.379  24.201  22.848  1.00  0.00    -0.167 F 
ATOM     22  F   UNL A   1      31.818  22.235  22.106  1.00  0.00    -0.167 F 
ATOM     23  F   UNL A   1      30.291  23.581  22.875  1.00  0.00    -0.167 F 
ENDBRANCH  11  20
BRANCH  17  24
ATOM     24  C   UNL A   1      34.183  19.041  24.936  1.00  0.00    -0.015 A 
ATOM     25  C   UNL A   1      34.864  17.942  24.376  1.00  0.00     0.010 A 
ATOM     26  C   UNL A   1      33.000  18.779  25.635  1.00  0.00     0.010 A 
ATOM     27  C   UNL A   1      34.395  16.635  24.492  1.00  0.00     0.021 A 
ATOM     28  C   UNL A   1      32.514  17.467  25.749  1.00  0.00     0.021 A 
ATOM     29  C   UNL A   1      33.212  16.404  25.178  1.00  0.00     0.041 A 
ATOM     30  Cl  UNL A   1      32.612  14.797  25.317  1.00  0.00    -0.084 Cl
ENDBRANCH  17  24
ENDBRANCH   7   9
ENDBRANCH   4   5
ENDBRANCH   3   4
ENDBRANCH   2   3
ENDBRANCH   1   2
BRANCH   1  31
ATOM     31  C   UNL A   1      32.722  28.287  25.877  1.00  0.00     0.021 C 
BRANCH  31  32
ATOM     32  C   UNL A   1      34.099  28.916  26.041  1.00  0.00     0.116 C 
BRANCH  32  33
ATOM     33  N   UNL A   1      34.009  30.273  26.556  1.00  0.00    -0.352 N 
ATOM     34  C   UNL A   1      34.696  30.901  27.567  1.00  0.00     0.251 C 
ATOM     35  H   UNL A   1      33.341  30.838  26.104  1.00  0.00     0.163 HD
ATOM     36  O   UNL A   1      34.263  31.968  27.998  1.00  0.00    -0.269 OA
BRANCH  34  37
ATOM     37  C   UNL A   1      35.939  30.326  28.142  1.00  0.00     0.039 A 
ATOM     38  C   UNL A   1      37.147  30.503  27.455  1.00  0.00     0.014 A 
ATOM     39  C   UNL A   1      35.922  29.552  29.304  1.00  0.00     0.014 A 
ATOM     40  C   UNL A   1      38.328  29.938  27.950  1.00  0.00     0.010 A 
ATOM     41  C   UNL A   1      37.113  29.081  29.852  1.00  0.00     0.010 A 
ATOM     42  C   UNL A   1      38.325  29.239  29.168  1.00  0.00    -0.014 A 
BRANCH  42  43
ATOM     43  C   UNL A   1      39.563  28.634  29.728  1.00  0.00     0.031 A 
ATOM     44  C   UNL A   1      40.251  29.275  30.908  1.00  0.00     0.074 A 
ATOM     45  C   UNL A   1      40.124  27.569  29.123  1.00  0.00     0.049 A 
ATOM     46  N   UNL A   1      41.387  28.961  31.475  1.00  0.00    -0.248 NA
ATOM     47  C   UNL A   1      39.592  30.449  31.507  1.00  0.00     0.031 C 
ATOM     48  C   UNL A   1      39.607  26.909  27.922  1.00  0.00     0.029 A 
ATOM     49  N   UNL A   1      41.272  26.875  29.413  1.00  0.00    -0.354 N 
ATOM     50  C   UNL A   1      41.601  29.920  32.460  1.00  0.00     0.074 A 
ATOM     51  C   UNL A   1      40.498  30.853  32.384  1.00  0.00     0.031 C 
ATOM     52  C   UNL A   1      40.435  25.909  27.579  1.00  0.00     0.029 A 
ATOM     53  C   UNL A   1      41.555  25.874  28.513  1.00  0.00     0.049 A 
ATOM     54  H   UNL A   1      41.840  27.075  30.193  1.00  0.00     0.167 HD
ATOM     55  C   UNL A   1      42.600  30.000  33.370  1.00  0.00     0.034 A 
ATOM     56  C   UNL A   1      42.602  25.029  28.441  1.00  0.00     0.034 A 
ATOM     57  C   UNL A   1      43.663  29.038  33.481  1.00  0.00     0.049 A 
ATOM     58  C   UNL A   1      43.667  25.094  29.502  1.00  0.00     0.074 A 
ATOM     59  C   UNL A   1      44.672  28.974  34.424  1.00  0.00     0.029 A 
ATOM     60  N   UNL A   1      43.851  27.968  32.619  1.00  0.00    -0.354 N 
ATOM     61  N   UNL A   1      43.769  25.917  30.517  1.00  0.00    -0.248 NA
ATOM     62  C   UNL A   1      44.738  24.090  29.432  1.00  0.00     0.031 C 
ATOM     63  C   UNL A   1      45.482  27.873  34.123  1.00  0.00     0.029 A 
ATOM     64  C   UNL A   1      44.962  27.238  33.005  1.00  0.00     0.049 A 
ATOM     65  H   UNL A   1      43.279  27.758  31.846  1.00  0.00     0.167 HD
ATOM     66  C   UNL A   1      44.897  25.514  31.224  1.00  0.00     0.074 A 
ATOM     67  C   UNL A   1      45.429  24.357  30.533  1.00  0.00     0.031 C 
ATOM     68  C   UNL A   1      45.450  26.060  32.335  1.00  0.00     0.034 A 
BRANCH  55  69
ATOM     69  C   UNL A   1      42.551  31.136  34.362  1.00  0.00     0.023 A 
ATOM     70  C   UNL A   1      41.911  30.945  35.606  1.00  0.00     0.012 A 
ATOM     71  C   UNL A   1      43.162  32.375  34.088  1.00  0.00     0.148 A 
ATOM     72  C   UNL A   1      41.838  31.979  36.537  1.00  0.00     0.002 A 
ATOM     73  C   UNL A   1      43.126  33.387  35.041  1.00  0.00     0.091 A 
ATOM     74  F   UNL A   1      43.749  32.550  32.895  1.00  0.00    -0.205 F 
ATOM     75  C   UNL A   1      42.453  33.196  36.259  1.00  0.00     0.022 A 
BRANCH  73  76
ATOM     76  S   UNL A   1      43.958  34.964  34.813  1.00  0.00     0.127 S 
ATOM     77  O   UNL A   1      43.650  35.643  36.070  1.00  0.00    -0.237 OA
ATOM     78  O   UNL A   1      45.355  34.559  34.665  1.00  0.00    -0.237 OA
ATOM     79  O   UNL A   1      43.369  35.557  33.619  1.00  0.00    -0.744 OA
ENDBRANCH  73  76
ENDBRANCH  55  69
BRANCH  56  80
ATOM     80  C   UNL A   1      42.650  24.006  27.359  1.00  0.00     0.023 A 
ATOM     81  C   UNL A   1      43.297  24.313  26.145  1.00  0.00     0.012 A 
ATOM     82  C   UNL A   1      42.110  22.719  27.542  1.00  0.00     0.148 A 
ATOM     83  C   UNL A   1      43.383  23.365  25.125  1.00  0.00     0.002 A 
ATOM     84  C   UNL A   1      42.248  21.761  26.544  1.00  0.00     0.091 A 
ATOM     85  F   UNL A   1      41.489  22.450  28.700  1.00  0.00    -0.205 F 
ATOM     86  C   UNL A   1      42.870  22.086  25.328  1.00  0.00     0.022 A 
BRANCH  84  87
ATOM     87  S   UNL A   1      41.743  20.052  26.769  1.00  0.00     0.127 S 
ATOM     88  O   UNL A   1      41.948  19.500  25.435  1.00  0.00    -0.237 OA
ATOM     89  O   UNL A   1      42.687  19.588  27.784  1.00  0.00    -0.237 OA
ATOM     90  O   UNL A   1      40.355  20.109  27.224  1.00  0.00    -0.744 OA
ENDBRANCH  84  87
ENDBRANCH  56  80
BRANCH  68  91
ATOM     91  C   UNL A   1      46.682  25.400  32.898  1.00  0.00     0.023 A 
ATOM     92  C   UNL A   1      47.957  25.857  32.514  1.00  0.00     0.012 A 
ATOM     93  C   UNL A   1      46.573  24.383  33.866  1.00  0.00     0.148 A 
ATOM     94  C   UNL A   1      49.108  25.291  33.061  1.00  0.00     0.002 A 
ATOM     95  C   UNL A   1      47.722  23.857  34.444  1.00  0.00     0.091 A 
ATOM     96  F   UNL A   1      45.350  23.949  34.205  1.00  0.00    -0.205 F 
ATOM     97  C   UNL A   1      48.990  24.301  34.034  1.00  0.00     0.022 A 
BRANCH  95  98
ATOM     98  S   UNL A   1      47.664  22.648  35.772  1.00  0.00     0.127 S 
ATOM     99  O   UNL A   1      47.631  21.390  35.028  1.00  0.00    -0.237 OA
ATOM    100  O   UNL A   1      48.920  22.905  36.480  1.00  0.00    -0.237 OA
ATOM    101  O   UNL A   1      46.465  22.954  36.540  1.00  0.00    -0.744 OA
ENDBRANCH  95  98
ENDBRANCH  68  91
ENDBRANCH  42  43
ENDBRANCH  34  37
ENDBRANCH  32  33
ENDBRANCH  31  32
ENDBRANCH   1  31
TORSDOF 18
ENDMDL
