MODEL 1
REMARK VINA RESULT:     -11.7      0.000      0.000
REMARK SMILES Nc1oc(-c2ccccc2)cc1C(=O)NCCCCCCNC(=O)c1ccc(-c2c3nc(c(-c4cccc(S(=O)(=O)[O-])c4F)c4ccc([nH]4)c(-c4cccc(S(=O)(=O)[O-])c4F)c4nc(c(-c5cccc(S(=O)(=O)[O-])c5F)c5ccc2[nH]5)C=C4)C=C3)cc1
REMARK SMILES IDX 19 1 18 2 17 3 16 4 15 5 13 6 14 7 12 9 2 10 3 11 4 12 11 13
REMARK SMILES IDX 1 14 5 17 6 18 10 19 7 20 9 21 8 22 20 23 21 24 22 25 23 26
REMARK SMILES IDX 24 28 25 29 26 30 87 31 27 32 86 33 28 34 29 35 30 36 80 37
REMARK SMILES IDX 31 38 85 39 79 40 81 41 32 42 84 43 78 44 77 45 33 47 65 48
REMARK SMILES IDX 45 49 64 50 46 51 49 52 63 53 82 54 47 55 48 56 62 58 83 59
REMARK SMILES IDX 50 60 34 61 35 62 43 63 36 64 38 65 44 66 37 67 39 68 40 69
REMARK SMILES IDX 41 70 42 71 66 72 67 73 75 74 68 75 70 76 76 77 69 78 71 79
REMARK SMILES IDX 72 80 73 81 74 82 51 83 52 84 60 85 53 86 55 87 61 88 54 89
REMARK SMILES IDX 56 90 57 91 58 92 59 93
REMARK H PARENT 15 8 1 15 1 16 22 27 81 46 49 57
REMARK Flexibility Score: inf
ROOT
ATOM      1  C   UNL A   1      34.445  29.304  27.376  1.00  0.00     0.002 C 
ENDROOT
BRANCH   1   2
ATOM      2  C   UNL A   1      33.898  28.440  26.225  1.00  0.00     0.002 C 
BRANCH   2   3
ATOM      3  C   UNL A   1      32.855  29.113  25.324  1.00  0.00     0.021 C 
BRANCH   3   4
ATOM      4  C   UNL A   1      33.165  28.967  23.836  1.00  0.00     0.116 C 
BRANCH   4   5
ATOM      5  N   UNL A   1      31.970  28.625  23.091  1.00  0.00    -0.352 N 
ATOM      6  C   UNL A   1      31.596  27.503  22.396  1.00  0.00     0.256 C 
ATOM      7  O   UNL A   1      30.471  27.533  21.886  1.00  0.00    -0.269 OA
ATOM      8  H   UNL A   1      31.293  29.339  23.081  1.00  0.00     0.163 HD
BRANCH   6   9
ATOM      9  C   UNL A   1      32.437  26.317  22.339  1.00  0.00     0.103 A 
ATOM     10  C   UNL A   1      32.554  25.515  21.213  1.00  0.00     0.203 A 
ATOM     11  O   UNL A   1      33.284  24.395  21.466  1.00  0.00    -0.440 OA
ATOM     12  C   UNL A   1      33.700  24.501  22.754  1.00  0.00     0.137 A 
ATOM     13  C   UNL A   1      33.306  25.707  23.283  1.00  0.00     0.067 A 
BRANCH  10  14
ATOM     14  N   UNL A   1      32.079  25.636  19.968  1.00  0.00    -0.369 N 
ATOM     15  H   UNL A   1      31.928  26.529  19.583  1.00  0.00     0.159 HD
ATOM     16  H   UNL A   1      31.881  24.831  19.437  1.00  0.00     0.159 HD
ENDBRANCH  10  14
BRANCH  12  17
ATOM     17  C   UNL A   1      34.409  23.387  23.348  1.00  0.00     0.017 A 
ATOM     18  C   UNL A   1      35.771  23.469  23.638  1.00  0.00     0.012 A 
ATOM     19  C   UNL A   1      33.677  22.269  23.778  1.00  0.00     0.012 A 
ATOM     20  C   UNL A   1      36.387  22.456  24.377  1.00  0.00     0.001 A 
ATOM     21  C   UNL A   1      34.295  21.255  24.510  1.00  0.00     0.001 A 
ATOM     22  C   UNL A   1      35.650  21.355  24.818  1.00  0.00     0.000 A 
ENDBRANCH  12  17
ENDBRANCH   6   9
ENDBRANCH   4   5
ENDBRANCH   3   4
ENDBRANCH   2   3
ENDBRANCH   1   2
BRANCH   1  23
ATOM     23  C   UNL A   1      33.807  30.692  27.561  1.00  0.00     0.021 C 
BRANCH  23  24
ATOM     24  C   UNL A   1      34.820  31.803  27.773  1.00  0.00     0.116 C 
BRANCH  24  25
ATOM     25  N   UNL A   1      34.654  32.471  29.070  1.00  0.00    -0.352 N 
ATOM     26  C   UNL A   1      35.193  32.141  30.305  1.00  0.00     0.251 C 
ATOM     27  H   UNL A   1      34.076  33.268  29.061  1.00  0.00     0.163 HD
ATOM     28  O   UNL A   1      34.689  32.552  31.336  1.00  0.00    -0.269 OA
BRANCH  26  29
ATOM     29  C   UNL A   1      36.402  31.297  30.339  1.00  0.00     0.039 A 
ATOM     30  C   UNL A   1      36.360  29.901  30.367  1.00  0.00     0.014 A 
ATOM     31  C   UNL A   1      37.619  31.961  30.322  1.00  0.00     0.014 A 
ATOM     32  C   UNL A   1      37.567  29.204  30.343  1.00  0.00     0.010 A 
ATOM     33  C   UNL A   1      38.746  31.291  29.971  1.00  0.00     0.010 A 
ATOM     34  C   UNL A   1      38.756  29.923  30.147  1.00  0.00    -0.014 A 
BRANCH  34  35
ATOM     35  C   UNL A   1      40.062  29.298  30.057  1.00  0.00     0.031 A 
ATOM     36  C   UNL A   1      40.676  29.043  31.377  1.00  0.00     0.074 A 
ATOM     37  C   UNL A   1      40.529  28.772  28.901  1.00  0.00     0.049 A 
ATOM     38  N   UNL A   1      41.645  29.698  31.921  1.00  0.00    -0.248 NA
ATOM     39  C   UNL A   1      40.005  28.099  32.285  1.00  0.00     0.031 C 
ATOM     40  C   UNL A   1      39.840  28.649  27.604  1.00  0.00     0.029 A 
ATOM     41  N   UNL A   1      41.682  28.093  28.680  1.00  0.00    -0.354 N 
ATOM     42  C   UNL A   1      41.885  29.052  33.129  1.00  0.00     0.074 A 
ATOM     43  C   UNL A   1      40.701  28.288  33.409  1.00  0.00     0.031 C 
ATOM     44  C   UNL A   1      40.477  27.734  26.838  1.00  0.00     0.029 A 
ATOM     45  C   UNL A   1      41.699  27.339  27.508  1.00  0.00     0.049 A 
ATOM     46  H   UNL A   1      42.446  28.129  29.299  1.00  0.00     0.167 HD
ATOM     47  C   UNL A   1      43.149  28.962  33.627  1.00  0.00     0.034 A 
ATOM     48  C   UNL A   1      42.635  26.424  27.152  1.00  0.00     0.034 A 
ATOM     49  C   UNL A   1      44.045  29.840  32.910  1.00  0.00     0.049 A 
ATOM     50  C   UNL A   1      43.844  26.713  27.959  1.00  0.00     0.074 A 
ATOM     51  C   UNL A   1      44.092  31.198  32.660  1.00  0.00     0.029 A 
ATOM     52  N   UNL A   1      44.847  29.251  31.959  1.00  0.00    -0.354 N 
ATOM     53  N   UNL A   1      44.540  27.808  27.834  1.00  0.00    -0.248 NA
ATOM     54  C   UNL A   1      43.996  26.012  29.223  1.00  0.00     0.031 C 
ATOM     55  C   UNL A   1      44.525  31.305  31.305  1.00  0.00     0.029 A 
ATOM     56  C   UNL A   1      44.801  30.021  30.829  1.00  0.00     0.049 A 
ATOM     57  H   UNL A   1      45.363  28.420  32.072  1.00  0.00     0.167 HD
ATOM     58  C   UNL A   1      44.826  28.181  29.142  1.00  0.00     0.074 A 
ATOM     59  C   UNL A   1      44.565  26.983  29.943  1.00  0.00     0.031 C 
ATOM     60  C   UNL A   1      44.946  29.495  29.488  1.00  0.00     0.034 A 
BRANCH  47  61
ATOM     61  C   UNL A   1      43.687  27.818  34.460  1.00  0.00     0.023 A 
ATOM     62  C   UNL A   1      44.402  28.171  35.628  1.00  0.00     0.012 A 
ATOM     63  C   UNL A   1      43.779  26.471  34.043  1.00  0.00     0.148 A 
ATOM     64  C   UNL A   1      45.227  27.260  36.293  1.00  0.00     0.002 A 
ATOM     65  C   UNL A   1      44.543  25.548  34.749  1.00  0.00     0.091 A 
ATOM     66  F   UNL A   1      43.240  26.081  32.887  1.00  0.00    -0.205 F 
ATOM     67  C   UNL A   1      45.296  25.945  35.853  1.00  0.00     0.022 A 
BRANCH  65  68
ATOM     68  S   UNL A   1      44.637  23.823  34.247  1.00  0.00     0.127 S 
ATOM     69  O   UNL A   1      45.298  23.933  32.950  1.00  0.00    -0.237 OA
ATOM     70  O   UNL A   1      45.456  23.247  35.314  1.00  0.00    -0.237 OA
ATOM     71  O   UNL A   1      43.262  23.341  34.225  1.00  0.00    -0.744 OA
ENDBRANCH  65  68
ENDBRANCH  47  61
BRANCH  48  72
ATOM     72  C   UNL A   1      42.497  25.166  26.378  1.00  0.00     0.023 A 
ATOM     73  C   UNL A   1      43.455  24.833  25.398  1.00  0.00     0.012 A 
ATOM     74  C   UNL A   1      41.603  24.158  26.803  1.00  0.00     0.148 A 
ATOM     75  C   UNL A   1      43.543  23.531  24.887  1.00  0.00     0.002 A 
ATOM     76  C   UNL A   1      41.696  22.866  26.292  1.00  0.00     0.091 A 
ATOM     77  F   UNL A   1      40.728  24.443  27.776  1.00  0.00    -0.205 F 
ATOM     78  C   UNL A   1      42.672  22.545  25.340  1.00  0.00     0.022 A 
BRANCH  76  79
ATOM     79  S   UNL A   1      40.632  21.531  26.862  1.00  0.00     0.127 S 
ATOM     80  O   UNL A   1      39.310  22.000  26.443  1.00  0.00    -0.237 OA
ATOM     81  O   UNL A   1      41.146  20.392  26.106  1.00  0.00    -0.237 OA
ATOM     82  O   UNL A   1      40.817  21.464  28.306  1.00  0.00    -0.744 OA
ENDBRANCH  76  79
ENDBRANCH  48  72
BRANCH  60  83
ATOM     83  C   UNL A   1      45.003  30.520  28.380  1.00  0.00     0.023 A 
ATOM     84  C   UNL A   1      43.846  31.101  27.817  1.00  0.00     0.012 A 
ATOM     85  C   UNL A   1      46.259  31.047  28.042  1.00  0.00     0.148 A 
ATOM     86  C   UNL A   1      43.945  32.176  26.926  1.00  0.00     0.002 A 
ATOM     87  C   UNL A   1      46.351  32.145  27.198  1.00  0.00     0.091 A 
ATOM     88  F   UNL A   1      47.346  30.482  28.589  1.00  0.00    -0.205 F 
ATOM     89  C   UNL A   1      45.198  32.708  26.630  1.00  0.00     0.022 A 
BRANCH  87  90
ATOM     90  S   UNL A   1      47.921  32.954  26.888  1.00  0.00     0.127 S 
ATOM     91  O   UNL A   1      48.221  33.544  28.191  1.00  0.00    -0.237 OA
ATOM     92  O   UNL A   1      48.782  31.833  26.510  1.00  0.00    -0.237 OA
ATOM     93  O   UNL A   1      47.678  33.906  25.811  1.00  0.00    -0.744 OA
ENDBRANCH  87  90
ENDBRANCH  60  83
ENDBRANCH  34  35
ENDBRANCH  26  29
ENDBRANCH  24  25
ENDBRANCH  23  24
ENDBRANCH   1  23
TORSDOF 18
ENDMDL
MODEL 2
REMARK VINA RESULT:     -11.5      3.309      8.469
REMARK SMILES Nc1oc(-c2ccccc2)cc1C(=O)NCCCCCCNC(=O)c1ccc(-c2c3nc(c(-c4cccc(S(=O)(=O)[O-])c4F)c4ccc([nH]4)c(-c4cccc(S(=O)(=O)[O-])c4F)c4nc(c(-c5cccc(S(=O)(=O)[O-])c5F)c5ccc2[nH]5)C=C4)C=C3)cc1
REMARK SMILES IDX 19 1 18 2 17 3 16 4 15 5 13 6 14 7 12 9 2 10 3 11 4 12 11 13
REMARK SMILES IDX 1 14 5 17 6 18 10 19 7 20 9 21 8 22 20 23 21 24 22 25 23 26
REMARK SMILES IDX 24 28 25 29 26 30 87 31 27 32 86 33 28 34 29 35 30 36 80 37
REMARK SMILES IDX 31 38 85 39 79 40 81 41 32 42 84 43 78 44 77 45 33 47 65 48
REMARK SMILES IDX 45 49 64 50 46 51 49 52 63 53 82 54 47 55 48 56 62 58 83 59
REMARK SMILES IDX 50 60 34 61 35 62 43 63 36 64 38 65 44 66 37 67 39 68 40 69
REMARK SMILES IDX 41 70 42 71 66 72 67 73 75 74 68 75 70 76 76 77 69 78 71 79
REMARK SMILES IDX 72 80 73 81 74 82 51 83 52 84 60 85 53 86 55 87 61 88 54 89
REMARK SMILES IDX 56 90 57 91 58 92 59 93
REMARK H PARENT 15 8 1 15 1 16 22 27 81 46 49 57
REMARK Flexibility Score: inf
ROOT
ATOM      1  C   UNL A   1      35.126  23.159  23.983  1.00  0.00     0.002 C 
ENDROOT
BRANCH   1   2
ATOM      2  C   UNL A   1      34.250  24.124  23.163  1.00  0.00     0.002 C 
BRANCH   2   3
ATOM      3  C   UNL A   1      33.571  25.247  23.958  1.00  0.00     0.021 C 
BRANCH   3   4
ATOM      4  C   UNL A   1      33.847  25.171  25.457  1.00  0.00     0.116 C 
BRANCH   4   5
ATOM      5  N   UNL A   1      32.626  24.920  26.196  1.00  0.00    -0.352 N 
ATOM      6  C   UNL A   1      31.975  23.767  26.555  1.00  0.00     0.256 C 
ATOM      7  O   UNL A   1      30.945  23.912  27.221  1.00  0.00    -0.269 OA
ATOM      8  H   UNL A   1      32.173  25.739  26.500  1.00  0.00     0.163 HD
BRANCH   6   9
ATOM      9  C   UNL A   1      32.514  22.451  26.245  1.00  0.00     0.103 A 
ATOM     10  C   UNL A   1      33.583  21.884  26.923  1.00  0.00     0.203 A 
ATOM     11  O   UNL A   1      33.983  20.718  26.347  1.00  0.00    -0.440 OA
ATOM     12  C   UNL A   1      33.122  20.491  25.321  1.00  0.00     0.137 A 
ATOM     13  C   UNL A   1      32.146  21.458  25.298  1.00  0.00     0.067 A 
BRANCH  10  14
ATOM     14  N   UNL A   1      34.279  22.275  27.997  1.00  0.00    -0.369 N 
ATOM     15  H   UNL A   1      34.268  23.219  28.274  1.00  0.00     0.159 HD
ATOM     16  H   UNL A   1      34.802  21.617  28.510  1.00  0.00     0.159 HD
ENDBRANCH  10  14
BRANCH  12  17
ATOM     17  C   UNL A   1      33.372  19.369  24.442  1.00  0.00     0.017 A 
ATOM     18  C   UNL A   1      34.454  18.513  24.651  1.00  0.00     0.012 A 
ATOM     19  C   UNL A   1      32.420  19.051  23.459  1.00  0.00     0.012 A 
ATOM     20  C   UNL A   1      34.565  17.337  23.906  1.00  0.00     0.001 A 
ATOM     21  C   UNL A   1      32.537  17.880  22.711  1.00  0.00     0.001 A 
ATOM     22  C   UNL A   1      33.606  17.018  22.943  1.00  0.00     0.000 A 
ENDBRANCH  12  17
ENDBRANCH   6   9
ENDBRANCH   4   5
ENDBRANCH   3   4
ENDBRANCH   2   3
ENDBRANCH   1   2
BRANCH   1  23
ATOM     23  C   UNL A   1      36.647  23.269  23.785  1.00  0.00     0.021 C 
BRANCH  23  24
ATOM     24  C   UNL A   1      37.415  23.478  25.078  1.00  0.00     0.116 C 
BRANCH  24  25
ATOM     25  N   UNL A   1      38.033  22.239  25.567  1.00  0.00    -0.352 N 
ATOM     26  C   UNL A   1      39.215  22.064  26.272  1.00  0.00     0.251 C 
ATOM     27  H   UNL A   1      37.536  21.413  25.366  1.00  0.00     0.163 HD
ATOM     28  O   UNL A   1      39.778  20.983  26.288  1.00  0.00    -0.269 OA
BRANCH  26  29
ATOM     29  C   UNL A   1      39.765  23.213  27.015  1.00  0.00     0.039 A 
ATOM     30  C   UNL A   1      40.952  23.151  27.751  1.00  0.00     0.014 A 
ATOM     31  C   UNL A   1      39.049  24.397  26.939  1.00  0.00     0.014 A 
ATOM     32  C   UNL A   1      41.405  24.315  28.370  1.00  0.00     0.010 A 
ATOM     33  C   UNL A   1      39.654  25.571  27.256  1.00  0.00     0.010 A 
ATOM     34  C   UNL A   1      40.735  25.520  28.111  1.00  0.00    -0.014 A 
BRANCH  34  35
ATOM     35  C   UNL A   1      41.148  26.798  28.661  1.00  0.00     0.031 A 
ATOM     36  C   UNL A   1      42.413  27.298  28.083  1.00  0.00     0.074 A 
ATOM     37  C   UNL A   1      40.320  27.556  29.416  1.00  0.00     0.049 A 
ATOM     38  N   UNL A   1      43.572  27.312  28.649  1.00  0.00    -0.248 NA
ATOM     39  C   UNL A   1      42.443  27.617  26.647  1.00  0.00     0.031 C 
ATOM     40  C   UNL A   1      38.905  27.317  29.751  1.00  0.00     0.029 A 
ATOM     41  N   UNL A   1      40.531  28.794  29.929  1.00  0.00    -0.354 N 
ATOM     42  C   UNL A   1      44.419  27.912  27.725  1.00  0.00     0.074 A 
ATOM     43  C   UNL A   1      43.749  27.817  26.457  1.00  0.00     0.031 C 
ATOM     44  C   UNL A   1      38.339  28.468  30.177  1.00  0.00     0.029 A 
ATOM     45  C   UNL A   1      39.375  29.472  30.310  1.00  0.00     0.049 A 
ATOM     46  H   UNL A   1      41.430  29.183  30.024  1.00  0.00     0.167 HD
ATOM     47  C   UNL A   1      45.447  28.703  28.139  1.00  0.00     0.034 A 
ATOM     48  C   UNL A   1      39.286  30.780  30.660  1.00  0.00     0.034 A 
ATOM     49  C   UNL A   1      45.663  28.559  29.560  1.00  0.00     0.049 A 
ATOM     50  C   UNL A   1      40.653  31.217  31.031  1.00  0.00     0.074 A 
ATOM     51  C   UNL A   1      45.954  27.504  30.403  1.00  0.00     0.029 A 
ATOM     52  N   UNL A   1      45.151  29.555  30.361  1.00  0.00    -0.354 N 
ATOM     53  N   UNL A   1      41.296  30.749  32.063  1.00  0.00    -0.248 NA
ATOM     54  C   UNL A   1      41.479  31.808  29.990  1.00  0.00     0.031 C 
ATOM     55  C   UNL A   1      45.167  27.741  31.569  1.00  0.00     0.029 A 
ATOM     56  C   UNL A   1      44.510  28.964  31.415  1.00  0.00     0.049 A 
ATOM     57  H   UNL A   1      45.232  30.523  30.202  1.00  0.00     0.167 HD
ATOM     58  C   UNL A   1      42.590  30.550  31.597  1.00  0.00     0.074 A 
ATOM     59  C   UNL A   1      42.668  31.321  30.356  1.00  0.00     0.031 C 
ATOM     60  C   UNL A   1      43.367  29.542  32.090  1.00  0.00     0.034 A 
BRANCH  47  61
ATOM     61  C   UNL A   1      45.993  29.900  27.390  1.00  0.00     0.023 A 
ATOM     62  C   UNL A   1      47.394  30.086  27.435  1.00  0.00     0.012 A 
ATOM     63  C   UNL A   1      45.226  30.979  26.895  1.00  0.00     0.148 A 
ATOM     64  C   UNL A   1      47.990  31.301  27.087  1.00  0.00     0.002 A 
ATOM     65  C   UNL A   1      45.828  32.162  26.481  1.00  0.00     0.091 A 
ATOM     66  F   UNL A   1      43.894  30.937  26.934  1.00  0.00    -0.205 F 
ATOM     67  C   UNL A   1      47.205  32.342  26.608  1.00  0.00     0.022 A 
BRANCH  65  68
ATOM     68  S   UNL A   1      44.864  33.527  25.816  1.00  0.00     0.127 S 
ATOM     69  O   UNL A   1      45.915  34.425  25.346  1.00  0.00    -0.237 OA
ATOM     70  O   UNL A   1      44.096  32.864  24.762  1.00  0.00    -0.237 OA
ATOM     71  O   UNL A   1      44.054  34.017  26.925  1.00  0.00    -0.744 OA
ENDBRANCH  65  68
ENDBRANCH  47  61
BRANCH  48  72
ATOM     72  C   UNL A   1      38.186  31.753  30.453  1.00  0.00     0.023 A 
ATOM     73  C   UNL A   1      37.481  31.770  29.231  1.00  0.00     0.012 A 
ATOM     74  C   UNL A   1      37.634  32.454  31.548  1.00  0.00     0.148 A 
ATOM     75  C   UNL A   1      36.252  32.432  29.115  1.00  0.00     0.002 A 
ATOM     76  C   UNL A   1      36.411  33.110  31.427  1.00  0.00     0.091 A 
ATOM     77  F   UNL A   1      38.260  32.396  32.730  1.00  0.00    -0.205 F 
ATOM     78  C   UNL A   1      35.711  33.092  30.214  1.00  0.00     0.022 A 
BRANCH  76  79
ATOM     79  S   UNL A   1      35.632  33.948  32.816  1.00  0.00     0.127 S 
ATOM     80  O   UNL A   1      35.437  32.847  33.760  1.00  0.00    -0.237 OA
ATOM     81  O   UNL A   1      36.660  34.911  33.202  1.00  0.00    -0.237 OA
ATOM     82  O   UNL A   1      34.397  34.519  32.294  1.00  0.00    -0.744 OA
ENDBRANCH  76  79
ENDBRANCH  48  72
BRANCH  60  83
ATOM     83  C   UNL A   1      42.884  28.805  33.317  1.00  0.00     0.023 A 
ATOM     84  C   UNL A   1      41.920  27.775  33.259  1.00  0.00     0.012 A 
ATOM     85  C   UNL A   1      43.564  29.029  34.523  1.00  0.00     0.148 A 
ATOM     86  C   UNL A   1      41.636  26.996  34.385  1.00  0.00     0.002 A 
ATOM     87  C   UNL A   1      43.316  28.221  35.625  1.00  0.00     0.091 A 
ATOM     88  F   UNL A   1      44.477  30.011  34.559  1.00  0.00    -0.205 F 
ATOM     89  C   UNL A   1      42.347  27.209  35.565  1.00  0.00     0.022 A 
BRANCH  87  90
ATOM     90  S   UNL A   1      44.292  28.361  37.122  1.00  0.00     0.127 S 
ATOM     91  O   UNL A   1      43.875  29.663  37.638  1.00  0.00    -0.237 OA
ATOM     92  O   UNL A   1      43.830  27.214  37.906  1.00  0.00    -0.237 OA
ATOM     93  O   UNL A   1      45.687  28.271  36.704  1.00  0.00    -0.744 OA
ENDBRANCH  87  90
ENDBRANCH  60  83
ENDBRANCH  34  35
ENDBRANCH  26  29
ENDBRANCH  24  25
ENDBRANCH  23  24
ENDBRANCH   1  23
TORSDOF 18
ENDMDL
MODEL 3
REMARK VINA RESULT:     -11.5      1.857      2.596
REMARK SMILES Nc1oc(-c2ccccc2)cc1C(=O)NCCCCCCNC(=O)c1ccc(-c2c3nc(c(-c4cccc(S(=O)(=O)[O-])c4F)c4ccc([nH]4)c(-c4cccc(S(=O)(=O)[O-])c4F)c4nc(c(-c5cccc(S(=O)(=O)[O-])c5F)c5ccc2[nH]5)C=C4)C=C3)cc1
REMARK SMILES IDX 19 1 18 2 17 3 16 4 15 5 13 6 14 7 12 9 2 10 3 11 4 12 11 13
REMARK SMILES IDX 1 14 5 17 6 18 10 19 7 20 9 21 8 22 20 23 21 24 22 25 23 26
REMARK SMILES IDX 24 28 25 29 26 30 87 31 27 32 86 33 28 34 29 35 30 36 80 37
REMARK SMILES IDX 31 38 85 39 79 40 81 41 32 42 84 43 78 44 77 45 33 47 65 48
REMARK SMILES IDX 45 49 64 50 46 51 49 52 63 53 82 54 47 55 48 56 62 58 83 59
REMARK SMILES IDX 50 60 34 61 35 62 43 63 36 64 38 65 44 66 37 67 39 68 40 69
REMARK SMILES IDX 41 70 42 71 66 72 67 73 75 74 68 75 70 76 76 77 69 78 71 79
REMARK SMILES IDX 72 80 73 81 74 82 51 83 52 84 60 85 53 86 55 87 61 88 54 89
REMARK SMILES IDX 56 90 57 91 58 92 59 93
REMARK H PARENT 15 8 1 15 1 16 22 27 81 46 49 57
REMARK Flexibility Score: inf
ROOT
ATOM      1  C   UNL A   1      32.892  28.427  27.072  1.00  0.00     0.002 C 
ENDROOT
BRANCH   1   2
ATOM      2  C   UNL A   1      33.978  27.735  26.227  1.00  0.00     0.002 C 
BRANCH   2   3
ATOM      3  C   UNL A   1      33.467  26.784  25.137  1.00  0.00     0.021 C 
BRANCH   3   4
ATOM      4  C   UNL A   1      33.496  25.317  25.559  1.00  0.00     0.116 C 
BRANCH   4   5
ATOM      5  N   UNL A   1      32.308  24.973  26.314  1.00  0.00    -0.352 N 
ATOM      6  C   UNL A   1      31.740  23.773  26.661  1.00  0.00     0.256 C 
ATOM      7  O   UNL A   1      30.716  23.839  27.349  1.00  0.00    -0.269 OA
ATOM      8  H   UNL A   1      31.810  25.755  26.643  1.00  0.00     0.163 HD
BRANCH   6   9
ATOM      9  C   UNL A   1      32.357  22.502  26.314  1.00  0.00     0.103 A 
ATOM     10  C   UNL A   1      33.509  22.021  26.920  1.00  0.00     0.203 A 
ATOM     11  O   UNL A   1      33.958  20.887  26.316  1.00  0.00    -0.440 OA
ATOM     12  C   UNL A   1      33.052  20.591  25.349  1.00  0.00     0.137 A 
ATOM     13  C   UNL A   1      32.005  21.481  25.392  1.00  0.00     0.067 A 
BRANCH  10  14
ATOM     14  N   UNL A   1      34.241  22.467  27.946  1.00  0.00    -0.369 N 
ATOM     15  H   UNL A   1      33.935  23.243  28.469  1.00  0.00     0.159 HD
ATOM     16  H   UNL A   1      35.087  22.020  28.178  1.00  0.00     0.159 HD
ENDBRANCH  10  14
BRANCH  12  17
ATOM     17  C   UNL A   1      33.328  19.489  24.453  1.00  0.00     0.017 A 
ATOM     18  C   UNL A   1      34.434  18.660  24.647  1.00  0.00     0.012 A 
ATOM     19  C   UNL A   1      32.381  19.159  23.470  1.00  0.00     0.012 A 
ATOM     20  C   UNL A   1      34.574  17.497  23.885  1.00  0.00     0.001 A 
ATOM     21  C   UNL A   1      32.527  18.001  22.705  1.00  0.00     0.001 A 
ATOM     22  C   UNL A   1      33.620  17.166  22.921  1.00  0.00     0.000 A 
ENDBRANCH  12  17
ENDBRANCH   6   9
ENDBRANCH   4   5
ENDBRANCH   3   4
ENDBRANCH   2   3
ENDBRANCH   1   2
BRANCH   1  23
ATOM     23  C   UNL A   1      32.846  29.963  27.013  1.00  0.00     0.021 C 
BRANCH  23  24
ATOM     24  C   UNL A   1      34.172  30.625  27.347  1.00  0.00     0.116 C 
BRANCH  24  25
ATOM     25  N   UNL A   1      34.056  31.581  28.455  1.00  0.00    -0.352 N 
ATOM     26  C   UNL A   1      34.889  31.765  29.549  1.00  0.00     0.251 C 
ATOM     27  H   UNL A   1      33.274  32.177  28.416  1.00  0.00     0.163 HD
ATOM     28  O   UNL A   1      34.485  32.324  30.554  1.00  0.00    -0.269 OA
BRANCH  26  29
ATOM     29  C   UNL A   1      36.281  31.285  29.459  1.00  0.00     0.039 A 
ATOM     30  C   UNL A   1      37.383  32.142  29.410  1.00  0.00     0.014 A 
ATOM     31  C   UNL A   1      36.460  29.911  29.446  1.00  0.00     0.014 A 
ATOM     32  C   UNL A   1      38.657  31.576  29.381  1.00  0.00     0.010 A 
ATOM     33  C   UNL A   1      37.676  29.388  29.747  1.00  0.00     0.010 A 
ATOM     34  C   UNL A   1      38.781  30.188  29.548  1.00  0.00    -0.014 A 
BRANCH  34  35
ATOM     35  C   UNL A   1      40.057  29.499  29.584  1.00  0.00     0.031 A 
ATOM     36  C   UNL A   1      40.558  29.274  30.956  1.00  0.00     0.074 A 
ATOM     37  C   UNL A   1      40.581  28.900  28.489  1.00  0.00     0.049 A 
ATOM     38  N   UNL A   1      41.516  29.906  31.544  1.00  0.00    -0.248 NA
ATOM     39  C   UNL A   1      39.775  28.405  31.848  1.00  0.00     0.031 C 
ATOM     40  C   UNL A   1      39.985  28.751  27.150  1.00  0.00     0.029 A 
ATOM     41  N   UNL A   1      41.712  28.158  28.385  1.00  0.00    -0.354 N 
ATOM     42  C   UNL A   1      41.633  29.305  32.793  1.00  0.00     0.074 A 
ATOM     43  C   UNL A   1      40.394  28.611  33.013  1.00  0.00     0.031 C 
ATOM     44  C   UNL A   1      40.630  27.774  26.472  1.00  0.00     0.029 A 
ATOM     45  C   UNL A   1      41.777  27.352  27.250  1.00  0.00     0.049 A 
ATOM     46  H   UNL A   1      42.429  28.185  29.058  1.00  0.00     0.167 HD
ATOM     47  C   UNL A   1      42.851  29.177  33.389  1.00  0.00     0.034 A 
ATOM     48  C   UNL A   1      42.689  26.378  27.004  1.00  0.00     0.034 A 
ATOM     49  C   UNL A   1      43.841  29.979  32.706  1.00  0.00     0.049 A 
ATOM     50  C   UNL A   1      43.848  26.646  27.888  1.00  0.00     0.074 A 
ATOM     51  C   UNL A   1      43.975  31.320  32.406  1.00  0.00     0.029 A 
ATOM     52  N   UNL A   1      44.680  29.310  31.845  1.00  0.00    -0.354 N 
ATOM     53  N   UNL A   1      44.606  27.700  27.772  1.00  0.00    -0.248 NA
ATOM     54  C   UNL A   1      43.871  25.995  29.188  1.00  0.00     0.031 C 
ATOM     55  C   UNL A   1      44.511  31.346  31.085  1.00  0.00     0.029 A 
ATOM     56  C   UNL A   1      44.757  30.031  30.684  1.00  0.00     0.049 A 
ATOM     57  H   UNL A   1      45.143  28.462  32.031  1.00  0.00     0.167 HD
ATOM     58  C   UNL A   1      44.813  28.117  29.081  1.00  0.00     0.074 A 
ATOM     59  C   UNL A   1      44.433  26.970  29.908  1.00  0.00     0.031 C 
ATOM     60  C   UNL A   1      44.973  29.439  29.380  1.00  0.00     0.034 A 
BRANCH  47  61
ATOM     61  C   UNL A   1      43.267  28.048  34.307  1.00  0.00     0.023 A 
ATOM     62  C   UNL A   1      43.765  28.420  35.578  1.00  0.00     0.012 A 
ATOM     63  C   UNL A   1      43.461  26.703  33.918  1.00  0.00     0.148 A 
ATOM     64  C   UNL A   1      44.486  27.529  36.377  1.00  0.00     0.002 A 
ATOM     65  C   UNL A   1      44.115  25.799  34.749  1.00  0.00     0.091 A 
ATOM     66  F   UNL A   1      43.135  26.299  32.690  1.00  0.00    -0.205 F 
ATOM     67  C   UNL A   1      44.661  26.216  35.963  1.00  0.00     0.022 A 
BRANCH  65  68
ATOM     68  S   UNL A   1      44.336  24.077  34.279  1.00  0.00     0.127 S 
ATOM     69  O   UNL A   1      42.973  23.567  34.397  1.00  0.00    -0.237 OA
ATOM     70  O   UNL A   1      44.835  24.204  32.909  1.00  0.00    -0.237 OA
ATOM     71  O   UNL A   1      45.306  23.531  35.219  1.00  0.00    -0.744 OA
ENDBRANCH  65  68
ENDBRANCH  47  61
BRANCH  48  72
ATOM     72  C   UNL A   1      42.545  25.095  26.274  1.00  0.00     0.023 A 
ATOM     73  C   UNL A   1      43.532  24.696  25.349  1.00  0.00     0.012 A 
ATOM     74  C   UNL A   1      41.606  24.130  26.700  1.00  0.00     0.148 A 
ATOM     75  C   UNL A   1      43.602  23.373  24.892  1.00  0.00     0.002 A 
ATOM     76  C   UNL A   1      41.681  22.817  26.244  1.00  0.00     0.091 A 
ATOM     77  F   UNL A   1      40.701  24.478  27.625  1.00  0.00    -0.205 F 
ATOM     78  C   UNL A   1      42.685  22.431  25.347  1.00  0.00     0.022 A 
BRANCH  76  79
ATOM     79  S   UNL A   1      40.555  21.536  26.821  1.00  0.00     0.127 S 
ATOM     80  O   UNL A   1      40.809  21.540  28.262  1.00  0.00    -0.237 OA
ATOM     81  O   UNL A   1      39.257  22.076  26.425  1.00  0.00    -0.237 OA
ATOM     82  O   UNL A   1      40.963  20.313  26.141  1.00  0.00    -0.744 OA
ENDBRANCH  76  79
ENDBRANCH  48  72
BRANCH  60  83
ATOM     83  C   UNL A   1      45.165  30.409  28.239  1.00  0.00     0.023 A 
ATOM     84  C   UNL A   1      44.084  30.985  27.538  1.00  0.00     0.012 A 
ATOM     85  C   UNL A   1      46.460  30.895  28.004  1.00  0.00     0.148 A 
ATOM     86  C   UNL A   1      44.296  32.014  26.614  1.00  0.00     0.002 A 
ATOM     87  C   UNL A   1      46.661  31.950  27.125  1.00  0.00     0.091 A 
ATOM     88  F   UNL A   1      47.474  30.336  28.682  1.00  0.00    -0.205 F 
ATOM     89  C   UNL A   1      45.584  32.508  26.420  1.00  0.00     0.022 A 
BRANCH  87  90
ATOM     90  S   UNL A   1      48.273  32.713  26.938  1.00  0.00     0.127 S 
ATOM     91  O   UNL A   1      49.093  31.589  26.493  1.00  0.00    -0.237 OA
ATOM     92  O   UNL A   1      48.022  33.730  25.917  1.00  0.00    -0.237 OA
ATOM     93  O   UNL A   1      48.615  33.258  28.247  1.00  0.00    -0.744 OA
ENDBRANCH  87  90
ENDBRANCH  60  83
ENDBRANCH  34  35
ENDBRANCH  26  29
ENDBRANCH  24  25
ENDBRANCH  23  24
ENDBRANCH   1  23
TORSDOF 18
ENDMDL
