MODEL 1
REMARK VINA RESULT:     -12.0      0.000      0.000
REMARK SMILES O=C(COc1ccccc1/C=C1\C(=O)Nc2ccccc21)NCCCCCCNC(=O)c1ccc(-c2c3nc(c(-c4cccc(S(=O)(=O)[O-])c4F)c4ccc([nH]4)c(-c4cccc(S(=O)(=O)[O-])c4F)c4nc(c(-c5cccc(S(=O)(=O)[O-])c5F)c5ccc2[nH]5)C=C4)C=C3)cc1
REMARK SMILES IDX 25 1 24 2 23 3 22 4 1 5 2 6 3 8 4 9 5 10 6 11 10 12 7 13
REMARK SMILES IDX 9 14 8 15 11 16 12 17 13 18 21 19 14 20 15 21 16 22 20 23
REMARK SMILES IDX 17 25 19 26 18 27 26 28 27 29 28 30 29 31 30 32 31 34 32 35
REMARK SMILES IDX 33 36 94 37 34 38 93 39 35 40 36 41 37 42 87 43 38 44 92 45
REMARK SMILES IDX 86 46 88 47 39 48 91 49 85 50 84 51 40 53 72 54 52 55 71 56
REMARK SMILES IDX 53 57 56 58 70 59 89 60 54 61 55 62 69 64 90 65 57 66 41 67
REMARK SMILES IDX 42 68 50 69 43 70 45 71 51 72 44 73 46 74 47 75 48 76 49 77
REMARK SMILES IDX 73 78 74 79 82 80 75 81 77 82 83 83 76 84 78 85 79 86 80 87
REMARK SMILES IDX 81 88 58 89 59 90 67 91 60 92 62 93 68 94 61 95 63 96 64 97
REMARK SMILES IDX 65 98 66 99
REMARK H PARENT 22 7 15 24 29 33 88 52 56 63
REMARK Flexibility Score: inf
ROOT
ATOM      1  C   UNL A   1      35.097  24.231  25.532  1.00  0.00     0.002 C 
ENDROOT
BRANCH   1   2
ATOM      2  C   UNL A   1      34.208  25.469  25.393  1.00  0.00     0.021 C 
BRANCH   2   3
ATOM      3  C   UNL A   1      34.180  26.113  24.019  1.00  0.00     0.116 C 
BRANCH   3   4
ATOM      4  N   UNL A   1      33.657  27.455  23.977  1.00  0.00    -0.353 N 
ATOM      5  O   UNL A   1      34.338  28.011  21.841  1.00  0.00    -0.271 OA
ATOM      6  C   UNL A   1      33.598  28.190  22.803  1.00  0.00     0.257 C 
ATOM      7  H   UNL A   1      33.329  27.864  24.810  1.00  0.00     0.163 HD
BRANCH   6   8
ATOM      8  C   UNL A   1      32.488  29.241  22.806  1.00  0.00     0.329 C 
BRANCH   8   9
ATOM      9  O   UNL A   1      31.472  28.736  23.677  1.00  0.00    -0.483 OA
BRANCH   9  10
ATOM     10  C   UNL A   1      30.218  28.664  23.129  1.00  0.00     0.127 A 
ATOM     11  C   UNL A   1      29.790  29.816  22.456  1.00  0.00     0.047 A 
ATOM     12  C   UNL A   1      29.318  27.636  23.488  1.00  0.00     0.017 A 
ATOM     13  C   UNL A   1      28.438  30.003  22.190  1.00  0.00     0.004 A 
ATOM     14  C   UNL A   1      27.958  27.922  23.325  1.00  0.00     0.012 A 
ATOM     15  C   UNL A   1      27.520  29.077  22.666  1.00  0.00     0.001 A 
BRANCH  12  16
ATOM     16  C   UNL A   1      29.772  26.344  24.072  1.00  0.00     0.026 C 
ATOM     17  C   UNL A   1      30.587  25.387  23.573  1.00  0.00     0.050 C 
ATOM     18  C   UNL A   1      31.267  25.307  22.215  1.00  0.00     0.256 C 
ATOM     19  C   UNL A   1      30.978  24.142  24.279  1.00  0.00     0.011 A 
ATOM     20  O   UNL A   1      31.341  26.141  21.337  1.00  0.00    -0.269 OA
ATOM     21  N   UNL A   1      31.849  24.052  22.167  1.00  0.00    -0.321 N 
ATOM     22  C   UNL A   1      31.706  23.375  23.367  1.00  0.00     0.049 A 
ATOM     23  C   UNL A   1      30.812  23.669  25.568  1.00  0.00     0.011 A 
ATOM     24  H   UNL A   1      32.308  23.687  21.377  1.00  0.00     0.170 HD
ATOM     25  C   UNL A   1      32.242  22.137  23.672  1.00  0.00     0.027 A 
ATOM     26  C   UNL A   1      31.346  22.418  25.910  1.00  0.00     0.001 A 
ATOM     27  C   UNL A   1      32.050  21.655  24.967  1.00  0.00     0.002 A 
ENDBRANCH  12  16
ENDBRANCH   9  10
ENDBRANCH   8   9
ENDBRANCH   6   8
ENDBRANCH   3   4
ENDBRANCH   2   3
ENDBRANCH   1   2
BRANCH   1  28
ATOM     28  C   UNL A   1      35.514  23.519  24.241  1.00  0.00     0.002 C 
BRANCH  28  29
ATOM     29  C   UNL A   1      35.970  22.064  24.364  1.00  0.00     0.021 C 
BRANCH  29  30
ATOM     30  C   UNL A   1      36.464  21.621  25.738  1.00  0.00     0.116 C 
BRANCH  30  31
ATOM     31  N   UNL A   1      37.530  20.634  25.683  1.00  0.00    -0.352 N 
ATOM     32  C   UNL A   1      38.874  20.798  25.920  1.00  0.00     0.251 C 
ATOM     33  H   UNL A   1      37.251  19.722  25.441  1.00  0.00     0.163 HD
ATOM     34  O   UNL A   1      39.645  19.857  25.747  1.00  0.00    -0.269 OA
BRANCH  32  35
ATOM     35  C   UNL A   1      39.400  22.114  26.351  1.00  0.00     0.039 A 
ATOM     36  C   UNL A   1      40.441  22.150  27.284  1.00  0.00     0.014 A 
ATOM     37  C   UNL A   1      38.877  23.306  25.843  1.00  0.00     0.014 A 
ATOM     38  C   UNL A   1      41.000  23.376  27.659  1.00  0.00     0.010 A 
ATOM     39  C   UNL A   1      39.476  24.522  26.169  1.00  0.00     0.010 A 
ATOM     40  C   UNL A   1      40.542  24.570  27.081  1.00  0.00    -0.014 A 
BRANCH  40  41
ATOM     41  C   UNL A   1      41.160  25.882  27.410  1.00  0.00     0.031 A 
ATOM     42  C   UNL A   1      42.591  26.157  27.033  1.00  0.00     0.074 A 
ATOM     43  C   UNL A   1      40.469  26.784  28.136  1.00  0.00     0.049 A 
ATOM     44  N   UNL A   1      43.336  27.193  27.322  1.00  0.00    -0.248 NA
ATOM     45  C   UNL A   1      43.287  25.118  26.254  1.00  0.00     0.031 C 
ATOM     46  C   UNL A   1      39.100  26.608  28.626  1.00  0.00     0.029 A 
ATOM     47  N   UNL A   1      40.837  28.016  28.621  1.00  0.00    -0.354 N 
ATOM     48  C   UNL A   1      44.594  26.913  26.803  1.00  0.00     0.074 A 
ATOM     49  C   UNL A   1      44.520  25.601  26.199  1.00  0.00     0.031 C 
ATOM     50  C   UNL A   1      38.748  27.684  29.347  1.00  0.00     0.029 A 
ATOM     51  C   UNL A   1      39.870  28.616  29.396  1.00  0.00     0.049 A 
ATOM     52  H   UNL A   1      41.710  28.430  28.432  1.00  0.00     0.167 HD
ATOM     53  C   UNL A   1      45.704  27.688  26.805  1.00  0.00     0.034 A 
ATOM     54  C   UNL A   1      39.890  29.780  30.075  1.00  0.00     0.034 A 
ATOM     55  C   UNL A   1      45.757  29.018  27.348  1.00  0.00     0.049 A 
ATOM     56  C   UNL A   1      41.118  30.649  30.006  1.00  0.00     0.074 A 
ATOM     57  C   UNL A   1      46.807  29.920  27.313  1.00  0.00     0.029 A 
ATOM     58  N   UNL A   1      44.719  29.640  28.022  1.00  0.00    -0.354 N 
ATOM     59  N   UNL A   1      42.245  30.433  29.372  1.00  0.00    -0.248 NA
ATOM     60  C   UNL A   1      41.065  31.938  30.713  1.00  0.00     0.031 C 
ATOM     61  C   UNL A   1      46.406  31.083  27.976  1.00  0.00     0.029 A 
ATOM     62  C   UNL A   1      45.102  30.913  28.409  1.00  0.00     0.049 A 
ATOM     63  H   UNL A   1      43.839  29.236  28.200  1.00  0.00     0.167 HD
ATOM     64  C   UNL A   1      43.016  31.574  29.566  1.00  0.00     0.074 A 
ATOM     65  C   UNL A   1      42.221  32.486  30.364  1.00  0.00     0.031 C 
ATOM     66  C   UNL A   1      44.273  31.838  29.137  1.00  0.00     0.034 A 
BRANCH  53  67
ATOM     67  C   UNL A   1      46.945  27.149  26.143  1.00  0.00     0.023 A 
ATOM     68  C   UNL A   1      47.155  27.386  24.769  1.00  0.00     0.012 A 
ATOM     69  C   UNL A   1      47.936  26.485  26.891  1.00  0.00     0.148 A 
ATOM     70  C   UNL A   1      48.321  26.947  24.145  1.00  0.00     0.002 A 
ATOM     71  C   UNL A   1      49.114  26.087  26.270  1.00  0.00     0.091 A 
ATOM     72  F   UNL A   1      47.708  26.252  28.192  1.00  0.00    -0.205 F 
ATOM     73  C   UNL A   1      49.305  26.310  24.896  1.00  0.00     0.022 A 
BRANCH  71  74
ATOM     74  S   UNL A   1      50.476  25.328  27.164  1.00  0.00     0.127 S 
ATOM     75  O   UNL A   1      50.957  26.447  27.973  1.00  0.00    -0.237 OA
ATOM     76  O   UNL A   1      49.798  24.275  27.921  1.00  0.00    -0.237 OA
ATOM     77  O   UNL A   1      51.404  24.847  26.150  1.00  0.00    -0.744 OA
ENDBRANCH  71  74
ENDBRANCH  53  67
BRANCH  54  78
ATOM     78  C   UNL A   1      38.683  30.228  30.827  1.00  0.00     0.023 A 
ATOM     79  C   UNL A   1      38.561  29.902  32.192  1.00  0.00     0.012 A 
ATOM     80  C   UNL A   1      37.667  30.981  30.208  1.00  0.00     0.148 A 
ATOM     81  C   UNL A   1      37.431  30.283  32.917  1.00  0.00     0.002 A 
ATOM     82  C   UNL A   1      36.568  31.404  30.951  1.00  0.00     0.091 A 
ATOM     83  F   UNL A   1      37.791  31.269  28.905  1.00  0.00    -0.205 F 
ATOM     84  C   UNL A   1      36.441  31.042  32.300  1.00  0.00     0.022 A 
BRANCH  82  85
ATOM     85  S   UNL A   1      35.314  32.490  30.262  1.00  0.00     0.127 S 
ATOM     86  O   UNL A   1      34.404  32.652  31.392  1.00  0.00    -0.237 OA
ATOM     87  O   UNL A   1      36.092  33.682  29.922  1.00  0.00    -0.237 OA
ATOM     88  O   UNL A   1      34.778  31.780  29.107  1.00  0.00    -0.744 OA
ENDBRANCH  82  85
ENDBRANCH  54  78
BRANCH  66  89
ATOM     89  C   UNL A   1      44.865  33.181  29.468  1.00  0.00     0.023 A 
ATOM     90  C   UNL A   1      45.671  33.328  30.613  1.00  0.00     0.012 A 
ATOM     91  C   UNL A   1      44.698  34.273  28.593  1.00  0.00     0.148 A 
ATOM     92  C   UNL A   1      46.284  34.549  30.895  1.00  0.00     0.002 A 
ATOM     93  C   UNL A   1      45.349  35.472  28.856  1.00  0.00     0.091 A 
ATOM     94  F   UNL A   1      43.911  34.117  27.518  1.00  0.00    -0.205 F 
ATOM     95  C   UNL A   1      46.134  35.615  30.011  1.00  0.00     0.022 A 
BRANCH  93  96
ATOM     96  S   UNL A   1      45.290  36.865  27.723  1.00  0.00     0.127 S 
ATOM     97  O   UNL A   1      43.867  36.922  27.393  1.00  0.00    -0.237 OA
ATOM     98  O   UNL A   1      45.767  37.968  28.559  1.00  0.00    -0.237 OA
ATOM     99  O   UNL A   1      46.176  36.520  26.619  1.00  0.00    -0.744 OA
ENDBRANCH  93  96
ENDBRANCH  66  89
ENDBRANCH  40  41
ENDBRANCH  32  35
ENDBRANCH  30  31
ENDBRANCH  29  30
ENDBRANCH  28  29
ENDBRANCH   1  28
TORSDOF 19
ENDMDL
MODEL 2
REMARK VINA RESULT:     -11.5      1.673      7.505
REMARK SMILES O=C(COc1ccccc1/C=C1\C(=O)Nc2ccccc21)NCCCCCCNC(=O)c1ccc(-c2c3nc(c(-c4cccc(S(=O)(=O)[O-])c4F)c4ccc([nH]4)c(-c4cccc(S(=O)(=O)[O-])c4F)c4nc(c(-c5cccc(S(=O)(=O)[O-])c5F)c5ccc2[nH]5)C=C4)C=C3)cc1
REMARK SMILES IDX 25 1 24 2 23 3 22 4 1 5 2 6 3 8 4 9 5 10 6 11 10 12 7 13
REMARK SMILES IDX 9 14 8 15 11 16 12 17 13 18 21 19 14 20 15 21 16 22 20 23
REMARK SMILES IDX 17 25 19 26 18 27 26 28 27 29 28 30 29 31 30 32 31 34 32 35
REMARK SMILES IDX 33 36 94 37 34 38 93 39 35 40 36 41 37 42 87 43 38 44 92 45
REMARK SMILES IDX 86 46 88 47 39 48 91 49 85 50 84 51 40 53 72 54 52 55 71 56
REMARK SMILES IDX 53 57 56 58 70 59 89 60 54 61 55 62 69 64 90 65 57 66 41 67
REMARK SMILES IDX 42 68 50 69 43 70 45 71 51 72 44 73 46 74 47 75 48 76 49 77
REMARK SMILES IDX 73 78 74 79 82 80 75 81 77 82 83 83 76 84 78 85 79 86 80 87
REMARK SMILES IDX 81 88 58 89 59 90 67 91 60 92 62 93 68 94 61 95 63 96 64 97
REMARK SMILES IDX 65 98 66 99
REMARK H PARENT 22 7 15 24 29 33 88 52 56 63
REMARK Flexibility Score: inf
ROOT
ATOM      1  C   UNL A   1      34.935  23.817  25.039  1.00  0.00     0.002 C 
ENDROOT
BRANCH   1   2
ATOM      2  C   UNL A   1      35.063  25.297  25.409  1.00  0.00     0.021 C 
BRANCH   2   3
ATOM      3  C   UNL A   1      33.765  26.015  25.728  1.00  0.00     0.116 C 
BRANCH   3   4
ATOM      4  N   UNL A   1      33.583  27.284  25.071  1.00  0.00    -0.353 N 
ATOM      5  O   UNL A   1      33.662  26.543  22.884  1.00  0.00    -0.271 OA
ATOM      6  C   UNL A   1      33.328  27.385  23.712  1.00  0.00     0.257 C 
ATOM      7  H   UNL A   1      33.642  28.109  25.605  1.00  0.00     0.163 HD
BRANCH   6   8
ATOM      8  C   UNL A   1      32.553  28.649  23.337  1.00  0.00     0.329 C 
BRANCH   8   9
ATOM      9  O   UNL A   1      31.426  28.693  24.216  1.00  0.00    -0.483 OA
BRANCH   9  10
ATOM     10  C   UNL A   1      30.204  28.670  23.596  1.00  0.00     0.127 A 
ATOM     11  C   UNL A   1      29.572  29.915  23.467  1.00  0.00     0.047 A 
ATOM     12  C   UNL A   1      29.506  27.458  23.392  1.00  0.00     0.017 A 
ATOM     13  C   UNL A   1      28.208  29.977  23.206  1.00  0.00     0.004 A 
ATOM     14  C   UNL A   1      28.116  27.561  23.265  1.00  0.00     0.012 A 
ATOM     15  C   UNL A   1      27.474  28.800  23.150  1.00  0.00     0.001 A 
BRANCH  12  16
ATOM     16  C   UNL A   1      30.188  26.135  23.381  1.00  0.00     0.026 C 
ATOM     17  C   UNL A   1      30.378  25.231  24.369  1.00  0.00     0.050 C 
ATOM     18  C   UNL A   1      29.992  25.308  25.838  1.00  0.00     0.256 C 
ATOM     19  C   UNL A   1      31.066  23.926  24.214  1.00  0.00     0.011 A 
ATOM     20  O   UNL A   1      29.310  26.129  26.416  1.00  0.00    -0.269 OA
ATOM     21  N   UNL A   1      30.560  24.193  26.428  1.00  0.00    -0.321 N 
ATOM     22  C   UNL A   1      31.168  23.372  25.493  1.00  0.00     0.049 A 
ATOM     23  C   UNL A   1      31.534  23.202  23.133  1.00  0.00     0.011 A 
ATOM     24  H   UNL A   1      30.535  24.006  27.394  1.00  0.00     0.170 HD
ATOM     25  C   UNL A   1      31.755  22.146  25.744  1.00  0.00     0.027 A 
ATOM     26  C   UNL A   1      32.132  21.953  23.355  1.00  0.00     0.001 A 
ATOM     27  C   UNL A   1      32.248  21.432  24.652  1.00  0.00     0.002 A 
ENDBRANCH  12  16
ENDBRANCH   9  10
ENDBRANCH   8   9
ENDBRANCH   6   8
ENDBRANCH   3   4
ENDBRANCH   2   3
ENDBRANCH   1   2
BRANCH   1  28
ATOM     28  C   UNL A   1      35.739  23.325  23.831  1.00  0.00     0.002 C 
BRANCH  28  29
ATOM     29  C   UNL A   1      36.430  21.966  23.962  1.00  0.00     0.021 C 
BRANCH  29  30
ATOM     30  C   UNL A   1      36.692  21.471  25.381  1.00  0.00     0.116 C 
BRANCH  30  31
ATOM     31  N   UNL A   1      37.673  20.401  25.452  1.00  0.00    -0.352 N 
ATOM     32  C   UNL A   1      38.993  20.459  25.832  1.00  0.00     0.251 C 
ATOM     33  H   UNL A   1      37.347  19.509  25.190  1.00  0.00     0.163 HD
ATOM     34  O   UNL A   1      39.698  19.456  25.753  1.00  0.00    -0.269 OA
BRANCH  32  35
ATOM     35  C   UNL A   1      39.576  21.737  26.304  1.00  0.00     0.039 A 
ATOM     36  C   UNL A   1      40.647  21.696  27.202  1.00  0.00     0.014 A 
ATOM     37  C   UNL A   1      39.078  22.967  25.866  1.00  0.00     0.014 A 
ATOM     38  C   UNL A   1      41.258  22.885  27.613  1.00  0.00     0.010 A 
ATOM     39  C   UNL A   1      39.728  24.146  26.226  1.00  0.00     0.010 A 
ATOM     40  C   UNL A   1      40.823  24.119  27.104  1.00  0.00    -0.014 A 
BRANCH  40  41
ATOM     41  C   UNL A   1      41.495  25.394  27.470  1.00  0.00     0.031 A 
ATOM     42  C   UNL A   1      40.748  26.444  28.247  1.00  0.00     0.074 A 
ATOM     43  C   UNL A   1      42.739  25.648  27.015  1.00  0.00     0.049 A 
ATOM     44  N   UNL A   1      41.124  27.655  28.570  1.00  0.00    -0.248 NA
ATOM     45  C   UNL A   1      39.388  26.100  28.696  1.00  0.00     0.031 C 
ATOM     46  C   UNL A   1      43.542  24.743  26.190  1.00  0.00     0.029 A 
ATOM     47  N   UNL A   1      43.533  26.762  27.152  1.00  0.00    -0.354 N 
ATOM     48  C   UNL A   1      40.037  28.231  29.216  1.00  0.00     0.074 A 
ATOM     49  C   UNL A   1      38.978  27.246  29.222  1.00  0.00     0.031 C 
ATOM     50  C   UNL A   1      44.706  25.339  25.888  1.00  0.00     0.029 A 
ATOM     51  C   UNL A   1      44.726  26.676  26.472  1.00  0.00     0.049 A 
ATOM     52  H   UNL A   1      43.272  27.546  27.687  1.00  0.00     0.167 HD
ATOM     53  C   UNL A   1      39.937  29.459  29.777  1.00  0.00     0.034 A 
ATOM     54  C   UNL A   1      45.719  27.577  26.327  1.00  0.00     0.034 A 
ATOM     55  C   UNL A   1      41.012  30.412  29.827  1.00  0.00     0.049 A 
ATOM     56  C   UNL A   1      45.605  28.911  27.016  1.00  0.00     0.074 A 
ATOM     57  C   UNL A   1      41.039  31.644  30.457  1.00  0.00     0.029 A 
ATOM     58  N   UNL A   1      42.249  30.242  29.228  1.00  0.00    -0.354 N 
ATOM     59  N   UNL A   1      44.629  29.374  27.760  1.00  0.00    -0.248 NA
ATOM     60  C   UNL A   1      46.743  29.833  26.880  1.00  0.00     0.031 C 
ATOM     61  C   UNL A   1      42.291  32.224  30.229  1.00  0.00     0.029 A 
ATOM     62  C   UNL A   1      43.048  31.345  29.472  1.00  0.00     0.049 A 
ATOM     63  H   UNL A   1      42.520  29.452  28.706  1.00  0.00     0.167 HD
ATOM     64  C   UNL A   1      45.052  30.618  28.214  1.00  0.00     0.074 A 
ATOM     65  C   UNL A   1      46.380  30.831  27.675  1.00  0.00     0.031 C 
ATOM     66  C   UNL A   1      44.395  31.511  28.992  1.00  0.00     0.034 A 
BRANCH  53  67
ATOM     67  C   UNL A   1      38.638  29.828  30.445  1.00  0.00     0.023 A 
ATOM     68  C   UNL A   1      38.380  29.374  31.755  1.00  0.00     0.012 A 
ATOM     69  C   UNL A   1      37.716  30.685  29.815  1.00  0.00     0.148 A 
ATOM     70  C   UNL A   1      37.213  29.748  32.417  1.00  0.00     0.002 A 
ATOM     71  C   UNL A   1      36.574  31.087  30.497  1.00  0.00     0.091 A 
ATOM     72  F   UNL A   1      37.971  31.089  28.562  1.00  0.00    -0.205 F 
ATOM     73  C   UNL A   1      36.316  30.612  31.795  1.00  0.00     0.022 A 
BRANCH  71  74
ATOM     74  S   UNL A   1      35.395  32.259  29.814  1.00  0.00     0.127 S 
ATOM     75  O   UNL A   1      34.943  31.556  28.615  1.00  0.00    -0.237 OA
ATOM     76  O   UNL A   1      34.397  32.349  30.881  1.00  0.00    -0.237 OA
ATOM     77  O   UNL A   1      36.142  33.486  29.575  1.00  0.00    -0.744 OA
ENDBRANCH  71  74
ENDBRANCH  53  67
BRANCH  54  78
ATOM     78  C   UNL A   1      46.943  27.224  25.553  1.00  0.00     0.023 A 
ATOM     79  C   UNL A   1      47.947  26.450  26.166  1.00  0.00     0.012 A 
ATOM     80  C   UNL A   1      47.115  27.637  24.218  1.00  0.00     0.148 A 
ATOM     81  C   UNL A   1      49.117  26.126  25.478  1.00  0.00     0.002 A 
ATOM     82  C   UNL A   1      48.260  27.265  23.520  1.00  0.00     0.091 A 
ATOM     83  F   UNL A   1      46.157  28.387  23.654  1.00  0.00    -0.205 F 
ATOM     84  C   UNL A   1      49.268  26.525  24.153  1.00  0.00     0.022 A 
BRANCH  82  85
ATOM     85  S   UNL A   1      48.473  27.631  21.774  1.00  0.00     0.127 S 
ATOM     86  O   UNL A   1      48.734  26.306  21.219  1.00  0.00    -0.237 OA
ATOM     87  O   UNL A   1      47.173  28.203  21.418  1.00  0.00    -0.237 OA
ATOM     88  O   UNL A   1      49.578  28.579  21.709  1.00  0.00    -0.744 OA
ENDBRANCH  82  85
ENDBRANCH  54  78
BRANCH  66  89
ATOM     89  C   UNL A   1      45.109  32.783  29.362  1.00  0.00     0.023 A 
ATOM     90  C   UNL A   1      45.933  32.817  30.503  1.00  0.00     0.012 A 
ATOM     91  C   UNL A   1      45.036  33.915  28.526  1.00  0.00     0.148 A 
ATOM     92  C   UNL A   1      46.656  33.967  30.820  1.00  0.00     0.002 A 
ATOM     93  C   UNL A   1      45.795  35.040  28.822  1.00  0.00     0.091 A 
ATOM     94  F   UNL A   1      44.230  33.868  27.454  1.00  0.00    -0.205 F 
ATOM     95  C   UNL A   1      46.597  35.072  29.974  1.00  0.00     0.022 A 
BRANCH  93  96
ATOM     96  S   UNL A   1      45.855  36.471  27.737  1.00  0.00     0.127 S 
ATOM     97  O   UNL A   1      46.380  37.502  28.630  1.00  0.00    -0.237 OA
ATOM     98  O   UNL A   1      46.786  36.034  26.695  1.00  0.00    -0.237 OA
ATOM     99  O   UNL A   1      44.489  36.679  27.274  1.00  0.00    -0.744 OA
ENDBRANCH  93  96
ENDBRANCH  66  89
ENDBRANCH  40  41
ENDBRANCH  32  35
ENDBRANCH  30  31
ENDBRANCH  29  30
ENDBRANCH  28  29
ENDBRANCH   1  28
TORSDOF 19
ENDMDL
MODEL 3
REMARK VINA RESULT:     -11.4      2.840      4.347
REMARK SMILES O=C(COc1ccccc1/C=C1\C(=O)Nc2ccccc21)NCCCCCCNC(=O)c1ccc(-c2c3nc(c(-c4cccc(S(=O)(=O)[O-])c4F)c4ccc([nH]4)c(-c4cccc(S(=O)(=O)[O-])c4F)c4nc(c(-c5cccc(S(=O)(=O)[O-])c5F)c5ccc2[nH]5)C=C4)C=C3)cc1
REMARK SMILES IDX 25 1 24 2 23 3 22 4 1 5 2 6 3 8 4 9 5 10 6 11 10 12 7 13
REMARK SMILES IDX 9 14 8 15 11 16 12 17 13 18 21 19 14 20 15 21 16 22 20 23
REMARK SMILES IDX 17 25 19 26 18 27 26 28 27 29 28 30 29 31 30 32 31 34 32 35
REMARK SMILES IDX 33 36 94 37 34 38 93 39 35 40 36 41 37 42 87 43 38 44 92 45
REMARK SMILES IDX 86 46 88 47 39 48 91 49 85 50 84 51 40 53 72 54 52 55 71 56
REMARK SMILES IDX 53 57 56 58 70 59 89 60 54 61 55 62 69 64 90 65 57 66 41 67
REMARK SMILES IDX 42 68 50 69 43 70 45 71 51 72 44 73 46 74 47 75 48 76 49 77
REMARK SMILES IDX 73 78 74 79 82 80 75 81 77 82 83 83 76 84 78 85 79 86 80 87
REMARK SMILES IDX 81 88 58 89 59 90 67 91 60 92 62 93 68 94 61 95 63 96 64 97
REMARK SMILES IDX 65 98 66 99
REMARK H PARENT 22 7 15 24 29 33 88 52 56 63
REMARK Flexibility Score: inf
ROOT
ATOM      1  C   UNL A   1      40.497  22.413  26.600  1.00  0.00     0.002 C 
ENDROOT
BRANCH   1   2
ATOM      2  C   UNL A   1      39.142  23.122  26.657  1.00  0.00     0.021 C 
BRANCH   2   3
ATOM      3  C   UNL A   1      38.052  22.539  25.778  1.00  0.00     0.116 C 
BRANCH   3   4
ATOM      4  N   UNL A   1      37.109  23.491  25.248  1.00  0.00    -0.353 N 
ATOM      5  O   UNL A   1      36.887  22.597  23.130  1.00  0.00    -0.271 OA
ATOM      6  C   UNL A   1      36.453  23.292  24.043  1.00  0.00     0.257 C 
ATOM      7  H   UNL A   1      36.926  24.312  25.759  1.00  0.00     0.163 HD
BRANCH   6   8
ATOM      8  C   UNL A   1      35.103  24.006  23.968  1.00  0.00     0.329 C 
BRANCH   8   9
ATOM      9  O   UNL A   1      34.469  23.521  22.781  1.00  0.00    -0.483 OA
BRANCH   9  10
ATOM     10  C   UNL A   1      33.137  23.823  22.669  1.00  0.00     0.127 A 
ATOM     11  C   UNL A   1      32.840  25.182  22.501  1.00  0.00     0.047 A 
ATOM     12  C   UNL A   1      32.140  22.881  23.011  1.00  0.00     0.017 A 
ATOM     13  C   UNL A   1      31.553  25.647  22.745  1.00  0.00     0.004 A 
ATOM     14  C   UNL A   1      30.896  23.407  23.377  1.00  0.00     0.012 A 
ATOM     15  C   UNL A   1      30.594  24.766  23.227  1.00  0.00     0.001 A 
BRANCH  12  16
ATOM     16  C   UNL A   1      32.403  21.417  23.053  1.00  0.00     0.026 C 
ATOM     17  C   UNL A   1      32.572  20.580  24.102  1.00  0.00     0.050 C 
ATOM     18  C   UNL A   1      32.597  20.887  25.591  1.00  0.00     0.256 C 
ATOM     19  C   UNL A   1      32.811  19.119  24.001  1.00  0.00     0.011 A 
ATOM     20  O   UNL A   1      32.335  21.920  26.172  1.00  0.00    -0.269 OA
ATOM     21  N   UNL A   1      32.961  19.702  26.207  1.00  0.00    -0.321 N 
ATOM     22  C   UNL A   1      33.067  18.663  25.296  1.00  0.00     0.049 A 
ATOM     23  C   UNL A   1      32.778  18.204  22.965  1.00  0.00     0.011 A 
ATOM     24  H   UNL A   1      33.124  19.610  27.173  1.00  0.00     0.170 HD
ATOM     25  C   UNL A   1      33.334  17.341  25.597  1.00  0.00     0.027 A 
ATOM     26  C   UNL A   1      33.042  16.853  23.238  1.00  0.00     0.001 A 
ATOM     27  C   UNL A   1      33.324  16.427  24.545  1.00  0.00     0.002 A 
ENDBRANCH  12  16
ENDBRANCH   9  10
ENDBRANCH   8   9
ENDBRANCH   6   8
ENDBRANCH   3   4
ENDBRANCH   2   3
ENDBRANCH   1   2
BRANCH   1  28
ATOM     28  C   UNL A   1      40.819  21.426  27.728  1.00  0.00     0.002 C 
BRANCH  28  29
ATOM     29  C   UNL A   1      41.258  20.019  27.317  1.00  0.00     0.021 C 
BRANCH  29  30
ATOM     30  C   UNL A   1      41.333  19.741  25.818  1.00  0.00     0.116 C 
BRANCH  30  31
ATOM     31  N   UNL A   1      42.630  19.251  25.382  1.00  0.00    -0.352 N 
ATOM     32  C   UNL A   1      43.817  19.933  25.259  1.00  0.00     0.251 C 
ATOM     33  H   UNL A   1      42.663  18.297  25.140  1.00  0.00     0.163 HD
ATOM     34  O   UNL A   1      44.803  19.367  24.793  1.00  0.00    -0.269 OA
BRANCH  32  35
ATOM     35  C   UNL A   1      43.901  21.359  25.652  1.00  0.00     0.039 A 
ATOM     36  C   UNL A   1      44.268  21.673  26.964  1.00  0.00     0.014 A 
ATOM     37  C   UNL A   1      43.622  22.381  24.742  1.00  0.00     0.014 A 
ATOM     38  C   UNL A   1      44.418  23.010  27.345  1.00  0.00     0.010 A 
ATOM     39  C   UNL A   1      43.834  23.710  25.104  1.00  0.00     0.010 A 
ATOM     40  C   UNL A   1      44.232  24.040  26.409  1.00  0.00    -0.014 A 
BRANCH  40  41
ATOM     41  C   UNL A   1      44.449  25.467  26.766  1.00  0.00     0.031 A 
ATOM     42  C   UNL A   1      45.827  26.065  26.679  1.00  0.00     0.074 A 
ATOM     43  C   UNL A   1      43.428  26.193  27.266  1.00  0.00     0.049 A 
ATOM     44  N   UNL A   1      46.235  27.253  27.043  1.00  0.00    -0.248 NA
ATOM     45  C   UNL A   1      46.894  25.206  26.138  1.00  0.00     0.031 C 
ATOM     46  C   UNL A   1      42.062  25.708  27.470  1.00  0.00     0.029 A 
ATOM     47  N   UNL A   1      43.392  27.487  27.729  1.00  0.00    -0.354 N 
ATOM     48  C   UNL A   1      47.607  27.269  26.820  1.00  0.00     0.074 A 
ATOM     49  C   UNL A   1      47.967  25.965  26.308  1.00  0.00     0.031 C 
ATOM     50  C   UNL A   1      41.325  26.684  28.024  1.00  0.00     0.029 A 
ATOM     51  C   UNL A   1      42.168  27.856  28.240  1.00  0.00     0.049 A 
ATOM     52  H   UNL A   1      44.167  28.092  27.698  1.00  0.00     0.167 HD
ATOM     53  C   UNL A   1      48.484  28.285  26.999  1.00  0.00     0.034 A 
ATOM     54  C   UNL A   1      41.773  29.005  28.825  1.00  0.00     0.034 A 
ATOM     55  C   UNL A   1      48.112  29.600  27.446  1.00  0.00     0.049 A 
ATOM     56  C   UNL A   1      42.757  30.138  28.952  1.00  0.00     0.074 A 
ATOM     57  C   UNL A   1      48.912  30.724  27.567  1.00  0.00     0.029 A 
ATOM     58  N   UNL A   1      46.839  29.972  27.842  1.00  0.00    -0.354 N 
ATOM     59  N   UNL A   1      44.014  30.183  28.585  1.00  0.00    -0.248 NA
ATOM     60  C   UNL A   1      42.258  31.392  29.539  1.00  0.00     0.031 C 
ATOM     61  C   UNL A   1      48.122  31.772  28.048  1.00  0.00     0.029 A 
ATOM     62  C   UNL A   1      46.828  31.306  28.209  1.00  0.00     0.049 A 
ATOM     63  H   UNL A   1      46.056  29.374  27.860  1.00  0.00     0.167 HD
ATOM     64  C   UNL A   1      44.444  31.478  28.855  1.00  0.00     0.074 A 
ATOM     65  C   UNL A   1      43.308  32.191  29.403  1.00  0.00     0.031 C 
ATOM     66  C   UNL A   1      45.672  32.023  28.681  1.00  0.00     0.034 A 
BRANCH  53  67
ATOM     67  C   UNL A   1      49.928  28.042  26.651  1.00  0.00     0.023 A 
ATOM     68  C   UNL A   1      50.845  27.735  27.677  1.00  0.00     0.012 A 
ATOM     69  C   UNL A   1      50.361  28.033  25.311  1.00  0.00     0.148 A 
ATOM     70  C   UNL A   1      52.176  27.449  27.377  1.00  0.00     0.002 A 
ATOM     71  C   UNL A   1      51.679  27.707  25.016  1.00  0.00     0.091 A 
ATOM     72  F   UNL A   1      49.478  28.347  24.352  1.00  0.00    -0.205 F 
ATOM     73  C   UNL A   1      52.590  27.423  26.048  1.00  0.00     0.022 A 
BRANCH  71  74
ATOM     74  S   UNL A   1      52.293  27.570  23.333  1.00  0.00     0.127 S 
ATOM     75  O   UNL A   1      51.150  26.964  22.652  1.00  0.00    -0.237 OA
ATOM     76  O   UNL A   1      52.542  28.968  22.981  1.00  0.00    -0.237 OA
ATOM     77  O   UNL A   1      53.488  26.739  23.408  1.00  0.00    -0.744 OA
ENDBRANCH  71  74
ENDBRANCH  53  67
BRANCH  54  78
ATOM     78  C   UNL A   1      40.361  29.170  29.273  1.00  0.00     0.023 A 
ATOM     79  C   UNL A   1      39.373  29.506  28.327  1.00  0.00     0.012 A 
ATOM     80  C   UNL A   1      39.989  28.988  30.619  1.00  0.00     0.148 A 
ATOM     81  C   UNL A   1      38.047  29.694  28.718  1.00  0.00     0.002 A 
ATOM     82  C   UNL A   1      38.656  29.125  30.993  1.00  0.00     0.091 A 
ATOM     83  F   UNL A   1      40.944  28.684  31.509  1.00  0.00    -0.205 F 
ATOM     84  C   UNL A   1      37.687  29.494  30.048  1.00  0.00     0.022 A 
BRANCH  82  85
ATOM     85  S   UNL A   1      38.091  28.760  32.659  1.00  0.00     0.127 S 
ATOM     86  O   UNL A   1      36.711  29.235  32.619  1.00  0.00    -0.237 OA
ATOM     87  O   UNL A   1      38.241  27.306  32.724  1.00  0.00    -0.237 OA
ATOM     88  O   UNL A   1      38.992  29.491  33.541  1.00  0.00    -0.744 OA
ENDBRANCH  82  85
ENDBRANCH  54  78
BRANCH  66  89
ATOM     89  C   UNL A   1      45.856  33.475  29.033  1.00  0.00     0.023 A 
ATOM     90  C   UNL A   1      46.373  33.830  30.293  1.00  0.00     0.012 A 
ATOM     91  C   UNL A   1      45.605  34.480  28.078  1.00  0.00     0.148 A 
ATOM     92  C   UNL A   1      46.615  35.166  30.608  1.00  0.00     0.002 A 
ATOM     93  C   UNL A   1      45.893  35.805  28.382  1.00  0.00     0.091 A 
ATOM     94  F   UNL A   1      45.095  34.123  26.890  1.00  0.00    -0.205 F 
ATOM     95  C   UNL A   1      46.388  36.151  29.650  1.00  0.00     0.022 A 
BRANCH  93  96
ATOM     96  S   UNL A   1      45.722  37.126  27.176  1.00  0.00     0.127 S 
ATOM     97  O   UNL A   1      46.514  36.614  26.058  1.00  0.00    -0.237 OA
ATOM     98  O   UNL A   1      44.278  37.148  26.939  1.00  0.00    -0.237 OA
ATOM     99  O   UNL A   1      46.245  38.324  27.818  1.00  0.00    -0.744 OA
ENDBRANCH  93  96
ENDBRANCH  66  89
ENDBRANCH  40  41
ENDBRANCH  32  35
ENDBRANCH  30  31
ENDBRANCH  29  30
ENDBRANCH  28  29
ENDBRANCH   1  28
TORSDOF 19
ENDMDL
