MODEL 1
REMARK VINA RESULT:     -12.4      0.000      0.000
REMARK SMILES Cc1ccc(C(F)(F)F)cc1/C=C/C(=O)NCCCCCCNC(=O)c1ccc(-c2c3nc(c(-c4cccc(S(=O)(=O)[O-])c4F)c4ccc([nH]4)c(-c4cccc(S(=O)(=O)[O-])c4F)c4nc(c(-c5cccc(S(=O)(=O)[O-])c5F)c5ccc2[nH]5)C=C4)C=C3)cc1
REMARK SMILES IDX 20 1 19 2 18 3 17 4 16 5 14 6 15 7 13 9 12 10 11 11 1 12
REMARK SMILES IDX 2 13 3 14 4 15 10 16 5 17 6 18 7 19 8 20 9 21 21 22 22 23
REMARK SMILES IDX 23 24 24 25 25 27 26 28 27 29 88 30 28 31 87 32 29 33 30 34
REMARK SMILES IDX 31 35 81 36 32 37 86 38 80 39 82 40 33 41 85 42 79 43 78 44
REMARK SMILES IDX 34 46 66 47 46 48 65 49 47 50 50 51 64 52 83 53 48 54 49 55
REMARK SMILES IDX 63 57 84 58 51 59 35 60 36 61 44 62 37 63 39 64 45 65 38 66
REMARK SMILES IDX 40 67 41 68 42 69 43 70 67 71 68 72 76 73 69 74 71 75 77 76
REMARK SMILES IDX 70 77 72 78 73 79 74 80 75 81 52 82 53 83 61 84 54 85 56 86
REMARK SMILES IDX 62 87 55 88 57 89 58 90 59 91 60 92
REMARK H PARENT 16 8 23 26 82 45 50 56
REMARK Flexibility Score: inf
ROOT
ATOM      1  C   UNL A   1      32.789  28.684  27.433  1.00  0.00     0.002 C 
ENDROOT
BRANCH   1   2
ATOM      2  C   UNL A   1      31.539  28.323  26.611  1.00  0.00     0.002 C 
BRANCH   2   3
ATOM      3  C   UNL A   1      31.770  28.062  25.116  1.00  0.00     0.021 C 
BRANCH   3   4
ATOM      4  C   UNL A   1      33.017  27.235  24.813  1.00  0.00     0.116 C 
BRANCH   4   5
ATOM      5  N   UNL A   1      33.278  27.177  23.390  1.00  0.00    -0.353 N 
ATOM      6  C   UNL A   1      33.583  26.116  22.601  1.00  0.00     0.243 C 
ATOM      7  O   UNL A   1      33.620  26.246  21.379  1.00  0.00    -0.270 OA
ATOM      8  H   UNL A   1      33.228  28.043  22.923  1.00  0.00     0.163 HD
BRANCH   6   9
ATOM      9  C   UNL A   1      33.770  24.772  23.189  1.00  0.00     0.072 C 
ATOM     10  C   UNL A   1      34.917  24.332  23.732  1.00  0.00     0.014 C 
BRANCH  10  11
ATOM     11  C   UNL A   1      35.065  22.969  24.272  1.00  0.00    -0.022 A 
ATOM     12  C   UNL A   1      37.504  23.357  24.990  1.00  0.00     0.045 C 
ATOM     13  C   UNL A   1      36.268  22.509  24.842  1.00  0.00    -0.044 A 
ATOM     14  C   UNL A   1      36.352  21.174  25.278  1.00  0.00     0.004 A 
ATOM     15  C   UNL A   1      35.259  20.313  25.181  1.00  0.00     0.013 A 
ATOM     16  C   UNL A   1      33.975  22.085  24.171  1.00  0.00     0.021 A 
ATOM     17  C   UNL A   1      34.053  20.764  24.636  1.00  0.00     0.056 A 
BRANCH  17  18
ATOM     18  C   UNL A   1      32.870  19.836  24.536  1.00  0.00     0.416 C 
ATOM     19  F   UNL A   1      32.666  19.377  23.270  1.00  0.00    -0.166 F 
ATOM     20  F   UNL A   1      33.010  18.726  25.316  1.00  0.00    -0.166 F 
ATOM     21  F   UNL A   1      31.693  20.406  24.921  1.00  0.00    -0.166 F 
ENDBRANCH  17  18
ENDBRANCH  10  11
ENDBRANCH   6   9
ENDBRANCH   4   5
ENDBRANCH   3   4
ENDBRANCH   2   3
ENDBRANCH   1   2
BRANCH   1  22
ATOM     22  C   UNL A   1      33.135  30.173  27.510  1.00  0.00     0.021 C 
BRANCH  22  23
ATOM     23  C   UNL A   1      34.413  30.543  26.775  1.00  0.00     0.116 C 
BRANCH  23  24
ATOM     24  N   UNL A   1      35.230  31.506  27.488  1.00  0.00    -0.352 N 
ATOM     25  C   UNL A   1      36.336  31.301  28.289  1.00  0.00     0.251 C 
ATOM     26  H   UNL A   1      34.956  32.446  27.384  1.00  0.00     0.163 HD
ATOM     27  O   UNL A   1      36.724  32.228  28.996  1.00  0.00    -0.269 OA
BRANCH  25  28
ATOM     28  C   UNL A   1      37.115  30.041  28.179  1.00  0.00     0.039 A 
ATOM     29  C   UNL A   1      37.114  29.178  29.282  1.00  0.00     0.014 A 
ATOM     30  C   UNL A   1      38.006  29.818  27.132  1.00  0.00     0.014 A 
ATOM     31  C   UNL A   1      38.167  28.282  29.462  1.00  0.00     0.010 A 
ATOM     32  C   UNL A   1      39.092  29.000  27.343  1.00  0.00     0.010 A 
ATOM     33  C   UNL A   1      39.211  28.297  28.544  1.00  0.00    -0.014 A 
BRANCH  33  34
ATOM     34  C   UNL A   1      40.488  27.627  28.717  1.00  0.00     0.031 A 
ATOM     35  C   UNL A   1      40.573  26.168  28.532  1.00  0.00     0.074 A 
ATOM     36  C   UNL A   1      41.601  28.384  28.840  1.00  0.00     0.049 A 
ATOM     37  N   UNL A   1      41.618  25.466  28.790  1.00  0.00    -0.248 NA
ATOM     38  C   UNL A   1      39.450  25.385  28.038  1.00  0.00     0.031 C 
ATOM     39  C   UNL A   1      42.989  27.971  28.662  1.00  0.00     0.029 A 
ATOM     40  N   UNL A   1      41.708  29.672  29.377  1.00  0.00    -0.354 N 
ATOM     41  C   UNL A   1      41.411  24.201  28.286  1.00  0.00     0.074 A 
ATOM     42  C   UNL A   1      40.024  24.187  27.889  1.00  0.00     0.031 C 
ATOM     43  C   UNL A   1      43.779  28.815  29.345  1.00  0.00     0.029 A 
ATOM     44  C   UNL A   1      42.897  29.659  30.133  1.00  0.00     0.049 A 
ATOM     45  H   UNL A   1      41.086  30.425  29.253  1.00  0.00     0.167 HD
ATOM     46  C   UNL A   1      42.486  23.367  28.170  1.00  0.00     0.034 A 
ATOM     47  C   UNL A   1      42.905  29.752  31.500  1.00  0.00     0.034 A 
ATOM     48  C   UNL A   1      43.662  23.945  28.843  1.00  0.00     0.049 A 
ATOM     49  C   UNL A   1      43.535  28.541  32.191  1.00  0.00     0.074 A 
ATOM     50  C   UNL A   1      44.769  24.675  28.437  1.00  0.00     0.029 A 
ATOM     51  N   UNL A   1      43.626  24.050  30.221  1.00  0.00    -0.354 N 
ATOM     52  N   UNL A   1      44.029  27.502  31.573  1.00  0.00    -0.248 NA
ATOM     53  C   UNL A   1      43.561  28.374  33.646  1.00  0.00     0.031 C 
ATOM     54  C   UNL A   1      45.341  25.287  29.598  1.00  0.00     0.029 A 
ATOM     55  C   UNL A   1      44.603  24.901  30.705  1.00  0.00     0.049 A 
ATOM     56  H   UNL A   1      42.981  23.573  30.792  1.00  0.00     0.167 HD
ATOM     57  C   UNL A   1      44.268  26.501  32.478  1.00  0.00     0.074 A 
ATOM     58  C   UNL A   1      43.998  27.111  33.770  1.00  0.00     0.031 C 
ATOM     59  C   UNL A   1      44.599  25.222  32.127  1.00  0.00     0.034 A 
BRANCH  46  60
ATOM     60  C   UNL A   1      42.566  22.122  27.301  1.00  0.00     0.023 A 
ATOM     61  C   UNL A   1      41.652  21.081  27.587  1.00  0.00     0.012 A 
ATOM     62  C   UNL A   1      43.500  21.848  26.275  1.00  0.00     0.148 A 
ATOM     63  C   UNL A   1      41.709  19.830  26.961  1.00  0.00     0.002 A 
ATOM     64  C   UNL A   1      43.597  20.583  25.686  1.00  0.00     0.091 A 
ATOM     65  F   UNL A   1      44.273  22.821  25.796  1.00  0.00    -0.205 F 
ATOM     66  C   UNL A   1      42.701  19.569  26.028  1.00  0.00     0.022 A 
BRANCH  64  67
ATOM     67  S   UNL A   1      44.904  20.153  24.519  1.00  0.00     0.127 S 
ATOM     68  O   UNL A   1      46.111  20.493  25.276  1.00  0.00    -0.237 OA
ATOM     69  O   UNL A   1      44.694  18.721  24.323  1.00  0.00    -0.237 OA
ATOM     70  O   UNL A   1      44.691  20.982  23.337  1.00  0.00    -0.744 OA
ENDBRANCH  64  67
ENDBRANCH  46  60
BRANCH  47  71
ATOM     71  C   UNL A   1      41.748  30.538  32.041  1.00  0.00     0.023 A 
ATOM     72  C   UNL A   1      41.605  31.871  31.583  1.00  0.00     0.012 A 
ATOM     73  C   UNL A   1      40.642  29.912  32.638  1.00  0.00     0.148 A 
ATOM     74  C   UNL A   1      40.351  32.482  31.540  1.00  0.00     0.002 A 
ATOM     75  C   UNL A   1      39.401  30.545  32.627  1.00  0.00     0.091 A 
ATOM     76  F   UNL A   1      40.785  28.684  33.148  1.00  0.00    -0.205 F 
ATOM     77  C   UNL A   1      39.240  31.802  32.025  1.00  0.00     0.022 A 
BRANCH  75  78
ATOM     78  S   UNL A   1      37.950  29.721  33.293  1.00  0.00     0.127 S 
ATOM     79  O   UNL A   1      38.108  28.374  32.755  1.00  0.00    -0.237 OA
ATOM     80  O   UNL A   1      38.148  29.835  34.737  1.00  0.00    -0.237 OA
ATOM     81  O   UNL A   1      36.827  30.497  32.785  1.00  0.00    -0.744 OA
ENDBRANCH  75  78
ENDBRANCH  47  71
BRANCH  59  82
ATOM     82  C   UNL A   1      44.948  24.162  33.150  1.00  0.00     0.023 A 
ATOM     83  C   UNL A   1      43.954  23.274  33.608  1.00  0.00     0.012 A 
ATOM     84  C   UNL A   1      46.206  24.111  33.798  1.00  0.00     0.148 A 
ATOM     85  C   UNL A   1      44.208  22.344  34.622  1.00  0.00     0.002 A 
ATOM     86  C   UNL A   1      46.420  23.260  34.878  1.00  0.00     0.091 A 
ATOM     87  F   UNL A   1      47.223  24.848  33.336  1.00  0.00    -0.205 F 
ATOM     88  C   UNL A   1      45.435  22.352  35.272  1.00  0.00     0.022 A 
BRANCH  86  89
ATOM     89  S   UNL A   1      47.892  23.377  35.906  1.00  0.00     0.127 S 
ATOM     90  O   UNL A   1      48.953  23.046  34.951  1.00  0.00    -0.237 OA
ATOM     91  O   UNL A   1      47.860  24.776  36.321  1.00  0.00    -0.237 OA
ATOM     92  O   UNL A   1      47.713  22.389  36.962  1.00  0.00    -0.744 OA
ENDBRANCH  86  89
ENDBRANCH  59  82
ENDBRANCH  33  34
ENDBRANCH  25  28
ENDBRANCH  23  24
ENDBRANCH  22  23
ENDBRANCH   1  22
TORSDOF 18
ENDMDL
MODEL 2
REMARK VINA RESULT:     -12.0      1.841      2.253
REMARK SMILES Cc1ccc(C(F)(F)F)cc1/C=C/C(=O)NCCCCCCNC(=O)c1ccc(-c2c3nc(c(-c4cccc(S(=O)(=O)[O-])c4F)c4ccc([nH]4)c(-c4cccc(S(=O)(=O)[O-])c4F)c4nc(c(-c5cccc(S(=O)(=O)[O-])c5F)c5ccc2[nH]5)C=C4)C=C3)cc1
REMARK SMILES IDX 20 1 19 2 18 3 17 4 16 5 14 6 15 7 13 9 12 10 11 11 1 12
REMARK SMILES IDX 2 13 3 14 4 15 10 16 5 17 6 18 7 19 8 20 9 21 21 22 22 23
REMARK SMILES IDX 23 24 24 25 25 27 26 28 27 29 88 30 28 31 87 32 29 33 30 34
REMARK SMILES IDX 31 35 81 36 32 37 86 38 80 39 82 40 33 41 85 42 79 43 78 44
REMARK SMILES IDX 34 46 66 47 46 48 65 49 47 50 50 51 64 52 83 53 48 54 49 55
REMARK SMILES IDX 63 57 84 58 51 59 35 60 36 61 44 62 37 63 39 64 45 65 38 66
REMARK SMILES IDX 40 67 41 68 42 69 43 70 67 71 68 72 76 73 69 74 71 75 77 76
REMARK SMILES IDX 70 77 72 78 73 79 74 80 75 81 52 82 53 83 61 84 54 85 56 86
REMARK SMILES IDX 62 87 55 88 57 89 58 90 59 91 60 92
REMARK H PARENT 16 8 23 26 82 45 50 56
REMARK Flexibility Score: inf
ROOT
ATOM      1  C   UNL A   1      32.692  28.216  27.225  1.00  0.00     0.002 C 
ENDROOT
BRANCH   1   2
ATOM      2  C   UNL A   1      31.648  27.474  26.371  1.00  0.00     0.002 C 
BRANCH   2   3
ATOM      3  C   UNL A   1      31.801  27.613  24.850  1.00  0.00     0.021 C 
BRANCH   3   4
ATOM      4  C   UNL A   1      33.249  27.601  24.366  1.00  0.00     0.116 C 
BRANCH   4   5
ATOM      5  N   UNL A   1      33.331  27.272  22.958  1.00  0.00    -0.353 N 
ATOM      6  C   UNL A   1      33.478  26.067  22.350  1.00  0.00     0.243 C 
ATOM      7  O   UNL A   1      33.372  25.975  21.129  1.00  0.00    -0.270 OA
ATOM      8  H   UNL A   1      33.272  28.042  22.347  1.00  0.00     0.163 HD
BRANCH   6   9
ATOM      9  C   UNL A   1      33.661  24.839  23.153  1.00  0.00     0.072 C 
ATOM     10  C   UNL A   1      34.828  24.190  23.297  1.00  0.00     0.014 C 
BRANCH  10  11
ATOM     11  C   UNL A   1      34.952  22.947  24.077  1.00  0.00    -0.022 A 
ATOM     12  C   UNL A   1      37.247  23.600  25.036  1.00  0.00     0.045 C 
ATOM     13  C   UNL A   1      36.079  22.663  24.872  1.00  0.00    -0.044 A 
ATOM     14  C   UNL A   1      36.153  21.427  25.539  1.00  0.00     0.004 A 
ATOM     15  C   UNL A   1      35.119  20.494  25.446  1.00  0.00     0.013 A 
ATOM     16  C   UNL A   1      33.922  21.992  23.985  1.00  0.00     0.021 A 
ATOM     17  C   UNL A   1      33.985  20.773  24.676  1.00  0.00     0.056 A 
BRANCH  17  18
ATOM     18  C   UNL A   1      32.866  19.769  24.581  1.00  0.00     0.416 C 
ATOM     19  F   UNL A   1      32.628  19.366  23.302  1.00  0.00    -0.166 F 
ATOM     20  F   UNL A   1      33.124  18.631  25.286  1.00  0.00    -0.166 F 
ATOM     21  F   UNL A   1      31.675  20.230  25.056  1.00  0.00    -0.166 F 
ENDBRANCH  17  18
ENDBRANCH  10  11
ENDBRANCH   6   9
ENDBRANCH   4   5
ENDBRANCH   3   4
ENDBRANCH   2   3
ENDBRANCH   1   2
BRANCH   1  22
ATOM     22  C   UNL A   1      32.482  29.724  27.380  1.00  0.00     0.021 C 
BRANCH  22  23
ATOM     23  C   UNL A   1      33.614  30.562  26.809  1.00  0.00     0.116 C 
BRANCH  23  24
ATOM     24  N   UNL A   1      34.122  31.555  27.736  1.00  0.00    -0.352 N 
ATOM     25  C   UNL A   1      35.076  31.428  28.726  1.00  0.00     0.251 C 
ATOM     26  H   UNL A   1      33.729  32.453  27.644  1.00  0.00     0.163 HD
ATOM     27  O   UNL A   1      35.174  32.327  29.559  1.00  0.00    -0.269 OA
BRANCH  25  28
ATOM     28  C   UNL A   1      36.050  30.307  28.688  1.00  0.00     0.039 A 
ATOM     29  C   UNL A   1      36.277  29.603  29.877  1.00  0.00     0.014 A 
ATOM     30  C   UNL A   1      36.886  30.099  27.595  1.00  0.00     0.014 A 
ATOM     31  C   UNL A   1      37.478  28.920  30.059  1.00  0.00     0.010 A 
ATOM     32  C   UNL A   1      38.109  29.501  27.794  1.00  0.00     0.010 A 
ATOM     33  C   UNL A   1      38.434  28.986  29.051  1.00  0.00    -0.014 A 
BRANCH  33  34
ATOM     34  C   UNL A   1      39.817  28.558  29.179  1.00  0.00     0.031 A 
ATOM     35  C   UNL A   1      40.182  27.172  28.841  1.00  0.00     0.074 A 
ATOM     36  C   UNL A   1      40.763  29.497  29.407  1.00  0.00     0.049 A 
ATOM     37  N   UNL A   1      41.343  26.660  29.044  1.00  0.00    -0.248 NA
ATOM     38  C   UNL A   1      39.232  26.247  28.242  1.00  0.00     0.031 C 
ATOM     39  C   UNL A   1      42.204  29.380  29.216  1.00  0.00     0.029 A 
ATOM     40  N   UNL A   1      40.619  30.714  30.081  1.00  0.00    -0.354 N 
ATOM     41  C   UNL A   1      41.385  25.441  28.403  1.00  0.00     0.074 A 
ATOM     42  C   UNL A   1      40.027  25.205  27.977  1.00  0.00     0.031 C 
ATOM     43  C   UNL A   1      42.815  30.280  30.003  1.00  0.00     0.029 A 
ATOM     44  C   UNL A   1      41.787  30.847  30.857  1.00  0.00     0.049 A 
ATOM     45  H   UNL A   1      39.863  31.344  30.026  1.00  0.00     0.167 HD
ATOM     46  C   UNL A   1      42.600  24.847  28.222  1.00  0.00     0.034 A 
ATOM     47  C   UNL A   1      41.776  30.790  32.226  1.00  0.00     0.034 A 
ATOM     48  C   UNL A   1      43.642  25.563  28.978  1.00  0.00     0.049 A 
ATOM     49  C   UNL A   1      42.627  29.655  32.797  1.00  0.00     0.074 A 
ATOM     50  C   UNL A   1      44.588  26.532  28.678  1.00  0.00     0.029 A 
ATOM     51  N   UNL A   1      43.586  25.507  30.359  1.00  0.00    -0.354 N 
ATOM     52  N   UNL A   1      43.313  28.803  32.082  1.00  0.00    -0.248 NA
ATOM     53  C   UNL A   1      42.684  29.337  34.226  1.00  0.00     0.031 C 
ATOM     54  C   UNL A   1      45.030  27.112  29.910  1.00  0.00     0.029 A 
ATOM     55  C   UNL A   1      44.380  26.472  30.953  1.00  0.00     0.049 A 
ATOM     56  H   UNL A   1      43.044  24.856  30.861  1.00  0.00     0.167 HD
ATOM     57  C   UNL A   1      43.740  27.774  32.880  1.00  0.00     0.074 A 
ATOM     58  C   UNL A   1      43.357  28.175  34.223  1.00  0.00     0.031 C 
ATOM     59  C   UNL A   1      44.312  26.628  32.401  1.00  0.00     0.034 A 
BRANCH  46  60
ATOM     60  C   UNL A   1      42.920  23.744  27.227  1.00  0.00     0.023 A 
ATOM     61  C   UNL A   1      43.628  24.118  26.060  1.00  0.00     0.012 A 
ATOM     62  C   UNL A   1      42.531  22.385  27.294  1.00  0.00     0.148 A 
ATOM     63  C   UNL A   1      43.863  23.232  25.001  1.00  0.00     0.002 A 
ATOM     64  C   UNL A   1      42.715  21.512  26.216  1.00  0.00     0.091 A 
ATOM     65  F   UNL A   1      42.036  21.886  28.426  1.00  0.00    -0.205 F 
ATOM     66  C   UNL A   1      43.380  21.935  25.065  1.00  0.00     0.022 A 
BRANCH  64  67
ATOM     67  S   UNL A   1      42.053  19.834  26.204  1.00  0.00     0.127 S 
ATOM     68  O   UNL A   1      40.612  20.076  26.107  1.00  0.00    -0.237 OA
ATOM     69  O   UNL A   1      42.654  19.266  24.999  1.00  0.00    -0.237 OA
ATOM     70  O   UNL A   1      42.469  19.217  27.459  1.00  0.00    -0.744 OA
ENDBRANCH  64  67
ENDBRANCH  46  60
BRANCH  47  71
ATOM     71  C   UNL A   1      40.489  31.275  32.824  1.00  0.00     0.023 A 
ATOM     72  C   UNL A   1      39.488  30.303  33.072  1.00  0.00     0.012 A 
ATOM     73  C   UNL A   1      40.396  32.515  33.478  1.00  0.00     0.148 A 
ATOM     74  C   UNL A   1      38.546  30.489  34.085  1.00  0.00     0.002 A 
ATOM     75  C   UNL A   1      39.428  32.707  34.460  1.00  0.00     0.091 A 
ATOM     76  F   UNL A   1      41.287  33.471  33.191  1.00  0.00    -0.205 F 
ATOM     77  C   UNL A   1      38.542  31.676  34.808  1.00  0.00     0.022 A 
BRANCH  75  78
ATOM     78  S   UNL A   1      39.354  34.248  35.381  1.00  0.00     0.127 S 
ATOM     79  O   UNL A   1      38.463  33.888  36.478  1.00  0.00    -0.237 OA
ATOM     80  O   UNL A   1      40.749  34.461  35.765  1.00  0.00    -0.237 OA
ATOM     81  O   UNL A   1      38.848  35.220  34.423  1.00  0.00    -0.744 OA
ENDBRANCH  75  78
ENDBRANCH  47  71
BRANCH  59  82
ATOM     82  C   UNL A   1      44.859  25.549  33.312  1.00  0.00     0.023 A 
ATOM     83  C   UNL A   1      43.972  24.714  34.021  1.00  0.00     0.012 A 
ATOM     84  C   UNL A   1      46.237  25.431  33.613  1.00  0.00     0.148 A 
ATOM     85  C   UNL A   1      44.432  23.770  34.945  1.00  0.00     0.002 A 
ATOM     86  C   UNL A   1      46.678  24.568  34.612  1.00  0.00     0.091 A 
ATOM     87  F   UNL A   1      47.137  26.115  32.897  1.00  0.00    -0.205 F 
ATOM     88  C   UNL A   1      45.783  23.712  35.258  1.00  0.00     0.022 A 
BRANCH  86  89
ATOM     89  S   UNL A   1      48.370  24.605  35.224  1.00  0.00     0.127 S 
ATOM     90  O   UNL A   1      48.682  26.035  35.159  1.00  0.00    -0.237 OA
ATOM     91  O   UNL A   1      48.213  24.076  36.576  1.00  0.00    -0.237 OA
ATOM     92  O   UNL A   1      49.141  23.786  34.299  1.00  0.00    -0.744 OA
ENDBRANCH  86  89
ENDBRANCH  59  82
ENDBRANCH  33  34
ENDBRANCH  25  28
ENDBRANCH  23  24
ENDBRANCH  22  23
ENDBRANCH   1  22
TORSDOF 18
ENDMDL
MODEL 3
REMARK VINA RESULT:     -11.4      1.701      2.170
REMARK SMILES Cc1ccc(C(F)(F)F)cc1/C=C/C(=O)NCCCCCCNC(=O)c1ccc(-c2c3nc(c(-c4cccc(S(=O)(=O)[O-])c4F)c4ccc([nH]4)c(-c4cccc(S(=O)(=O)[O-])c4F)c4nc(c(-c5cccc(S(=O)(=O)[O-])c5F)c5ccc2[nH]5)C=C4)C=C3)cc1
REMARK SMILES IDX 20 1 19 2 18 3 17 4 16 5 14 6 15 7 13 9 12 10 11 11 1 12
REMARK SMILES IDX 2 13 3 14 4 15 10 16 5 17 6 18 7 19 8 20 9 21 21 22 22 23
REMARK SMILES IDX 23 24 24 25 25 27 26 28 27 29 88 30 28 31 87 32 29 33 30 34
REMARK SMILES IDX 31 35 81 36 32 37 86 38 80 39 82 40 33 41 85 42 79 43 78 44
REMARK SMILES IDX 34 46 66 47 46 48 65 49 47 50 50 51 64 52 83 53 48 54 49 55
REMARK SMILES IDX 63 57 84 58 51 59 35 60 36 61 44 62 37 63 39 64 45 65 38 66
REMARK SMILES IDX 40 67 41 68 42 69 43 70 67 71 68 72 76 73 69 74 71 75 77 76
REMARK SMILES IDX 70 77 72 78 73 79 74 80 75 81 52 82 53 83 61 84 54 85 56 86
REMARK SMILES IDX 62 87 55 88 57 89 58 90 59 91 60 92
REMARK H PARENT 16 8 23 26 82 45 50 56
REMARK Flexibility Score: inf
ROOT
ATOM      1  C   UNL A   1      33.627  29.470  26.531  1.00  0.00     0.002 C 
ENDROOT
BRANCH   1   2
ATOM      2  C   UNL A   1      33.290  28.081  27.104  1.00  0.00     0.002 C 
BRANCH   2   3
ATOM      3  C   UNL A   1      33.076  26.963  26.075  1.00  0.00     0.021 C 
BRANCH   3   4
ATOM      4  C   UNL A   1      31.835  26.111  26.331  1.00  0.00     0.116 C 
BRANCH   4   5
ATOM      5  N   UNL A   1      31.067  25.921  25.118  1.00  0.00    -0.353 N 
ATOM      6  C   UNL A   1      30.931  24.822  24.333  1.00  0.00     0.243 C 
ATOM      7  O   UNL A   1      30.107  24.813  23.421  1.00  0.00    -0.270 OA
ATOM      8  H   UNL A   1      30.567  26.713  24.814  1.00  0.00     0.163 HD
BRANCH   6   9
ATOM      9  C   UNL A   1      31.693  23.590  24.630  1.00  0.00     0.072 C 
ATOM     10  C   UNL A   1      32.701  23.119  23.878  1.00  0.00     0.014 C 
BRANCH  10  11
ATOM     11  C   UNL A   1      33.405  21.864  24.194  1.00  0.00    -0.022 A 
ATOM     12  C   UNL A   1      35.459  23.080  25.150  1.00  0.00     0.045 C 
ATOM     13  C   UNL A   1      34.690  21.843  24.770  1.00  0.00    -0.044 A 
ATOM     14  C   UNL A   1      35.324  20.605  24.984  1.00  0.00     0.004 A 
ATOM     15  C   UNL A   1      34.690  19.404  24.663  1.00  0.00     0.013 A 
ATOM     16  C   UNL A   1      32.783  20.645  23.866  1.00  0.00     0.021 A 
ATOM     17  C   UNL A   1      33.406  19.412  24.110  1.00  0.00     0.056 A 
BRANCH  17  18
ATOM     18  C   UNL A   1      32.718  18.116  23.767  1.00  0.00     0.416 C 
ATOM     19  F   UNL A   1      32.095  18.153  22.557  1.00  0.00    -0.166 F 
ATOM     20  F   UNL A   1      33.586  17.065  23.706  1.00  0.00    -0.166 F 
ATOM     21  F   UNL A   1      31.764  17.747  24.668  1.00  0.00    -0.166 F 
ENDBRANCH  17  18
ENDBRANCH  10  11
ENDBRANCH   6   9
ENDBRANCH   4   5
ENDBRANCH   3   4
ENDBRANCH   2   3
ENDBRANCH   1   2
BRANCH   1  22
ATOM     22  C   UNL A   1      33.146  30.669  27.352  1.00  0.00     0.021 C 
BRANCH  22  23
ATOM     23  C   UNL A   1      34.115  31.841  27.348  1.00  0.00     0.116 C 
BRANCH  23  24
ATOM     24  N   UNL A   1      34.471  32.300  28.676  1.00  0.00    -0.352 N 
ATOM     25  C   UNL A   1      35.222  31.674  29.652  1.00  0.00     0.251 C 
ATOM     26  H   UNL A   1      34.127  33.190  28.918  1.00  0.00     0.163 HD
ATOM     27  O   UNL A   1      35.190  32.130  30.793  1.00  0.00    -0.269 OA
BRANCH  25  28
ATOM     28  C   UNL A   1      36.154  30.576  29.289  1.00  0.00     0.039 A 
ATOM     29  C   UNL A   1      36.438  29.615  30.268  1.00  0.00     0.014 A 
ATOM     30  C   UNL A   1      36.907  30.609  28.119  1.00  0.00     0.014 A 
ATOM     31  C   UNL A   1      37.626  28.889  30.201  1.00  0.00     0.010 A 
ATOM     32  C   UNL A   1      38.120  29.961  28.087  1.00  0.00     0.010 A 
ATOM     33  C   UNL A   1      38.513  29.168  29.167  1.00  0.00    -0.014 A 
BRANCH  33  34
ATOM     34  C   UNL A   1      39.887  28.700  29.093  1.00  0.00     0.031 A 
ATOM     35  C   UNL A   1      40.155  27.261  28.931  1.00  0.00     0.074 A 
ATOM     36  C   UNL A   1      40.873  29.616  28.968  1.00  0.00     0.049 A 
ATOM     37  N   UNL A   1      41.325  26.733  28.988  1.00  0.00    -0.248 NA
ATOM     38  C   UNL A   1      39.090  26.297  28.697  1.00  0.00     0.031 C 
ATOM     39  C   UNL A   1      42.244  29.398  28.521  1.00  0.00     0.029 A 
ATOM     40  N   UNL A   1      40.886  30.933  29.439  1.00  0.00    -0.354 N 
ATOM     41  C   UNL A   1      41.219  25.425  28.569  1.00  0.00     0.074 A 
ATOM     42  C   UNL A   1      39.799  25.188  28.464  1.00  0.00     0.031 C 
ATOM     43  C   UNL A   1      43.015  30.385  29.006  1.00  0.00     0.029 A 
ATOM     44  C   UNL A   1      42.189  31.134  29.936  1.00  0.00     0.049 A 
ATOM     45  H   UNL A   1      40.144  31.581  29.426  1.00  0.00     0.167 HD
ATOM     46  C   UNL A   1      42.364  24.750  28.257  1.00  0.00     0.034 A 
ATOM     47  C   UNL A   1      42.453  31.303  31.270  1.00  0.00     0.034 A 
ATOM     48  C   UNL A   1      43.547  25.529  28.661  1.00  0.00     0.049 A 
ATOM     49  C   UNL A   1      43.384  30.237  31.848  1.00  0.00     0.074 A 
ATOM     50  C   UNL A   1      44.427  26.388  28.020  1.00  0.00     0.029 A 
ATOM     51  N   UNL A   1      43.769  25.703  30.015  1.00  0.00    -0.354 N 
ATOM     52  N   UNL A   1      43.899  29.247  31.169  1.00  0.00    -0.248 NA
ATOM     53  C   UNL A   1      43.723  30.156  33.272  1.00  0.00     0.031 C 
ATOM     54  C   UNL A   1      45.117  27.139  29.024  1.00  0.00     0.029 A 
ATOM     55  C   UNL A   1      44.681  26.712  30.268  1.00  0.00     0.049 A 
ATOM     56  H   UNL A   1      43.330  25.171  30.717  1.00  0.00     0.167 HD
ATOM     57  C   UNL A   1      44.462  28.343  32.032  1.00  0.00     0.074 A 
ATOM     58  C   UNL A   1      44.364  28.978  33.335  1.00  0.00     0.031 C 
ATOM     59  C   UNL A   1      44.909  27.107  31.652  1.00  0.00     0.034 A 
BRANCH  46  60
ATOM     60  C   UNL A   1      42.460  23.483  27.422  1.00  0.00     0.023 A 
ATOM     61  C   UNL A   1      41.600  22.416  27.775  1.00  0.00     0.012 A 
ATOM     62  C   UNL A   1      43.363  23.215  26.366  1.00  0.00     0.148 A 
ATOM     63  C   UNL A   1      41.684  21.150  27.183  1.00  0.00     0.002 A 
ATOM     64  C   UNL A   1      43.487  21.938  25.810  1.00  0.00     0.091 A 
ATOM     65  F   UNL A   1      44.075  24.204  25.828  1.00  0.00    -0.205 F 
ATOM     66  C   UNL A   1      42.648  20.901  26.218  1.00  0.00     0.022 A 
BRANCH  64  67
ATOM     67  S   UNL A   1      44.762  21.525  24.603  1.00  0.00     0.127 S 
ATOM     68  O   UNL A   1      44.460  20.122  24.310  1.00  0.00    -0.237 OA
ATOM     69  O   UNL A   1      44.473  22.448  23.509  1.00  0.00    -0.237 OA
ATOM     70  O   UNL A   1      46.043  21.730  25.270  1.00  0.00    -0.744 OA
ENDBRANCH  64  67
ENDBRANCH  46  60
BRANCH  47  71
ATOM     71  C   UNL A   1      41.320  31.943  32.016  1.00  0.00     0.023 A 
ATOM     72  C   UNL A   1      40.960  33.259  31.635  1.00  0.00     0.012 A 
ATOM     73  C   UNL A   1      40.399  31.184  32.757  1.00  0.00     0.148 A 
ATOM     74  C   UNL A   1      39.656  33.724  31.814  1.00  0.00     0.002 A 
ATOM     75  C   UNL A   1      39.111  31.672  32.966  1.00  0.00     0.091 A 
ATOM     76  F   UNL A   1      40.756  29.971  33.194  1.00  0.00    -0.205 F 
ATOM     77  C   UNL A   1      38.719  32.913  32.444  1.00  0.00     0.022 A 
BRANCH  75  78
ATOM     78  S   UNL A   1      37.885  30.676  33.823  1.00  0.00     0.127 S 
ATOM     79  O   UNL A   1      37.957  31.226  35.173  1.00  0.00    -0.237 OA
ATOM     80  O   UNL A   1      36.655  30.984  33.097  1.00  0.00    -0.237 OA
ATOM     81  O   UNL A   1      38.348  29.306  33.653  1.00  0.00    -0.744 OA
ENDBRANCH  75  78
ENDBRANCH  47  71
BRANCH  59  82
ATOM     82  C   UNL A   1      45.611  26.167  32.609  1.00  0.00     0.023 A 
ATOM     83  C   UNL A   1      47.008  25.994  32.525  1.00  0.00     0.012 A 
ATOM     84  C   UNL A   1      44.910  25.321  33.501  1.00  0.00     0.148 A 
ATOM     85  C   UNL A   1      47.683  25.065  33.323  1.00  0.00     0.002 A 
ATOM     86  C   UNL A   1      45.572  24.325  34.212  1.00  0.00     0.091 A 
ATOM     87  F   UNL A   1      43.601  25.511  33.710  1.00  0.00    -0.205 F 
ATOM     88  C   UNL A   1      46.963  24.214  34.150  1.00  0.00     0.022 A 
BRANCH  86  89
ATOM     89  S   UNL A   1      44.683  23.050  35.120  1.00  0.00     0.127 S 
ATOM     90  O   UNL A   1      44.272  23.771  36.327  1.00  0.00    -0.237 OA
ATOM     91  O   UNL A   1      43.596  22.729  34.200  1.00  0.00    -0.237 OA
ATOM     92  O   UNL A   1      45.654  21.991  35.360  1.00  0.00    -0.744 OA
ENDBRANCH  86  89
ENDBRANCH  59  82
ENDBRANCH  33  34
ENDBRANCH  25  28
ENDBRANCH  23  24
ENDBRANCH  22  23
ENDBRANCH   1  22
TORSDOF 18
ENDMDL
