MODEL 1
REMARK VINA RESULT:     -13.0      0.000      0.000
REMARK SMILES Cc1ccc(C(=O)N2C[C@H](C(=O)NCCCCCCNC(=O)c3ccc(-c4c5nc(c(-c6cccc(S(=O)(=O)[O-])c6F)c6ccc([nH]6)c(-c6cccc(S(=O)(=O)[O-])c6F)c6nc(c(-c7cccc(S(=O)(=O)[O-])c7F)c7ccc4[nH]7)C=C6)C=C5)cc3)Oc3ccccc32)o1
REMARK SMILES IDX 17 1 16 2 15 3 14 4 13 5 11 6 12 7 10 9 8 10 9 11 92 12
REMARK SMILES IDX 87 13 91 14 86 15 88 16 90 17 89 18 6 19 7 20 5 21 1 22 2 23
REMARK SMILES IDX 3 24 93 25 4 26 18 27 19 28 20 29 21 30 22 32 23 33 24 34
REMARK SMILES IDX 85 35 25 36 84 37 26 38 27 39 28 40 78 41 29 42 83 43 77 44
REMARK SMILES IDX 79 45 30 46 82 47 76 48 75 49 31 51 63 52 43 53 62 54 44 55
REMARK SMILES IDX 47 56 61 57 80 58 45 59 46 60 60 62 81 63 48 64 32 65 33 66
REMARK SMILES IDX 41 67 34 68 36 69 42 70 35 71 37 72 38 73 39 74 40 75 64 76
REMARK SMILES IDX 65 77 73 78 66 79 68 80 74 81 67 82 69 83 70 84 71 85 72 86
REMARK SMILES IDX 49 87 50 88 58 89 51 90 53 91 59 92 52 93 54 94 55 95 56 96
REMARK SMILES IDX 57 97
REMARK H PARENT 13 8 20 31 79 50 47 61
REMARK Flexibility Score: inf
ROOT
ATOM      1  C   UNL A   1      34.648  20.350  24.936  1.00  0.00     0.002 C 
ENDROOT
BRANCH   1   2
ATOM      2  C   UNL A   1      33.270  20.490  25.593  1.00  0.00     0.002 C 
BRANCH   2   3
ATOM      3  C   UNL A   1      32.133  20.908  24.653  1.00  0.00     0.021 C 
BRANCH   3   4
ATOM      4  C   UNL A   1      31.792  22.397  24.695  1.00  0.00     0.116 C 
BRANCH   4   5
ATOM      5  N   UNL A   1      30.879  22.694  25.788  1.00  0.00    -0.353 N 
ATOM      6  C   UNL A   1      30.486  23.898  26.304  1.00  0.00     0.262 C 
ATOM      7  O   UNL A   1      29.717  23.884  27.269  1.00  0.00    -0.271 OA
ATOM      8  H   UNL A   1      30.482  21.906  26.225  1.00  0.00     0.163 HD
BRANCH   6   9
ATOM      9  C   UNL A   1      31.020  25.217  25.744  1.00  0.00     0.281 C 
ATOM     10  N   UNL A   1      30.490  27.089  24.230  1.00  0.00    -0.298 N 
ATOM     11  C   UNL A   1      30.030  25.796  24.737  1.00  0.00     0.181 C 
ATOM     12  C   UNL A   1      31.170  27.916  25.176  1.00  0.00     0.087 A 
ATOM     13  C   UNL A   1      31.500  27.404  26.442  1.00  0.00     0.144 A 
ATOM     14  C   UNL A   1      31.421  29.271  24.921  1.00  0.00     0.030 A 
ATOM     15  O   UNL A   1      31.300  26.103  26.827  1.00  0.00    -0.477 OA
ATOM     16  C   UNL A   1      32.032  28.233  27.433  1.00  0.00     0.049 A 
ATOM     17  C   UNL A   1      31.958  30.098  25.913  1.00  0.00     0.002 A 
ATOM     18  C   UNL A   1      32.256  29.581  27.170  1.00  0.00     0.004 A 
BRANCH  10  19
ATOM     19  C   UNL A   1      30.281  27.482  22.904  1.00  0.00     0.294 C 
ATOM     20  O   UNL A   1      31.034  27.108  22.000  1.00  0.00    -0.265 OA
BRANCH  19  21
ATOM     21  C   UNL A   1      29.171  28.391  22.650  1.00  0.00     0.192 A 
ATOM     22  C   UNL A   1      28.336  31.453  20.990  1.00  0.00     0.087 C 
ATOM     23  C   UNL A   1      28.274  30.224  21.803  1.00  0.00     0.101 A 
ATOM     24  C   UNL A   1      27.325  29.689  22.643  1.00  0.00     0.046 A 
ATOM     25  O   UNL A   1      29.383  29.436  21.786  1.00  0.00    -0.456 OA
ATOM     26  C   UNL A   1      27.902  28.518  23.195  1.00  0.00     0.056 A 
ENDBRANCH  19  21
ENDBRANCH  10  19
ENDBRANCH   6   9
ENDBRANCH   4   5
ENDBRANCH   3   4
ENDBRANCH   2   3
ENDBRANCH   1   2
BRANCH   1  27
ATOM     27  C   UNL A   1      35.412  21.658  24.714  1.00  0.00     0.021 C 
BRANCH  27  28
ATOM     28  C   UNL A   1      36.543  21.932  25.703  1.00  0.00     0.116 C 
BRANCH  28  29
ATOM     29  N   UNL A   1      37.535  20.870  25.721  1.00  0.00    -0.352 N 
ATOM     30  C   UNL A   1      38.880  20.947  25.994  1.00  0.00     0.251 C 
ATOM     31  H   UNL A   1      37.198  19.969  25.507  1.00  0.00     0.163 HD
ATOM     32  O   UNL A   1      39.602  19.970  25.815  1.00  0.00    -0.269 OA
BRANCH  30  33
ATOM     33  C   UNL A   1      39.460  22.217  26.481  1.00  0.00     0.039 A 
ATOM     34  C   UNL A   1      40.482  22.173  27.434  1.00  0.00     0.014 A 
ATOM     35  C   UNL A   1      39.000  23.446  25.998  1.00  0.00     0.014 A 
ATOM     36  C   UNL A   1      41.090  23.359  27.855  1.00  0.00     0.010 A 
ATOM     37  C   UNL A   1      39.638  24.623  26.383  1.00  0.00     0.010 A 
ATOM     38  C   UNL A   1      40.693  24.590  27.309  1.00  0.00    -0.014 A 
BRANCH  38  39
ATOM     39  C   UNL A   1      41.385  25.855  27.663  1.00  0.00     0.031 A 
ATOM     40  C   UNL A   1      40.667  26.919  28.444  1.00  0.00     0.074 A 
ATOM     41  C   UNL A   1      42.623  26.087  27.186  1.00  0.00     0.049 A 
ATOM     42  N   UNL A   1      41.072  28.121  28.761  1.00  0.00    -0.248 NA
ATOM     43  C   UNL A   1      39.307  26.600  28.908  1.00  0.00     0.031 C 
ATOM     44  C   UNL A   1      43.396  25.162  26.356  1.00  0.00     0.029 A 
ATOM     45  N   UNL A   1      43.435  27.188  27.301  1.00  0.00    -0.354 N 
ATOM     46  C   UNL A   1      40.008  28.715  29.428  1.00  0.00     0.074 A 
ATOM     47  C   UNL A   1      38.932  27.748  29.455  1.00  0.00     0.031 C 
ATOM     48  C   UNL A   1      44.565  25.736  26.029  1.00  0.00     0.029 A 
ATOM     49  C   UNL A   1      44.617  27.076  26.607  1.00  0.00     0.049 A 
ATOM     50  H   UNL A   1      43.194  27.982  27.831  1.00  0.00     0.167 HD
ATOM     51  C   UNL A   1      39.942  29.944  29.993  1.00  0.00     0.034 A 
ATOM     52  C   UNL A   1      45.626  27.955  26.448  1.00  0.00     0.034 A 
ATOM     53  C   UNL A   1      41.032  30.881  30.021  1.00  0.00     0.049 A 
ATOM     54  C   UNL A   1      45.548  29.294  27.128  1.00  0.00     0.074 A 
ATOM     55  C   UNL A   1      41.095  32.110  30.653  1.00  0.00     0.029 A 
ATOM     56  N   UNL A   1      42.253  30.694  29.390  1.00  0.00    -0.354 N 
ATOM     57  N   UNL A   1      44.597  29.775  27.891  1.00  0.00    -0.248 NA
ATOM     58  C   UNL A   1      46.694  30.199  26.954  1.00  0.00     0.031 C 
ATOM     59  C   UNL A   1      42.356  32.666  30.406  1.00  0.00     0.029 A 
ATOM     60  C   UNL A   1      43.075  31.784  29.615  1.00  0.00     0.049 A 
ATOM     61  H   UNL A   1      42.499  29.902  28.860  1.00  0.00     0.167 HD
ATOM     62  C   UNL A   1      45.039  31.026  28.309  1.00  0.00     0.074 A 
ATOM     63  C   UNL A   1      46.353  31.219  27.731  1.00  0.00     0.031 C 
ATOM     64  C   UNL A   1      44.404  31.938  29.084  1.00  0.00     0.034 A 
BRANCH  51  65
ATOM     65  C   UNL A   1      38.669  30.318  30.699  1.00  0.00     0.023 A 
ATOM     66  C   UNL A   1      38.501  29.945  32.048  1.00  0.00     0.012 A 
ATOM     67  C   UNL A   1      37.669  31.074  30.058  1.00  0.00     0.148 A 
ATOM     68  C   UNL A   1      37.346  30.301  32.743  1.00  0.00     0.002 A 
ATOM     69  C   UNL A   1      36.534  31.451  30.768  1.00  0.00     0.091 A 
ATOM     70  F   UNL A   1      37.832  31.391  28.766  1.00  0.00    -0.205 F 
ATOM     71  C   UNL A   1      36.368  31.061  32.107  1.00  0.00     0.022 A 
BRANCH  69  72
ATOM     72  S   UNL A   1      35.254  32.480  30.040  1.00  0.00     0.127 S 
ATOM     73  O   UNL A   1      34.331  32.645  31.162  1.00  0.00    -0.237 OA
ATOM     74  O   UNL A   1      35.991  33.691  29.674  1.00  0.00    -0.237 OA
ATOM     75  O   UNL A   1      34.743  31.723  28.905  1.00  0.00    -0.744 OA
ENDBRANCH  69  72
ENDBRANCH  51  65
BRANCH  52  76
ATOM     76  C   UNL A   1      46.834  27.557  25.675  1.00  0.00     0.023 A 
ATOM     77  C   UNL A   1      46.882  27.830  24.294  1.00  0.00     0.012 A 
ATOM     78  C   UNL A   1      47.949  26.964  26.298  1.00  0.00     0.148 A 
ATOM     79  C   UNL A   1      48.012  27.504  23.543  1.00  0.00     0.002 A 
ATOM     80  C   UNL A   1      49.091  26.686  25.553  1.00  0.00     0.091 A 
ATOM     81  F   UNL A   1      47.879  26.690  27.608  1.00  0.00    -0.205 F 
ATOM     82  C   UNL A   1      49.121  26.944  24.173  1.00  0.00     0.022 A 
BRANCH  80  83
ATOM     83  S   UNL A   1      50.600  26.091  26.327  1.00  0.00     0.127 S 
ATOM     84  O   UNL A   1      51.496  25.962  25.182  1.00  0.00    -0.237 OA
ATOM     85  O   UNL A   1      50.930  27.180  27.249  1.00  0.00    -0.237 OA
ATOM     86  O   UNL A   1      50.220  24.850  26.990  1.00  0.00    -0.744 OA
ENDBRANCH  80  83
ENDBRANCH  52  76
BRANCH  64  87
ATOM     87  C   UNL A   1      45.119  33.230  29.368  1.00  0.00     0.023 A 
ATOM     88  C   UNL A   1      45.923  33.334  30.519  1.00  0.00     0.012 A 
ATOM     89  C   UNL A   1      45.067  34.304  28.458  1.00  0.00     0.148 A 
ATOM     90  C   UNL A   1      46.654  34.494  30.770  1.00  0.00     0.002 A 
ATOM     91  C   UNL A   1      45.826  35.445  28.698  1.00  0.00     0.091 A 
ATOM     92  F   UNL A   1      44.276  34.196  27.381  1.00  0.00    -0.205 F 
ATOM     93  C   UNL A   1      46.615  35.544  29.855  1.00  0.00     0.022 A 
BRANCH  91  94
ATOM     94  S   UNL A   1      45.893  36.805  27.525  1.00  0.00     0.127 S 
ATOM     95  O   UNL A   1      46.381  36.137  26.321  1.00  0.00    -0.237 OA
ATOM     96  O   UNL A   1      44.495  37.236  27.459  1.00  0.00    -0.237 OA
ATOM     97  O   UNL A   1      46.793  37.787  28.114  1.00  0.00    -0.744 OA
ENDBRANCH  91  94
ENDBRANCH  64  87
ENDBRANCH  38  39
ENDBRANCH  30  33
ENDBRANCH  28  29
ENDBRANCH  27  28
ENDBRANCH   1  27
TORSDOF 18
ENDMDL
MODEL 2
REMARK VINA RESULT:     -12.9      1.161      7.468
REMARK SMILES Cc1ccc(C(=O)N2C[C@H](C(=O)NCCCCCCNC(=O)c3ccc(-c4c5nc(c(-c6cccc(S(=O)(=O)[O-])c6F)c6ccc([nH]6)c(-c6cccc(S(=O)(=O)[O-])c6F)c6nc(c(-c7cccc(S(=O)(=O)[O-])c7F)c7ccc4[nH]7)C=C6)C=C5)cc3)Oc3ccccc32)o1
REMARK SMILES IDX 17 1 16 2 15 3 14 4 13 5 11 6 12 7 10 9 8 10 9 11 92 12
REMARK SMILES IDX 87 13 91 14 86 15 88 16 90 17 89 18 6 19 7 20 5 21 1 22 2 23
REMARK SMILES IDX 3 24 93 25 4 26 18 27 19 28 20 29 21 30 22 32 23 33 24 34
REMARK SMILES IDX 85 35 25 36 84 37 26 38 27 39 28 40 78 41 29 42 83 43 77 44
REMARK SMILES IDX 79 45 30 46 82 47 76 48 75 49 31 51 63 52 43 53 62 54 44 55
REMARK SMILES IDX 47 56 61 57 80 58 45 59 46 60 60 62 81 63 48 64 32 65 33 66
REMARK SMILES IDX 41 67 34 68 36 69 42 70 35 71 37 72 38 73 39 74 40 75 64 76
REMARK SMILES IDX 65 77 73 78 66 79 68 80 74 81 67 82 69 83 70 84 71 85 72 86
REMARK SMILES IDX 49 87 50 88 58 89 51 90 53 91 59 92 52 93 54 94 55 95 56 96
REMARK SMILES IDX 57 97
REMARK H PARENT 13 8 20 31 79 50 47 61
REMARK Flexibility Score: inf
ROOT
ATOM      1  C   UNL A   1      34.680  20.304  24.988  1.00  0.00     0.002 C 
ENDROOT
BRANCH   1   2
ATOM      2  C   UNL A   1      33.261  20.556  25.510  1.00  0.00     0.002 C 
BRANCH   2   3
ATOM      3  C   UNL A   1      32.239  20.990  24.452  1.00  0.00     0.021 C 
BRANCH   3   4
ATOM      4  C   UNL A   1      31.845  22.465  24.520  1.00  0.00     0.116 C 
BRANCH   4   5
ATOM      5  N   UNL A   1      30.971  22.721  25.655  1.00  0.00    -0.353 N 
ATOM      6  C   UNL A   1      30.589  23.906  26.221  1.00  0.00     0.262 C 
ATOM      7  O   UNL A   1      29.857  23.856  27.214  1.00  0.00    -0.271 OA
ATOM      8  H   UNL A   1      30.599  21.917  26.083  1.00  0.00     0.163 HD
BRANCH   6   9
ATOM      9  C   UNL A   1      31.090  25.246  25.679  1.00  0.00     0.281 C 
ATOM     10  N   UNL A   1      30.508  27.131  24.202  1.00  0.00    -0.298 N 
ATOM     11  C   UNL A   1      30.080  25.820  24.690  1.00  0.00     0.181 C 
ATOM     12  C   UNL A   1      31.176  27.957  25.157  1.00  0.00     0.087 A 
ATOM     13  C   UNL A   1      31.527  27.430  26.412  1.00  0.00     0.144 A 
ATOM     14  C   UNL A   1      31.396  29.321  24.924  1.00  0.00     0.030 A 
ATOM     15  O   UNL A   1      31.359  26.119  26.776  1.00  0.00    -0.477 OA
ATOM     16  C   UNL A   1      32.049  28.253  27.413  1.00  0.00     0.049 A 
ATOM     17  C   UNL A   1      31.923  30.142  25.926  1.00  0.00     0.002 A 
ATOM     18  C   UNL A   1      32.242  29.611  27.172  1.00  0.00     0.004 A 
BRANCH  10  19
ATOM     19  C   UNL A   1      30.280  27.543  22.884  1.00  0.00     0.294 C 
ATOM     20  O   UNL A   1      31.025  27.187  21.966  1.00  0.00    -0.265 OA
BRANCH  19  21
ATOM     21  C   UNL A   1      29.160  28.447  22.658  1.00  0.00     0.192 A 
ATOM     22  C   UNL A   1      28.193  31.349  20.795  1.00  0.00     0.087 C 
ATOM     23  C   UNL A   1      28.202  30.208  21.729  1.00  0.00     0.101 A 
ATOM     24  C   UNL A   1      27.341  29.779  22.712  1.00  0.00     0.046 A 
ATOM     25  O   UNL A   1      29.293  29.398  21.676  1.00  0.00    -0.456 OA
ATOM     26  C   UNL A   1      27.958  28.656  23.315  1.00  0.00     0.056 A 
ENDBRANCH  19  21
ENDBRANCH  10  19
ENDBRANCH   6   9
ENDBRANCH   4   5
ENDBRANCH   3   4
ENDBRANCH   2   3
ENDBRANCH   1   2
BRANCH   1  27
ATOM     27  C   UNL A   1      35.486  21.556  24.630  1.00  0.00     0.021 C 
BRANCH  27  28
ATOM     28  C   UNL A   1      36.576  21.941  25.628  1.00  0.00     0.116 C 
BRANCH  28  29
ATOM     29  N   UNL A   1      37.620  20.935  25.727  1.00  0.00    -0.352 N 
ATOM     30  C   UNL A   1      38.949  21.096  26.042  1.00  0.00     0.251 C 
ATOM     31  H   UNL A   1      37.338  20.010  25.543  1.00  0.00     0.163 HD
ATOM     32  O   UNL A   1      39.726  20.152  25.932  1.00  0.00    -0.269 OA
BRANCH  30  33
ATOM     33  C   UNL A   1      39.444  22.415  26.491  1.00  0.00     0.039 A 
ATOM     34  C   UNL A   1      40.462  22.466  27.447  1.00  0.00     0.014 A 
ATOM     35  C   UNL A   1      38.908  23.596  25.969  1.00  0.00     0.014 A 
ATOM     36  C   UNL A   1      40.992  23.701  27.832  1.00  0.00     0.010 A 
ATOM     37  C   UNL A   1      39.468  24.823  26.319  1.00  0.00     0.010 A 
ATOM     38  C   UNL A   1      40.519  24.886  27.247  1.00  0.00    -0.014 A 
BRANCH  38  39
ATOM     39  C   UNL A   1      41.127  26.203  27.564  1.00  0.00     0.031 A 
ATOM     40  C   UNL A   1      42.550  26.494  27.179  1.00  0.00     0.074 A 
ATOM     41  C   UNL A   1      40.430  27.094  28.296  1.00  0.00     0.049 A 
ATOM     42  N   UNL A   1      43.279  27.544  27.456  1.00  0.00    -0.248 NA
ATOM     43  C   UNL A   1      43.253  25.460  26.403  1.00  0.00     0.031 C 
ATOM     44  C   UNL A   1      39.066  26.898  28.792  1.00  0.00     0.029 A 
ATOM     45  N   UNL A   1      40.785  28.329  28.781  1.00  0.00    -0.354 N 
ATOM     46  C   UNL A   1      44.535  27.284  26.922  1.00  0.00     0.074 A 
ATOM     47  C   UNL A   1      44.475  25.969  26.320  1.00  0.00     0.031 C 
ATOM     48  C   UNL A   1      38.705  27.969  29.517  1.00  0.00     0.029 A 
ATOM     49  C   UNL A   1      39.814  28.917  29.557  1.00  0.00     0.049 A 
ATOM     50  H   UNL A   1      41.653  28.752  28.591  1.00  0.00     0.167 HD
ATOM     51  C   UNL A   1      45.630  28.080  26.908  1.00  0.00     0.034 A 
ATOM     52  C   UNL A   1      39.818  30.085  30.229  1.00  0.00     0.034 A 
ATOM     53  C   UNL A   1      45.671  29.410  27.450  1.00  0.00     0.049 A 
ATOM     54  C   UNL A   1      41.031  30.971  30.155  1.00  0.00     0.074 A 
ATOM     55  C   UNL A   1      46.703  30.330  27.397  1.00  0.00     0.029 A 
ATOM     56  N   UNL A   1      44.634  30.014  28.145  1.00  0.00    -0.354 N 
ATOM     57  N   UNL A   1      42.154  30.776  29.508  1.00  0.00    -0.248 NA
ATOM     58  C   UNL A   1      40.967  32.252  30.874  1.00  0.00     0.031 C 
ATOM     59  C   UNL A   1      46.288  31.492  28.058  1.00  0.00     0.029 A 
ATOM     60  C   UNL A   1      45.000  31.292  28.528  1.00  0.00     0.049 A 
ATOM     61  H   UNL A   1      43.764  29.595  28.337  1.00  0.00     0.167 HD
ATOM     62  C   UNL A   1      42.920  31.917  29.720  1.00  0.00     0.074 A 
ATOM     63  C   UNL A   1      42.123  32.808  30.538  1.00  0.00     0.031 C 
ATOM     64  C   UNL A   1      44.175  32.192  29.291  1.00  0.00     0.034 A 
BRANCH  51  65
ATOM     65  C   UNL A   1      46.858  27.560  26.213  1.00  0.00     0.023 A 
ATOM     66  C   UNL A   1      47.744  26.725  26.923  1.00  0.00     0.012 A 
ATOM     67  C   UNL A   1      47.109  27.845  24.858  1.00  0.00     0.148 A 
ATOM     68  C   UNL A   1      48.875  26.200  26.301  1.00  0.00     0.002 A 
ATOM     69  C   UNL A   1      48.224  27.292  24.236  1.00  0.00     0.091 A 
ATOM     70  F   UNL A   1      46.272  28.667  24.207  1.00  0.00    -0.205 F 
ATOM     71  C   UNL A   1      49.110  26.475  24.956  1.00  0.00     0.022 A 
BRANCH  69  72
ATOM     72  S   UNL A   1      48.567  27.550  22.491  1.00  0.00     0.127 S 
ATOM     73  O   UNL A   1      48.669  26.176  22.003  1.00  0.00    -0.237 OA
ATOM     74  O   UNL A   1      47.378  28.272  22.038  1.00  0.00    -0.237 OA
ATOM     75  O   UNL A   1      49.796  28.332  22.446  1.00  0.00    -0.744 OA
ENDBRANCH  69  72
ENDBRANCH  51  65
BRANCH  52  76
ATOM     76  C   UNL A   1      38.597  30.516  30.963  1.00  0.00     0.023 A 
ATOM     77  C   UNL A   1      38.502  30.255  32.343  1.00  0.00     0.012 A 
ATOM     78  C   UNL A   1      37.561  31.224  30.324  1.00  0.00     0.148 A 
ATOM     79  C   UNL A   1      37.388  30.675  33.072  1.00  0.00     0.002 A 
ATOM     80  C   UNL A   1      36.477  31.683  31.065  1.00  0.00     0.091 A 
ATOM     81  F   UNL A   1      37.657  31.445  29.005  1.00  0.00    -0.205 F 
ATOM     82  C   UNL A   1      36.382  31.400  32.437  1.00  0.00     0.022 A 
BRANCH  80  83
ATOM     83  S   UNL A   1      35.216  32.737  30.338  1.00  0.00     0.127 S 
ATOM     84  O   UNL A   1      35.987  33.921  29.970  1.00  0.00    -0.237 OA
ATOM     85  O   UNL A   1      34.745  31.932  29.210  1.00  0.00    -0.237 OA
ATOM     86  O   UNL A   1      34.223  32.918  31.390  1.00  0.00    -0.744 OA
ENDBRANCH  80  83
ENDBRANCH  52  76
BRANCH  64  87
ATOM     87  C   UNL A   1      44.774  33.514  29.686  1.00  0.00     0.023 A 
ATOM     88  C   UNL A   1      45.518  33.604  30.878  1.00  0.00     0.012 A 
ATOM     89  C   UNL A   1      44.675  34.637  28.843  1.00  0.00     0.148 A 
ATOM     90  C   UNL A   1      46.144  34.798  31.233  1.00  0.00     0.002 A 
ATOM     91  C   UNL A   1      45.330  35.815  29.187  1.00  0.00     0.091 A 
ATOM     92  F   UNL A   1      43.940  34.539  27.725  1.00  0.00    -0.205 F 
ATOM     93  C   UNL A   1      46.060  35.899  30.383  1.00  0.00     0.022 A 
BRANCH  91  94
ATOM     94  S   UNL A   1      45.338  37.249  28.104  1.00  0.00     0.127 S 
ATOM     95  O   UNL A   1      45.958  36.709  26.896  1.00  0.00    -0.237 OA
ATOM     96  O   UNL A   1      43.912  37.556  27.972  1.00  0.00    -0.237 OA
ATOM     97  O   UNL A   1      46.105  38.269  28.808  1.00  0.00    -0.744 OA
ENDBRANCH  91  94
ENDBRANCH  64  87
ENDBRANCH  38  39
ENDBRANCH  30  33
ENDBRANCH  28  29
ENDBRANCH  27  28
ENDBRANCH   1  27
TORSDOF 18
ENDMDL
MODEL 3
REMARK VINA RESULT:     -12.3      4.582     10.114
REMARK SMILES Cc1ccc(C(=O)N2C[C@H](C(=O)NCCCCCCNC(=O)c3ccc(-c4c5nc(c(-c6cccc(S(=O)(=O)[O-])c6F)c6ccc([nH]6)c(-c6cccc(S(=O)(=O)[O-])c6F)c6nc(c(-c7cccc(S(=O)(=O)[O-])c7F)c7ccc4[nH]7)C=C6)C=C5)cc3)Oc3ccccc32)o1
REMARK SMILES IDX 17 1 16 2 15 3 14 4 13 5 11 6 12 7 10 9 8 10 9 11 92 12
REMARK SMILES IDX 87 13 91 14 86 15 88 16 90 17 89 18 6 19 7 20 5 21 1 22 2 23
REMARK SMILES IDX 3 24 93 25 4 26 18 27 19 28 20 29 21 30 22 32 23 33 24 34
REMARK SMILES IDX 85 35 25 36 84 37 26 38 27 39 28 40 78 41 29 42 83 43 77 44
REMARK SMILES IDX 79 45 30 46 82 47 76 48 75 49 31 51 63 52 43 53 62 54 44 55
REMARK SMILES IDX 47 56 61 57 80 58 45 59 46 60 60 62 81 63 48 64 32 65 33 66
REMARK SMILES IDX 41 67 34 68 36 69 42 70 35 71 37 72 38 73 39 74 40 75 64 76
REMARK SMILES IDX 65 77 73 78 66 79 68 80 74 81 67 82 69 83 70 84 71 85 72 86
REMARK SMILES IDX 49 87 50 88 58 89 51 90 53 91 59 92 52 93 54 94 55 95 56 96
REMARK SMILES IDX 57 97
REMARK H PARENT 13 8 20 31 79 50 47 61
REMARK Flexibility Score: inf
ROOT
ATOM      1  C   UNL A   1      31.041  29.698  24.883  1.00  0.00     0.002 C 
ENDROOT
BRANCH   1   2
ATOM      2  C   UNL A   1      30.671  28.904  23.625  1.00  0.00     0.002 C 
BRANCH   2   3
ATOM      3  C   UNL A   1      31.815  28.099  22.997  1.00  0.00     0.021 C 
BRANCH   3   4
ATOM      4  C   UNL A   1      31.579  26.589  22.957  1.00  0.00     0.116 C 
BRANCH   4   5
ATOM      5  N   UNL A   1      32.108  26.009  21.732  1.00  0.00    -0.353 N 
ATOM      6  C   UNL A   1      32.892  24.903  21.549  1.00  0.00     0.262 C 
ATOM      7  O   UNL A   1      33.242  24.634  20.396  1.00  0.00    -0.271 OA
ATOM      8  H   UNL A   1      31.865  26.487  20.906  1.00  0.00     0.163 HD
BRANCH   6   9
ATOM      9  C   UNL A   1      33.365  24.057  22.733  1.00  0.00     0.281 C 
ATOM     10  N   UNL A   1      33.112  21.865  23.831  1.00  0.00    -0.298 N 
ATOM     11  C   UNL A   1      32.634  22.718  22.742  1.00  0.00     0.181 C 
ATOM     12  C   UNL A   1      34.507  21.962  24.123  1.00  0.00     0.087 A 
ATOM     13  C   UNL A   1      35.285  22.950  23.497  1.00  0.00     0.144 A 
ATOM     14  C   UNL A   1      35.154  21.024  24.938  1.00  0.00     0.030 A 
ATOM     15  O   UNL A   1      34.784  23.922  22.669  1.00  0.00    -0.477 OA
ATOM     16  C   UNL A   1      36.674  22.975  23.654  1.00  0.00     0.049 A 
ATOM     17  C   UNL A   1      36.543  21.053  25.098  1.00  0.00     0.002 A 
ATOM     18  C   UNL A   1      37.303  22.022  24.451  1.00  0.00     0.004 A 
BRANCH  10  19
ATOM     19  C   UNL A   1      32.254  21.017  24.539  1.00  0.00     0.294 C 
ATOM     20  O   UNL A   1      31.503  21.454  25.415  1.00  0.00    -0.265 OA
BRANCH  19  21
ATOM     21  C   UNL A   1      32.329  19.594  24.232  1.00  0.00     0.192 A 
ATOM     22  C   UNL A   1      32.774  16.384  25.757  1.00  0.00     0.087 C 
ATOM     23  C   UNL A   1      32.596  17.469  24.774  1.00  0.00     0.101 A 
ATOM     24  C   UNL A   1      32.625  17.519  23.400  1.00  0.00     0.046 A 
ATOM     25  O   UNL A   1      32.397  18.714  25.284  1.00  0.00    -0.456 OA
ATOM     26  C   UNL A   1      32.464  18.882  23.050  1.00  0.00     0.056 A 
ENDBRANCH  19  21
ENDBRANCH  10  19
ENDBRANCH   6   9
ENDBRANCH   4   5
ENDBRANCH   3   4
ENDBRANCH   2   3
ENDBRANCH   1   2
BRANCH   1  27
ATOM     27  C   UNL A   1      31.967  28.982  25.870  1.00  0.00     0.021 C 
BRANCH  27  28
ATOM     28  C   UNL A   1      33.248  29.731  26.228  1.00  0.00     0.116 C 
BRANCH  28  29
ATOM     29  N   UNL A   1      32.993  31.096  26.659  1.00  0.00    -0.352 N 
ATOM     30  C   UNL A   1      33.713  31.876  27.533  1.00  0.00     0.251 C 
ATOM     31  H   UNL A   1      32.193  31.521  26.273  1.00  0.00     0.163 HD
ATOM     32  O   UNL A   1      33.268  32.959  27.902  1.00  0.00    -0.269 OA
BRANCH  30  33
ATOM     33  C   UNL A   1      35.015  31.396  28.046  1.00  0.00     0.039 A 
ATOM     34  C   UNL A   1      36.120  32.249  27.989  1.00  0.00     0.014 A 
ATOM     35  C   UNL A   1      35.143  30.112  28.582  1.00  0.00     0.014 A 
ATOM     36  C   UNL A   1      37.341  31.840  28.533  1.00  0.00     0.010 A 
ATOM     37  C   UNL A   1      36.347  29.723  29.165  1.00  0.00     0.010 A 
ATOM     38  C   UNL A   1      37.454  30.585  29.151  1.00  0.00    -0.014 A 
BRANCH  38  39
ATOM     39  C   UNL A   1      38.710  30.162  29.822  1.00  0.00     0.031 A 
ATOM     40  C   UNL A   1      39.593  29.122  29.193  1.00  0.00     0.074 A 
ATOM     41  C   UNL A   1      38.996  30.636  31.050  1.00  0.00     0.049 A 
ATOM     42  N   UNL A   1      40.670  28.558  29.672  1.00  0.00    -0.248 NA
ATOM     43  C   UNL A   1      39.199  28.633  27.861  1.00  0.00     0.031 C 
ATOM     44  C   UNL A   1      38.179  31.595  31.797  1.00  0.00     0.029 A 
ATOM     45  N   UNL A   1      40.034  30.350  31.902  1.00  0.00    -0.354 N 
ATOM     46  C   UNL A   1      41.064  27.624  28.722  1.00  0.00     0.074 A 
ATOM     47  C   UNL A   1      40.099  27.684  27.645  1.00  0.00     0.031 C 
ATOM     48  C   UNL A   1      38.742  31.810  32.997  1.00  0.00     0.029 A 
ATOM     49  C   UNL A   1      39.944  30.991  33.115  1.00  0.00     0.049 A 
ATOM     50  H   UNL A   1      40.772  29.743  31.666  1.00  0.00     0.167 HD
ATOM     51  C   UNL A   1      42.147  26.811  28.731  1.00  0.00     0.034 A 
ATOM     52  C   UNL A   1      40.737  30.923  34.203  1.00  0.00     0.034 A 
ATOM     53  C   UNL A   1      43.139  26.797  29.771  1.00  0.00     0.049 A 
ATOM     54  C   UNL A   1      41.961  30.049  34.166  1.00  0.00     0.074 A 
ATOM     55  C   UNL A   1      44.322  26.080  29.823  1.00  0.00     0.029 A 
ATOM     56  N   UNL A   1      43.068  27.534  30.943  1.00  0.00    -0.354 N 
ATOM     57  N   UNL A   1      42.403  29.293  33.191  1.00  0.00    -0.248 NA
ATOM     58  C   UNL A   1      42.813  30.043  35.365  1.00  0.00     0.031 C 
ATOM     59  C   UNL A   1      44.967  26.386  31.027  1.00  0.00     0.029 A 
ATOM     60  C   UNL A   1      44.182  27.289  31.726  1.00  0.00     0.049 A 
ATOM     61  H   UNL A   1      42.332  28.142  31.184  1.00  0.00     0.167 HD
ATOM     62  C   UNL A   1      43.595  28.742  33.646  1.00  0.00     0.074 A 
ATOM     63  C   UNL A   1      43.817  29.268  34.977  1.00  0.00     0.031 C 
ATOM     64  C   UNL A   1      44.420  27.865  33.024  1.00  0.00     0.034 A 
BRANCH  51  65
ATOM     65  C   UNL A   1      42.359  25.922  27.538  1.00  0.00     0.023 A 
ATOM     66  C   UNL A   1      42.985  26.453  26.392  1.00  0.00     0.012 A 
ATOM     67  C   UNL A   1      41.993  24.563  27.562  1.00  0.00     0.148 A 
ATOM     68  C   UNL A   1      43.225  25.649  25.279  1.00  0.00     0.002 A 
ATOM     69  C   UNL A   1      42.263  23.760  26.458  1.00  0.00     0.091 A 
ATOM     70  F   UNL A   1      41.369  24.084  28.648  1.00  0.00    -0.205 F 
ATOM     71  C   UNL A   1      42.873  24.302  25.315  1.00  0.00     0.022 A 
BRANCH  69  72
ATOM     72  S   UNL A   1      41.895  22.002  26.446  1.00  0.00     0.127 S 
ATOM     73  O   UNL A   1      40.496  21.994  26.022  1.00  0.00    -0.237 OA
ATOM     74  O   UNL A   1      42.837  21.488  25.450  1.00  0.00    -0.237 OA
ATOM     75  O   UNL A   1      42.149  21.540  27.805  1.00  0.00    -0.744 OA
ENDBRANCH  69  72
ENDBRANCH  51  65
BRANCH  52  76
ATOM     76  C   UNL A   1      40.437  31.773  35.387  1.00  0.00     0.023 A 
ATOM     77  C   UNL A   1      41.251  32.892  35.648  1.00  0.00     0.012 A 
ATOM     78  C   UNL A   1      39.330  31.518  36.220  1.00  0.00     0.148 A 
ATOM     79  C   UNL A   1      40.979  33.733  36.729  1.00  0.00     0.002 A 
ATOM     80  C   UNL A   1      39.037  32.387  37.265  1.00  0.00     0.091 A 
ATOM     81  F   UNL A   1      38.579  30.437  35.971  1.00  0.00    -0.205 F 
ATOM     82  C   UNL A   1      39.866  33.488  37.529  1.00  0.00     0.022 A 
BRANCH  80  83
ATOM     83  S   UNL A   1      37.544  32.208  38.249  1.00  0.00     0.127 S 
ATOM     84  O   UNL A   1      36.581  32.995  37.484  1.00  0.00    -0.237 OA
ATOM     85  O   UNL A   1      37.319  30.761  38.220  1.00  0.00    -0.237 OA
ATOM     86  O   UNL A   1      37.895  32.725  39.566  1.00  0.00    -0.744 OA
ENDBRANCH  80  83
ENDBRANCH  52  76
BRANCH  64  87
ATOM     87  C   UNL A   1      45.650  27.418  33.766  1.00  0.00     0.023 A 
ATOM     88  C   UNL A   1      45.582  26.277  34.588  1.00  0.00     0.012 A 
ATOM     89  C   UNL A   1      46.886  28.069  33.583  1.00  0.00     0.148 A 
ATOM     90  C   UNL A   1      46.722  25.799  35.231  1.00  0.00     0.002 A 
ATOM     91  C   UNL A   1      48.026  27.565  34.200  1.00  0.00     0.091 A 
ATOM     92  F   UNL A   1      46.925  29.168  32.816  1.00  0.00    -0.205 F 
ATOM     93  C   UNL A   1      47.945  26.434  35.028  1.00  0.00     0.022 A 
BRANCH  91  94
ATOM     94  S   UNL A   1      49.652  28.279  33.921  1.00  0.00     0.127 S 
ATOM     95  O   UNL A   1      50.483  27.493  34.830  1.00  0.00    -0.237 OA
ATOM     96  O   UNL A   1      49.878  28.007  32.500  1.00  0.00    -0.237 OA
ATOM     97  O   UNL A   1      49.520  29.693  34.244  1.00  0.00    -0.744 OA
ENDBRANCH  91  94
ENDBRANCH  64  87
ENDBRANCH  38  39
ENDBRANCH  30  33
ENDBRANCH  28  29
ENDBRANCH  27  28
ENDBRANCH   1  27
TORSDOF 18
ENDMDL
