MODEL 1
REMARK VINA RESULT:     -11.1      0.000      0.000
REMARK SMILES COc1ccc(C(=O)NCCCCCCNC(=O)c2ccc(-c3c4nc(c(-c5cccc(S(=O)(=O)[O-])c5F)c5ccc([nH]5)c(-c5cccc(S(=O)(=O)[O-])c5F)c5nc(c(-c6cccc(S(=O)(=O)[O-])c6F)c6ccc3[nH]6)C=C5)C=C4)cc2)cc1C(F)(F)F
REMARK SMILES IDX 13 1 12 2 11 3 10 4 9 5 7 6 8 7 6 9 3 10 4 11 83 12 5 13
REMARK SMILES IDX 82 14 2 15 1 16 84 17 85 18 86 19 87 20 14 21 15 22 16 23
REMARK SMILES IDX 17 24 18 26 19 27 20 28 81 29 21 30 80 31 22 32 23 33 24 34
REMARK SMILES IDX 74 35 25 36 79 37 73 38 75 39 26 40 78 41 72 42 71 43 27 45
REMARK SMILES IDX 59 46 39 47 58 48 40 49 43 50 57 51 76 52 41 53 42 54 56 56
REMARK SMILES IDX 77 57 44 58 28 59 29 60 37 61 30 62 32 63 38 64 31 65 33 66
REMARK SMILES IDX 34 67 35 68 36 69 60 70 61 71 69 72 62 73 64 74 70 75 63 76
REMARK SMILES IDX 65 77 66 78 67 79 68 80 45 81 46 82 54 83 47 84 49 85 55 86
REMARK SMILES IDX 48 87 50 88 51 89 52 90 53 91
REMARK H PARENT 9 8 16 25 75 44 43 55
REMARK Flexibility Score: inf
ROOT
ATOM      1  C   UNL A   1      33.678  28.958  25.249  1.00  0.00     0.002 C 
ENDROOT
BRANCH   1   2
ATOM      2  C   UNL A   1      33.646  27.760  24.290  1.00  0.00     0.002 C 
BRANCH   2   3
ATOM      3  C   UNL A   1      32.718  26.620  24.728  1.00  0.00     0.021 C 
BRANCH   3   4
ATOM      4  C   UNL A   1      31.565  26.391  23.747  1.00  0.00     0.116 C 
BRANCH   4   5
ATOM      5  N   UNL A   1      32.097  26.149  22.416  1.00  0.00    -0.352 N 
ATOM      6  C   UNL A   1      32.847  25.137  21.877  1.00  0.00     0.251 C 
ATOM      7  O   UNL A   1      33.183  25.247  20.696  1.00  0.00    -0.269 OA
ATOM      8  H   UNL A   1      31.872  26.856  21.770  1.00  0.00     0.163 HD
BRANCH   6   9
ATOM      9  C   UNL A   1      33.211  23.894  22.618  1.00  0.00     0.040 A 
ATOM     10  C   UNL A   1      33.730  21.569  24.181  1.00  0.00     0.131 A 
ATOM     11  C   UNL A   1      32.455  21.843  23.643  1.00  0.00     0.048 A 
ATOM     12  C   UNL A   1      34.771  22.462  23.917  1.00  0.00     0.098 A 
ATOM     13  C   UNL A   1      32.188  22.996  22.902  1.00  0.00     0.017 A 
ATOM     14  C   UNL A   1      34.492  23.566  23.054  1.00  0.00     0.030 A 
BRANCH  10  15
ATOM     15  O   UNL A   1      33.700  20.377  24.839  1.00  0.00    -0.496 OA
ATOM     16  C   UNL A   1      32.630  19.468  24.683  1.00  0.00     0.278 C 
ENDBRANCH  10  15
BRANCH  12  17
ATOM     17  C   UNL A   1      36.201  22.471  24.413  1.00  0.00     0.419 C 
ATOM     18  F   UNL A   1      36.419  21.491  25.336  1.00  0.00    -0.166 F 
ATOM     19  F   UNL A   1      37.063  22.194  23.388  1.00  0.00    -0.166 F 
ATOM     20  F   UNL A   1      36.675  23.610  24.965  1.00  0.00    -0.166 F 
ENDBRANCH  12  17
ENDBRANCH   6   9
ENDBRANCH   4   5
ENDBRANCH   3   4
ENDBRANCH   2   3
ENDBRANCH   1   2
BRANCH   1  21
ATOM     21  C   UNL A   1      32.342  29.690  25.406  1.00  0.00     0.021 C 
BRANCH  21  22
ATOM     22  C   UNL A   1      32.072  30.201  26.819  1.00  0.00     0.116 C 
BRANCH  22  23
ATOM     23  N   UNL A   1      32.010  31.657  26.856  1.00  0.00    -0.352 N 
ATOM     24  C   UNL A   1      32.875  32.546  27.439  1.00  0.00     0.251 C 
ATOM     25  H   UNL A   1      31.237  32.059  26.399  1.00  0.00     0.163 HD
ATOM     26  O   UNL A   1      32.540  33.721  27.596  1.00  0.00    -0.269 OA
BRANCH  24  27
ATOM     27  C   UNL A   1      34.206  32.089  27.890  1.00  0.00     0.039 A 
ATOM     28  C   UNL A   1      35.267  32.998  27.910  1.00  0.00     0.014 A 
ATOM     29  C   UNL A   1      34.399  30.767  28.302  1.00  0.00     0.014 A 
ATOM     30  C   UNL A   1      36.506  32.598  28.416  1.00  0.00     0.010 A 
ATOM     31  C   UNL A   1      35.615  30.392  28.867  1.00  0.00     0.010 A 
ATOM     32  C   UNL A   1      36.676  31.307  28.941  1.00  0.00    -0.014 A 
BRANCH  32  33
ATOM     33  C   UNL A   1      37.931  30.919  29.635  1.00  0.00     0.031 A 
ATOM     34  C   UNL A   1      38.883  29.935  29.015  1.00  0.00     0.074 A 
ATOM     35  C   UNL A   1      38.156  31.381  30.882  1.00  0.00     0.049 A 
ATOM     36  N   UNL A   1      39.986  29.437  29.508  1.00  0.00    -0.248 NA
ATOM     37  C   UNL A   1      38.542  29.424  27.676  1.00  0.00     0.031 C 
ATOM     38  C   UNL A   1      37.262  32.274  31.626  1.00  0.00     0.029 A 
ATOM     39  N   UNL A   1      39.183  31.137  31.760  1.00  0.00    -0.354 N 
ATOM     40  C   UNL A   1      40.452  28.530  28.565  1.00  0.00     0.074 A 
ATOM     41  C   UNL A   1      39.503  28.534  27.473  1.00  0.00     0.031 C 
ATOM     42  C   UNL A   1      37.773  32.492  32.847  1.00  0.00     0.029 A 
ATOM     43  C   UNL A   1      39.008  31.728  32.990  1.00  0.00     0.049 A 
ATOM     44  H   UNL A   1      39.970  30.591  31.531  1.00  0.00     0.167 HD
ATOM     45  C   UNL A   1      41.577  27.778  28.598  1.00  0.00     0.034 A 
ATOM     46  C   UNL A   1      39.740  31.643  34.119  1.00  0.00     0.034 A 
ATOM     47  C   UNL A   1      42.536  27.805  29.672  1.00  0.00     0.049 A 
ATOM     48  C   UNL A   1      40.999  30.820  34.113  1.00  0.00     0.074 A 
ATOM     49  C   UNL A   1      43.764  27.171  29.739  1.00  0.00     0.029 A 
ATOM     50  N   UNL A   1      42.367  28.478  30.871  1.00  0.00    -0.354 N 
ATOM     51  N   UNL A   1      41.525  30.125  33.135  1.00  0.00    -0.248 NA
ATOM     52  C   UNL A   1      41.780  30.790  35.359  1.00  0.00     0.031 C 
ATOM     53  C   UNL A   1      44.317  27.422  30.999  1.00  0.00     0.029 A 
ATOM     54  C   UNL A   1      43.451  28.245  31.700  1.00  0.00     0.049 A 
ATOM     55  H   UNL A   1      41.591  29.039  31.099  1.00  0.00     0.167 HD
ATOM     56  C   UNL A   1      42.706  29.591  33.638  1.00  0.00     0.074 A 
ATOM     57  C   UNL A   1      42.837  30.074  34.998  1.00  0.00     0.031 C 
ATOM     58  C   UNL A   1      43.590  28.759  33.038  1.00  0.00     0.034 A 
BRANCH  45  59
ATOM     59  C   UNL A   1      41.867  26.878  27.426  1.00  0.00     0.023 A 
ATOM     60  C   UNL A   1      42.524  27.397  26.292  1.00  0.00     0.012 A 
ATOM     61  C   UNL A   1      41.580  25.500  27.491  1.00  0.00     0.148 A 
ATOM     62  C   UNL A   1      42.872  26.562  25.230  1.00  0.00     0.002 A 
ATOM     63  C   UNL A   1      41.969  24.668  26.448  1.00  0.00     0.091 A 
ATOM     64  F   UNL A   1      40.939  25.031  28.570  1.00  0.00    -0.205 F 
ATOM     65  C   UNL A   1      42.606  25.198  25.314  1.00  0.00     0.022 A 
BRANCH  63  66
ATOM     66  S   UNL A   1      41.748  22.885  26.494  1.00  0.00     0.127 S 
ATOM     67  O   UNL A   1      40.290  22.769  26.486  1.00  0.00    -0.237 OA
ATOM     68  O   UNL A   1      42.399  22.464  25.254  1.00  0.00    -0.237 OA
ATOM     69  O   UNL A   1      42.400  22.428  27.713  1.00  0.00    -0.744 OA
ENDBRANCH  63  66
ENDBRANCH  45  59
BRANCH  46  70
ATOM     70  C   UNL A   1      39.310  32.374  35.345  1.00  0.00     0.023 A 
ATOM     71  C   UNL A   1      38.435  31.754  36.256  1.00  0.00     0.012 A 
ATOM     72  C   UNL A   1      39.776  33.676  35.617  1.00  0.00     0.148 A 
ATOM     73  C   UNL A   1      37.999  32.431  37.396  1.00  0.00     0.002 A 
ATOM     74  C   UNL A   1      39.387  34.320  36.785  1.00  0.00     0.091 A 
ATOM     75  F   UNL A   1      40.598  34.254  34.730  1.00  0.00    -0.205 F 
ATOM     76  C   UNL A   1      38.482  33.709  37.666  1.00  0.00     0.022 A 
BRANCH  74  77
ATOM     77  S   UNL A   1      40.071  35.907  37.276  1.00  0.00     0.127 S 
ATOM     78  O   UNL A   1      39.720  36.750  36.137  1.00  0.00    -0.237 OA
ATOM     79  O   UNL A   1      39.328  36.189  38.505  1.00  0.00    -0.237 OA
ATOM     80  O   UNL A   1      41.495  35.674  37.480  1.00  0.00    -0.744 OA
ENDBRANCH  74  77
ENDBRANCH  46  70
BRANCH  58  81
ATOM     81  C   UNL A   1      44.789  28.318  33.837  1.00  0.00     0.023 A 
ATOM     82  C   UNL A   1      45.953  29.113  33.844  1.00  0.00     0.012 A 
ATOM     83  C   UNL A   1      44.736  27.162  34.639  1.00  0.00     0.148 A 
ATOM     84  C   UNL A   1      47.058  28.745  34.611  1.00  0.00     0.002 A 
ATOM     85  C   UNL A   1      45.822  26.829  35.440  1.00  0.00     0.091 A 
ATOM     86  F   UNL A   1      43.624  26.412  34.609  1.00  0.00    -0.205 F 
ATOM     87  C   UNL A   1      46.988  27.611  35.418  1.00  0.00     0.022 A 
BRANCH  85  88
ATOM     88  S   UNL A   1      45.794  25.443  36.582  1.00  0.00     0.127 S 
ATOM     89  O   UNL A   1      45.718  24.304  35.667  1.00  0.00    -0.237 OA
ATOM     90  O   UNL A   1      47.076  25.586  37.273  1.00  0.00    -0.237 OA
ATOM     91  O   UNL A   1      44.624  25.637  37.427  1.00  0.00    -0.744 OA
ENDBRANCH  85  88
ENDBRANCH  58  81
ENDBRANCH  32  33
ENDBRANCH  24  27
ENDBRANCH  22  23
ENDBRANCH  21  22
ENDBRANCH   1  21
TORSDOF 18
ENDMDL
MODEL 2
REMARK VINA RESULT:     -11.1      5.157     10.168
REMARK SMILES COc1ccc(C(=O)NCCCCCCNC(=O)c2ccc(-c3c4nc(c(-c5cccc(S(=O)(=O)[O-])c5F)c5ccc([nH]5)c(-c5cccc(S(=O)(=O)[O-])c5F)c5nc(c(-c6cccc(S(=O)(=O)[O-])c6F)c6ccc3[nH]6)C=C5)C=C4)cc2)cc1C(F)(F)F
REMARK SMILES IDX 13 1 12 2 11 3 10 4 9 5 7 6 8 7 6 9 3 10 4 11 83 12 5 13
REMARK SMILES IDX 82 14 2 15 1 16 84 17 85 18 86 19 87 20 14 21 15 22 16 23
REMARK SMILES IDX 17 24 18 26 19 27 20 28 81 29 21 30 80 31 22 32 23 33 24 34
REMARK SMILES IDX 74 35 25 36 79 37 73 38 75 39 26 40 78 41 72 42 71 43 27 45
REMARK SMILES IDX 59 46 39 47 58 48 40 49 43 50 57 51 76 52 41 53 42 54 56 56
REMARK SMILES IDX 77 57 44 58 28 59 29 60 37 61 30 62 32 63 38 64 31 65 33 66
REMARK SMILES IDX 34 67 35 68 36 69 60 70 61 71 69 72 62 73 64 74 70 75 63 76
REMARK SMILES IDX 65 77 66 78 67 79 68 80 45 81 46 82 54 83 47 84 49 85 55 86
REMARK SMILES IDX 48 87 50 88 51 89 52 90 53 91
REMARK H PARENT 9 8 16 25 75 44 43 55
REMARK Flexibility Score: inf
ROOT
ATOM      1  C   UNL A   1      35.399  23.021  23.380  1.00  0.00     0.002 C 
ENDROOT
BRANCH   1   2
ATOM      2  C   UNL A   1      34.078  22.467  23.930  1.00  0.00     0.002 C 
BRANCH   2   3
ATOM      3  C   UNL A   1      32.995  23.527  24.167  1.00  0.00     0.021 C 
BRANCH   3   4
ATOM      4  C   UNL A   1      31.579  22.965  24.018  1.00  0.00     0.116 C 
BRANCH   4   5
ATOM      5  N   UNL A   1      30.865  23.102  25.277  1.00  0.00    -0.352 N 
ATOM      6  C   UNL A   1      30.574  24.176  26.077  1.00  0.00     0.251 C 
ATOM      7  O   UNL A   1      29.973  23.952  27.130  1.00  0.00    -0.269 OA
ATOM      8  H   UNL A   1      30.519  22.249  25.626  1.00  0.00     0.163 HD
BRANCH   6   9
ATOM      9  C   UNL A   1      30.881  25.588  25.708  1.00  0.00     0.040 A 
ATOM     10  C   UNL A   1      31.419  28.344  25.223  1.00  0.00     0.131 A 
ATOM     11  C   UNL A   1      32.057  27.623  26.255  1.00  0.00     0.048 A 
ATOM     12  C   UNL A   1      30.509  27.671  24.405  1.00  0.00     0.098 A 
ATOM     13  C   UNL A   1      31.775  26.281  26.516  1.00  0.00     0.017 A 
ATOM     14  C   UNL A   1      30.336  26.269  24.622  1.00  0.00     0.030 A 
BRANCH  10  15
ATOM     15  O   UNL A   1      31.898  29.618  25.194  1.00  0.00    -0.496 OA
ATOM     16  C   UNL A   1      32.859  30.073  26.124  1.00  0.00     0.278 C 
ENDBRANCH  10  15
BRANCH  12  17
ATOM     17  C   UNL A   1      29.631  28.189  23.287  1.00  0.00     0.419 C 
ATOM     18  F   UNL A   1      28.458  27.498  23.206  1.00  0.00    -0.166 F 
ATOM     19  F   UNL A   1      29.265  29.484  23.528  1.00  0.00    -0.166 F 
ATOM     20  F   UNL A   1      30.138  28.202  22.034  1.00  0.00    -0.166 F 
ENDBRANCH  12  17
ENDBRANCH   6   9
ENDBRANCH   4   5
ENDBRANCH   3   4
ENDBRANCH   2   3
ENDBRANCH   1   2
BRANCH   1  21
ATOM     21  C   UNL A   1      36.642  22.208  23.755  1.00  0.00     0.021 C 
BRANCH  21  22
ATOM     22  C   UNL A   1      36.798  21.963  25.254  1.00  0.00     0.116 C 
BRANCH  22  23
ATOM     23  N   UNL A   1      37.747  20.890  25.523  1.00  0.00    -0.352 N 
ATOM     24  C   UNL A   1      39.039  20.969  25.977  1.00  0.00     0.251 C 
ATOM     25  H   UNL A   1      37.415  19.980  25.354  1.00  0.00     0.163 HD
ATOM     26  O   UNL A   1      39.779  19.988  25.904  1.00  0.00    -0.269 OA
BRANCH  24  27
ATOM     27  C   UNL A   1      39.542  22.238  26.540  1.00  0.00     0.039 A 
ATOM     28  C   UNL A   1      40.575  22.202  27.481  1.00  0.00     0.014 A 
ATOM     29  C   UNL A   1      39.001  23.461  26.131  1.00  0.00     0.014 A 
ATOM     30  C   UNL A   1      41.117  23.400  27.954  1.00  0.00     0.010 A 
ATOM     31  C   UNL A   1      39.587  24.650  26.554  1.00  0.00     0.010 A 
ATOM     32  C   UNL A   1      40.659  24.632  27.460  1.00  0.00    -0.014 A 
BRANCH  32  33
ATOM     33  C   UNL A   1      41.334  25.904  27.823  1.00  0.00     0.031 A 
ATOM     34  C   UNL A   1      40.602  26.977  28.580  1.00  0.00     0.074 A 
ATOM     35  C   UNL A   1      42.584  26.131  27.371  1.00  0.00     0.049 A 
ATOM     36  N   UNL A   1      41.016  28.169  28.921  1.00  0.00    -0.248 NA
ATOM     37  C   UNL A   1      39.218  26.684  28.989  1.00  0.00     0.031 C 
ATOM     38  C   UNL A   1      43.367  25.201  26.551  1.00  0.00     0.029 A 
ATOM     39  N   UNL A   1      43.404  27.225  27.501  1.00  0.00    -0.354 N 
ATOM     40  C   UNL A   1      39.939  28.783  29.548  1.00  0.00     0.074 A 
ATOM     41  C   UNL A   1      38.845  27.837  29.528  1.00  0.00     0.031 C 
ATOM     42  C   UNL A   1      44.544  25.768  26.244  1.00  0.00     0.029 A 
ATOM     43  C   UNL A   1      44.587  27.112  26.810  1.00  0.00     0.049 A 
ATOM     44  H   UNL A   1      43.166  28.015  28.039  1.00  0.00     0.167 HD
ATOM     45  C   UNL A   1      39.875  30.015  30.105  1.00  0.00     0.034 A 
ATOM     46  C   UNL A   1      45.586  27.999  26.625  1.00  0.00     0.034 A 
ATOM     47  C   UNL A   1      40.978  30.939  30.153  1.00  0.00     0.049 A 
ATOM     48  C   UNL A   1      45.494  29.350  27.279  1.00  0.00     0.074 A 
ATOM     49  C   UNL A   1      41.045  32.160  30.801  1.00  0.00     0.029 A 
ATOM     50  N   UNL A   1      42.192  30.760  29.511  1.00  0.00    -0.354 N 
ATOM     51  N   UNL A   1      44.543  29.835  28.038  1.00  0.00    -0.248 NA
ATOM     52  C   UNL A   1      46.626  30.266  27.075  1.00  0.00     0.031 C 
ATOM     53  C   UNL A   1      42.284  32.741  30.512  1.00  0.00     0.029 A 
ATOM     54  C   UNL A   1      43.002  31.863  29.716  1.00  0.00     0.049 A 
ATOM     55  H   UNL A   1      42.442  29.965  28.986  1.00  0.00     0.167 HD
ATOM     56  C   UNL A   1      44.967  31.103  28.418  1.00  0.00     0.074 A 
ATOM     57  C   UNL A   1      46.280  31.297  27.835  1.00  0.00     0.031 C 
ATOM     58  C   UNL A   1      44.321  32.032  29.163  1.00  0.00     0.034 A 
BRANCH  45  59
ATOM     59  C   UNL A   1      38.580  30.440  30.746  1.00  0.00     0.023 A 
ATOM     60  C   UNL A   1      38.377  30.220  32.123  1.00  0.00     0.012 A 
ATOM     61  C   UNL A   1      37.611  31.147  30.007  1.00  0.00     0.148 A 
ATOM     62  C   UNL A   1      37.218  30.677  32.751  1.00  0.00     0.002 A 
ATOM     63  C   UNL A   1      36.481  31.638  30.649  1.00  0.00     0.091 A 
ATOM     64  F   UNL A   1      37.816  31.329  28.695  1.00  0.00    -0.205 F 
ATOM     65  C   UNL A   1      36.278  31.395  32.017  1.00  0.00     0.022 A 
BRANCH  63  66
ATOM     66  S   UNL A   1      35.250  32.646  29.814  1.00  0.00     0.127 S 
ATOM     67  O   UNL A   1      36.059  33.773  29.348  1.00  0.00    -0.237 OA
ATOM     68  O   UNL A   1      34.789  31.749  28.754  1.00  0.00    -0.237 OA
ATOM     69  O   UNL A   1      34.248  32.975  30.816  1.00  0.00    -0.744 OA
ENDBRANCH  63  66
ENDBRANCH  45  59
BRANCH  46  70
ATOM     70  C   UNL A   1      46.768  27.630  25.794  1.00  0.00     0.023 A 
ATOM     71  C   UNL A   1      46.753  27.878  24.409  1.00  0.00     0.012 A 
ATOM     72  C   UNL A   1      47.911  27.046  26.376  1.00  0.00     0.148 A 
ATOM     73  C   UNL A   1      47.840  27.516  23.611  1.00  0.00     0.002 A 
ATOM     74  C   UNL A   1      49.013  26.745  25.585  1.00  0.00     0.091 A 
ATOM     75  F   UNL A   1      47.900  26.806  27.694  1.00  0.00    -0.205 F 
ATOM     76  C   UNL A   1      48.972  26.959  24.199  1.00  0.00     0.022 A 
BRANCH  74  77
ATOM     77  S   UNL A   1      50.560  26.157  26.283  1.00  0.00     0.127 S 
ATOM     78  O   UNL A   1      51.384  25.992  25.088  1.00  0.00    -0.237 OA
ATOM     79  O   UNL A   1      50.946  27.273  27.148  1.00  0.00    -0.237 OA
ATOM     80  O   UNL A   1      50.228  24.933  27.000  1.00  0.00    -0.744 OA
ENDBRANCH  74  77
ENDBRANCH  46  70
BRANCH  58  81
ATOM     81  C   UNL A   1      45.020  33.345  29.403  1.00  0.00     0.023 A 
ATOM     82  C   UNL A   1      45.864  33.490  30.523  1.00  0.00     0.012 A 
ATOM     83  C   UNL A   1      44.902  34.405  28.484  1.00  0.00     0.148 A 
ATOM     84  C   UNL A   1      46.554  34.683  30.740  1.00  0.00     0.002 A 
ATOM     85  C   UNL A   1      45.632  35.571  28.680  1.00  0.00     0.091 A 
ATOM     86  F   UNL A   1      44.084  34.252  27.433  1.00  0.00    -0.205 F 
ATOM     87  C   UNL A   1      46.448  35.717  29.814  1.00  0.00     0.022 A 
BRANCH  85  88
ATOM     88  S   UNL A   1      45.635  36.923  27.497  1.00  0.00     0.127 S 
ATOM     89  O   UNL A   1      46.158  36.268  26.298  1.00  0.00    -0.237 OA
ATOM     90  O   UNL A   1      44.217  37.277  27.429  1.00  0.00    -0.237 OA
ATOM     91  O   UNL A   1      46.492  37.956  28.063  1.00  0.00    -0.744 OA
ENDBRANCH  85  88
ENDBRANCH  58  81
ENDBRANCH  32  33
ENDBRANCH  24  27
ENDBRANCH  22  23
ENDBRANCH  21  22
ENDBRANCH   1  21
TORSDOF 18
ENDMDL
MODEL 3
REMARK VINA RESULT:     -11.1      3.227      8.756
REMARK SMILES COc1ccc(C(=O)NCCCCCCNC(=O)c2ccc(-c3c4nc(c(-c5cccc(S(=O)(=O)[O-])c5F)c5ccc([nH]5)c(-c5cccc(S(=O)(=O)[O-])c5F)c5nc(c(-c6cccc(S(=O)(=O)[O-])c6F)c6ccc3[nH]6)C=C5)C=C4)cc2)cc1C(F)(F)F
REMARK SMILES IDX 13 1 12 2 11 3 10 4 9 5 7 6 8 7 6 9 3 10 4 11 83 12 5 13
REMARK SMILES IDX 82 14 2 15 1 16 84 17 85 18 86 19 87 20 14 21 15 22 16 23
REMARK SMILES IDX 17 24 18 26 19 27 20 28 81 29 21 30 80 31 22 32 23 33 24 34
REMARK SMILES IDX 74 35 25 36 79 37 73 38 75 39 26 40 78 41 72 42 71 43 27 45
REMARK SMILES IDX 59 46 39 47 58 48 40 49 43 50 57 51 76 52 41 53 42 54 56 56
REMARK SMILES IDX 77 57 44 58 28 59 29 60 37 61 30 62 32 63 38 64 31 65 33 66
REMARK SMILES IDX 34 67 35 68 36 69 60 70 61 71 69 72 62 73 64 74 70 75 63 76
REMARK SMILES IDX 65 77 66 78 67 79 68 80 45 81 46 82 54 83 47 84 49 85 55 86
REMARK SMILES IDX 48 87 50 88 51 89 52 90 53 91
REMARK H PARENT 9 8 16 25 75 44 43 55
REMARK Flexibility Score: inf
ROOT
ATOM      1  C   UNL A   1      33.237  25.602  26.031  1.00  0.00     0.002 C 
ENDROOT
BRANCH   1   2
ATOM      2  C   UNL A   1      34.598  25.341  25.371  1.00  0.00     0.002 C 
BRANCH   2   3
ATOM      3  C   UNL A   1      34.893  23.863  25.086  1.00  0.00     0.021 C 
BRANCH   3   4
ATOM      4  C   UNL A   1      33.763  22.938  25.545  1.00  0.00     0.116 C 
BRANCH   4   5
ATOM      5  N   UNL A   1      33.291  22.148  24.420  1.00  0.00    -0.352 N 
ATOM      6  C   UNL A   1      32.498  22.436  23.340  1.00  0.00     0.251 C 
ATOM      7  O   UNL A   1      32.241  21.514  22.563  1.00  0.00    -0.269 OA
ATOM      8  H   UNL A   1      33.606  21.215  24.436  1.00  0.00     0.163 HD
BRANCH   6   9
ATOM      9  C   UNL A   1      32.000  23.805  23.023  1.00  0.00     0.040 A 
ATOM     10  C   UNL A   1      31.266  26.499  22.449  1.00  0.00     0.131 A 
ATOM     11  C   UNL A   1      32.304  25.838  21.757  1.00  0.00     0.048 A 
ATOM     12  C   UNL A   1      30.568  25.795  23.433  1.00  0.00     0.098 A 
ATOM     13  C   UNL A   1      32.686  24.529  22.055  1.00  0.00     0.017 A 
ATOM     14  C   UNL A   1      30.905  24.420  23.627  1.00  0.00     0.030 A 
BRANCH  10  15
ATOM     15  O   UNL A   1      31.104  27.751  21.940  1.00  0.00    -0.496 OA
ATOM     16  C   UNL A   1      31.739  28.875  22.514  1.00  0.00     0.278 C 
ENDBRANCH  10  15
BRANCH  12  17
ATOM     17  C   UNL A   1      29.478  26.255  24.377  1.00  0.00     0.419 C 
ATOM     18  F   UNL A   1      29.478  25.535  25.535  1.00  0.00    -0.166 F 
ATOM     19  F   UNL A   1      29.694  27.549  24.761  1.00  0.00    -0.166 F 
ATOM     20  F   UNL A   1      28.202  26.236  23.931  1.00  0.00    -0.166 F 
ENDBRANCH  12  17
ENDBRANCH   6   9
ENDBRANCH   4   5
ENDBRANCH   3   4
ENDBRANCH   2   3
ENDBRANCH   1   2
BRANCH   1  21
ATOM     21  C   UNL A   1      32.936  27.075  26.320  1.00  0.00     0.021 C 
BRANCH  21  22
ATOM     22  C   UNL A   1      34.172  27.971  26.348  1.00  0.00     0.116 C 
BRANCH  22  23
ATOM     23  N   UNL A   1      33.812  29.368  26.556  1.00  0.00    -0.352 N 
ATOM     24  C   UNL A   1      34.384  30.296  27.388  1.00  0.00     0.251 C 
ATOM     25  H   UNL A   1      33.050  29.692  26.025  1.00  0.00     0.163 HD
ATOM     26  O   UNL A   1      33.799  31.352  27.630  1.00  0.00    -0.269 OA
BRANCH  24  27
ATOM     27  C   UNL A   1      35.698  30.018  28.004  1.00  0.00     0.039 A 
ATOM     28  C   UNL A   1      35.751  29.607  29.338  1.00  0.00     0.014 A 
ATOM     29  C   UNL A   1      36.874  30.155  27.259  1.00  0.00     0.014 A 
ATOM     30  C   UNL A   1      36.981  29.260  29.903  1.00  0.00     0.010 A 
ATOM     31  C   UNL A   1      38.087  29.744  27.803  1.00  0.00     0.010 A 
ATOM     32  C   UNL A   1      38.151  29.281  29.126  1.00  0.00    -0.014 A 
BRANCH  32  33
ATOM     33  C   UNL A   1      39.435  28.755  29.658  1.00  0.00     0.031 A 
ATOM     34  C   UNL A   1      40.162  29.469  30.763  1.00  0.00     0.074 A 
ATOM     35  C   UNL A   1      39.997  27.683  29.063  1.00  0.00     0.049 A 
ATOM     36  N   UNL A   1      41.320  29.188  31.299  1.00  0.00    -0.248 NA
ATOM     37  C   UNL A   1      39.517  30.670  31.324  1.00  0.00     0.031 C 
ATOM     38  C   UNL A   1      39.429  26.956  27.924  1.00  0.00     0.029 A 
ATOM     39  N   UNL A   1      41.185  27.040  29.306  1.00  0.00    -0.354 N 
ATOM     40  C   UNL A   1      41.564  30.189  32.231  1.00  0.00     0.074 A 
ATOM     41  C   UNL A   1      40.439  31.097  32.177  1.00  0.00     0.031 C 
ATOM     42  C   UNL A   1      40.273  25.978  27.561  1.00  0.00     0.029 A 
ATOM     43  C   UNL A   1      41.456  26.029  28.413  1.00  0.00     0.049 A 
ATOM     44  H   UNL A   1      41.786  27.280  30.048  1.00  0.00     0.167 HD
ATOM     45  C   UNL A   1      42.620  30.329  33.066  1.00  0.00     0.034 A 
ATOM     46  C   UNL A   1      42.546  25.248  28.274  1.00  0.00     0.034 A 
ATOM     47  C   UNL A   1      43.719  29.403  33.140  1.00  0.00     0.049 A 
ATOM     48  C   UNL A   1      43.691  25.412  29.235  1.00  0.00     0.074 A 
ATOM     49  C   UNL A   1      44.773  29.395  34.037  1.00  0.00     0.029 A 
ATOM     50  N   UNL A   1      43.923  28.341  32.274  1.00  0.00    -0.354 N 
ATOM     51  N   UNL A   1      43.810  26.244  30.241  1.00  0.00    -0.248 NA
ATOM     52  C   UNL A   1      44.840  24.511  29.062  1.00  0.00     0.031 C 
ATOM     53  C   UNL A   1      45.639  28.355  33.685  1.00  0.00     0.029 A 
ATOM     54  C   UNL A   1      45.104  27.693  32.591  1.00  0.00     0.049 A 
ATOM     55  H   UNL A   1      43.317  28.087  31.541  1.00  0.00     0.167 HD
ATOM     56  C   UNL A   1      45.036  25.956  30.830  1.00  0.00     0.074 A 
ATOM     57  C   UNL A   1      45.605  24.846  30.092  1.00  0.00     0.031 C 
ATOM     58  C   UNL A   1      45.645  26.567  31.874  1.00  0.00     0.034 A 
BRANCH  45  59
ATOM     59  C   UNL A   1      42.635  31.507  34.003  1.00  0.00     0.023 A 
ATOM     60  C   UNL A   1      43.137  32.747  33.559  1.00  0.00     0.012 A 
ATOM     61  C   UNL A   1      42.059  31.414  35.286  1.00  0.00     0.148 A 
ATOM     62  C   UNL A   1      43.087  33.870  34.384  1.00  0.00     0.002 A 
ATOM     63  C   UNL A   1      41.972  32.547  36.085  1.00  0.00     0.091 A 
ATOM     64  F   UNL A   1      41.604  30.221  35.695  1.00  0.00    -0.205 F 
ATOM     65  C   UNL A   1      42.494  33.772  35.640  1.00  0.00     0.022 A 
BRANCH  63  66
ATOM     66  S   UNL A   1      41.155  32.547  37.685  1.00  0.00     0.127 S 
ATOM     67  O   UNL A   1      39.838  32.009  37.342  1.00  0.00    -0.237 OA
ATOM     68  O   UNL A   1      41.999  31.639  38.460  1.00  0.00    -0.237 OA
ATOM     69  O   UNL A   1      41.160  33.929  38.142  1.00  0.00    -0.744 OA
ENDBRANCH  63  66
ENDBRANCH  45  59
BRANCH  46  70
ATOM     70  C   UNL A   1      42.600  24.227  27.188  1.00  0.00     0.023 A 
ATOM     71  C   UNL A   1      43.278  24.518  25.989  1.00  0.00     0.012 A 
ATOM     72  C   UNL A   1      41.992  22.966  27.346  1.00  0.00     0.148 A 
ATOM     73  C   UNL A   1      43.316  23.585  24.951  1.00  0.00     0.002 A 
ATOM     74  C   UNL A   1      42.087  22.020  26.333  1.00  0.00     0.091 A 
ATOM     75  F   UNL A   1      41.340  22.714  28.489  1.00  0.00    -0.205 F 
ATOM     76  C   UNL A   1      42.730  22.334  25.126  1.00  0.00     0.022 A 
BRANCH  74  77
ATOM     77  S   UNL A   1      41.484  20.340  26.531  1.00  0.00     0.127 S 
ATOM     78  O   UNL A   1      42.093  19.951  27.801  1.00  0.00    -0.237 OA
ATOM     79  O   UNL A   1      40.035  20.542  26.578  1.00  0.00    -0.237 OA
ATOM     80  O   UNL A   1      41.948  19.615  25.356  1.00  0.00    -0.744 OA
ENDBRANCH  74  77
ENDBRANCH  46  70
BRANCH  58  81
ATOM     81  C   UNL A   1      46.997  26.052  32.295  1.00  0.00     0.023 A 
ATOM     82  C   UNL A   1      47.098  25.174  33.393  1.00  0.00     0.012 A 
ATOM     83  C   UNL A   1      48.154  26.374  31.559  1.00  0.00     0.148 A 
ATOM     84  C   UNL A   1      48.334  24.651  33.772  1.00  0.00     0.002 A 
ATOM     85  C   UNL A   1      49.374  25.809  31.911  1.00  0.00     0.091 A 
ATOM     86  F   UNL A   1      48.039  27.221  30.526  1.00  0.00    -0.205 F 
ATOM     87  C   UNL A   1      49.468  24.958  33.024  1.00  0.00     0.022 A 
BRANCH  85  88
ATOM     88  S   UNL A   1      50.873  26.069  30.956  1.00  0.00     0.127 S 
ATOM     89  O   UNL A   1      51.077  27.510  31.110  1.00  0.00    -0.237 OA
ATOM     90  O   UNL A   1      51.841  25.237  31.669  1.00  0.00    -0.237 OA
ATOM     91  O   UNL A   1      50.572  25.627  29.602  1.00  0.00    -0.744 OA
ENDBRANCH  85  88
ENDBRANCH  58  81
ENDBRANCH  32  33
ENDBRANCH  24  27
ENDBRANCH  22  23
ENDBRANCH  21  22
ENDBRANCH   1  21
TORSDOF 18
ENDMDL
