MODEL 1
REMARK VINA RESULT:     -10.4      0.000      0.000
REMARK SMILES CCCN(C(=O)NCC(=O)NCCCCCCNC(=O)c1ccc(-c2c3nc(c(-c4cccc(S(=O)(=O)[O-])c4F)c4ccc([nH]4)c(-c4cccc(S(=O)(=O)[O-])c4F)c4nc(c(-c5cccc(S(=O)(=O)[O-])c5F)c5ccc2[nH]5)C=C4)C=C3)cc1)C(C)C
REMARK SMILES IDX 14 1 13 2 12 3 11 4 9 5 10 6 8 8 7 9 5 10 6 11 4 13 3 14
REMARK SMILES IDX 2 15 1 16 84 17 85 18 86 19 15 20 16 21 17 22 18 23 19 24
REMARK SMILES IDX 20 26 21 27 22 28 83 29 23 30 82 31 24 32 25 33 26 34 76 35
REMARK SMILES IDX 27 36 81 37 75 38 77 39 28 40 80 41 74 42 73 43 29 45 61 46
REMARK SMILES IDX 41 47 60 48 42 49 45 50 59 51 78 52 43 53 44 54 58 56 79 57
REMARK SMILES IDX 46 58 30 59 31 60 39 61 32 62 34 63 40 64 33 65 35 66 36 67
REMARK SMILES IDX 37 68 38 69 62 70 63 71 71 72 64 73 66 74 72 75 65 76 67 77
REMARK SMILES IDX 68 78 69 79 70 80 47 81 48 82 56 83 49 84 51 85 57 86 50 87
REMARK SMILES IDX 52 88 53 89 54 90 55 91
REMARK H PARENT 11 7 7 12 18 25 77 44 45 55
REMARK Flexibility Score: inf
ROOT
ATOM      1  C   UNL A   1      34.210  21.181  26.107  1.00  0.00     0.002 C 
ENDROOT
BRANCH   1   2
ATOM      2  C   UNL A   1      32.926  20.569  25.542  1.00  0.00     0.021 C 
BRANCH   2   3
ATOM      3  C   UNL A   1      31.852  21.589  25.191  1.00  0.00     0.116 C 
BRANCH   3   4
ATOM      4  N   UNL A   1      30.999  21.908  26.315  1.00  0.00    -0.355 N 
ATOM      5  C   UNL A   1      30.457  23.081  26.733  1.00  0.00     0.239 C 
ATOM      6  O   UNL A   1      29.660  23.006  27.679  1.00  0.00    -0.273 OA
ATOM      7  H   UNL A   1      30.771  21.135  26.880  1.00  0.00     0.163 HD
BRANCH   5   8
ATOM      8  C   UNL A   1      30.630  24.429  26.007  1.00  0.00     0.217 C 
BRANCH   8   9
ATOM      9  N   UNL A   1      30.928  25.637  26.752  1.00  0.00    -0.329 N 
ATOM     10  C   UNL A   1      31.274  26.913  26.513  1.00  0.00     0.318 C 
ATOM     11  O   UNL A   1      31.334  27.602  27.537  1.00  0.00    -0.249 OA
ATOM     12  H   UNL A   1      30.855  25.474  27.720  1.00  0.00     0.165 HD
BRANCH  10  13
ATOM     13  N   UNL A   1      31.611  27.404  25.272  1.00  0.00    -0.322 N 
BRANCH  13  14
ATOM     14  C   UNL A   1      30.690  27.921  24.247  1.00  0.00     0.121 C 
BRANCH  14  15
ATOM     15  C   UNL A   1      29.936  26.856  23.446  1.00  0.00     0.018 C 
ATOM     16  C   UNL A   1      28.500  26.650  23.901  1.00  0.00     0.006 C 
ENDBRANCH  14  15
ENDBRANCH  13  14
BRANCH  13  17
ATOM     17  C   UNL A   1      33.065  27.345  24.945  1.00  0.00     0.080 C 
ATOM     18  C   UNL A   1      33.804  28.677  25.114  1.00  0.00     0.031 C 
ATOM     19  C   UNL A   1      33.787  26.213  25.668  1.00  0.00     0.031 C 
ENDBRANCH  13  17
ENDBRANCH  10  13
ENDBRANCH   8   9
ENDBRANCH   5   8
ENDBRANCH   3   4
ENDBRANCH   2   3
ENDBRANCH   1   2
BRANCH   1  20
ATOM     20  C   UNL A   1      35.384  21.260  25.124  1.00  0.00     0.002 C 
BRANCH  20  21
ATOM     21  C   UNL A   1      35.784  22.673  24.684  1.00  0.00     0.021 C 
BRANCH  21  22
ATOM     22  C   UNL A   1      36.869  23.329  25.533  1.00  0.00     0.116 C 
BRANCH  22  23
ATOM     23  N   UNL A   1      37.901  22.385  25.931  1.00  0.00    -0.352 N 
ATOM     24  C   UNL A   1      39.138  22.621  26.470  1.00  0.00     0.251 C 
ATOM     25  H   UNL A   1      37.676  21.435  25.796  1.00  0.00     0.163 HD
ATOM     26  O   UNL A   1      39.943  21.692  26.571  1.00  0.00    -0.269 OA
BRANCH  24  27
ATOM     27  C   UNL A   1      39.519  23.979  26.913  1.00  0.00     0.039 A 
ATOM     28  C   UNL A   1      39.329  24.328  28.253  1.00  0.00     0.014 A 
ATOM     29  C   UNL A   1      40.037  24.916  26.014  1.00  0.00     0.014 A 
ATOM     30  C   UNL A   1      39.697  25.600  28.699  1.00  0.00     0.010 A 
ATOM     31  C   UNL A   1      40.469  26.159  26.476  1.00  0.00     0.010 A 
ATOM     32  C   UNL A   1      40.294  26.519  27.820  1.00  0.00    -0.014 A 
BRANCH  32  33
ATOM     33  C   UNL A   1      40.745  27.852  28.299  1.00  0.00     0.031 A 
ATOM     34  C   UNL A   1      42.212  28.180  28.381  1.00  0.00     0.074 A 
ATOM     35  C   UNL A   1      39.830  28.747  28.725  1.00  0.00     0.049 A 
ATOM     36  N   UNL A   1      42.787  29.282  28.790  1.00  0.00    -0.248 NA
ATOM     37  C   UNL A   1      43.160  27.127  27.981  1.00  0.00     0.031 C 
ATOM     38  C   UNL A   1      38.384  28.518  28.782  1.00  0.00     0.029 A 
ATOM     39  N   UNL A   1      39.982  30.020  29.216  1.00  0.00    -0.354 N 
ATOM     40  C   UNL A   1      44.156  29.044  28.731  1.00  0.00     0.074 A 
ATOM     41  C   UNL A   1      44.328  27.683  28.273  1.00  0.00     0.031 C 
ATOM     42  C   UNL A   1      37.784  29.612  29.277  1.00  0.00     0.029 A 
ATOM     43  C   UNL A   1      38.799  30.611  29.595  1.00  0.00     0.049 A 
ATOM     44  H   UNL A   1      40.856  30.468  29.291  1.00  0.00     0.167 HD
ATOM     45  C   UNL A   1      45.177  29.890  29.006  1.00  0.00     0.034 A 
ATOM     46  C   UNL A   1      38.557  31.820  30.140  1.00  0.00     0.034 A 
ATOM     47  C   UNL A   1      45.004  31.260  29.408  1.00  0.00     0.049 A 
ATOM     48  C   UNL A   1      39.709  32.763  30.364  1.00  0.00     0.074 A 
ATOM     49  C   UNL A   1      45.975  32.225  29.611  1.00  0.00     0.029 A 
ATOM     50  N   UNL A   1      43.784  31.859  29.676  1.00  0.00    -0.354 N 
ATOM     51  N   UNL A   1      40.985  32.577  30.130  1.00  0.00    -0.248 NA
ATOM     52  C   UNL A   1      39.382  34.099  30.883  1.00  0.00     0.031 C 
ATOM     53  C   UNL A   1      45.343  33.402  30.024  1.00  0.00     0.029 A 
ATOM     54  C   UNL A   1      43.976  33.179  30.049  1.00  0.00     0.049 A 
ATOM     55  H   UNL A   1      42.909  31.412  29.611  1.00  0.00     0.167 HD
ATOM     56  C   UNL A   1      41.607  33.783  30.436  1.00  0.00     0.074 A 
ATOM     57  C   UNL A   1      40.564  34.699  30.846  1.00  0.00     0.031 C 
ATOM     58  C   UNL A   1      42.925  34.099  30.395  1.00  0.00     0.034 A 
BRANCH  45  59
ATOM     59  C   UNL A   1      46.586  29.385  28.825  1.00  0.00     0.023 A 
ATOM     60  C   UNL A   1      47.346  29.027  29.957  1.00  0.00     0.012 A 
ATOM     61  C   UNL A   1      47.118  29.174  27.539  1.00  0.00     0.148 A 
ATOM     62  C   UNL A   1      48.625  28.490  29.812  1.00  0.00     0.002 A 
ATOM     63  C   UNL A   1      48.375  28.596  27.401  1.00  0.00     0.091 A 
ATOM     64  F   UNL A   1      46.386  29.537  26.476  1.00  0.00    -0.205 F 
ATOM     65  C   UNL A   1      49.133  28.263  28.536  1.00  0.00     0.022 A 
BRANCH  63  66
ATOM     66  S   UNL A   1      49.086  28.183  25.804  1.00  0.00     0.127 S 
ATOM     67  O   UNL A   1      50.193  29.135  25.719  1.00  0.00    -0.237 OA
ATOM     68  O   UNL A   1      49.494  26.791  26.000  1.00  0.00    -0.237 OA
ATOM     69  O   UNL A   1      48.024  28.376  24.826  1.00  0.00    -0.744 OA
ENDBRANCH  63  66
ENDBRANCH  45  59
BRANCH  46  70
ATOM     70  C   UNL A   1      37.160  32.237  30.453  1.00  0.00     0.023 A 
ATOM     71  C   UNL A   1      36.674  32.107  31.769  1.00  0.00     0.012 A 
ATOM     72  C   UNL A   1      36.314  32.763  29.459  1.00  0.00     0.148 A 
ATOM     73  C   UNL A   1      35.358  32.450  32.079  1.00  0.00     0.002 A 
ATOM     74  C   UNL A   1      35.023  33.159  29.788  1.00  0.00     0.091 A 
ATOM     75  F   UNL A   1      36.787  32.869  28.210  1.00  0.00    -0.205 F 
ATOM     76  C   UNL A   1      34.535  32.985  31.092  1.00  0.00     0.022 A 
BRANCH  74  77
ATOM     77  S   UNL A   1      33.948  33.984  28.608  1.00  0.00     0.127 S 
ATOM     78  O   UNL A   1      32.908  34.527  29.478  1.00  0.00    -0.237 OA
ATOM     79  O   UNL A   1      34.844  34.982  28.022  1.00  0.00    -0.237 OA
ATOM     80  O   UNL A   1      33.523  32.946  27.678  1.00  0.00    -0.744 OA
ENDBRANCH  74  77
ENDBRANCH  46  70
BRANCH  58  81
ATOM     81  C   UNL A   1      43.317  35.507  30.757  1.00  0.00     0.023 A 
ATOM     82  C   UNL A   1      43.670  35.821  32.085  1.00  0.00     0.012 A 
ATOM     83  C   UNL A   1      43.392  36.507  29.768  1.00  0.00     0.148 A 
ATOM     84  C   UNL A   1      44.049  37.118  32.430  1.00  0.00     0.002 A 
ATOM     85  C   UNL A   1      43.821  37.784  30.109  1.00  0.00     0.091 A 
ATOM     86  F   UNL A   1      43.033  36.195  28.513  1.00  0.00    -0.205 F 
ATOM     87  C   UNL A   1      44.135  38.096  31.441  1.00  0.00     0.022 A 
BRANCH  85  88
ATOM     88  S   UNL A   1      44.056  39.075  28.881  1.00  0.00     0.127 S 
ATOM     89  O   UNL A   1      42.950  38.817  27.962  1.00  0.00    -0.237 OA
ATOM     90  O   UNL A   1      43.914  40.294  29.679  1.00  0.00    -0.237 OA
ATOM     91  O   UNL A   1      45.390  38.866  28.334  1.00  0.00    -0.744 OA
ENDBRANCH  85  88
ENDBRANCH  58  81
ENDBRANCH  32  33
ENDBRANCH  24  27
ENDBRANCH  22  23
ENDBRANCH  21  22
ENDBRANCH  20  21
ENDBRANCH   1  20
TORSDOF 21
ENDMDL
MODEL 2
REMARK VINA RESULT:     -10.4      1.743      2.356
REMARK SMILES CCCN(C(=O)NCC(=O)NCCCCCCNC(=O)c1ccc(-c2c3nc(c(-c4cccc(S(=O)(=O)[O-])c4F)c4ccc([nH]4)c(-c4cccc(S(=O)(=O)[O-])c4F)c4nc(c(-c5cccc(S(=O)(=O)[O-])c5F)c5ccc2[nH]5)C=C4)C=C3)cc1)C(C)C
REMARK SMILES IDX 14 1 13 2 12 3 11 4 9 5 10 6 8 8 7 9 5 10 6 11 4 13 3 14
REMARK SMILES IDX 2 15 1 16 84 17 85 18 86 19 15 20 16 21 17 22 18 23 19 24
REMARK SMILES IDX 20 26 21 27 22 28 83 29 23 30 82 31 24 32 25 33 26 34 76 35
REMARK SMILES IDX 27 36 81 37 75 38 77 39 28 40 80 41 74 42 73 43 29 45 61 46
REMARK SMILES IDX 41 47 60 48 42 49 45 50 59 51 78 52 43 53 44 54 58 56 79 57
REMARK SMILES IDX 46 58 30 59 31 60 39 61 32 62 34 63 40 64 33 65 35 66 36 67
REMARK SMILES IDX 37 68 38 69 62 70 63 71 71 72 64 73 66 74 72 75 65 76 67 77
REMARK SMILES IDX 68 78 69 79 70 80 47 81 48 82 56 83 49 84 51 85 57 86 50 87
REMARK SMILES IDX 52 88 53 89 54 90 55 91
REMARK H PARENT 11 7 7 12 18 25 77 44 45 55
REMARK Flexibility Score: inf
ROOT
ATOM      1  C   UNL A   1      33.892  21.588  25.521  1.00  0.00     0.002 C 
ENDROOT
BRANCH   1   2
ATOM      2  C   UNL A   1      32.556  20.958  25.119  1.00  0.00     0.021 C 
BRANCH   2   3
ATOM      3  C   UNL A   1      31.434  21.964  24.899  1.00  0.00     0.116 C 
BRANCH   3   4
ATOM      4  N   UNL A   1      30.648  22.189  26.092  1.00  0.00    -0.355 N 
ATOM      5  C   UNL A   1      30.231  23.332  26.696  1.00  0.00     0.239 C 
ATOM      6  O   UNL A   1      29.457  23.190  27.653  1.00  0.00    -0.273 OA
ATOM      7  H   UNL A   1      30.363  21.365  26.549  1.00  0.00     0.163 HD
BRANCH   5   8
ATOM      8  C   UNL A   1      30.510  24.751  26.164  1.00  0.00     0.217 C 
BRANCH   8   9
ATOM      9  N   UNL A   1      29.512  25.456  25.383  1.00  0.00    -0.329 N 
ATOM     10  C   UNL A   1      29.432  26.154  24.239  1.00  0.00     0.318 C 
ATOM     11  O   UNL A   1      28.279  26.498  23.956  1.00  0.00    -0.249 OA
ATOM     12  H   UNL A   1      28.632  25.410  25.822  1.00  0.00     0.165 HD
BRANCH  10  13
ATOM     13  N   UNL A   1      30.520  26.532  23.484  1.00  0.00    -0.322 N 
BRANCH  13  14
ATOM     14  C   UNL A   1      31.272  25.693  22.539  1.00  0.00     0.121 C 
BRANCH  14  15
ATOM     15  C   UNL A   1      32.555  25.067  23.094  1.00  0.00     0.018 C 
ATOM     16  C   UNL A   1      33.816  25.836  22.736  1.00  0.00     0.006 C 
ENDBRANCH  14  15
ENDBRANCH  13  14
BRANCH  13  17
ATOM     17  C   UNL A   1      30.990  27.929  23.712  1.00  0.00     0.080 C 
ATOM     18  C   UNL A   1      29.936  29.004  23.420  1.00  0.00     0.031 C 
ATOM     19  C   UNL A   1      31.618  28.124  25.087  1.00  0.00     0.031 C 
ENDBRANCH  13  17
ENDBRANCH  10  13
ENDBRANCH   8   9
ENDBRANCH   5   8
ENDBRANCH   3   4
ENDBRANCH   2   3
ENDBRANCH   1   2
BRANCH   1  20
ATOM     20  C   UNL A   1      34.656  22.279  24.385  1.00  0.00     0.002 C 
BRANCH  20  21
ATOM     21  C   UNL A   1      36.173  22.062  24.382  1.00  0.00     0.021 C 
BRANCH  21  22
ATOM     22  C   UNL A   1      36.848  22.208  25.743  1.00  0.00     0.116 C 
BRANCH  22  23
ATOM     23  N   UNL A   1      37.904  21.228  25.941  1.00  0.00    -0.352 N 
ATOM     24  C   UNL A   1      39.220  21.419  26.268  1.00  0.00     0.251 C 
ATOM     25  H   UNL A   1      37.631  20.289  25.825  1.00  0.00     0.163 HD
ATOM     26  O   UNL A   1      40.003  20.467  26.211  1.00  0.00    -0.269 OA
BRANCH  24  27
ATOM     27  C   UNL A   1      39.711  22.754  26.669  1.00  0.00     0.039 A 
ATOM     28  C   UNL A   1      40.651  22.845  27.699  1.00  0.00     0.014 A 
ATOM     29  C   UNL A   1      39.231  23.917  26.058  1.00  0.00     0.014 A 
ATOM     30  C   UNL A   1      41.141  24.094  28.085  1.00  0.00     0.010 A 
ATOM     31  C   UNL A   1      39.774  25.156  26.396  1.00  0.00     0.010 A 
ATOM     32  C   UNL A   1      40.726  25.260  27.420  1.00  0.00    -0.014 A 
BRANCH  32  33
ATOM     33  C   UNL A   1      41.288  26.588  27.782  1.00  0.00     0.031 A 
ATOM     34  C   UNL A   1      42.714  26.934  27.444  1.00  0.00     0.074 A 
ATOM     35  C   UNL A   1      40.531  27.459  28.479  1.00  0.00     0.049 A 
ATOM     36  N   UNL A   1      43.375  28.035  27.698  1.00  0.00    -0.248 NA
ATOM     37  C   UNL A   1      43.512  25.905  26.758  1.00  0.00     0.031 C 
ATOM     38  C   UNL A   1      39.165  27.209  28.946  1.00  0.00     0.029 A 
ATOM     39  N   UNL A   1      40.810  28.723  28.938  1.00  0.00    -0.354 N 
ATOM     40  C   UNL A   1      44.669  27.818  27.238  1.00  0.00     0.074 A 
ATOM     41  C   UNL A   1      44.710  26.470  26.714  1.00  0.00     0.031 C 
ATOM     42  C   UNL A   1      38.727  28.282  29.624  1.00  0.00     0.029 A 
ATOM     43  C   UNL A   1      39.783  29.289  29.659  1.00  0.00     0.049 A 
ATOM     44  H   UNL A   1      41.664  29.181  28.768  1.00  0.00     0.167 HD
ATOM     45  C   UNL A   1      45.720  28.672  27.227  1.00  0.00     0.034 A 
ATOM     46  C   UNL A   1      39.702  30.480  30.283  1.00  0.00     0.034 A 
ATOM     47  C   UNL A   1      45.662  30.030  27.698  1.00  0.00     0.049 A 
ATOM     48  C   UNL A   1      40.863  31.434  30.188  1.00  0.00     0.074 A 
ATOM     49  C   UNL A   1      46.644  31.003  27.636  1.00  0.00     0.029 A 
ATOM     50  N   UNL A   1      44.569  30.605  28.324  1.00  0.00    -0.354 N 
ATOM     51  N   UNL A   1      42.017  31.272  29.589  1.00  0.00    -0.248 NA
ATOM     52  C   UNL A   1      40.692  32.753  30.814  1.00  0.00     0.031 C 
ATOM     53  C   UNL A   1      46.151  32.161  28.245  1.00  0.00     0.029 A 
ATOM     54  C   UNL A   1      44.852  31.918  28.659  1.00  0.00     0.049 A 
ATOM     55  H   UNL A   1      43.716  30.147  28.503  1.00  0.00     0.167 HD
ATOM     56  C   UNL A   1      42.693  32.479  29.732  1.00  0.00     0.074 A 
ATOM     57  C   UNL A   1      41.808  33.371  30.452  1.00  0.00     0.031 C 
ATOM     58  C   UNL A   1      43.940  32.815  29.320  1.00  0.00     0.034 A 
BRANCH  45  59
ATOM     59  C   UNL A   1      47.019  28.191  26.632  1.00  0.00     0.023 A 
ATOM     60  C   UNL A   1      48.030  27.694  27.479  1.00  0.00     0.012 A 
ATOM     61  C   UNL A   1      47.200  28.141  25.236  1.00  0.00     0.148 A 
ATOM     62  C   UNL A   1      49.211  27.177  26.949  1.00  0.00     0.002 A 
ATOM     63  C   UNL A   1      48.361  27.582  24.713  1.00  0.00     0.091 A 
ATOM     64  F   UNL A   1      46.234  28.634  24.448  1.00  0.00    -0.205 F 
ATOM     65  C   UNL A   1      49.371  27.110  25.568  1.00  0.00     0.022 A 
BRANCH  63  66
ATOM     66  S   UNL A   1      48.629  27.370  22.949  1.00  0.00     0.127 S 
ATOM     67  O   UNL A   1      47.560  28.196  22.387  1.00  0.00    -0.237 OA
ATOM     68  O   UNL A   1      49.975  27.915  22.775  1.00  0.00    -0.237 OA
ATOM     69  O   UNL A   1      48.511  25.941  22.691  1.00  0.00    -0.744 OA
ENDBRANCH  63  66
ENDBRANCH  45  59
BRANCH  46  70
ATOM     70  C   UNL A   1      38.453  30.870  30.998  1.00  0.00     0.023 A 
ATOM     71  C   UNL A   1      38.305  30.551  32.363  1.00  0.00     0.012 A 
ATOM     72  C   UNL A   1      37.416  31.557  30.339  1.00  0.00     0.148 A 
ATOM     73  C   UNL A   1      37.129  30.866  33.044  1.00  0.00     0.002 A 
ATOM     74  C   UNL A   1      36.272  31.921  31.040  1.00  0.00     0.091 A 
ATOM     75  F   UNL A   1      37.568  31.842  29.038  1.00  0.00    -0.205 F 
ATOM     76  C   UNL A   1      36.117  31.560  32.387  1.00  0.00     0.022 A 
BRANCH  74  77
ATOM     77  S   UNL A   1      34.985  32.935  30.304  1.00  0.00     0.127 S 
ATOM     78  O   UNL A   1      34.427  32.032  29.302  1.00  0.00    -0.237 OA
ATOM     79  O   UNL A   1      34.112  33.200  31.449  1.00  0.00    -0.237 OA
ATOM     80  O   UNL A   1      35.667  34.116  29.790  1.00  0.00    -0.744 OA
ENDBRANCH  74  77
ENDBRANCH  46  70
BRANCH  58  81
ATOM     81  C   UNL A   1      44.411  34.220  29.590  1.00  0.00     0.023 A 
ATOM     82  C   UNL A   1      45.098  34.516  30.785  1.00  0.00     0.012 A 
ATOM     83  C   UNL A   1      44.223  35.235  28.631  1.00  0.00     0.148 A 
ATOM     84  C   UNL A   1      45.551  35.809  31.039  1.00  0.00     0.002 A 
ATOM     85  C   UNL A   1      44.724  36.509  28.869  1.00  0.00     0.091 A 
ATOM     86  F   UNL A   1      43.550  34.940  27.509  1.00  0.00    -0.205 F 
ATOM     87  C   UNL A   1      45.375  36.802  30.078  1.00  0.00     0.022 A 
BRANCH  85  88
ATOM     88  S   UNL A   1      44.629  37.819  27.644  1.00  0.00     0.127 S 
ATOM     89  O   UNL A   1      44.932  39.001  28.447  1.00  0.00    -0.237 OA
ATOM     90  O   UNL A   1      45.678  37.439  26.697  1.00  0.00    -0.237 OA
ATOM     91  O   UNL A   1      43.278  37.758  27.100  1.00  0.00    -0.744 OA
ENDBRANCH  85  88
ENDBRANCH  58  81
ENDBRANCH  32  33
ENDBRANCH  24  27
ENDBRANCH  22  23
ENDBRANCH  21  22
ENDBRANCH  20  21
ENDBRANCH   1  20
TORSDOF 21
ENDMDL
MODEL 3
REMARK VINA RESULT:     -10.3      4.548      9.774
REMARK SMILES CCCN(C(=O)NCC(=O)NCCCCCCNC(=O)c1ccc(-c2c3nc(c(-c4cccc(S(=O)(=O)[O-])c4F)c4ccc([nH]4)c(-c4cccc(S(=O)(=O)[O-])c4F)c4nc(c(-c5cccc(S(=O)(=O)[O-])c5F)c5ccc2[nH]5)C=C4)C=C3)cc1)C(C)C
REMARK SMILES IDX 14 1 13 2 12 3 11 4 9 5 10 6 8 8 7 9 5 10 6 11 4 13 3 14
REMARK SMILES IDX 2 15 1 16 84 17 85 18 86 19 15 20 16 21 17 22 18 23 19 24
REMARK SMILES IDX 20 26 21 27 22 28 83 29 23 30 82 31 24 32 25 33 26 34 76 35
REMARK SMILES IDX 27 36 81 37 75 38 77 39 28 40 80 41 74 42 73 43 29 45 61 46
REMARK SMILES IDX 41 47 60 48 42 49 45 50 59 51 78 52 43 53 44 54 58 56 79 57
REMARK SMILES IDX 46 58 30 59 31 60 39 61 32 62 34 63 40 64 33 65 35 66 36 67
REMARK SMILES IDX 37 68 38 69 62 70 63 71 71 72 64 73 66 74 72 75 65 76 67 77
REMARK SMILES IDX 68 78 69 79 70 80 47 81 48 82 56 83 49 84 51 85 57 86 50 87
REMARK SMILES IDX 52 88 53 89 54 90 55 91
REMARK H PARENT 11 7 7 12 18 25 77 44 45 55
REMARK Flexibility Score: inf
ROOT
ATOM      1  C   UNL A   1      31.544  29.020  24.300  1.00  0.00     0.002 C 
ENDROOT
BRANCH   1   2
ATOM      2  C   UNL A   1      30.277  28.657  23.521  1.00  0.00     0.021 C 
BRANCH   2   3
ATOM      3  C   UNL A   1      30.362  27.332  22.776  1.00  0.00     0.116 C 
BRANCH   3   4
ATOM      4  N   UNL A   1      31.586  27.198  22.017  1.00  0.00    -0.355 N 
ATOM      5  C   UNL A   1      32.541  26.233  22.006  1.00  0.00     0.239 C 
ATOM      6  O   UNL A   1      33.423  26.349  21.143  1.00  0.00    -0.273 OA
ATOM      7  H   UNL A   1      31.759  27.943  21.396  1.00  0.00     0.163 HD
BRANCH   5   8
ATOM      8  C   UNL A   1      32.491  24.948  22.855  1.00  0.00     0.217 C 
BRANCH   8   9
ATOM      9  N   UNL A   1      32.976  24.947  24.222  1.00  0.00    -0.329 N 
ATOM     10  C   UNL A   1      33.480  24.080  25.116  1.00  0.00     0.318 C 
ATOM     11  O   UNL A   1      33.833  24.616  26.171  1.00  0.00    -0.249 OA
ATOM     12  H   UNL A   1      32.918  25.850  24.612  1.00  0.00     0.165 HD
BRANCH  10  13
ATOM     13  N   UNL A   1      33.531  22.717  24.928  1.00  0.00    -0.322 N 
BRANCH  13  14
ATOM     14  C   UNL A   1      34.420  21.985  24.013  1.00  0.00     0.121 C 
BRANCH  14  15
ATOM     15  C   UNL A   1      35.824  21.697  24.553  1.00  0.00     0.018 C 
ATOM     16  C   UNL A   1      36.856  22.745  24.166  1.00  0.00     0.006 C 
ENDBRANCH  14  15
ENDBRANCH  13  14
BRANCH  13  17
ATOM     17  C   UNL A   1      32.531  21.935  25.711  1.00  0.00     0.080 C 
ATOM     18  C   UNL A   1      31.132  22.561  25.749  1.00  0.00     0.031 C 
ATOM     19  C   UNL A   1      32.473  20.468  25.298  1.00  0.00     0.031 C 
ENDBRANCH  13  17
ENDBRANCH  10  13
ENDBRANCH   8   9
ENDBRANCH   5   8
ENDBRANCH   3   4
ENDBRANCH   2   3
ENDBRANCH   1   2
BRANCH   1  20
ATOM     20  C   UNL A   1      31.495  28.718  25.802  1.00  0.00     0.002 C 
BRANCH  20  21
ATOM     21  C   UNL A   1      32.752  28.062  26.384  1.00  0.00     0.021 C 
BRANCH  21  22
ATOM     22  C   UNL A   1      34.038  28.866  26.212  1.00  0.00     0.116 C 
BRANCH  22  23
ATOM     23  N   UNL A   1      33.912  30.221  26.724  1.00  0.00    -0.352 N 
ATOM     24  C   UNL A   1      34.678  30.879  27.648  1.00  0.00     0.251 C 
ATOM     25  H   UNL A   1      33.164  30.743  26.349  1.00  0.00     0.163 HD
ATOM     26  O   UNL A   1      34.299  31.968  28.086  1.00  0.00    -0.269 OA
BRANCH  24  27
ATOM     27  C   UNL A   1      35.944  30.289  28.134  1.00  0.00     0.039 A 
ATOM     28  C   UNL A   1      37.093  30.417  27.348  1.00  0.00     0.014 A 
ATOM     29  C   UNL A   1      36.000  29.588  29.343  1.00  0.00     0.014 A 
ATOM     30  C   UNL A   1      38.303  29.881  27.794  1.00  0.00     0.010 A 
ATOM     31  C   UNL A   1      37.223  29.118  29.819  1.00  0.00     0.010 A 
ATOM     32  C   UNL A   1      38.385  29.248  29.046  1.00  0.00    -0.014 A 
BRANCH  32  33
ATOM     33  C   UNL A   1      39.681  28.729  29.556  1.00  0.00     0.031 A 
ATOM     34  C   UNL A   1      40.398  29.431  30.679  1.00  0.00     0.074 A 
ATOM     35  C   UNL A   1      40.248  27.661  28.960  1.00  0.00     0.049 A 
ATOM     36  N   UNL A   1      41.542  29.132  31.239  1.00  0.00    -0.248 NA
ATOM     37  C   UNL A   1      39.765  30.642  31.229  1.00  0.00     0.031 C 
ATOM     38  C   UNL A   1      39.700  26.947  27.804  1.00  0.00     0.029 A 
ATOM     39  N   UNL A   1      41.423  27.004  29.226  1.00  0.00    -0.354 N 
ATOM     40  C   UNL A   1      41.784  30.131  32.175  1.00  0.00     0.074 A 
ATOM     41  C   UNL A   1      40.680  31.063  32.091  1.00  0.00     0.031 C 
ATOM     42  C   UNL A   1      40.536  25.953  27.463  1.00  0.00     0.029 A 
ATOM     43  C   UNL A   1      41.688  25.970  28.358  1.00  0.00     0.049 A 
ATOM     44  H   UNL A   1      42.022  27.249  29.969  1.00  0.00     0.167 HD
ATOM     45  C   UNL A   1      42.814  30.247  33.046  1.00  0.00     0.034 A 
ATOM     46  C   UNL A   1      42.741  25.132  28.286  1.00  0.00     0.034 A 
ATOM     47  C   UNL A   1      43.881  29.291  33.166  1.00  0.00     0.049 A 
ATOM     48  C   UNL A   1      43.835  25.244  29.315  1.00  0.00     0.074 A 
ATOM     49  C   UNL A   1      44.915  29.268  34.086  1.00  0.00     0.029 A 
ATOM     50  N   UNL A   1      44.058  28.193  32.340  1.00  0.00    -0.354 N 
ATOM     51  N   UNL A   1      43.950  26.093  30.307  1.00  0.00    -0.248 NA
ATOM     52  C   UNL A   1      44.919  24.254  29.242  1.00  0.00     0.031 C 
ATOM     53  C   UNL A   1      45.731  28.169  33.800  1.00  0.00     0.029 A 
ATOM     54  C   UNL A   1      45.187  27.489  32.722  1.00  0.00     0.049 A 
ATOM     55  H   UNL A   1      43.467  27.950  31.591  1.00  0.00     0.167 HD
ATOM     56  C   UNL A   1      45.095  25.714  31.000  1.00  0.00     0.074 A 
ATOM     57  C   UNL A   1      45.623  24.546  30.328  1.00  0.00     0.031 C 
ATOM     58  C   UNL A   1      45.668  26.292  32.084  1.00  0.00     0.034 A 
BRANCH  45  59
ATOM     59  C   UNL A   1      42.817  31.423  33.989  1.00  0.00     0.023 A 
ATOM     60  C   UNL A   1      43.368  32.650  33.569  1.00  0.00     0.012 A 
ATOM     61  C   UNL A   1      42.191  31.341  35.248  1.00  0.00     0.148 A 
ATOM     62  C   UNL A   1      43.318  33.772  34.396  1.00  0.00     0.002 A 
ATOM     63  C   UNL A   1      42.105  32.475  36.048  1.00  0.00     0.091 A 
ATOM     64  F   UNL A   1      41.689  30.160  35.637  1.00  0.00    -0.205 F 
ATOM     65  C   UNL A   1      42.676  33.687  35.628  1.00  0.00     0.022 A 
BRANCH  63  66
ATOM     66  S   UNL A   1      41.225  32.496  37.615  1.00  0.00     0.127 S 
ATOM     67  O   UNL A   1      39.922  31.957  37.228  1.00  0.00    -0.237 OA
ATOM     68  O   UNL A   1      42.037  31.596  38.434  1.00  0.00    -0.237 OA
ATOM     69  O   UNL A   1      41.218  33.884  38.056  1.00  0.00    -0.744 OA
ENDBRANCH  63  66
ENDBRANCH  45  59
BRANCH  46  70
ATOM     70  C   UNL A   1      42.786  24.070  27.241  1.00  0.00     0.023 A 
ATOM     71  C   UNL A   1      43.508  24.294  26.052  1.00  0.00     0.012 A 
ATOM     72  C   UNL A   1      42.123  22.841  27.418  1.00  0.00     0.148 A 
ATOM     73  C   UNL A   1      43.531  23.333  25.040  1.00  0.00     0.002 A 
ATOM     74  C   UNL A   1      42.200  21.864  26.432  1.00  0.00     0.091 A 
ATOM     75  F   UNL A   1      41.431  22.648  28.549  1.00  0.00    -0.205 F 
ATOM     76  C   UNL A   1      42.885  22.115  25.233  1.00  0.00     0.022 A 
BRANCH  74  77
ATOM     77  S   UNL A   1      41.513  20.220  26.662  1.00  0.00     0.127 S 
ATOM     78  O   UNL A   1      42.179  19.784  27.886  1.00  0.00    -0.237 OA
ATOM     79  O   UNL A   1      40.084  20.502  26.804  1.00  0.00    -0.237 OA
ATOM     80  O   UNL A   1      41.857  19.484  25.452  1.00  0.00    -0.744 OA
ENDBRANCH  74  77
ENDBRANCH  46  70
BRANCH  58  81
ATOM     81  C   UNL A   1      46.906  25.645  32.648  1.00  0.00     0.023 A 
ATOM     82  C   UNL A   1      46.804  24.766  33.745  1.00  0.00     0.012 A 
ATOM     83  C   UNL A   1      48.164  25.864  32.052  1.00  0.00     0.148 A 
ATOM     84  C   UNL A   1      47.940  24.149  34.266  1.00  0.00     0.002 A 
ATOM     85  C   UNL A   1      49.283  25.205  32.544  1.00  0.00     0.091 A 
ATOM     86  F   UNL A   1      48.244  26.719  31.021  1.00  0.00    -0.205 F 
ATOM     87  C   UNL A   1      49.177  24.359  33.660  1.00  0.00     0.022 A 
BRANCH  85  88
ATOM     88  S   UNL A   1      50.895  25.341  31.762  1.00  0.00     0.127 S 
ATOM     89  O   UNL A   1      50.598  24.927  30.393  1.00  0.00    -0.237 OA
ATOM     90  O   UNL A   1      51.197  26.765  31.917  1.00  0.00    -0.237 OA
ATOM     91  O   UNL A   1      51.777  24.455  32.510  1.00  0.00    -0.744 OA
ENDBRANCH  85  88
ENDBRANCH  58  81
ENDBRANCH  32  33
ENDBRANCH  24  27
ENDBRANCH  22  23
ENDBRANCH  21  22
ENDBRANCH  20  21
ENDBRANCH   1  20
TORSDOF 21
ENDMDL
