MODEL 1
REMARK VINA RESULT:     -14.6      0.000      0.000
REMARK SMILES Cc1cc(/C=C2/C(=O)NC(=S)[NH+]=C2NCCCCCCNC(=O)c2ccc(-c3c4nc(c(-c5cccc(S(=O)(=O)[O-])c5F)c5ccc([nH]5)c(-c5cccc(S(=O)(=O)[O-])c5F)c5nc(c(-c6cccc(S(=O)(=O)[O-])c6F)c6ccc3[nH]6)C=C5)C=C4)cc2)c(C)n1-c1cccc(C(=O)[O-])c1
REMARK SMILES IDX 18 1 17 2 16 3 15 4 14 5 5 6 6 7 7 8 13 9 8 10 9 11 12 12
REMARK SMILES IDX 10 13 11 17 4 18 1 19 2 20 3 21 89 22 87 23 88 24 90 25
REMARK SMILES IDX 91 26 98 27 92 28 94 29 93 30 95 31 96 32 97 33 19 34 20 35
REMARK SMILES IDX 21 36 22 37 23 39 24 40 25 41 86 42 26 43 85 44 27 45 28 46
REMARK SMILES IDX 29 47 79 48 30 49 84 50 78 51 80 52 31 53 83 54 77 55 76 56
REMARK SMILES IDX 32 58 64 59 44 60 63 61 45 62 48 63 62 64 81 65 46 66 47 67
REMARK SMILES IDX 61 69 82 70 49 71 33 72 34 73 42 74 35 75 37 76 43 77 36 78
REMARK SMILES IDX 38 79 39 80 40 81 41 82 65 83 66 84 74 85 67 86 69 87 75 88
REMARK SMILES IDX 68 89 70 90 71 91 72 92 73 93 50 94 51 95 59 96 52 97 54 98
REMARK SMILES IDX 60 99 53 100 55 101 56 102 57 103 58 104
REMARK H PARENT 9 14 12 15 14 16 21 38 80 57 48 68
REMARK Flexibility Score: inf
ROOT
ATOM      1  C   UNL A   1      35.909  23.663  23.123  1.00  0.00     0.002 C 
ENDROOT
BRANCH   1   2
ATOM      2  C   UNL A   1      34.503  23.237  22.108  1.00  0.00     0.003 C 
BRANCH   2   3
ATOM      3  C   UNL A   1      33.161  24.024  21.920  1.00  0.00     0.037 C 
BRANCH   3   4
ATOM      4  C   UNL A   1      31.889  23.438  22.516  1.00  0.00     0.194 C 
BRANCH   4   5
ATOM      5  N   UNL A   1      31.905  22.095  23.041  1.00  0.00    -0.305 N 
ATOM      6  C   UNL A   1      32.255  23.859  25.881  1.00  0.00     0.032 C 
ATOM      7  C   UNL A   1      32.561  22.589  25.530  1.00  0.00     0.128 C 
ATOM      8  C   UNL A   1      33.394  21.923  26.580  1.00  0.00     0.319 C 
ATOM      9  C   UNL A   1      32.237  21.710  24.332  1.00  0.00     0.234 C 
ATOM     10  O   UNL A   1      34.047  22.512  27.438  1.00  0.00    -0.250 OA
ATOM     11  N   UNL A   1      33.358  20.567  26.558  1.00  0.00    -0.229 N 
ATOM     12  N   UNL A   1      32.310  20.403  24.455  1.00  0.00    -0.236 N 
ATOM     13  C   UNL A   1      32.750  19.806  25.603  1.00  0.00     0.295 C 
ATOM     14  H   UNL A   1      33.808  20.091  27.293  1.00  0.00     0.268 HD
ATOM     15  H   UNL A   1      32.041  19.838  23.695  1.00  0.00     0.268 HD
ATOM     16  H   UNL A   1      31.655  21.376  22.418  1.00  0.00     0.256 HD
ATOM     17  S   UNL A   1      32.669  18.153  25.888  1.00  0.00    -0.005 S 
BRANCH   6  18
ATOM     18  C   UNL A   1      31.563  24.903  25.209  1.00  0.00    -0.003 A 
ATOM     19  C   UNL A   1      28.467  26.516  24.002  1.00  0.00     0.065 C 
ATOM     20  C   UNL A   1      29.803  26.087  24.479  1.00  0.00     0.020 A 
ATOM     21  C   UNL A   1      30.177  24.853  24.955  1.00  0.00     0.031 A 
ATOM     22  N   UNL A   1      30.913  26.903  24.522  1.00  0.00    -0.318 N 
ATOM     23  C   UNL A   1      32.049  26.077  24.644  1.00  0.00     0.027 A 
ATOM     24  C   UNL A   1      33.470  26.529  24.514  1.00  0.00     0.065 C 
BRANCH  22  25
ATOM     25  C   UNL A   1      30.882  28.309  24.719  1.00  0.00     0.046 A 
ATOM     26  C   UNL A   1      31.803  28.995  26.107  1.00  0.00     0.026 A 
ATOM     27  C   UNL A   1      29.783  29.383  23.736  1.00  0.00     0.036 A 
ATOM     28  C   UNL A   1      31.668  30.728  26.485  1.00  0.00     0.003 A 
ATOM     29  C   UNL A   1      29.660  31.162  24.157  1.00  0.00    -0.001 A 
ATOM     30  C   UNL A   1      30.594  31.817  25.542  1.00  0.00     0.010 A 
BRANCH  29  31
ATOM     31  C   UNL A   1      28.882  32.170  23.432  1.00  0.00     0.072 C 
ATOM     32  O   UNL A   1      29.373  33.141  22.888  1.00  0.00    -0.545 OA
ATOM     33  O   UNL A   1      27.588  31.856  23.385  1.00  0.00    -0.545 OA
ENDBRANCH  29  31
ENDBRANCH  22  25
ENDBRANCH   6  18
ENDBRANCH   4   5
ENDBRANCH   3   4
ENDBRANCH   2   3
ENDBRANCH   1   2
BRANCH   1  34
ATOM     34  C   UNL A   1      36.312  23.937  25.267  1.00  0.00     0.021 C 
BRANCH  34  35
ATOM     35  C   UNL A   1      37.166  22.962  26.527  1.00  0.00     0.116 C 
BRANCH  35  36
ATOM     36  N   UNL A   1      38.460  22.356  26.256  1.00  0.00    -0.352 N 
ATOM     37  C   UNL A   1      39.763  22.818  26.497  1.00  0.00     0.251 C 
ATOM     38  H   UNL A   1      38.413  21.468  25.831  1.00  0.00     0.163 HD
ATOM     39  O   UNL A   1      40.651  22.195  25.907  1.00  0.00    -0.269 OA
BRANCH  37  40
ATOM     40  C   UNL A   1      40.158  24.043  27.329  1.00  0.00     0.039 A 
ATOM     41  C   UNL A   1      39.304  24.504  28.325  1.00  0.00     0.014 A 
ATOM     42  C   UNL A   1      41.124  24.992  26.917  1.00  0.00     0.014 A 
ATOM     43  C   UNL A   1      39.467  25.814  28.921  1.00  0.00     0.010 A 
ATOM     44  C   UNL A   1      41.246  26.353  27.483  1.00  0.00     0.010 A 
ATOM     45  C   UNL A   1      40.408  26.837  28.505  1.00  0.00    -0.014 A 
BRANCH  45  46
ATOM     46  C   UNL A   1      39.968  28.400  28.811  1.00  0.00     0.031 A 
ATOM     47  C   UNL A   1      41.293  29.006  29.122  1.00  0.00     0.074 A 
ATOM     48  C   UNL A   1      38.907  29.304  29.024  1.00  0.00     0.049 A 
ATOM     49  N   UNL A   1      42.073  28.435  30.000  1.00  0.00    -0.248 NA
ATOM     50  C   UNL A   1      41.976  29.960  28.247  1.00  0.00     0.031 C 
ATOM     51  C   UNL A   1      37.463  29.023  29.125  1.00  0.00     0.029 A 
ATOM     52  N   UNL A   1      38.861  30.744  29.208  1.00  0.00    -0.354 N 
ATOM     53  C   UNL A   1      43.166  29.239  30.090  1.00  0.00     0.074 A 
ATOM     54  C   UNL A   1      43.191  29.929  28.810  1.00  0.00     0.031 C 
ATOM     55  C   UNL A   1      36.711  30.167  29.192  1.00  0.00     0.029 A 
ATOM     56  C   UNL A   1      37.547  31.369  29.198  1.00  0.00     0.049 A 
ATOM     57  H   UNL A   1      39.681  31.273  29.333  1.00  0.00     0.167 HD
ATOM     58  C   UNL A   1      43.426  29.719  31.341  1.00  0.00     0.034 A 
ATOM     59  C   UNL A   1      37.141  32.710  29.286  1.00  0.00     0.034 A 
ATOM     60  C   UNL A   1      43.246  31.138  31.439  1.00  0.00     0.049 A 
ATOM     61  C   UNL A   1      38.223  33.404  30.002  1.00  0.00     0.074 A 
ATOM     62  C   UNL A   1      43.511  32.196  30.589  1.00  0.00     0.029 A 
ATOM     63  N   UNL A   1      42.291  31.579  32.326  1.00  0.00    -0.354 N 
ATOM     64  N   UNL A   1      38.291  33.352  31.299  1.00  0.00    -0.248 NA
ATOM     65  C   UNL A   1      39.139  34.345  29.370  1.00  0.00     0.031 C 
ATOM     66  C   UNL A   1      42.363  33.016  30.657  1.00  0.00     0.029 A 
ATOM     67  C   UNL A   1      41.624  32.655  31.774  1.00  0.00     0.049 A 
ATOM     68  H   UNL A   1      42.112  31.190  33.213  1.00  0.00     0.167 HD
ATOM     69  C   UNL A   1      39.543  33.803  31.564  1.00  0.00     0.074 A 
ATOM     70  C   UNL A   1      39.892  34.643  30.434  1.00  0.00     0.031 C 
ATOM     71  C   UNL A   1      40.322  32.981  32.305  1.00  0.00     0.034 A 
BRANCH  58  72
ATOM     72  C   UNL A   1      43.166  28.718  32.453  1.00  0.00     0.023 A 
ATOM     73  C   UNL A   1      42.066  28.960  33.291  1.00  0.00     0.012 A 
ATOM     74  C   UNL A   1      44.090  27.702  32.821  1.00  0.00     0.148 A 
ATOM     75  C   UNL A   1      41.918  28.257  34.490  1.00  0.00     0.002 A 
ATOM     76  C   UNL A   1      44.001  27.089  34.067  1.00  0.00     0.091 A 
ATOM     77  F   UNL A   1      45.064  27.368  31.958  1.00  0.00    -0.205 F 
ATOM     78  C   UNL A   1      42.902  27.355  34.896  1.00  0.00     0.022 A 
BRANCH  76  79
ATOM     79  S   UNL A   1      45.369  26.148  34.778  1.00  0.00     0.127 S 
ATOM     80  O   UNL A   1      46.536  26.698  34.078  1.00  0.00    -0.237 OA
ATOM     81  O   UNL A   1      45.307  26.492  36.194  1.00  0.00    -0.237 OA
ATOM     82  O   UNL A   1      45.114  24.747  34.460  1.00  0.00    -0.744 OA
ENDBRANCH  76  79
ENDBRANCH  58  72
BRANCH  59  83
ATOM     83  C   UNL A   1      35.940  33.747  29.200  1.00  0.00     0.023 A 
ATOM     84  C   UNL A   1      35.093  33.706  28.028  1.00  0.00     0.012 A 
ATOM     85  C   UNL A   1      35.345  34.400  30.306  1.00  0.00     0.148 A 
ATOM     86  C   UNL A   1      33.750  34.128  27.987  1.00  0.00     0.002 A 
ATOM     87  C   UNL A   1      33.999  34.874  30.245  1.00  0.00     0.091 A 
ATOM     88  F   UNL A   1      36.042  34.476  31.446  1.00  0.00    -0.205 F 
ATOM     89  C   UNL A   1      33.195  34.704  29.106  1.00  0.00     0.022 A 
BRANCH  87  90
ATOM     90  S   UNL A   1      33.141  35.670  31.626  1.00  0.00     0.127 S 
ATOM     91  O   UNL A   1      32.772  34.535  32.476  1.00  0.00    -0.237 OA
ATOM     92  O   UNL A   1      34.191  36.522  32.184  1.00  0.00    -0.237 OA
ATOM     93  O   UNL A   1      32.011  36.364  31.027  1.00  0.00    -0.744 OA
ENDBRANCH  87  90
ENDBRANCH  59  83
BRANCH  71  94
ATOM     94  C   UNL A   1      39.674  32.240  33.464  1.00  0.00     0.023 A 
ATOM     95  C   UNL A   1      39.036  30.980  33.375  1.00  0.00     0.012 A 
ATOM     96  C   UNL A   1      39.724  32.849  34.727  1.00  0.00     0.148 A 
ATOM     97  C   UNL A   1      38.447  30.375  34.492  1.00  0.00     0.002 A 
ATOM     98  C   UNL A   1      39.200  32.217  35.849  1.00  0.00     0.091 A 
ATOM     99  F   UNL A   1      40.295  34.061  34.816  1.00  0.00    -0.205 F 
ATOM    100  C   UNL A   1      38.548  30.984  35.737  1.00  0.00     0.022 A 
BRANCH  98 101
ATOM    101  S   UNL A   1      39.411  32.954  37.468  1.00  0.00     0.127 S 
ATOM    102  O   UNL A   1      40.857  32.852  37.661  1.00  0.00    -0.237 OA
ATOM    103  O   UNL A   1      38.915  34.316  37.292  1.00  0.00    -0.237 OA
ATOM    104  O   UNL A   1      38.599  32.133  38.363  1.00  0.00    -0.744 OA
ENDBRANCH  98 101
ENDBRANCH  71  94
ENDBRANCH  45  46
ENDBRANCH  37  40
ENDBRANCH  35  36
ENDBRANCH  34  35
ENDBRANCH   1  34
TORSDOF 18
ENDMDL
MODEL 2
REMARK VINA RESULT:     -14.5      3.860      9.668
REMARK SMILES Cc1cc(/C=C2/C(=O)NC(=S)[NH+]=C2NCCCCCCNC(=O)c2ccc(-c3c4nc(c(-c5cccc(S(=O)(=O)[O-])c5F)c5ccc([nH]5)c(-c5cccc(S(=O)(=O)[O-])c5F)c5nc(c(-c6cccc(S(=O)(=O)[O-])c6F)c6ccc3[nH]6)C=C5)C=C4)cc2)c(C)n1-c1cccc(C(=O)[O-])c1
REMARK SMILES IDX 18 1 17 2 16 3 15 4 14 5 5 6 6 7 7 8 13 9 8 10 9 11 12 12
REMARK SMILES IDX 10 13 11 17 4 18 1 19 2 20 3 21 89 22 87 23 88 24 90 25
REMARK SMILES IDX 91 26 98 27 92 28 94 29 93 30 95 31 96 32 97 33 19 34 20 35
REMARK SMILES IDX 21 36 22 37 23 39 24 40 25 41 86 42 26 43 85 44 27 45 28 46
REMARK SMILES IDX 29 47 79 48 30 49 84 50 78 51 80 52 31 53 83 54 77 55 76 56
REMARK SMILES IDX 32 58 64 59 44 60 63 61 45 62 48 63 62 64 81 65 46 66 47 67
REMARK SMILES IDX 61 69 82 70 49 71 33 72 34 73 42 74 35 75 37 76 43 77 36 78
REMARK SMILES IDX 38 79 39 80 40 81 41 82 65 83 66 84 74 85 67 86 69 87 75 88
REMARK SMILES IDX 68 89 70 90 71 91 72 92 73 93 50 94 51 95 59 96 52 97 54 98
REMARK SMILES IDX 60 99 53 100 55 101 56 102 57 103 58 104
REMARK H PARENT 9 14 12 15 14 16 21 38 80 57 48 68
REMARK Flexibility Score: inf
ROOT
ATOM      1  C   UNL A   1      35.008  29.757  27.162  1.00  0.00     0.002 C 
ENDROOT
BRANCH   1   2
ATOM      2  C   UNL A   1      34.558  28.597  25.882  1.00  0.00     0.003 C 
BRANCH   2   3
ATOM      3  C   UNL A   1      34.143  27.093  26.029  1.00  0.00     0.037 C 
BRANCH   3   4
ATOM      4  C   UNL A   1      32.681  26.770  26.307  1.00  0.00     0.194 C 
BRANCH   4   5
ATOM      5  N   UNL A   1      31.656  27.670  25.841  1.00  0.00    -0.305 N 
ATOM      6  C   UNL A   1      31.676  25.428  23.335  1.00  0.00     0.032 C 
ATOM      7  C   UNL A   1      31.278  26.717  23.428  1.00  0.00     0.128 C 
ATOM      8  C   UNL A   1      30.967  27.286  22.079  1.00  0.00     0.319 C 
ATOM      9  C   UNL A   1      31.071  27.685  24.582  1.00  0.00     0.234 C 
ATOM     10  O   UNL A   1      31.371  26.828  21.013  1.00  0.00    -0.250 OA
ATOM     11  N   UNL A   1      30.142  28.363  22.093  1.00  0.00    -0.229 N 
ATOM     12  N   UNL A   1      30.284  28.725  24.416  1.00  0.00    -0.236 N 
ATOM     13  C   UNL A   1      29.709  29.014  23.210  1.00  0.00     0.295 C 
ATOM     14  H   UNL A   1      29.830  28.704  21.224  1.00  0.00     0.268 HD
ATOM     15  H   UNL A   1      30.105  29.315  25.184  1.00  0.00     0.268 HD
ATOM     16  H   UNL A   1      31.336  28.344  26.483  1.00  0.00     0.256 HD
ATOM     17  S   UNL A   1      28.539  30.199  22.991  1.00  0.00    -0.005 S 
BRANCH   6  18
ATOM     18  C   UNL A   1      32.139  24.492  24.301  1.00  0.00    -0.003 A 
ATOM     19  C   UNL A   1      31.609  22.258  27.195  1.00  0.00     0.065 C 
ATOM     20  C   UNL A   1      32.005  23.012  25.982  1.00  0.00     0.020 A 
ATOM     21  C   UNL A   1      31.334  24.043  25.368  1.00  0.00     0.031 A 
ATOM     22  N   UNL A   1      33.154  22.775  25.258  1.00  0.00    -0.318 N 
ATOM     23  C   UNL A   1      33.390  23.902  24.444  1.00  0.00     0.027 A 
ATOM     24  C   UNL A   1      34.637  24.160  23.657  1.00  0.00     0.065 C 
BRANCH  22  25
ATOM     25  C   UNL A   1      33.790  21.511  25.133  1.00  0.00     0.046 A 
ATOM     26  C   UNL A   1      35.565  21.419  25.425  1.00  0.00     0.026 A 
ATOM     27  C   UNL A   1      32.895  20.056  24.496  1.00  0.00     0.036 A 
ATOM     28  C   UNL A   1      36.430  19.893  25.129  1.00  0.00     0.003 A 
ATOM     29  C   UNL A   1      33.817  18.501  24.193  1.00  0.00    -0.001 A 
ATOM     30  C   UNL A   1      35.584  18.438  24.498  1.00  0.00     0.010 A 
BRANCH  29  31
ATOM     31  C   UNL A   1      33.242  17.228  23.750  1.00  0.00     0.072 C 
ATOM     32  O   UNL A   1      32.982  16.971  22.589  1.00  0.00    -0.545 OA
ATOM     33  O   UNL A   1      33.103  16.370  24.759  1.00  0.00    -0.545 OA
ENDBRANCH  29  31
ENDBRANCH  22  25
ENDBRANCH   6  18
ENDBRANCH   4   5
ENDBRANCH   3   4
ENDBRANCH   2   3
ENDBRANCH   1   2
BRANCH   1  34
ATOM     34  C   UNL A   1      34.034  31.402  28.247  1.00  0.00     0.021 C 
BRANCH  34  35
ATOM     35  C   UNL A   1      33.679  33.133  27.864  1.00  0.00     0.116 C 
BRANCH  35  36
ATOM     36  N   UNL A   1      33.468  34.107  28.921  1.00  0.00    -0.352 N 
ATOM     37  C   UNL A   1      34.146  34.316  30.132  1.00  0.00     0.251 C 
ATOM     38  H   UNL A   1      32.720  34.728  28.760  1.00  0.00     0.163 HD
ATOM     39  O   UNL A   1      33.559  35.045  30.937  1.00  0.00    -0.269 OA
BRANCH  37  40
ATOM     40  C   UNL A   1      35.467  33.667  30.562  1.00  0.00     0.039 A 
ATOM     41  C   UNL A   1      36.616  33.877  29.807  1.00  0.00     0.014 A 
ATOM     42  C   UNL A   1      35.547  32.552  31.429  1.00  0.00     0.014 A 
ATOM     43  C   UNL A   1      37.798  33.059  29.975  1.00  0.00     0.010 A 
ATOM     44  C   UNL A   1      36.734  31.677  31.551  1.00  0.00     0.010 A 
ATOM     45  C   UNL A   1      37.915  31.880  30.813  1.00  0.00    -0.014 A 
BRANCH  45  46
ATOM     46  C   UNL A   1      39.029  30.756  30.339  1.00  0.00     0.031 A 
ATOM     47  C   UNL A   1      40.014  30.852  31.453  1.00  0.00     0.074 A 
ATOM     48  C   UNL A   1      39.473  29.900  29.309  1.00  0.00     0.049 A 
ATOM     49  N   UNL A   1      40.477  32.021  31.806  1.00  0.00    -0.248 NA
ATOM     50  C   UNL A   1      40.212  29.804  32.456  1.00  0.00     0.031 C 
ATOM     51  C   UNL A   1      38.958  29.769  27.934  1.00  0.00     0.029 A 
ATOM     52  N   UNL A   1      40.531  28.907  29.241  1.00  0.00    -0.354 N 
ATOM     53  C   UNL A   1      41.369  31.772  32.799  1.00  0.00     0.074 A 
ATOM     54  C   UNL A   1      40.926  30.500  33.349  1.00  0.00     0.031 C 
ATOM     55  C   UNL A   1      39.542  28.732  27.253  1.00  0.00     0.029 A 
ATOM     56  C   UNL A   1      40.566  28.061  28.058  1.00  0.00     0.049 A 
ATOM     57  H   UNL A   1      41.193  28.810  29.962  1.00  0.00     0.167 HD
ATOM     58  C   UNL A   1      42.636  32.221  32.561  1.00  0.00     0.034 A 
ATOM     59  C   UNL A   1      41.390  26.984  27.694  1.00  0.00     0.034 A 
ATOM     60  C   UNL A   1      43.582  31.154  32.404  1.00  0.00     0.049 A 
ATOM     61  C   UNL A   1      42.649  27.185  28.428  1.00  0.00     0.074 A 
ATOM     62  C   UNL A   1      43.748  29.926  33.016  1.00  0.00     0.029 A 
ATOM     63  N   UNL A   1      44.228  31.078  31.190  1.00  0.00    -0.354 N 
ATOM     64  N   UNL A   1      43.546  28.010  27.977  1.00  0.00    -0.248 NA
ATOM     65  C   UNL A   1      43.074  26.356  29.549  1.00  0.00     0.031 C 
ATOM     66  C   UNL A   1      44.012  29.025  31.960  1.00  0.00     0.029 A 
ATOM     67  C   UNL A   1      44.356  29.751  30.830  1.00  0.00     0.049 A 
ATOM     68  H   UNL A   1      44.548  31.847  30.664  1.00  0.00     0.167 HD
ATOM     69  C   UNL A   1      44.378  28.176  29.038  1.00  0.00     0.074 A 
ATOM     70  C   UNL A   1      44.227  26.970  29.831  1.00  0.00     0.031 C 
ATOM     71  C   UNL A   1      44.580  29.453  29.436  1.00  0.00     0.034 A 
BRANCH  58  72
ATOM     72  C   UNL A   1      42.693  33.562  31.852  1.00  0.00     0.023 A 
ATOM     73  C   UNL A   1      42.725  33.546  30.449  1.00  0.00     0.012 A 
ATOM     74  C   UNL A   1      42.942  34.791  32.524  1.00  0.00     0.148 A 
ATOM     75  C   UNL A   1      43.053  34.702  29.733  1.00  0.00     0.002 A 
ATOM     76  C   UNL A   1      43.380  35.904  31.814  1.00  0.00     0.091 A 
ATOM     77  F   UNL A   1      42.775  34.846  33.856  1.00  0.00    -0.205 F 
ATOM     78  C   UNL A   1      43.418  35.864  30.413  1.00  0.00     0.022 A 
BRANCH  76  79
ATOM     79  S   UNL A   1      44.141  37.327  32.625  1.00  0.00     0.127 S 
ATOM     80  O   UNL A   1      44.223  38.311  31.539  1.00  0.00    -0.237 OA
ATOM     81  O   UNL A   1      43.179  37.668  33.667  1.00  0.00    -0.237 OA
ATOM     82  O   UNL A   1      45.448  36.881  33.097  1.00  0.00    -0.744 OA
ENDBRANCH  76  79
ENDBRANCH  58  72
BRANCH  59  83
ATOM     83  C   UNL A   1      41.672  25.812  26.657  1.00  0.00     0.023 A 
ATOM     84  C   UNL A   1      42.687  26.030  25.650  1.00  0.00     0.012 A 
ATOM     85  C   UNL A   1      41.365  24.447  26.867  1.00  0.00     0.148 A 
ATOM     86  C   UNL A   1      43.429  25.012  25.019  1.00  0.00     0.002 A 
ATOM     87  C   UNL A   1      42.085  23.417  26.188  1.00  0.00     0.091 A 
ATOM     88  F   UNL A   1      40.449  24.138  27.792  1.00  0.00    -0.205 F 
ATOM     89  C   UNL A   1      43.135  23.699  25.299  1.00  0.00     0.022 A 
BRANCH  87  90
ATOM     90  S   UNL A   1      41.798  21.646  26.434  1.00  0.00     0.127 S 
ATOM     91  O   UNL A   1      40.370  21.506  26.138  1.00  0.00    -0.237 OA
ATOM     92  O   UNL A   1      42.681  21.054  25.429  1.00  0.00    -0.237 OA
ATOM     93  O   UNL A   1      42.152  21.390  27.822  1.00  0.00    -0.744 OA
ENDBRANCH  87  90
ENDBRANCH  59  83
BRANCH  71  94
ATOM     94  C   UNL A   1      44.731  30.518  28.360  1.00  0.00     0.023 A 
ATOM     95  C   UNL A   1      43.670  31.085  27.615  1.00  0.00     0.012 A 
ATOM     96  C   UNL A   1      46.026  30.986  28.093  1.00  0.00     0.148 A 
ATOM     97  C   UNL A   1      43.899  32.050  26.626  1.00  0.00     0.002 A 
ATOM     98  C   UNL A   1      46.247  31.993  27.161  1.00  0.00     0.091 A 
ATOM     99  F   UNL A   1      47.045  30.429  28.768  1.00  0.00    -0.205 F 
ATOM    100  C   UNL A   1      45.189  32.521  26.413  1.00  0.00     0.022 A 
BRANCH  98 101
ATOM    101  S   UNL A   1      47.893  32.668  26.951  1.00  0.00     0.127 S 
ATOM    102  O   UNL A   1      48.660  31.483  26.568  1.00  0.00    -0.237 OA
ATOM    103  O   UNL A   1      47.726  33.655  25.887  1.00  0.00    -0.237 OA
ATOM    104  O   UNL A   1      48.233  33.242  28.250  1.00  0.00    -0.744 OA
ENDBRANCH  98 101
ENDBRANCH  71  94
ENDBRANCH  45  46
ENDBRANCH  37  40
ENDBRANCH  35  36
ENDBRANCH  34  35
ENDBRANCH   1  34
TORSDOF 18
ENDMDL
MODEL 3
REMARK VINA RESULT:     -14.0      2.327      3.292
REMARK SMILES Cc1cc(/C=C2/C(=O)NC(=S)[NH+]=C2NCCCCCCNC(=O)c2ccc(-c3c4nc(c(-c5cccc(S(=O)(=O)[O-])c5F)c5ccc([nH]5)c(-c5cccc(S(=O)(=O)[O-])c5F)c5nc(c(-c6cccc(S(=O)(=O)[O-])c6F)c6ccc3[nH]6)C=C5)C=C4)cc2)c(C)n1-c1cccc(C(=O)[O-])c1
REMARK SMILES IDX 18 1 17 2 16 3 15 4 14 5 5 6 6 7 7 8 13 9 8 10 9 11 12 12
REMARK SMILES IDX 10 13 11 17 4 18 1 19 2 20 3 21 89 22 87 23 88 24 90 25
REMARK SMILES IDX 91 26 98 27 92 28 94 29 93 30 95 31 96 32 97 33 19 34 20 35
REMARK SMILES IDX 21 36 22 37 23 39 24 40 25 41 86 42 26 43 85 44 27 45 28 46
REMARK SMILES IDX 29 47 79 48 30 49 84 50 78 51 80 52 31 53 83 54 77 55 76 56
REMARK SMILES IDX 32 58 64 59 44 60 63 61 45 62 48 63 62 64 81 65 46 66 47 67
REMARK SMILES IDX 61 69 82 70 49 71 33 72 34 73 42 74 35 75 37 76 43 77 36 78
REMARK SMILES IDX 38 79 39 80 40 81 41 82 65 83 66 84 74 85 67 86 69 87 75 88
REMARK SMILES IDX 68 89 70 90 71 91 72 92 73 93 50 94 51 95 59 96 52 97 54 98
REMARK SMILES IDX 60 99 53 100 55 101 56 102 57 103 58 104
REMARK H PARENT 9 14 12 15 14 16 21 38 80 57 48 68
REMARK Flexibility Score: inf
ROOT
ATOM      1  C   UNL A   1      39.641  24.010  26.781  1.00  0.00     0.002 C 
ENDROOT
BRANCH   1   2
ATOM      2  C   UNL A   1      38.222  23.724  25.735  1.00  0.00     0.003 C 
BRANCH   2   3
ATOM      3  C   UNL A   1      36.855  24.490  25.714  1.00  0.00     0.037 C 
BRANCH   3   4
ATOM      4  C   UNL A   1      35.580  23.687  25.498  1.00  0.00     0.194 C 
BRANCH   4   5
ATOM      5  N   UNL A   1      35.671  22.289  25.158  1.00  0.00    -0.305 N 
ATOM      6  C   UNL A   1      32.401  22.834  24.601  1.00  0.00     0.032 C 
ATOM      7  C   UNL A   1      33.127  21.726  24.869  1.00  0.00     0.128 C 
ATOM      8  C   UNL A   1      32.241  20.554  25.157  1.00  0.00     0.319 C 
ATOM      9  C   UNL A   1      34.615  21.418  24.927  1.00  0.00     0.234 C 
ATOM     10  O   UNL A   1      31.063  20.631  25.496  1.00  0.00    -0.250 OA
ATOM     11  N   UNL A   1      32.825  19.342  24.975  1.00  0.00    -0.229 N 
ATOM     12  N   UNL A   1      35.021  20.174  24.796  1.00  0.00    -0.236 N 
ATOM     13  C   UNL A   1      34.142  19.132  24.694  1.00  0.00     0.295 C 
ATOM     14  H   UNL A   1      32.249  18.548  25.053  1.00  0.00     0.268 HD
ATOM     15  H   UNL A   1      35.988  19.988  24.773  1.00  0.00     0.268 HD
ATOM     16  H   UNL A   1      36.577  21.912  25.083  1.00  0.00     0.256 HD
ATOM     17  S   UNL A   1      34.596  17.559  24.319  1.00  0.00    -0.005 S 
BRANCH   6  18
ATOM     18  C   UNL A   1      32.765  24.184  24.343  1.00  0.00    -0.003 A 
ATOM     19  C   UNL A   1      34.273  26.809  22.225  1.00  0.00     0.065 C 
ATOM     20  C   UNL A   1      33.541  25.933  23.171  1.00  0.00     0.020 A 
ATOM     21  C   UNL A   1      33.545  24.559  23.230  1.00  0.00     0.031 A 
ATOM     22  N   UNL A   1      32.708  26.389  24.169  1.00  0.00    -0.318 N 
ATOM     23  C   UNL A   1      32.515  25.333  25.084  1.00  0.00     0.027 A 
ATOM     24  C   UNL A   1      31.855  25.453  26.422  1.00  0.00     0.065 C 
BRANCH  22  25
ATOM     25  C   UNL A   1      31.948  27.588  24.110  1.00  0.00     0.046 A 
ATOM     26  C   UNL A   1      32.402  28.939  25.211  1.00  0.00     0.026 A 
ATOM     27  C   UNL A   1      30.429  27.701  23.107  1.00  0.00     0.036 A 
ATOM     28  C   UNL A   1      31.386  30.397  25.284  1.00  0.00     0.003 A 
ATOM     29  C   UNL A   1      29.400  29.214  23.211  1.00  0.00    -0.001 A 
ATOM     30  C   UNL A   1      29.880  30.546  24.313  1.00  0.00     0.010 A 
BRANCH  29  31
ATOM     31  C   UNL A   1      28.193  29.493  22.427  1.00  0.00     0.072 C 
ATOM     32  O   UNL A   1      28.211  29.917  21.287  1.00  0.00    -0.545 OA
ATOM     33  O   UNL A   1      27.086  29.164  23.090  1.00  0.00    -0.545 OA
ENDBRANCH  29  31
ENDBRANCH  22  25
ENDBRANCH   6  18
ENDBRANCH   4   5
ENDBRANCH   3   4
ENDBRANCH   2   3
ENDBRANCH   1   2
BRANCH   1  34
ATOM     34  C   UNL A   1      40.894  22.818  28.139  1.00  0.00     0.021 C 
BRANCH  34  35
ATOM     35  C   UNL A   1      42.197  21.588  27.902  1.00  0.00     0.116 C 
BRANCH  35  36
ATOM     36  N   UNL A   1      42.891  21.466  26.630  1.00  0.00    -0.352 N 
ATOM     37  C   UNL A   1      43.315  22.441  25.715  1.00  0.00     0.251 C 
ATOM     38  H   UNL A   1      43.100  20.540  26.367  1.00  0.00     0.163 HD
ATOM     39  O   UNL A   1      43.632  22.006  24.603  1.00  0.00    -0.269 OA
BRANCH  37  40
ATOM     40  C   UNL A   1      43.332  23.958  25.938  1.00  0.00     0.039 A 
ATOM     41  C   UNL A   1      43.558  24.464  27.214  1.00  0.00     0.014 A 
ATOM     42  C   UNL A   1      42.746  24.888  25.047  1.00  0.00     0.014 A 
ATOM     43  C   UNL A   1      43.280  25.846  27.544  1.00  0.00     0.010 A 
ATOM     44  C   UNL A   1      42.402  26.281  25.408  1.00  0.00     0.010 A 
ATOM     45  C   UNL A   1      42.638  26.823  26.685  1.00  0.00    -0.014 A 
BRANCH  45  46
ATOM     46  C   UNL A   1      41.816  28.037  27.448  1.00  0.00     0.031 A 
ATOM     47  C   UNL A   1      42.913  29.021  27.668  1.00  0.00     0.074 A 
ATOM     48  C   UNL A   1      40.612  28.437  28.063  1.00  0.00     0.049 A 
ATOM     49  N   UNL A   1      44.028  28.631  28.224  1.00  0.00    -0.248 NA
ATOM     50  C   UNL A   1      43.015  30.297  26.958  1.00  0.00     0.031 C 
ATOM     51  C   UNL A   1      39.407  27.634  28.338  1.00  0.00     0.029 A 
ATOM     52  N   UNL A   1      40.159  29.704  28.610  1.00  0.00    -0.354 N 
ATOM     53  C   UNL A   1      44.794  29.749  28.324  1.00  0.00     0.074 A 
ATOM     54  C   UNL A   1      44.276  30.614  27.275  1.00  0.00     0.031 C 
ATOM     55  C   UNL A   1      38.371  28.392  28.822  1.00  0.00     0.029 A 
ATOM     56  C   UNL A   1      38.756  29.796  28.986  1.00  0.00     0.049 A 
ATOM     57  H   UNL A   1      40.771  30.466  28.721  1.00  0.00     0.167 HD
ATOM     58  C   UNL A   1      45.193  30.063  29.590  1.00  0.00     0.034 A 
ATOM     59  C   UNL A   1      37.981  30.857  29.479  1.00  0.00     0.034 A 
ATOM     60  C   UNL A   1      44.602  31.277  30.073  1.00  0.00     0.049 A 
ATOM     61  C   UNL A   1      38.928  31.761  30.148  1.00  0.00     0.074 A 
ATOM     62  C   UNL A   1      44.295  32.490  29.486  1.00  0.00     0.029 A 
ATOM     63  N   UNL A   1      43.811  31.174  31.195  1.00  0.00    -0.354 N 
ATOM     64  N   UNL A   1      39.332  31.510  31.358  1.00  0.00    -0.248 NA
ATOM     65  C   UNL A   1      39.308  33.068  29.626  1.00  0.00     0.031 C 
ATOM     66  C   UNL A   1      43.002  32.807  29.957  1.00  0.00     0.029 A 
ATOM     67  C   UNL A   1      42.721  32.011  31.057  1.00  0.00     0.049 A 
ATOM     68  H   UNL A   1      43.994  30.596  31.972  1.00  0.00     0.167 HD
ATOM     69  C   UNL A   1      40.400  32.335  31.508  1.00  0.00     0.074 A 
ATOM     70  C   UNL A   1      40.169  33.428  30.583  1.00  0.00     0.031 C 
ATOM     71  C   UNL A   1      41.560  31.738  31.870  1.00  0.00     0.034 A 
BRANCH  58  72
ATOM     72  C   UNL A   1      45.552  28.857  30.441  1.00  0.00     0.023 A 
ATOM     73  C   UNL A   1      44.549  28.337  31.274  1.00  0.00     0.012 A 
ATOM     74  C   UNL A   1      46.884  28.385  30.604  1.00  0.00     0.148 A 
ATOM     75  C   UNL A   1      44.867  27.420  32.280  1.00  0.00     0.002 A 
ATOM     76  C   UNL A   1      47.212  27.564  31.678  1.00  0.00     0.091 A 
ATOM     77  F   UNL A   1      47.821  28.771  29.722  1.00  0.00    -0.205 F 
ATOM     78  C   UNL A   1      46.197  27.065  32.507  1.00  0.00     0.022 A 
BRANCH  76  79
ATOM     79  S   UNL A   1      48.919  27.303  32.207  1.00  0.00     0.127 S 
ATOM     80  O   UNL A   1      49.483  26.522  31.099  1.00  0.00    -0.237 OA
ATOM     81  O   UNL A   1      49.445  28.660  32.306  1.00  0.00    -0.237 OA
ATOM     82  O   UNL A   1      48.853  26.561  33.460  1.00  0.00    -0.744 OA
ENDBRANCH  76  79
ENDBRANCH  58  72
BRANCH  59  83
ATOM     83  C   UNL A   1      36.531  31.381  29.867  1.00  0.00     0.023 A 
ATOM     84  C   UNL A   1      36.162  31.377  31.266  1.00  0.00     0.012 A 
ATOM     85  C   UNL A   1      35.734  32.241  29.075  1.00  0.00     0.148 A 
ATOM     86  C   UNL A   1      35.211  32.234  31.853  1.00  0.00     0.002 A 
ATOM     87  C   UNL A   1      34.735  33.073  29.665  1.00  0.00     0.091 A 
ATOM     88  F   UNL A   1      36.006  32.330  27.767  1.00  0.00    -0.205 F 
ATOM     89  C   UNL A   1      34.503  33.097  31.050  1.00  0.00     0.022 A 
BRANCH  87  90
ATOM     90  S   UNL A   1      33.709  34.241  28.738  1.00  0.00     0.127 S 
ATOM     91  O   UNL A   1      32.816  34.776  29.768  1.00  0.00    -0.237 OA
ATOM     92  O   UNL A   1      34.704  35.197  28.250  1.00  0.00    -0.237 OA
ATOM     93  O   UNL A   1      33.043  33.442  27.720  1.00  0.00    -0.744 OA
ENDBRANCH  87  90
ENDBRANCH  59  83
BRANCH  71  94
ATOM     94  C   UNL A   1      41.493  30.620  32.898  1.00  0.00     0.023 A 
ATOM     95  C   UNL A   1      40.913  29.346  32.687  1.00  0.00     0.012 A 
ATOM     96  C   UNL A   1      42.065  30.865  34.156  1.00  0.00     0.148 A 
ATOM     97  C   UNL A   1      40.878  28.378  33.697  1.00  0.00     0.002 A 
ATOM     98  C   UNL A   1      42.093  29.880  35.136  1.00  0.00     0.091 A 
ATOM     99  F   UNL A   1      42.586  32.083  34.380  1.00  0.00    -0.205 F 
ATOM    100  C   UNL A   1      41.489  28.637  34.918  1.00  0.00     0.022 A 
BRANCH  98 101
ATOM    101  S   UNL A   1      42.959  30.177  36.675  1.00  0.00     0.127 S 
ATOM    102  O   UNL A   1      44.154  30.886  36.218  1.00  0.00    -0.237 OA
ATOM    103  O   UNL A   1      42.024  30.994  37.444  1.00  0.00    -0.237 OA
ATOM    104  O   UNL A   1      43.195  28.849  37.237  1.00  0.00    -0.744 OA
ENDBRANCH  98 101
ENDBRANCH  71  94
ENDBRANCH  45  46
ENDBRANCH  37  40
ENDBRANCH  35  36
ENDBRANCH  34  35
ENDBRANCH   1  34
TORSDOF 18
ENDMDL
