MODEL 1
REMARK VINA RESULT:     -10.7      0.000      0.000
REMARK SMILES CC(C)C[C@H](Cn1nnnc1CC1CC1)C(=O)NCCCCCCNC(=O)c1ccc(-c2c3nc(c(-c4cccc(S(=O)(=O)[O-])c4F)c4ccc([nH]4)c(-c4cccc(S(=O)(=O)[O-])c4F)c4nc(c(-c5cccc(S(=O)(=O)[O-])c5F)c5ccc2[nH]5)C=C4)C=C3)cc1
REMARK SMILES IDX 21 1 20 2 19 3 18 4 16 5 17 6 5 8 4 9 2 10 1 11 3 12 6 13
REMARK SMILES IDX 7 14 8 15 11 16 9 17 10 18 12 19 13 20 14 21 15 22 22 23
REMARK SMILES IDX 23 24 24 25 25 26 26 27 27 29 28 30 29 31 90 32 30 33 89 34
REMARK SMILES IDX 31 35 32 36 33 37 83 38 34 39 88 40 82 41 84 42 35 43 87 44
REMARK SMILES IDX 81 45 80 46 36 48 68 49 48 50 67 51 49 52 52 53 66 54 85 55
REMARK SMILES IDX 50 56 51 57 65 59 86 60 53 61 37 62 38 63 46 64 39 65 41 66
REMARK SMILES IDX 47 67 40 68 42 69 43 70 44 71 45 72 69 73 70 74 78 75 71 76
REMARK SMILES IDX 73 77 79 78 72 79 74 80 75 81 76 82 77 83 54 84 55 85 63 86
REMARK SMILES IDX 56 87 58 88 64 89 57 90 59 91 60 92 61 93 62 94
REMARK H PARENT 18 7 25 28 84 47 52 58
REMARK Flexibility Score: inf
ROOT
ATOM      1  C   UNL A   1      30.731  29.991  24.372  1.00  0.00     0.002 C 
ENDROOT
BRANCH   1   2
ATOM      2  C   UNL A   1      30.566  28.498  24.080  1.00  0.00     0.021 C 
BRANCH   2   3
ATOM      3  C   UNL A   1      30.594  28.160  22.593  1.00  0.00     0.116 C 
BRANCH   3   4
ATOM      4  N   UNL A   1      31.932  28.294  22.045  1.00  0.00    -0.356 N 
ATOM      5  C   UNL A   1      33.053  27.559  22.272  1.00  0.00     0.224 C 
ATOM      6  O   UNL A   1      34.098  27.908  21.717  1.00  0.00    -0.275 OA
ATOM      7  H   UNL A   1      32.045  29.036  21.408  1.00  0.00     0.163 HD
BRANCH   5   8
ATOM      8  C   UNL A   1      33.022  26.300  23.127  1.00  0.00     0.100 C 
BRANCH   8   9
ATOM      9  C   UNL A   1      33.882  26.480  24.403  1.00  0.00     0.018 C 
BRANCH   9  10
ATOM     10  C   UNL A   1      33.132  26.924  25.675  1.00  0.00    -0.017 C 
ATOM     11  C   UNL A   1      32.649  25.732  26.499  1.00  0.00     0.007 C 
ATOM     12  C   UNL A   1      34.066  27.798  26.520  1.00  0.00     0.007 C 
ENDBRANCH   9  10
ENDBRANCH   8   9
BRANCH   8  13
ATOM     13  C   UNL A   1      33.305  25.044  22.265  1.00  0.00     0.161 C 
BRANCH  13  14
ATOM     14  N   UNL A   1      33.157  23.800  22.982  1.00  0.00    -0.229 N 
ATOM     15  N   UNL A   1      31.932  23.272  23.161  1.00  0.00    -0.045 NA
ATOM     16  C   UNL A   1      34.105  22.873  23.322  1.00  0.00     0.151 A 
ATOM     17  N   UNL A   1      32.139  22.009  23.495  1.00  0.00    -0.024 NA
ATOM     18  N   UNL A   1      33.481  21.739  23.574  1.00  0.00    -0.114 NA
BRANCH  16  19
ATOM     19  C   UNL A   1      35.560  23.139  23.447  1.00  0.00     0.082 C 
BRANCH  19  20
ATOM     20  C   UNL A   1      36.167  22.839  24.794  1.00  0.00    -0.004 C 
ATOM     21  C   UNL A   1      37.063  23.807  25.536  1.00  0.00     0.004 C 
ATOM     22  C   UNL A   1      35.661  23.562  26.019  1.00  0.00     0.004 C 
ENDBRANCH  19  20
ENDBRANCH  16  19
ENDBRANCH  13  14
ENDBRANCH   8  13
ENDBRANCH   5   8
ENDBRANCH   3   4
ENDBRANCH   2   3
ENDBRANCH   1   2
BRANCH   1  23
ATOM     23  C   UNL A   1      31.526  30.326  25.642  1.00  0.00     0.002 C 
BRANCH  23  24
ATOM     24  C   UNL A   1      31.268  31.711  26.258  1.00  0.00     0.021 C 
BRANCH  24  25
ATOM     25  C   UNL A   1      32.379  32.185  27.179  1.00  0.00     0.116 C 
BRANCH  25  26
ATOM     26  N   UNL A   1      32.237  33.600  27.518  1.00  0.00    -0.352 N 
ATOM     27  C   UNL A   1      32.962  34.343  28.430  1.00  0.00     0.251 C 
ATOM     28  H   UNL A   1      31.532  34.087  27.034  1.00  0.00     0.163 HD
ATOM     29  O   UNL A   1      32.517  35.383  28.880  1.00  0.00    -0.269 OA
BRANCH  27  30
ATOM     30  C   UNL A   1      34.295  33.858  28.835  1.00  0.00     0.039 A 
ATOM     31  C   UNL A   1      34.463  33.097  29.996  1.00  0.00     0.014 A 
ATOM     32  C   UNL A   1      35.385  34.176  28.028  1.00  0.00     0.014 A 
ATOM     33  C   UNL A   1      35.729  32.601  30.295  1.00  0.00     0.010 A 
ATOM     34  C   UNL A   1      36.594  33.566  28.239  1.00  0.00     0.010 A 
ATOM     35  C   UNL A   1      36.786  32.826  29.400  1.00  0.00    -0.014 A 
BRANCH  35  36
ATOM     36  C   UNL A   1      38.072  32.157  29.568  1.00  0.00     0.031 A 
ATOM     37  C   UNL A   1      38.067  30.761  29.057  1.00  0.00     0.074 A 
ATOM     38  C   UNL A   1      39.195  32.819  29.927  1.00  0.00     0.049 A 
ATOM     39  N   UNL A   1      38.084  29.673  29.753  1.00  0.00    -0.248 NA
ATOM     40  C   UNL A   1      37.803  30.538  27.624  1.00  0.00     0.031 C 
ATOM     41  C   UNL A   1      39.344  34.266  30.148  1.00  0.00     0.029 A 
ATOM     42  N   UNL A   1      40.479  32.373  30.033  1.00  0.00    -0.354 N 
ATOM     43  C   UNL A   1      38.136  28.640  28.818  1.00  0.00     0.074 A 
ATOM     44  C   UNL A   1      37.694  29.208  27.576  1.00  0.00     0.031 C 
ATOM     45  C   UNL A   1      40.652  34.602  30.105  1.00  0.00     0.029 A 
ATOM     46  C   UNL A   1      41.439  33.387  30.031  1.00  0.00     0.049 A 
ATOM     47  H   UNL A   1      40.709  31.418  30.104  1.00  0.00     0.167 HD
ATOM     48  C   UNL A   1      38.861  27.515  29.075  1.00  0.00     0.034 A 
ATOM     49  C   UNL A   1      42.785  33.237  29.951  1.00  0.00     0.034 A 
ATOM     50  C   UNL A   1      39.248  27.481  30.466  1.00  0.00     0.049 A 
ATOM     51  C   UNL A   1      43.082  31.852  30.366  1.00  0.00     0.074 A 
ATOM     52  C   UNL A   1      38.612  27.369  31.682  1.00  0.00     0.029 A 
ATOM     53  N   UNL A   1      40.492  28.008  30.700  1.00  0.00    -0.354 N 
ATOM     54  N   UNL A   1      42.911  31.422  31.583  1.00  0.00    -0.248 NA
ATOM     55  C   UNL A   1      43.227  30.824  29.348  1.00  0.00     0.031 C 
ATOM     56  C   UNL A   1      39.409  28.119  32.598  1.00  0.00     0.029 A 
ATOM     57  C   UNL A   1      40.535  28.601  31.928  1.00  0.00     0.049 A 
ATOM     58  H   UNL A   1      41.248  27.966  30.069  1.00  0.00     0.167 HD
ATOM     59  C   UNL A   1      42.439  30.133  31.410  1.00  0.00     0.074 A 
ATOM     60  C   UNL A   1      42.838  29.760  30.057  1.00  0.00     0.031 C 
ATOM     61  C   UNL A   1      41.497  29.630  32.258  1.00  0.00     0.034 A 
BRANCH  48  62
ATOM     62  C   UNL A   1      39.661  26.712  28.056  1.00  0.00     0.023 A 
ATOM     63  C   UNL A   1      39.534  25.303  28.122  1.00  0.00     0.012 A 
ATOM     64  C   UNL A   1      40.730  27.211  27.277  1.00  0.00     0.148 A 
ATOM     65  C   UNL A   1      40.459  24.444  27.516  1.00  0.00     0.002 A 
ATOM     66  C   UNL A   1      41.609  26.353  26.621  1.00  0.00     0.091 A 
ATOM     67  F   UNL A   1      40.996  28.517  27.252  1.00  0.00    -0.205 F 
ATOM     68  C   UNL A   1      41.498  24.970  26.764  1.00  0.00     0.022 A 
BRANCH  66  69
ATOM     69  S   UNL A   1      42.962  26.976  25.611  1.00  0.00     0.127 S 
ATOM     70  O   UNL A   1      43.833  27.568  26.623  1.00  0.00    -0.237 OA
ATOM     71  O   UNL A   1      43.464  25.745  25.001  1.00  0.00    -0.237 OA
ATOM     72  O   UNL A   1      42.357  27.908  24.669  1.00  0.00    -0.744 OA
ENDBRANCH  66  69
ENDBRANCH  48  62
BRANCH  49  73
ATOM     73  C   UNL A   1      43.855  34.108  29.412  1.00  0.00     0.023 A 
ATOM     74  C   UNL A   1      44.702  34.801  30.304  1.00  0.00     0.012 A 
ATOM     75  C   UNL A   1      44.250  33.998  28.062  1.00  0.00     0.148 A 
ATOM     76  C   UNL A   1      45.932  35.316  29.879  1.00  0.00     0.002 A 
ATOM     77  C   UNL A   1      45.479  34.506  27.646  1.00  0.00     0.091 A 
ATOM     78  F   UNL A   1      43.464  33.317  27.218  1.00  0.00    -0.205 F 
ATOM     79  C   UNL A   1      46.329  35.152  28.555  1.00  0.00     0.022 A 
BRANCH  77  80
ATOM     80  S   UNL A   1      46.093  34.287  25.969  1.00  0.00     0.127 S 
ATOM     81  O   UNL A   1      46.548  35.637  25.635  1.00  0.00    -0.237 OA
ATOM     82  O   UNL A   1      47.163  33.311  26.162  1.00  0.00    -0.237 OA
ATOM     83  O   UNL A   1      44.957  33.824  25.182  1.00  0.00    -0.744 OA
ENDBRANCH  77  80
ENDBRANCH  49  73
BRANCH  61  84
ATOM     84  C   UNL A   1      41.332  30.314  33.587  1.00  0.00     0.023 A 
ATOM     85  C   UNL A   1      42.223  30.144  34.666  1.00  0.00     0.012 A 
ATOM     86  C   UNL A   1      40.295  31.252  33.697  1.00  0.00     0.148 A 
ATOM     87  C   UNL A   1      42.062  30.883  35.843  1.00  0.00     0.002 A 
ATOM     88  C   UNL A   1      40.170  32.020  34.845  1.00  0.00     0.091 A 
ATOM     89  F   UNL A   1      39.454  31.391  32.661  1.00  0.00    -0.205 F 
ATOM     90  C   UNL A   1      41.044  31.831  35.926  1.00  0.00     0.022 A 
BRANCH  88  91
ATOM     91  S   UNL A   1      38.955  33.333  34.948  1.00  0.00     0.127 S 
ATOM     92  O   UNL A   1      37.712  32.586  35.121  1.00  0.00    -0.237 OA
ATOM     93  O   UNL A   1      39.395  34.075  36.130  1.00  0.00    -0.237 OA
ATOM     94  O   UNL A   1      39.073  34.083  33.703  1.00  0.00    -0.744 OA
ENDBRANCH  88  91
ENDBRANCH  61  84
ENDBRANCH  35  36
ENDBRANCH  27  30
ENDBRANCH  25  26
ENDBRANCH  24  25
ENDBRANCH  23  24
ENDBRANCH   1  23
TORSDOF 22
ENDMDL
MODEL 2
REMARK VINA RESULT:     -10.2      1.698      2.122
REMARK SMILES CC(C)C[C@H](Cn1nnnc1CC1CC1)C(=O)NCCCCCCNC(=O)c1ccc(-c2c3nc(c(-c4cccc(S(=O)(=O)[O-])c4F)c4ccc([nH]4)c(-c4cccc(S(=O)(=O)[O-])c4F)c4nc(c(-c5cccc(S(=O)(=O)[O-])c5F)c5ccc2[nH]5)C=C4)C=C3)cc1
REMARK SMILES IDX 21 1 20 2 19 3 18 4 16 5 17 6 5 8 4 9 2 10 1 11 3 12 6 13
REMARK SMILES IDX 7 14 8 15 11 16 9 17 10 18 12 19 13 20 14 21 15 22 22 23
REMARK SMILES IDX 23 24 24 25 25 26 26 27 27 29 28 30 29 31 90 32 30 33 89 34
REMARK SMILES IDX 31 35 32 36 33 37 83 38 34 39 88 40 82 41 84 42 35 43 87 44
REMARK SMILES IDX 81 45 80 46 36 48 68 49 48 50 67 51 49 52 52 53 66 54 85 55
REMARK SMILES IDX 50 56 51 57 65 59 86 60 53 61 37 62 38 63 46 64 39 65 41 66
REMARK SMILES IDX 47 67 40 68 42 69 43 70 44 71 45 72 69 73 70 74 78 75 71 76
REMARK SMILES IDX 73 77 79 78 72 79 74 80 75 81 76 82 77 83 54 84 55 85 63 86
REMARK SMILES IDX 56 87 58 88 64 89 57 90 59 91 60 92 61 93 62 94
REMARK H PARENT 18 7 25 28 84 47 52 58
REMARK Flexibility Score: inf
ROOT
ATOM      1  C   UNL A   1      30.742  30.155  24.503  1.00  0.00     0.002 C 
ENDROOT
BRANCH   1   2
ATOM      2  C   UNL A   1      31.370  29.000  23.720  1.00  0.00     0.021 C 
BRANCH   2   3
ATOM      3  C   UNL A   1      32.857  29.191  23.437  1.00  0.00     0.116 C 
BRANCH   3   4
ATOM      4  N   UNL A   1      33.658  28.929  24.619  1.00  0.00    -0.356 N 
ATOM      5  C   UNL A   1      33.784  27.799  25.364  1.00  0.00     0.224 C 
ATOM      6  O   UNL A   1      34.499  27.844  26.368  1.00  0.00    -0.275 OA
ATOM      7  H   UNL A   1      34.195  29.693  24.931  1.00  0.00     0.163 HD
BRANCH   5   8
ATOM      8  C   UNL A   1      33.126  26.492  24.947  1.00  0.00     0.100 C 
BRANCH   8   9
ATOM      9  C   UNL A   1      32.447  25.806  26.159  1.00  0.00     0.018 C 
BRANCH   9  10
ATOM     10  C   UNL A   1      31.293  24.835  25.836  1.00  0.00    -0.017 C 
ATOM     11  C   UNL A   1      31.318  23.599  26.732  1.00  0.00     0.007 C 
ATOM     12  C   UNL A   1      29.961  25.575  26.006  1.00  0.00     0.007 C 
ENDBRANCH   9  10
ENDBRANCH   8   9
BRANCH   8  13
ATOM     13  C   UNL A   1      34.104  25.626  24.113  1.00  0.00     0.161 C 
BRANCH  13  14
ATOM     14  N   UNL A   1      33.543  25.144  22.873  1.00  0.00    -0.229 N 
ATOM     15  N   UNL A   1      33.449  25.971  21.815  1.00  0.00    -0.045 NA
ATOM     16  C   UNL A   1      33.301  23.859  22.469  1.00  0.00     0.151 A 
ATOM     17  N   UNL A   1      33.264  25.182  20.769  1.00  0.00    -0.024 NA
ATOM     18  N   UNL A   1      33.196  23.868  21.154  1.00  0.00    -0.114 NA
BRANCH  16  19
ATOM     19  C   UNL A   1      33.120  22.695  23.372  1.00  0.00     0.082 C 
BRANCH  19  20
ATOM     20  C   UNL A   1      34.374  22.166  24.018  1.00  0.00    -0.004 C 
ATOM     21  C   UNL A   1      34.615  22.192  25.512  1.00  0.00     0.004 C 
ATOM     22  C   UNL A   1      34.319  20.890  24.822  1.00  0.00     0.004 C 
ENDBRANCH  19  20
ENDBRANCH  16  19
ENDBRANCH  13  14
ENDBRANCH   8  13
ENDBRANCH   5   8
ENDBRANCH   3   4
ENDBRANCH   2   3
ENDBRANCH   1   2
BRANCH   1  23
ATOM     23  C   UNL A   1      31.410  30.475  25.847  1.00  0.00     0.002 C 
BRANCH  23  24
ATOM     24  C   UNL A   1      31.263  31.920  26.350  1.00  0.00     0.021 C 
BRANCH  24  25
ATOM     25  C   UNL A   1      32.433  32.393  27.198  1.00  0.00     0.116 C 
BRANCH  25  26
ATOM     26  N   UNL A   1      32.275  33.785  27.613  1.00  0.00    -0.352 N 
ATOM     27  C   UNL A   1      32.978  34.479  28.580  1.00  0.00     0.251 C 
ATOM     28  H   UNL A   1      31.578  34.295  27.142  1.00  0.00     0.163 HD
ATOM     29  O   UNL A   1      32.517  35.490  29.078  1.00  0.00    -0.269 OA
BRANCH  27  30
ATOM     30  C   UNL A   1      34.305  33.978  28.985  1.00  0.00     0.039 A 
ATOM     31  C   UNL A   1      34.455  33.169  30.116  1.00  0.00     0.014 A 
ATOM     32  C   UNL A   1      35.407  34.330  28.209  1.00  0.00     0.014 A 
ATOM     33  C   UNL A   1      35.718  32.661  30.413  1.00  0.00     0.010 A 
ATOM     34  C   UNL A   1      36.613  33.713  28.413  1.00  0.00     0.010 A 
ATOM     35  C   UNL A   1      36.788  32.925  29.544  1.00  0.00    -0.014 A 
BRANCH  35  36
ATOM     36  C   UNL A   1      38.072  32.250  29.704  1.00  0.00     0.031 A 
ATOM     37  C   UNL A   1      38.062  30.859  29.180  1.00  0.00     0.074 A 
ATOM     38  C   UNL A   1      39.198  32.904  30.067  1.00  0.00     0.049 A 
ATOM     39  N   UNL A   1      38.076  29.764  29.866  1.00  0.00    -0.248 NA
ATOM     40  C   UNL A   1      37.794  30.650  27.745  1.00  0.00     0.031 C 
ATOM     41  C   UNL A   1      39.352  34.349  30.302  1.00  0.00     0.029 A 
ATOM     42  N   UNL A   1      40.480  32.454  30.167  1.00  0.00    -0.354 N 
ATOM     43  C   UNL A   1      38.123  28.739  28.921  1.00  0.00     0.074 A 
ATOM     44  C   UNL A   1      37.680  29.321  27.686  1.00  0.00     0.031 C 
ATOM     45  C   UNL A   1      40.661  34.681  30.259  1.00  0.00     0.029 A 
ATOM     46  C   UNL A   1      41.444  33.464  30.173  1.00  0.00     0.049 A 
ATOM     47  H   UNL A   1      40.707  31.498  30.229  1.00  0.00     0.167 HD
ATOM     48  C   UNL A   1      38.844  27.610  29.166  1.00  0.00     0.034 A 
ATOM     49  C   UNL A   1      42.789  33.311  30.089  1.00  0.00     0.034 A 
ATOM     50  C   UNL A   1      39.234  27.562  30.556  1.00  0.00     0.049 A 
ATOM     51  C   UNL A   1      43.082  31.921  30.490  1.00  0.00     0.074 A 
ATOM     52  C   UNL A   1      38.599  27.440  31.772  1.00  0.00     0.029 A 
ATOM     53  N   UNL A   1      40.480  28.083  30.793  1.00  0.00    -0.354 N 
ATOM     54  N   UNL A   1      42.912  31.480  31.703  1.00  0.00    -0.248 NA
ATOM     55  C   UNL A   1      43.222  30.901  29.462  1.00  0.00     0.031 C 
ATOM     56  C   UNL A   1      39.400  28.179  32.693  1.00  0.00     0.029 A 
ATOM     57  C   UNL A   1      40.527  28.663  32.026  1.00  0.00     0.049 A 
ATOM     58  H   UNL A   1      41.235  28.044  30.161  1.00  0.00     0.167 HD
ATOM     59  C   UNL A   1      42.436  30.194  31.520  1.00  0.00     0.074 A 
ATOM     60  C   UNL A   1      42.830  29.833  30.162  1.00  0.00     0.031 C 
ATOM     61  C   UNL A   1      41.493  29.686  32.365  1.00  0.00     0.034 A 
BRANCH  48  62
ATOM     62  C   UNL A   1      39.641  26.814  28.139  1.00  0.00     0.023 A 
ATOM     63  C   UNL A   1      39.533  25.404  28.210  1.00  0.00     0.012 A 
ATOM     64  C   UNL A   1      40.691  27.324  27.342  1.00  0.00     0.148 A 
ATOM     65  C   UNL A   1      40.459  24.554  27.594  1.00  0.00     0.002 A 
ATOM     66  C   UNL A   1      41.572  26.475  26.677  1.00  0.00     0.091 A 
ATOM     67  F   UNL A   1      40.941  28.633  27.310  1.00  0.00    -0.205 F 
ATOM     68  C   UNL A   1      41.481  25.091  26.825  1.00  0.00     0.022 A 
BRANCH  66  69
ATOM     69  S   UNL A   1      42.903  27.112  25.646  1.00  0.00     0.127 S 
ATOM     70  O   UNL A   1      43.774  27.729  26.642  1.00  0.00    -0.237 OA
ATOM     71  O   UNL A   1      43.421  25.884  25.042  1.00  0.00    -0.237 OA
ATOM     72  O   UNL A   1      42.271  28.023  24.701  1.00  0.00    -0.744 OA
ENDBRANCH  66  69
ENDBRANCH  48  62
BRANCH  49  73
ATOM     73  C   UNL A   1      43.861  34.183  29.557  1.00  0.00     0.023 A 
ATOM     74  C   UNL A   1      44.317  33.997  28.234  1.00  0.00     0.012 A 
ATOM     75  C   UNL A   1      44.192  35.386  30.215  1.00  0.00     0.148 A 
ATOM     76  C   UNL A   1      45.029  35.000  27.567  1.00  0.00     0.002 A 
ATOM     77  C   UNL A   1      44.893  36.385  29.544  1.00  0.00     0.091 A 
ATOM     78  F   UNL A   1      43.736  35.581  31.460  1.00  0.00    -0.205 F 
ATOM     79  C   UNL A   1      45.300  36.201  28.215  1.00  0.00     0.022 A 
BRANCH  77  80
ATOM     80  S   UNL A   1      45.236  37.988  30.287  1.00  0.00     0.127 S 
ATOM     81  O   UNL A   1      43.901  38.585  30.346  1.00  0.00    -0.237 OA
ATOM     82  O   UNL A   1      45.794  37.610  31.583  1.00  0.00    -0.237 OA
ATOM     83  O   UNL A   1      46.157  38.662  29.381  1.00  0.00    -0.744 OA
ENDBRANCH  77  80
ENDBRANCH  49  73
BRANCH  61  84
ATOM     84  C   UNL A   1      41.332  30.358  33.700  1.00  0.00     0.023 A 
ATOM     85  C   UNL A   1      42.218  30.166  34.780  1.00  0.00     0.012 A 
ATOM     86  C   UNL A   1      40.306  31.308  33.817  1.00  0.00     0.148 A 
ATOM     87  C   UNL A   1      42.063  30.895  35.964  1.00  0.00     0.002 A 
ATOM     88  C   UNL A   1      40.187  32.065  34.973  1.00  0.00     0.091 A 
ATOM     89  F   UNL A   1      39.470  31.467  32.780  1.00  0.00    -0.205 F 
ATOM     90  C   UNL A   1      41.056  31.855  36.054  1.00  0.00     0.022 A 
BRANCH  88  91
ATOM     91  S   UNL A   1      38.989  33.392  35.086  1.00  0.00     0.127 S 
ATOM     92  O   UNL A   1      39.280  33.954  36.403  1.00  0.00    -0.237 OA
ATOM     93  O   UNL A   1      39.358  34.246  33.958  1.00  0.00    -0.237 OA
ATOM     94  O   UNL A   1      37.681  32.761  34.947  1.00  0.00    -0.744 OA
ENDBRANCH  88  91
ENDBRANCH  61  84
ENDBRANCH  35  36
ENDBRANCH  27  30
ENDBRANCH  25  26
ENDBRANCH  24  25
ENDBRANCH  23  24
ENDBRANCH   1  23
TORSDOF 22
ENDMDL
MODEL 3
REMARK VINA RESULT:     -10.1      3.705      8.128
REMARK SMILES CC(C)C[C@H](Cn1nnnc1CC1CC1)C(=O)NCCCCCCNC(=O)c1ccc(-c2c3nc(c(-c4cccc(S(=O)(=O)[O-])c4F)c4ccc([nH]4)c(-c4cccc(S(=O)(=O)[O-])c4F)c4nc(c(-c5cccc(S(=O)(=O)[O-])c5F)c5ccc2[nH]5)C=C4)C=C3)cc1
REMARK SMILES IDX 21 1 20 2 19 3 18 4 16 5 17 6 5 8 4 9 2 10 1 11 3 12 6 13
REMARK SMILES IDX 7 14 8 15 11 16 9 17 10 18 12 19 13 20 14 21 15 22 22 23
REMARK SMILES IDX 23 24 24 25 25 26 26 27 27 29 28 30 29 31 90 32 30 33 89 34
REMARK SMILES IDX 31 35 32 36 33 37 83 38 34 39 88 40 82 41 84 42 35 43 87 44
REMARK SMILES IDX 81 45 80 46 36 48 68 49 48 50 67 51 49 52 52 53 66 54 85 55
REMARK SMILES IDX 50 56 51 57 65 59 86 60 53 61 37 62 38 63 46 64 39 65 41 66
REMARK SMILES IDX 47 67 40 68 42 69 43 70 44 71 45 72 69 73 70 74 78 75 71 76
REMARK SMILES IDX 73 77 79 78 72 79 74 80 75 81 76 82 77 83 54 84 55 85 63 86
REMARK SMILES IDX 56 87 58 88 64 89 57 90 59 91 60 92 61 93 62 94
REMARK H PARENT 18 7 25 28 84 47 52 58
REMARK Flexibility Score: inf
ROOT
ATOM      1  C   UNL A   1      34.007  28.671  26.794  1.00  0.00     0.002 C 
ENDROOT
BRANCH   1   2
ATOM      2  C   UNL A   1      32.523  29.042  26.755  1.00  0.00     0.021 C 
BRANCH   2   3
ATOM      3  C   UNL A   1      32.060  29.570  25.400  1.00  0.00     0.116 C 
BRANCH   3   4
ATOM      4  N   UNL A   1      33.121  29.492  24.412  1.00  0.00    -0.356 N 
ATOM      5  C   UNL A   1      33.440  28.501  23.540  1.00  0.00     0.224 C 
ATOM      6  O   UNL A   1      34.433  28.653  22.825  1.00  0.00    -0.275 OA
ATOM      7  H   UNL A   1      33.702  30.286  24.367  1.00  0.00     0.163 HD
BRANCH   5   8
ATOM      8  C   UNL A   1      32.568  27.262  23.387  1.00  0.00     0.100 C 
BRANCH   8   9
ATOM      9  C   UNL A   1      33.438  25.983  23.298  1.00  0.00     0.018 C 
BRANCH   9  10
ATOM     10  C   UNL A   1      33.500  25.111  24.568  1.00  0.00    -0.017 C 
ATOM     11  C   UNL A   1      34.853  25.220  25.270  1.00  0.00     0.007 C 
ATOM     12  C   UNL A   1      32.382  25.546  25.523  1.00  0.00     0.007 C 
ENDBRANCH   9  10
ENDBRANCH   8   9
BRANCH   8  13
ATOM     13  C   UNL A   1      31.512  27.468  22.271  1.00  0.00     0.161 C 
BRANCH  13  14
ATOM     14  N   UNL A   1      30.149  27.350  22.730  1.00  0.00    -0.229 N 
ATOM     15  N   UNL A   1      29.718  26.189  23.258  1.00  0.00    -0.045 NA
ATOM     16  C   UNL A   1      29.224  28.330  22.971  1.00  0.00     0.151 A 
ATOM     17  N   UNL A   1      28.604  26.490  23.905  1.00  0.00    -0.024 NA
ATOM     18  N   UNL A   1      28.298  27.818  23.759  1.00  0.00    -0.114 NA
BRANCH  16  19
ATOM     19  C   UNL A   1      29.243  29.692  22.382  1.00  0.00     0.082 C 
BRANCH  19  20
ATOM     20  C   UNL A   1      29.000  30.825  23.346  1.00  0.00    -0.004 C 
ATOM     21  C   UNL A   1      28.536  32.200  22.913  1.00  0.00     0.004 C 
ATOM     22  C   UNL A   1      27.587  31.277  23.626  1.00  0.00     0.004 C 
ENDBRANCH  19  20
ENDBRANCH  16  19
ENDBRANCH  13  14
ENDBRANCH   8  13
ENDBRANCH   5   8
ENDBRANCH   3   4
ENDBRANCH   2   3
ENDBRANCH   1   2
BRANCH   1  23
ATOM     23  C   UNL A   1      34.923  29.703  27.468  1.00  0.00     0.002 C 
BRANCH  23  24
ATOM     24  C   UNL A   1      34.392  31.144  27.526  1.00  0.00     0.021 C 
BRANCH  24  25
ATOM     25  C   UNL A   1      35.374  32.131  28.133  1.00  0.00     0.116 C 
BRANCH  25  26
ATOM     26  N   UNL A   1      34.947  32.578  29.458  1.00  0.00    -0.352 N 
ATOM     27  C   UNL A   1      35.288  32.058  30.692  1.00  0.00     0.251 C 
ATOM     28  H   UNL A   1      34.337  33.350  29.473  1.00  0.00     0.163 HD
ATOM     29  O   UNL A   1      34.595  32.272  31.670  1.00  0.00    -0.269 OA
BRANCH  27  30
ATOM     30  C   UNL A   1      36.517  31.250  30.803  1.00  0.00     0.039 A 
ATOM     31  C   UNL A   1      36.478  29.857  30.685  1.00  0.00     0.014 A 
ATOM     32  C   UNL A   1      37.722  31.912  31.028  1.00  0.00     0.014 A 
ATOM     33  C   UNL A   1      37.675  29.147  30.723  1.00  0.00     0.010 A 
ATOM     34  C   UNL A   1      38.907  31.234  30.916  1.00  0.00     0.010 A 
ATOM     35  C   UNL A   1      38.888  29.847  30.822  1.00  0.00    -0.014 A 
BRANCH  35  36
ATOM     36  C   UNL A   1      40.167  29.164  30.660  1.00  0.00     0.031 A 
ATOM     37  C   UNL A   1      40.830  28.866  31.958  1.00  0.00     0.074 A 
ATOM     38  C   UNL A   1      40.576  28.655  29.477  1.00  0.00     0.049 A 
ATOM     39  N   UNL A   1      41.876  29.441  32.452  1.00  0.00    -0.248 NA
ATOM     40  C   UNL A   1      40.140  27.979  32.911  1.00  0.00     0.031 C 
ATOM     41  C   UNL A   1      39.829  28.639  28.208  1.00  0.00     0.029 A 
ATOM     42  N   UNL A   1      41.680  27.915  29.175  1.00  0.00    -0.354 N 
ATOM     43  C   UNL A   1      42.136  28.765  33.645  1.00  0.00     0.074 A 
ATOM     44  C   UNL A   1      40.917  28.092  33.991  1.00  0.00     0.031 C 
ATOM     45  C   UNL A   1      40.370  27.725  27.373  1.00  0.00     0.029 A 
ATOM     46  C   UNL A   1      41.593  27.222  27.966  1.00  0.00     0.049 A 
ATOM     47  H   UNL A   1      42.471  27.872  29.760  1.00  0.00     0.167 HD
ATOM     48  C   UNL A   1      43.420  28.546  34.045  1.00  0.00     0.034 A 
ATOM     49  C   UNL A   1      42.453  26.284  27.498  1.00  0.00     0.034 A 
ATOM     50  C   UNL A   1      44.330  29.336  33.249  1.00  0.00     0.049 A 
ATOM     51  C   UNL A   1      43.726  26.480  28.219  1.00  0.00     0.074 A 
ATOM     52  C   UNL A   1      44.599  30.674  33.064  1.00  0.00     0.029 A 
ATOM     53  N   UNL A   1      44.839  28.661  32.169  1.00  0.00    -0.354 N 
ATOM     54  N   UNL A   1      44.479  27.530  28.061  1.00  0.00    -0.248 NA
ATOM     55  C   UNL A   1      44.000  25.681  29.404  1.00  0.00     0.031 C 
ATOM     56  C   UNL A   1      45.019  30.792  31.705  1.00  0.00     0.029 A 
ATOM     57  C   UNL A   1      45.060  29.519  31.132  1.00  0.00     0.049 A 
ATOM     58  H   UNL A   1      45.019  27.693  32.145  1.00  0.00     0.167 HD
ATOM     59  C   UNL A   1      44.954  27.787  29.335  1.00  0.00     0.074 A 
ATOM     60  C   UNL A   1      44.794  26.531  30.061  1.00  0.00     0.031 C 
ATOM     61  C   UNL A   1      45.121  29.073  29.757  1.00  0.00     0.034 A 
BRANCH  48  62
ATOM     62  C   UNL A   1      43.937  27.301  34.757  1.00  0.00     0.023 A 
ATOM     63  C   UNL A   1      43.767  26.070  34.077  1.00  0.00     0.012 A 
ATOM     64  C   UNL A   1      44.278  27.222  36.126  1.00  0.00     0.148 A 
ATOM     65  C   UNL A   1      43.853  24.838  34.738  1.00  0.00     0.002 A 
ATOM     66  C   UNL A   1      44.427  25.993  36.764  1.00  0.00     0.091 A 
ATOM     67  F   UNL A   1      44.343  28.324  36.871  1.00  0.00    -0.205 F 
ATOM     68  C   UNL A   1      44.183  24.800  36.084  1.00  0.00     0.022 A 
BRANCH  66  69
ATOM     69  S   UNL A   1      44.878  25.879  38.503  1.00  0.00     0.127 S 
ATOM     70  O   UNL A   1      46.128  26.633  38.530  1.00  0.00    -0.237 OA
ATOM     71  O   UNL A   1      43.741  26.537  39.145  1.00  0.00    -0.237 OA
ATOM     72  O   UNL A   1      44.987  24.455  38.791  1.00  0.00    -0.744 OA
ENDBRANCH  66  69
ENDBRANCH  48  62
BRANCH  49  73
ATOM     73  C   UNL A   1      42.270  25.124  26.596  1.00  0.00     0.023 A 
ATOM     74  C   UNL A   1      43.190  24.907  25.547  1.00  0.00     0.012 A 
ATOM     75  C   UNL A   1      41.409  24.068  26.959  1.00  0.00     0.148 A 
ATOM     76  C   UNL A   1      43.291  23.660  24.921  1.00  0.00     0.002 A 
ATOM     77  C   UNL A   1      41.519  22.825  26.339  1.00  0.00     0.091 A 
ATOM     78  F   UNL A   1      40.554  24.259  27.973  1.00  0.00    -0.205 F 
ATOM     79  C   UNL A   1      42.469  22.613  25.330  1.00  0.00     0.022 A 
BRANCH  77  80
ATOM     80  S   UNL A   1      40.536  21.405  26.844  1.00  0.00     0.127 S 
ATOM     81  O   UNL A   1      39.189  21.810  26.440  1.00  0.00    -0.237 OA
ATOM     82  O   UNL A   1      41.118  20.332  26.044  1.00  0.00    -0.237 OA
ATOM     83  O   UNL A   1      40.720  21.283  28.285  1.00  0.00    -0.744 OA
ENDBRANCH  77  80
ENDBRANCH  49  73
BRANCH  61  84
ATOM     84  C   UNL A   1      45.206  30.138  28.699  1.00  0.00     0.023 A 
ATOM     85  C   UNL A   1      44.083  30.827  28.195  1.00  0.00     0.012 A 
ATOM     86  C   UNL A   1      46.489  30.530  28.289  1.00  0.00     0.148 A 
ATOM     87  C   UNL A   1      44.243  31.871  27.279  1.00  0.00     0.002 A 
ATOM     88  C   UNL A   1      46.646  31.599  27.421  1.00  0.00     0.091 A 
ATOM     89  F   UNL A   1      47.542  29.855  28.775  1.00  0.00    -0.205 F 
ATOM     90  C   UNL A   1      45.526  32.267  26.903  1.00  0.00     0.022 A 
BRANCH  88  91
ATOM     91  S   UNL A   1      48.276  32.220  27.008  1.00  0.00     0.127 S 
ATOM     92  O   UNL A   1      47.975  33.194  25.962  1.00  0.00    -0.237 OA
ATOM     93  O   UNL A   1      48.722  32.798  28.276  1.00  0.00    -0.237 OA
ATOM     94  O   UNL A   1      49.049  31.058  26.583  1.00  0.00    -0.744 OA
ENDBRANCH  88  91
ENDBRANCH  61  84
ENDBRANCH  35  36
ENDBRANCH  27  30
ENDBRANCH  25  26
ENDBRANCH  24  25
ENDBRANCH  23  24
ENDBRANCH   1  23
TORSDOF 22
ENDMDL
