MODEL 1
REMARK VINA RESULT:     -12.7      0.000      0.000
REMARK SMILES Cn1cc(C(=O)NCCCCCCNC(=O)c2ccc(-c3c4nc(c(-c5cccc(S(=O)(=O)[O-])c5F)c5ccc([nH]5)c(-c5cccc(S(=O)(=O)[O-])c5F)c5nc(c(-c6cccc(S(=O)(=O)[O-])c6F)c6ccc3[nH]6)C=C5)C=C4)cc2)c(C(=O)Nc2ccc(-n3cncn3)cc2)n1
REMARK SMILES IDX 10 1 9 2 8 3 7 4 5 5 6 6 4 8 1 9 2 10 3 11 95 12 80 13 81 14
REMARK SMILES IDX 82 15 83 16 84 18 85 19 94 20 86 21 93 22 87 23 88 24 89 25
REMARK SMILES IDX 92 26 90 27 91 28 11 29 12 30 13 31 14 32 15 33 16 35 17 36
REMARK SMILES IDX 18 37 79 38 19 39 78 40 20 41 21 42 22 43 72 44 23 45 77 46
REMARK SMILES IDX 71 47 73 48 24 49 76 50 70 51 69 52 25 54 57 55 37 56 56 57
REMARK SMILES IDX 38 58 41 59 55 60 74 61 39 62 40 63 54 65 75 66 42 67 26 68
REMARK SMILES IDX 27 69 35 70 28 71 30 72 36 73 29 74 31 75 32 76 33 77 34 78
REMARK SMILES IDX 58 79 59 80 67 81 60 82 62 83 68 84 61 85 63 86 64 87 65 88
REMARK SMILES IDX 66 89 43 90 44 91 52 92 45 93 47 94 53 95 46 96 48 97 49 98
REMARK SMILES IDX 50 99 51 100
REMARK H PARENT 7 7 83 17 14 34 73 53 41 64
REMARK Flexibility Score: inf
ROOT
ATOM      1  C   UNL A   1      32.503  29.313  26.923  1.00  0.00     0.002 C 
ENDROOT
BRANCH   1   2
ATOM      2  C   UNL A   1      31.775  28.029  27.337  1.00  0.00     0.021 C 
BRANCH   2   3
ATOM      3  C   UNL A   1      31.498  27.038  26.207  1.00  0.00     0.116 C 
BRANCH   3   4
ATOM      4  N   UNL A   1      31.132  25.706  26.648  1.00  0.00    -0.352 N 
ATOM      5  C   UNL A   1      31.770  24.493  26.591  1.00  0.00     0.255 C 
ATOM      6  O   UNL A   1      31.231  23.555  27.181  1.00  0.00    -0.269 OA
ATOM      7  H   UNL A   1      30.246  25.664  27.078  1.00  0.00     0.163 HD
BRANCH   5   8
ATOM      8  C   UNL A   1      33.007  24.301  25.846  1.00  0.00     0.090 A 
ATOM      9  C   UNL A   1      36.517  23.690  25.252  1.00  0.00     0.173 C 
ATOM     10  N   UNL A   1      35.096  23.950  25.233  1.00  0.00    -0.274 N 
ATOM     11  C   UNL A   1      34.316  24.298  26.293  1.00  0.00     0.123 A 
ATOM     12  N   UNL A   1      34.412  23.778  24.098  1.00  0.00    -0.167 NA
ATOM     13  C   UNL A   1      33.120  23.933  24.455  1.00  0.00     0.163 A 
BRANCH  13  14
ATOM     14  C   UNL A   1      32.056  23.636  23.480  1.00  0.00     0.276 C 
ATOM     15  O   UNL A   1      31.395  24.537  22.952  1.00  0.00    -0.267 OA
ATOM     16  N   UNL A   1      31.802  22.350  23.057  1.00  0.00    -0.321 N 
ATOM     17  H   UNL A   1      31.283  22.303  22.223  1.00  0.00     0.170 HD
BRANCH  16  18
ATOM     18  C   UNL A   1      32.137  21.097  23.583  1.00  0.00     0.041 A 
ATOM     19  C   UNL A   1      32.123  20.021  22.691  1.00  0.00     0.028 A 
ATOM     20  C   UNL A   1      32.449  20.868  24.922  1.00  0.00     0.028 A 
ATOM     21  C   UNL A   1      32.498  18.743  23.110  1.00  0.00     0.030 A 
ATOM     22  C   UNL A   1      32.803  19.583  25.357  1.00  0.00     0.030 A 
ATOM     23  C   UNL A   1      32.858  18.521  24.444  1.00  0.00     0.067 A 
BRANCH  23  24
ATOM     24  N   UNL A   1      33.303  17.232  24.833  1.00  0.00    -0.221 N 
ATOM     25  C   UNL A   1      34.575  16.712  24.820  1.00  0.00     0.225 A 
ATOM     26  N   UNL A   1      32.441  16.275  25.264  1.00  0.00    -0.155 NA
ATOM     27  N   UNL A   1      34.565  15.455  25.201  1.00  0.00    -0.223 NA
ATOM     28  C   UNL A   1      33.247  15.230  25.451  1.00  0.00     0.246 A 
ENDBRANCH  23  24
ENDBRANCH  16  18
ENDBRANCH  13  14
ENDBRANCH   5   8
ENDBRANCH   3   4
ENDBRANCH   2   3
ENDBRANCH   1   2
BRANCH   1  29
ATOM     29  C   UNL A   1      31.741  30.288  26.019  1.00  0.00     0.002 C 
BRANCH  29  30
ATOM     30  C   UNL A   1      31.485  31.689  26.579  1.00  0.00     0.021 C 
BRANCH  30  31
ATOM     31  C   UNL A   1      32.679  32.372  27.243  1.00  0.00     0.116 C 
BRANCH  31  32
ATOM     32  N   UNL A   1      32.421  33.766  27.565  1.00  0.00    -0.352 N 
ATOM     33  C   UNL A   1      33.038  34.580  28.487  1.00  0.00     0.251 C 
ATOM     34  H   UNL A   1      31.699  34.190  27.047  1.00  0.00     0.163 HD
ATOM     35  O   UNL A   1      32.577  35.694  28.719  1.00  0.00    -0.269 OA
BRANCH  33  36
ATOM     36  C   UNL A   1      34.235  34.115  29.226  1.00  0.00     0.039 A 
ATOM     37  C   UNL A   1      34.053  33.340  30.376  1.00  0.00     0.014 A 
ATOM     38  C   UNL A   1      35.529  34.455  28.812  1.00  0.00     0.014 A 
ATOM     39  C   UNL A   1      35.161  32.838  31.064  1.00  0.00     0.010 A 
ATOM     40  C   UNL A   1      36.635  33.926  29.480  1.00  0.00     0.010 A 
ATOM     41  C   UNL A   1      36.460  33.101  30.602  1.00  0.00    -0.014 A 
BRANCH  41  42
ATOM     42  C   UNL A   1      37.642  32.480  31.250  1.00  0.00     0.031 A 
ATOM     43  C   UNL A   1      38.351  31.322  30.612  1.00  0.00     0.074 A 
ATOM     44  C   UNL A   1      38.041  32.927  32.457  1.00  0.00     0.049 A 
ATOM     45  N   UNL A   1      39.353  30.618  31.072  1.00  0.00    -0.248 NA
ATOM     46  C   UNL A   1      37.867  30.894  29.291  1.00  0.00     0.031 C 
ATOM     47  C   UNL A   1      37.415  34.020  33.203  1.00  0.00     0.029 A 
ATOM     48  N   UNL A   1      39.059  32.505  33.275  1.00  0.00    -0.354 N 
ATOM     49  C   UNL A   1      39.596  29.638  30.120  1.00  0.00     0.074 A 
ATOM     50  C   UNL A   1      38.645  29.849  29.046  1.00  0.00     0.031 C 
ATOM     51  C   UNL A   1      38.069  34.190  34.363  1.00  0.00     0.029 A 
ATOM     52  C   UNL A   1      39.145  33.207  34.453  1.00  0.00     0.049 A 
ATOM     53  H   UNL A   1      39.669  31.769  33.041  1.00  0.00     0.167 HD
ATOM     54  C   UNL A   1      40.536  28.663  30.127  1.00  0.00     0.034 A 
ATOM     55  C   UNL A   1      39.996  33.077  35.489  1.00  0.00     0.034 A 
ATOM     56  C   UNL A   1      41.529  28.490  31.151  1.00  0.00     0.049 A 
ATOM     57  C   UNL A   1      41.060  32.019  35.449  1.00  0.00     0.074 A 
ATOM     58  C   UNL A   1      42.558  27.564  31.209  1.00  0.00     0.029 A 
ATOM     59  N   UNL A   1      41.627  29.266  32.294  1.00  0.00    -0.354 N 
ATOM     60  N   UNL A   1      41.337  31.169  34.491  1.00  0.00    -0.248 NA
ATOM     61  C   UNL A   1      41.936  31.911  36.625  1.00  0.00     0.031 C 
ATOM     62  C   UNL A   1      43.295  27.798  32.377  1.00  0.00     0.029 A 
ATOM     63  C   UNL A   1      42.702  28.847  33.060  1.00  0.00     0.049 A 
ATOM     64  H   UNL A   1      41.021  30.005  32.528  1.00  0.00     0.167 HD
ATOM     65  C   UNL A   1      42.429  30.436  34.941  1.00  0.00     0.074 A 
ATOM     66  C   UNL A   1      42.771  30.950  36.251  1.00  0.00     0.031 C 
ATOM     67  C   UNL A   1      43.072  29.412  34.330  1.00  0.00     0.034 A 
BRANCH  54  68
ATOM     68  C   UNL A   1      40.573  27.749  28.939  1.00  0.00     0.023 A 
ATOM     69  C   UNL A   1      39.670  26.670  28.885  1.00  0.00     0.012 A 
ATOM     70  C   UNL A   1      41.475  27.949  27.880  1.00  0.00     0.148 A 
ATOM     71  C   UNL A   1      39.671  25.800  27.794  1.00  0.00     0.002 A 
ATOM     72  C   UNL A   1      41.473  27.073  26.799  1.00  0.00     0.091 A 
ATOM     73  F   UNL A   1      42.340  28.973  27.946  1.00  0.00    -0.205 F 
ATOM     74  C   UNL A   1      40.573  26.000  26.750  1.00  0.00     0.022 A 
BRANCH  72  75
ATOM     75  S   UNL A   1      42.662  27.304  25.476  1.00  0.00     0.127 S 
ATOM     76  O   UNL A   1      43.923  27.452  26.196  1.00  0.00    -0.237 OA
ATOM     77  O   UNL A   1      42.557  26.063  24.706  1.00  0.00    -0.237 OA
ATOM     78  O   UNL A   1      42.164  28.485  24.781  1.00  0.00    -0.744 OA
ENDBRANCH  72  75
ENDBRANCH  54  68
BRANCH  55  79
ATOM     79  C   UNL A   1      39.916  34.034  36.622  1.00  0.00     0.023 A 
ATOM     80  C   UNL A   1      40.332  35.363  36.423  1.00  0.00     0.012 A 
ATOM     81  C   UNL A   1      39.384  33.660  37.868  1.00  0.00     0.148 A 
ATOM     82  C   UNL A   1      40.225  36.302  37.450  1.00  0.00     0.002 A 
ATOM     83  C   UNL A   1      39.252  34.609  38.876  1.00  0.00     0.091 A 
ATOM     84  F   UNL A   1      38.985  32.393  38.048  1.00  0.00    -0.205 F 
ATOM     85  C   UNL A   1      39.679  35.929  38.676  1.00  0.00     0.022 A 
BRANCH  83  86
ATOM     86  S   UNL A   1      38.463  34.145  40.419  1.00  0.00     0.127 S 
ATOM     87  O   UNL A   1      38.213  35.434  41.056  1.00  0.00    -0.237 OA
ATOM     88  O   UNL A   1      37.256  33.441  39.982  1.00  0.00    -0.237 OA
ATOM     89  O   UNL A   1      39.462  33.286  41.048  1.00  0.00    -0.744 OA
ENDBRANCH  83  86
ENDBRANCH  55  79
BRANCH  67  90
ATOM     90  C   UNL A   1      44.212  28.779  35.072  1.00  0.00     0.023 A 
ATOM     91  C   UNL A   1      45.518  29.247  34.836  1.00  0.00     0.012 A 
ATOM     92  C   UNL A   1      44.002  27.769  36.026  1.00  0.00     0.148 A 
ATOM     93  C   UNL A   1      46.600  28.713  35.536  1.00  0.00     0.002 A 
ATOM     94  C   UNL A   1      45.085  27.246  36.725  1.00  0.00     0.091 A 
ATOM     95  F   UNL A   1      42.754  27.328  36.243  1.00  0.00    -0.205 F 
ATOM     96  C   UNL A   1      46.385  27.714  36.483  1.00  0.00     0.022 A 
BRANCH  94  97
ATOM     97  S   UNL A   1      44.811  25.965  37.952  1.00  0.00     0.127 S 
ATOM     98  O   UNL A   1      43.858  26.590  38.866  1.00  0.00    -0.237 OA
ATOM     99  O   UNL A   1      44.255  24.860  37.171  1.00  0.00    -0.237 OA
ATOM    100  O   UNL A   1      46.148  25.713  38.478  1.00  0.00    -0.744 OA
ENDBRANCH  94  97
ENDBRANCH  67  90
ENDBRANCH  41  42
ENDBRANCH  33  36
ENDBRANCH  31  32
ENDBRANCH  30  31
ENDBRANCH  29  30
ENDBRANCH   1  29
TORSDOF 19
ENDMDL
MODEL 2
REMARK VINA RESULT:     -12.7      2.875      8.925
REMARK SMILES Cn1cc(C(=O)NCCCCCCNC(=O)c2ccc(-c3c4nc(c(-c5cccc(S(=O)(=O)[O-])c5F)c5ccc([nH]5)c(-c5cccc(S(=O)(=O)[O-])c5F)c5nc(c(-c6cccc(S(=O)(=O)[O-])c6F)c6ccc3[nH]6)C=C5)C=C4)cc2)c(C(=O)Nc2ccc(-n3cncn3)cc2)n1
REMARK SMILES IDX 10 1 9 2 8 3 7 4 5 5 6 6 4 8 1 9 2 10 3 11 95 12 80 13 81 14
REMARK SMILES IDX 82 15 83 16 84 18 85 19 94 20 86 21 93 22 87 23 88 24 89 25
REMARK SMILES IDX 92 26 90 27 91 28 11 29 12 30 13 31 14 32 15 33 16 35 17 36
REMARK SMILES IDX 18 37 79 38 19 39 78 40 20 41 21 42 22 43 72 44 23 45 77 46
REMARK SMILES IDX 71 47 73 48 24 49 76 50 70 51 69 52 25 54 57 55 37 56 56 57
REMARK SMILES IDX 38 58 41 59 55 60 74 61 39 62 40 63 54 65 75 66 42 67 26 68
REMARK SMILES IDX 27 69 35 70 28 71 30 72 36 73 29 74 31 75 32 76 33 77 34 78
REMARK SMILES IDX 58 79 59 80 67 81 60 82 62 83 68 84 61 85 63 86 64 87 65 88
REMARK SMILES IDX 66 89 43 90 44 91 52 92 45 93 47 94 53 95 46 96 48 97 49 98
REMARK SMILES IDX 50 99 51 100
REMARK H PARENT 7 7 83 17 14 34 73 53 41 64
REMARK Flexibility Score: inf
ROOT
ATOM      1  C   UNL A   1      32.914  29.897  27.124  1.00  0.00     0.002 C 
ENDROOT
BRANCH   1   2
ATOM      2  C   UNL A   1      32.905  28.374  26.950  1.00  0.00     0.021 C 
BRANCH   2   3
ATOM      3  C   UNL A   1      33.482  27.860  25.632  1.00  0.00     0.116 C 
BRANCH   3   4
ATOM      4  N   UNL A   1      33.922  26.478  25.664  1.00  0.00    -0.352 N 
ATOM      5  C   UNL A   1      33.882  25.462  24.744  1.00  0.00     0.255 C 
ATOM      6  O   UNL A   1      34.465  24.419  25.044  1.00  0.00    -0.269 OA
ATOM      7  H   UNL A   1      34.335  26.218  26.520  1.00  0.00     0.163 HD
BRANCH   5   8
ATOM      8  C   UNL A   1      33.161  25.583  23.484  1.00  0.00     0.090 A 
ATOM      9  C   UNL A   1      32.604  25.609  19.915  1.00  0.00     0.173 C 
ATOM     10  N   UNL A   1      32.576  25.655  21.359  1.00  0.00    -0.274 N 
ATOM     11  C   UNL A   1      33.649  25.699  22.195  1.00  0.00     0.123 A 
ATOM     12  N   UNL A   1      31.404  25.577  21.996  1.00  0.00    -0.167 NA
ATOM     13  C   UNL A   1      31.734  25.477  23.300  1.00  0.00     0.163 A 
BRANCH  13  14
ATOM     14  C   UNL A   1      30.685  25.193  24.296  1.00  0.00     0.276 C 
ATOM     15  O   UNL A   1      30.643  24.114  24.898  1.00  0.00    -0.267 OA
ATOM     16  N   UNL A   1      29.755  26.142  24.657  1.00  0.00    -0.321 N 
ATOM     17  H   UNL A   1      29.299  25.948  25.506  1.00  0.00     0.170 HD
BRANCH  16  18
ATOM     18  C   UNL A   1      29.332  27.331  24.050  1.00  0.00     0.041 A 
ATOM     19  C   UNL A   1      30.256  28.378  24.014  1.00  0.00     0.028 A 
ATOM     20  C   UNL A   1      28.058  27.527  23.518  1.00  0.00     0.028 A 
ATOM     21  C   UNL A   1      29.945  29.582  23.380  1.00  0.00     0.030 A 
ATOM     22  C   UNL A   1      27.729  28.742  22.901  1.00  0.00     0.030 A 
ATOM     23  C   UNL A   1      28.682  29.764  22.803  1.00  0.00     0.067 A 
BRANCH  23  24
ATOM     24  N   UNL A   1      28.410  30.967  22.103  1.00  0.00    -0.221 N 
ATOM     25  C   UNL A   1      28.370  32.256  22.577  1.00  0.00     0.225 A 
ATOM     26  N   UNL A   1      28.096  30.974  20.782  1.00  0.00    -0.155 NA
ATOM     27  N   UNL A   1      28.020  33.089  21.623  1.00  0.00    -0.223 NA
ATOM     28  C   UNL A   1      27.855  32.264  20.554  1.00  0.00     0.246 A 
ENDBRANCH  23  24
ENDBRANCH  16  18
ENDBRANCH  13  14
ENDBRANCH   5   8
ENDBRANCH   3   4
ENDBRANCH   2   3
ENDBRANCH   1   2
BRANCH   1  29
ATOM     29  C   UNL A   1      31.799  30.686  26.428  1.00  0.00     0.002 C 
BRANCH  29  30
ATOM     30  C   UNL A   1      31.580  32.127  26.898  1.00  0.00     0.021 C 
BRANCH  30  31
ATOM     31  C   UNL A   1      32.842  32.929  27.207  1.00  0.00     0.116 C 
BRANCH  31  32
ATOM     32  N   UNL A   1      32.553  34.275  27.674  1.00  0.00    -0.352 N 
ATOM     33  C   UNL A   1      33.095  34.972  28.728  1.00  0.00     0.251 C 
ATOM     34  H   UNL A   1      31.868  34.759  27.158  1.00  0.00     0.163 HD
ATOM     35  O   UNL A   1      32.611  36.051  29.058  1.00  0.00    -0.269 OA
BRANCH  33  36
ATOM     36  C   UNL A   1      34.238  34.419  29.493  1.00  0.00     0.039 A 
ATOM     37  C   UNL A   1      33.974  33.681  30.652  1.00  0.00     0.014 A 
ATOM     38  C   UNL A   1      35.561  34.641  29.093  1.00  0.00     0.014 A 
ATOM     39  C   UNL A   1      35.027  33.099  31.364  1.00  0.00     0.010 A 
ATOM     40  C   UNL A   1      36.609  34.031  29.786  1.00  0.00     0.010 A 
ATOM     41  C   UNL A   1      36.350  33.243  30.918  1.00  0.00    -0.014 A 
BRANCH  41  42
ATOM     42  C   UNL A   1      37.465  32.535  31.593  1.00  0.00     0.031 A 
ATOM     43  C   UNL A   1      37.943  32.966  32.949  1.00  0.00     0.074 A 
ATOM     44  C   UNL A   1      38.094  31.532  30.950  1.00  0.00     0.049 A 
ATOM     45  N   UNL A   1      38.945  32.505  33.651  1.00  0.00    -0.248 NA
ATOM     46  C   UNL A   1      37.204  34.060  33.596  1.00  0.00     0.031 C 
ATOM     47  C   UNL A   1      37.753  31.042  29.613  1.00  0.00     0.029 A 
ATOM     48  N   UNL A   1      39.162  30.757  31.328  1.00  0.00    -0.354 N 
ATOM     49  C   UNL A   1      38.987  33.277  34.804  1.00  0.00     0.074 A 
ATOM     50  C   UNL A   1      37.896  34.226  34.715  1.00  0.00     0.031 C 
ATOM     51  C   UNL A   1      38.588  30.042  29.288  1.00  0.00     0.029 A 
ATOM     52  C   UNL A   1      39.534  29.834  30.380  1.00  0.00     0.049 A 
ATOM     53  H   UNL A   1      39.618  30.854  32.195  1.00  0.00     0.167 HD
ATOM     54  C   UNL A   1      39.841  33.192  35.851  1.00  0.00     0.034 A 
ATOM     55  C   UNL A   1      40.524  28.921  30.390  1.00  0.00     0.034 A 
ATOM     56  C   UNL A   1      40.881  32.208  35.983  1.00  0.00     0.049 A 
ATOM     57  C   UNL A   1      41.427  28.816  31.585  1.00  0.00     0.074 A 
ATOM     58  C   UNL A   1      41.756  32.013  37.039  1.00  0.00     0.029 A 
ATOM     59  N   UNL A   1      41.181  31.246  35.033  1.00  0.00    -0.354 N 
ATOM     60  N   UNL A   1      41.383  29.488  32.709  1.00  0.00    -0.248 NA
ATOM     61  C   UNL A   1      42.506  27.820  31.518  1.00  0.00     0.031 C 
ATOM     62  C   UNL A   1      42.569  30.912  36.737  1.00  0.00     0.029 A 
ATOM     63  C   UNL A   1      42.221  30.448  35.480  1.00  0.00     0.049 A 
ATOM     64  H   UNL A   1      40.723  31.144  34.168  1.00  0.00     0.167 HD
ATOM     65  C   UNL A   1      42.416  28.985  33.491  1.00  0.00     0.074 A 
ATOM     66  C   UNL A   1      43.061  27.943  32.717  1.00  0.00     0.031 C 
ATOM     67  C   UNL A   1      42.809  29.371  34.728  1.00  0.00     0.034 A 
BRANCH  54  68
ATOM     68  C   UNL A   1      39.630  34.159  36.978  1.00  0.00     0.023 A 
ATOM     69  C   UNL A   1      40.036  35.496  36.809  1.00  0.00     0.012 A 
ATOM     70  C   UNL A   1      39.032  33.765  38.187  1.00  0.00     0.148 A 
ATOM     71  C   UNL A   1      39.852  36.426  37.833  1.00  0.00     0.002 A 
ATOM     72  C   UNL A   1      38.859  34.697  39.205  1.00  0.00     0.091 A 
ATOM     73  F   UNL A   1      38.660  32.484  38.343  1.00  0.00    -0.205 F 
ATOM     74  C   UNL A   1      39.264  36.028  39.032  1.00  0.00     0.022 A 
BRANCH  72  75
ATOM     75  S   UNL A   1      38.141  34.177  40.765  1.00  0.00     0.127 S 
ATOM     76  O   UNL A   1      37.791  35.444  41.398  1.00  0.00    -0.237 OA
ATOM     77  O   UNL A   1      36.987  33.375  40.355  1.00  0.00    -0.237 OA
ATOM     78  O   UNL A   1      39.214  33.410  41.386  1.00  0.00    -0.744 OA
ENDBRANCH  72  75
ENDBRANCH  54  68
BRANCH  55  79
ATOM     79  C   UNL A   1      40.659  27.980  29.249  1.00  0.00     0.023 A 
ATOM     80  C   UNL A   1      39.874  26.813  29.232  1.00  0.00     0.012 A 
ATOM     81  C   UNL A   1      41.506  28.254  28.163  1.00  0.00     0.148 A 
ATOM     82  C   UNL A   1      39.938  25.930  28.153  1.00  0.00     0.002 A 
ATOM     83  C   UNL A   1      41.541  27.385  27.077  1.00  0.00     0.091 A 
ATOM     84  F   UNL A   1      42.247  29.371  28.184  1.00  0.00    -0.205 F 
ATOM     85  C   UNL A   1      40.766  26.218  27.070  1.00  0.00     0.022 A 
BRANCH  83  86
ATOM     86  S   UNL A   1      42.538  27.809  25.646  1.00  0.00     0.127 S 
ATOM     87  O   UNL A   1      43.868  27.983  26.218  1.00  0.00    -0.237 OA
ATOM     88  O   UNL A   1      42.398  26.638  24.778  1.00  0.00    -0.237 OA
ATOM     89  O   UNL A   1      41.879  29.010  25.139  1.00  0.00    -0.744 OA
ENDBRANCH  83  86
ENDBRANCH  55  79
BRANCH  67  90
ATOM     90  C   UNL A   1      43.991  28.665  35.324  1.00  0.00     0.023 A 
ATOM     91  C   UNL A   1      45.284  29.055  34.929  1.00  0.00     0.012 A 
ATOM     92  C   UNL A   1      43.837  27.663  36.296  1.00  0.00     0.148 A 
ATOM     93  C   UNL A   1      46.409  28.451  35.491  1.00  0.00     0.002 A 
ATOM     94  C   UNL A   1      44.964  27.070  36.857  1.00  0.00     0.091 A 
ATOM     95  F   UNL A   1      42.601  27.296  36.665  1.00  0.00    -0.205 F 
ATOM     96  C   UNL A   1      46.251  27.460  36.457  1.00  0.00     0.022 A 
BRANCH  94  97
ATOM     97  S   UNL A   1      44.765  25.799  38.109  1.00  0.00     0.127 S 
ATOM     98  O   UNL A   1      44.072  24.737  37.385  1.00  0.00    -0.237 OA
ATOM     99  O   UNL A   1      46.142  25.470  38.481  1.00  0.00    -0.237 OA
ATOM    100  O   UNL A   1      44.008  26.476  39.156  1.00  0.00    -0.744 OA
ENDBRANCH  94  97
ENDBRANCH  67  90
ENDBRANCH  41  42
ENDBRANCH  33  36
ENDBRANCH  31  32
ENDBRANCH  30  31
ENDBRANCH  29  30
ENDBRANCH   1  29
TORSDOF 19
ENDMDL
MODEL 3
REMARK VINA RESULT:     -12.5      0.425      7.491
REMARK SMILES Cn1cc(C(=O)NCCCCCCNC(=O)c2ccc(-c3c4nc(c(-c5cccc(S(=O)(=O)[O-])c5F)c5ccc([nH]5)c(-c5cccc(S(=O)(=O)[O-])c5F)c5nc(c(-c6cccc(S(=O)(=O)[O-])c6F)c6ccc3[nH]6)C=C5)C=C4)cc2)c(C(=O)Nc2ccc(-n3cncn3)cc2)n1
REMARK SMILES IDX 10 1 9 2 8 3 7 4 5 5 6 6 4 8 1 9 2 10 3 11 95 12 80 13 81 14
REMARK SMILES IDX 82 15 83 16 84 18 85 19 94 20 86 21 93 22 87 23 88 24 89 25
REMARK SMILES IDX 92 26 90 27 91 28 11 29 12 30 13 31 14 32 15 33 16 35 17 36
REMARK SMILES IDX 18 37 79 38 19 39 78 40 20 41 21 42 22 43 72 44 23 45 77 46
REMARK SMILES IDX 71 47 73 48 24 49 76 50 70 51 69 52 25 54 57 55 37 56 56 57
REMARK SMILES IDX 38 58 41 59 55 60 74 61 39 62 40 63 54 65 75 66 42 67 26 68
REMARK SMILES IDX 27 69 35 70 28 71 30 72 36 73 29 74 31 75 32 76 33 77 34 78
REMARK SMILES IDX 58 79 59 80 67 81 60 82 62 83 68 84 61 85 63 86 64 87 65 88
REMARK SMILES IDX 66 89 43 90 44 91 52 92 45 93 47 94 53 95 46 96 48 97 49 98
REMARK SMILES IDX 50 99 51 100
REMARK H PARENT 7 7 83 17 14 34 73 53 41 64
REMARK Flexibility Score: inf
ROOT
ATOM      1  C   UNL A   1      32.481  29.890  27.125  1.00  0.00     0.002 C 
ENDROOT
BRANCH   1   2
ATOM      2  C   UNL A   1      32.114  28.430  27.418  1.00  0.00     0.021 C 
BRANCH   2   3
ATOM      3  C   UNL A   1      31.766  27.584  26.195  1.00  0.00     0.116 C 
BRANCH   3   4
ATOM      4  N   UNL A   1      31.206  26.281  26.502  1.00  0.00    -0.352 N 
ATOM      5  C   UNL A   1      31.672  25.001  26.342  1.00  0.00     0.255 C 
ATOM      6  O   UNL A   1      30.991  24.098  26.831  1.00  0.00    -0.269 OA
ATOM      7  H   UNL A   1      30.310  26.325  26.910  1.00  0.00     0.163 HD
BRANCH   5   8
ATOM      8  C   UNL A   1      32.893  24.705  25.604  1.00  0.00     0.090 A 
ATOM      9  C   UNL A   1      36.359  23.867  25.032  1.00  0.00     0.173 C 
ATOM     10  N   UNL A   1      34.956  24.208  25.004  1.00  0.00    -0.274 N 
ATOM     11  C   UNL A   1      34.201  24.645  26.049  1.00  0.00     0.123 A 
ATOM     12  N   UNL A   1      34.259  24.028  23.879  1.00  0.00    -0.167 NA
ATOM     13  C   UNL A   1      32.979  24.274  24.230  1.00  0.00     0.163 A 
BRANCH  13  14
ATOM     14  C   UNL A   1      31.896  23.999  23.270  1.00  0.00     0.276 C 
ATOM     15  O   UNL A   1      31.229  24.912  22.772  1.00  0.00    -0.267 OA
ATOM     16  N   UNL A   1      31.630  22.722  22.827  1.00  0.00    -0.321 N 
ATOM     17  H   UNL A   1      31.095  22.692  22.002  1.00  0.00     0.170 HD
BRANCH  16  18
ATOM     18  C   UNL A   1      31.971  21.458  23.322  1.00  0.00     0.041 A 
ATOM     19  C   UNL A   1      32.001  20.411  22.396  1.00  0.00     0.028 A 
ATOM     20  C   UNL A   1      32.248  21.191  24.662  1.00  0.00     0.028 A 
ATOM     21  C   UNL A   1      32.385  19.127  22.785  1.00  0.00     0.030 A 
ATOM     22  C   UNL A   1      32.611  19.898  25.066  1.00  0.00     0.030 A 
ATOM     23  C   UNL A   1      32.710  18.867  24.122  1.00  0.00     0.067 A 
BRANCH  23  24
ATOM     24  N   UNL A   1      33.165  17.573  24.482  1.00  0.00    -0.221 N 
ATOM     25  C   UNL A   1      34.318  16.924  24.112  1.00  0.00     0.225 A 
ATOM     26  N   UNL A   1      32.430  16.748  25.272  1.00  0.00    -0.155 NA
ATOM     27  N   UNL A   1      34.345  15.709  24.609  1.00  0.00    -0.223 NA
ATOM     28  C   UNL A   1      33.175  15.643  25.298  1.00  0.00     0.246 A 
ENDBRANCH  23  24
ENDBRANCH  16  18
ENDBRANCH  13  14
ENDBRANCH   5   8
ENDBRANCH   3   4
ENDBRANCH   2   3
ENDBRANCH   1   2
BRANCH   1  29
ATOM     29  C   UNL A   1      31.492  30.702  26.281  1.00  0.00     0.002 C 
BRANCH  29  30
ATOM     30  C   UNL A   1      31.423  32.207  26.560  1.00  0.00     0.021 C 
BRANCH  30  31
ATOM     31  C   UNL A   1      32.634  32.811  27.268  1.00  0.00     0.116 C 
BRANCH  31  32
ATOM     32  N   UNL A   1      32.417  34.191  27.670  1.00  0.00    -0.352 N 
ATOM     33  C   UNL A   1      33.037  34.923  28.657  1.00  0.00     0.251 C 
ATOM     34  H   UNL A   1      31.726  34.674  27.161  1.00  0.00     0.163 HD
ATOM     35  O   UNL A   1      32.610  36.037  28.947  1.00  0.00    -0.269 OA
BRANCH  33  36
ATOM     36  C   UNL A   1      34.196  34.368  29.395  1.00  0.00     0.039 A 
ATOM     37  C   UNL A   1      33.959  33.660  30.578  1.00  0.00     0.014 A 
ATOM     38  C   UNL A   1      35.509  34.559  28.948  1.00  0.00     0.014 A 
ATOM     39  C   UNL A   1      35.024  33.076  31.269  1.00  0.00     0.010 A 
ATOM     40  C   UNL A   1      36.569  33.947  29.620  1.00  0.00     0.010 A 
ATOM     41  C   UNL A   1      36.334  33.188  30.777  1.00  0.00    -0.014 A 
BRANCH  41  42
ATOM     42  C   UNL A   1      37.460  32.477  31.432  1.00  0.00     0.031 A 
ATOM     43  C   UNL A   1      37.965  32.907  32.778  1.00  0.00     0.074 A 
ATOM     44  C   UNL A   1      38.073  31.472  30.777  1.00  0.00     0.049 A 
ATOM     45  N   UNL A   1      38.979  32.442  33.461  1.00  0.00    -0.248 NA
ATOM     46  C   UNL A   1      37.242  34.004  33.438  1.00  0.00     0.031 C 
ATOM     47  C   UNL A   1      37.705  30.981  29.447  1.00  0.00     0.029 A 
ATOM     48  N   UNL A   1      39.145  30.693  31.135  1.00  0.00    -0.354 N 
ATOM     49  C   UNL A   1      39.046  33.215  34.612  1.00  0.00     0.074 A 
ATOM     50  C   UNL A   1      37.956  34.168  34.543  1.00  0.00     0.031 C 
ATOM     51  C   UNL A   1      38.530  29.978  29.107  1.00  0.00     0.029 A 
ATOM     52  C   UNL A   1      39.495  29.768  30.181  1.00  0.00     0.049 A 
ATOM     53  H   UNL A   1      39.618  30.788  31.993  1.00  0.00     0.167 HD
ATOM     54  C   UNL A   1      39.919  33.128  35.642  1.00  0.00     0.034 A 
ATOM     55  C   UNL A   1      40.482  28.851  30.172  1.00  0.00     0.034 A 
ATOM     56  C   UNL A   1      40.958  32.141  35.756  1.00  0.00     0.049 A 
ATOM     57  C   UNL A   1      41.408  28.744  31.350  1.00  0.00     0.074 A 
ATOM     58  C   UNL A   1      41.853  31.943  36.794  1.00  0.00     0.029 A 
ATOM     59  N   UNL A   1      41.236  31.177  34.800  1.00  0.00    -0.354 N 
ATOM     60  N   UNL A   1      41.388  29.416  32.474  1.00  0.00    -0.248 NA
ATOM     61  C   UNL A   1      42.482  27.743  31.263  1.00  0.00     0.031 C 
ATOM     62  C   UNL A   1      42.656  30.839  36.478  1.00  0.00     0.029 A 
ATOM     63  C   UNL A   1      42.282  30.375  35.228  1.00  0.00     0.049 A 
ATOM     64  H   UNL A   1      40.762  31.076  33.944  1.00  0.00     0.167 HD
ATOM     65  C   UNL A   1      42.434  28.910  33.236  1.00  0.00     0.074 A 
ATOM     66  C   UNL A   1      43.060  27.866  32.451  1.00  0.00     0.031 C 
ATOM     67  C   UNL A   1      42.851  29.296  34.465  1.00  0.00     0.034 A 
BRANCH  54  68
ATOM     68  C   UNL A   1      39.734  34.096  36.773  1.00  0.00     0.023 A 
ATOM     69  C   UNL A   1      40.149  35.430  36.599  1.00  0.00     0.012 A 
ATOM     70  C   UNL A   1      39.149  33.707  37.990  1.00  0.00     0.148 A 
ATOM     71  C   UNL A   1      39.989  36.361  37.625  1.00  0.00     0.002 A 
ATOM     72  C   UNL A   1      38.999  34.641  39.011  1.00  0.00     0.091 A 
ATOM     73  F   UNL A   1      38.767  32.430  38.151  1.00  0.00    -0.205 F 
ATOM     74  C   UNL A   1      39.414  35.968  38.832  1.00  0.00     0.022 A 
BRANCH  72  75
ATOM     75  S   UNL A   1      38.299  34.126  40.580  1.00  0.00     0.127 S 
ATOM     76  O   UNL A   1      37.025  33.531  40.186  1.00  0.00    -0.237 OA
ATOM     77  O   UNL A   1      39.277  33.162  41.087  1.00  0.00    -0.237 OA
ATOM     78  O   UNL A   1      38.233  35.369  41.340  1.00  0.00    -0.744 OA
ENDBRANCH  72  75
ENDBRANCH  54  68
BRANCH  55  79
ATOM     79  C   UNL A   1      40.592  27.908  29.030  1.00  0.00     0.023 A 
ATOM     80  C   UNL A   1      39.737  26.792  28.982  1.00  0.00     0.012 A 
ATOM     81  C   UNL A   1      41.486  28.135  27.970  1.00  0.00     0.148 A 
ATOM     82  C   UNL A   1      39.778  25.913  27.900  1.00  0.00     0.002 A 
ATOM     83  C   UNL A   1      41.498  27.271  26.880  1.00  0.00     0.091 A 
ATOM     84  F   UNL A   1      42.293  29.205  28.019  1.00  0.00    -0.205 F 
ATOM     85  C   UNL A   1      40.653  26.154  26.843  1.00  0.00     0.022 A 
BRANCH  83  86
ATOM     86  S   UNL A   1      42.560  27.639  25.481  1.00  0.00     0.127 S 
ATOM     87  O   UNL A   1      42.035  28.913  25.002  1.00  0.00    -0.237 OA
ATOM     88  O   UNL A   1      43.893  27.719  26.081  1.00  0.00    -0.237 OA
ATOM     89  O   UNL A   1      42.364  26.481  24.613  1.00  0.00    -0.744 OA
ENDBRANCH  83  86
ENDBRANCH  55  79
BRANCH  67  90
ATOM     90  C   UNL A   1      44.042  28.586  35.039  1.00  0.00     0.023 A 
ATOM     91  C   UNL A   1      45.321  29.138  34.841  1.00  0.00     0.012 A 
ATOM     92  C   UNL A   1      43.904  27.416  35.805  1.00  0.00     0.148 A 
ATOM     93  C   UNL A   1      46.448  28.530  35.394  1.00  0.00     0.002 A 
ATOM     94  C   UNL A   1      45.033  26.819  36.359  1.00  0.00     0.091 A 
ATOM     95  F   UNL A   1      42.681  26.896  35.986  1.00  0.00    -0.205 F 
ATOM     96  C   UNL A   1      46.306  27.372  36.155  1.00  0.00     0.022 A 
BRANCH  94  97
ATOM     97  S   UNL A   1      44.852  25.332  37.348  1.00  0.00     0.127 S 
ATOM     98  O   UNL A   1      46.112  25.278  38.085  1.00  0.00    -0.237 OA
ATOM     99  O   UNL A   1      43.683  25.618  38.180  1.00  0.00    -0.237 OA
ATOM    100  O   UNL A   1      44.636  24.291  36.349  1.00  0.00    -0.744 OA
ENDBRANCH  94  97
ENDBRANCH  67  90
ENDBRANCH  41  42
ENDBRANCH  33  36
ENDBRANCH  31  32
ENDBRANCH  30  31
ENDBRANCH  29  30
ENDBRANCH   1  29
TORSDOF 19
ENDMDL
