MODEL 1
REMARK VINA RESULT:     -11.1      0.000      0.000
REMARK SMILES CC(C)(C)[C@@H]1CC(C(=O)NCCCCCCNC(=O)c2ccc(-c3c4nc(c(-c5cccc(S(=O)(=O)[O-])c5F)c5ccc([nH]5)c(-c5cccc(S(=O)(=O)[O-])c5F)c5nc(c(-c6cccc(S(=O)(=O)[O-])c6F)c6ccc3[nH]6)C=C5)C=C4)cc2)C[C@@H](C(C)(C)C)C1
REMARK SMILES IDX 14 1 13 2 12 3 11 4 10 5 8 6 9 7 7 9 5 10 6 11 89 12 84 13
REMARK SMILES IDX 83 14 2 15 1 16 3 17 4 18 85 19 86 20 87 21 88 22 15 23
REMARK SMILES IDX 16 24 17 25 18 26 19 28 20 29 21 30 82 31 22 32 81 33 23 34
REMARK SMILES IDX 24 35 25 36 75 37 26 38 80 39 74 40 76 41 27 42 79 43 73 44
REMARK SMILES IDX 72 45 28 47 60 48 40 49 59 50 41 51 44 52 58 53 77 54 42 55
REMARK SMILES IDX 43 56 57 58 78 59 45 60 29 61 30 62 38 63 31 64 33 65 39 66
REMARK SMILES IDX 32 67 34 68 35 69 36 70 37 71 61 72 62 73 70 74 63 75 65 76
REMARK SMILES IDX 71 77 64 78 66 79 67 80 68 81 69 82 46 83 47 84 55 85 48 86
REMARK SMILES IDX 50 87 56 88 49 89 51 90 52 91 53 92 54 93
REMARK H PARENT 10 8 17 27 76 46 44 57
REMARK Flexibility Score: inf
ROOT
ATOM      1  C   UNL A   1      31.810  27.950  25.246  1.00  0.00     0.002 C 
ENDROOT
BRANCH   1   2
ATOM      2  C   UNL A   1      32.655  27.356  24.116  1.00  0.00     0.002 C 
BRANCH   2   3
ATOM      3  C   UNL A   1      31.874  27.005  22.845  1.00  0.00     0.021 C 
BRANCH   3   4
ATOM      4  C   UNL A   1      31.347  25.571  22.820  1.00  0.00     0.116 C 
BRANCH   4   5
ATOM      5  N   UNL A   1      31.988  24.805  21.766  1.00  0.00    -0.356 N 
ATOM      6  C   UNL A   1      32.971  23.866  21.814  1.00  0.00     0.223 C 
ATOM      7  O   UNL A   1      33.404  23.433  20.742  1.00  0.00    -0.275 OA
ATOM      8  H   UNL A   1      31.654  24.999  20.860  1.00  0.00     0.163 HD
BRANCH   6   9
ATOM      9  C   UNL A   1      33.486  23.310  23.141  1.00  0.00     0.079 C 
ATOM     10  C   UNL A   1      33.815  21.076  24.467  1.00  0.00    -0.005 C 
ATOM     11  C   UNL A   1      33.021  21.869  23.405  1.00  0.00     0.017 C 
ATOM     12  C   UNL A   1      35.318  21.355  24.328  1.00  0.00     0.008 C 
ATOM     13  C   UNL A   1      35.706  22.849  24.388  1.00  0.00    -0.005 C 
ATOM     14  C   UNL A   1      34.994  23.586  23.248  1.00  0.00     0.017 C 
BRANCH  10  15
ATOM     15  C   UNL A   1      33.432  19.526  24.534  1.00  0.00    -0.035 C 
ATOM     16  C   UNL A   1      34.654  18.580  24.481  1.00  0.00     0.011 C 
ATOM     17  C   UNL A   1      32.471  19.060  23.416  1.00  0.00     0.011 C 
ATOM     18  C   UNL A   1      32.719  19.270  25.882  1.00  0.00     0.011 C 
ENDBRANCH  10  15
BRANCH  13  19
ATOM     19  C   UNL A   1      35.650  23.577  25.791  1.00  0.00    -0.035 C 
ATOM     20  C   UNL A   1      34.912  24.928  25.605  1.00  0.00     0.011 C 
ATOM     21  C   UNL A   1      34.892  22.815  26.895  1.00  0.00     0.011 C 
ATOM     22  C   UNL A   1      37.060  23.901  26.323  1.00  0.00     0.011 C 
ENDBRANCH  13  19
ENDBRANCH   6   9
ENDBRANCH   4   5
ENDBRANCH   3   4
ENDBRANCH   2   3
ENDBRANCH   1   2
BRANCH   1  23
ATOM     23  C   UNL A   1      32.450  27.885  26.635  1.00  0.00     0.021 C 
BRANCH  23  24
ATOM     24  C   UNL A   1      33.807  28.573  26.744  1.00  0.00     0.116 C 
BRANCH  24  25
ATOM     25  N   UNL A   1      33.676  29.983  27.067  1.00  0.00    -0.352 N 
ATOM     26  C   UNL A   1      34.470  30.770  27.857  1.00  0.00     0.251 C 
ATOM     27  H   UNL A   1      32.904  30.440  26.659  1.00  0.00     0.163 HD
ATOM     28  O   UNL A   1      34.087  31.895  28.178  1.00  0.00    -0.269 OA
BRANCH  26  29
ATOM     29  C   UNL A   1      35.779  30.270  28.329  1.00  0.00     0.039 A 
ATOM     30  C   UNL A   1      36.900  30.456  27.517  1.00  0.00     0.014 A 
ATOM     31  C   UNL A   1      35.897  29.589  29.544  1.00  0.00     0.014 A 
ATOM     32  C   UNL A   1      38.144  29.981  27.937  1.00  0.00     0.010 A 
ATOM     33  C   UNL A   1      37.150  29.184  29.995  1.00  0.00     0.010 A 
ATOM     34  C   UNL A   1      38.282  29.351  29.185  1.00  0.00    -0.014 A 
BRANCH  34  35
ATOM     35  C   UNL A   1      39.604  28.851  29.637  1.00  0.00     0.031 A 
ATOM     36  C   UNL A   1      40.340  29.541  30.755  1.00  0.00     0.074 A 
ATOM     37  C   UNL A   1      40.173  27.810  29.001  1.00  0.00     0.049 A 
ATOM     38  N   UNL A   1      41.484  29.227  31.304  1.00  0.00    -0.248 NA
ATOM     39  C   UNL A   1      39.726  30.760  31.308  1.00  0.00     0.031 C 
ATOM     40  C   UNL A   1      39.613  27.125  27.835  1.00  0.00     0.029 A 
ATOM     41  N   UNL A   1      41.358  27.159  29.233  1.00  0.00    -0.354 N 
ATOM     42  C   UNL A   1      41.746  30.223  32.237  1.00  0.00     0.074 A 
ATOM     43  C   UNL A   1      40.659  31.174  32.152  1.00  0.00     0.031 C 
ATOM     44  C   UNL A   1      40.449  26.146  27.457  1.00  0.00     0.029 A 
ATOM     45  C   UNL A   1      41.608  26.140  28.345  1.00  0.00     0.049 A 
ATOM     46  H   UNL A   1      41.970  27.399  29.966  1.00  0.00     0.167 HD
ATOM     47  C   UNL A   1      42.778  30.323  33.108  1.00  0.00     0.034 A 
ATOM     48  C   UNL A   1      42.650  25.290  28.262  1.00  0.00     0.034 A 
ATOM     49  C   UNL A   1      43.830  29.348  33.223  1.00  0.00     0.049 A 
ATOM     50  C   UNL A   1      43.732  25.357  29.303  1.00  0.00     0.074 A 
ATOM     51  C   UNL A   1      44.859  29.294  34.145  1.00  0.00     0.029 A 
ATOM     52  N   UNL A   1      43.992  28.259  32.381  1.00  0.00    -0.354 N 
ATOM     53  N   UNL A   1      43.863  26.193  30.304  1.00  0.00    -0.248 NA
ATOM     54  C   UNL A   1      44.783  24.332  29.235  1.00  0.00     0.031 C 
ATOM     55  C   UNL A   1      45.655  28.181  33.848  1.00  0.00     0.029 A 
ATOM     56  C   UNL A   1      45.106  27.529  32.756  1.00  0.00     0.049 A 
ATOM     57  H   UNL A   1      43.399  28.036  31.627  1.00  0.00     0.167 HD
ATOM     58  C   UNL A   1      44.991  25.779  31.004  1.00  0.00     0.074 A 
ATOM     59  C   UNL A   1      45.491  24.600  30.324  1.00  0.00     0.031 C 
ATOM     60  C   UNL A   1      45.570  26.334  32.098  1.00  0.00     0.034 A 
BRANCH  47  61
ATOM     61  C   UNL A   1      42.786  31.505  34.043  1.00  0.00     0.023 A 
ATOM     62  C   UNL A   1      43.348  32.727  33.619  1.00  0.00     0.012 A 
ATOM     63  C   UNL A   1      42.213  31.421  35.328  1.00  0.00     0.148 A 
ATOM     64  C   UNL A   1      43.382  33.830  34.470  1.00  0.00     0.002 A 
ATOM     65  C   UNL A   1      42.208  32.539  36.154  1.00  0.00     0.091 A 
ATOM     66  F   UNL A   1      41.704  30.246  35.727  1.00  0.00    -0.205 F 
ATOM     67  C   UNL A   1      42.803  33.740  35.733  1.00  0.00     0.022 A 
BRANCH  65  68
ATOM     68  S   UNL A   1      41.416  32.540  37.767  1.00  0.00     0.127 S 
ATOM     69  O   UNL A   1      40.060  32.112  37.430  1.00  0.00    -0.237 OA
ATOM     70  O   UNL A   1      42.204  31.547  38.501  1.00  0.00    -0.237 OA
ATOM     71  O   UNL A   1      41.543  33.900  38.270  1.00  0.00    -0.744 OA
ENDBRANCH  65  68
ENDBRANCH  47  61
BRANCH  48  72
ATOM     72  C   UNL A   1      42.656  24.244  27.202  1.00  0.00     0.023 A 
ATOM     73  C   UNL A   1      43.369  24.469  26.008  1.00  0.00     0.012 A 
ATOM     74  C   UNL A   1      42.015  23.004  27.397  1.00  0.00     0.148 A 
ATOM     75  C   UNL A   1      43.423  23.489  25.017  1.00  0.00     0.002 A 
ATOM     76  C   UNL A   1      42.120  22.013  26.431  1.00  0.00     0.091 A 
ATOM     77  F   UNL A   1      41.337  22.815  28.538  1.00  0.00    -0.205 F 
ATOM     78  C   UNL A   1      42.809  22.258  25.233  1.00  0.00     0.022 A 
BRANCH  76  79
ATOM     79  S   UNL A   1      41.482  20.352  26.681  1.00  0.00     0.127 S 
ATOM     80  O   UNL A   1      42.186  19.941  27.894  1.00  0.00    -0.237 OA
ATOM     81  O   UNL A   1      40.050  20.603  26.856  1.00  0.00    -0.237 OA
ATOM     82  O   UNL A   1      41.818  19.613  25.474  1.00  0.00    -0.744 OA
ENDBRANCH  76  79
ENDBRANCH  48  72
BRANCH  60  83
ATOM     83  C   UNL A   1      46.801  25.659  32.648  1.00  0.00     0.023 A 
ATOM     84  C   UNL A   1      46.683  24.754  33.721  1.00  0.00     0.012 A 
ATOM     85  C   UNL A   1      48.066  25.883  32.071  1.00  0.00     0.148 A 
ATOM     86  C   UNL A   1      47.809  24.113  34.237  1.00  0.00     0.002 A 
ATOM     87  C   UNL A   1      49.177  25.204  32.558  1.00  0.00     0.091 A 
ATOM     88  F   UNL A   1      48.167  26.765  31.065  1.00  0.00    -0.205 F 
ATOM     89  C   UNL A   1      49.053  24.331  33.650  1.00  0.00     0.022 A 
BRANCH  87  90
ATOM     90  S   UNL A   1      50.795  25.357  31.793  1.00  0.00     0.127 S 
ATOM     91  O   UNL A   1      51.595  24.434  32.596  1.00  0.00    -0.237 OA
ATOM     92  O   UNL A   1      50.539  24.908  30.423  1.00  0.00    -0.237 OA
ATOM     93  O   UNL A   1      51.151  26.765  31.905  1.00  0.00    -0.744 OA
ENDBRANCH  87  90
ENDBRANCH  60  83
ENDBRANCH  34  35
ENDBRANCH  26  29
ENDBRANCH  24  25
ENDBRANCH  23  24
ENDBRANCH   1  23
TORSDOF 18
ENDMDL
MODEL 2
REMARK VINA RESULT:     -11.1      2.552      3.269
REMARK SMILES CC(C)(C)[C@@H]1CC(C(=O)NCCCCCCNC(=O)c2ccc(-c3c4nc(c(-c5cccc(S(=O)(=O)[O-])c5F)c5ccc([nH]5)c(-c5cccc(S(=O)(=O)[O-])c5F)c5nc(c(-c6cccc(S(=O)(=O)[O-])c6F)c6ccc3[nH]6)C=C5)C=C4)cc2)C[C@@H](C(C)(C)C)C1
REMARK SMILES IDX 14 1 13 2 12 3 11 4 10 5 8 6 9 7 7 9 5 10 6 11 89 12 84 13
REMARK SMILES IDX 83 14 2 15 1 16 3 17 4 18 85 19 86 20 87 21 88 22 15 23
REMARK SMILES IDX 16 24 17 25 18 26 19 28 20 29 21 30 82 31 22 32 81 33 23 34
REMARK SMILES IDX 24 35 25 36 75 37 26 38 80 39 74 40 76 41 27 42 79 43 73 44
REMARK SMILES IDX 72 45 28 47 60 48 40 49 59 50 41 51 44 52 58 53 77 54 42 55
REMARK SMILES IDX 43 56 57 58 78 59 45 60 29 61 30 62 38 63 31 64 33 65 39 66
REMARK SMILES IDX 32 67 34 68 35 69 36 70 37 71 61 72 62 73 70 74 63 75 65 76
REMARK SMILES IDX 71 77 64 78 66 79 67 80 68 81 69 82 46 83 47 84 55 85 48 86
REMARK SMILES IDX 50 87 56 88 49 89 51 90 52 91 53 92 54 93
REMARK H PARENT 10 8 17 27 76 46 44 57
REMARK Flexibility Score: inf
ROOT
ATOM      1  C   UNL A   1      31.312  28.884  24.998  1.00  0.00     0.002 C 
ENDROOT
BRANCH   1   2
ATOM      2  C   UNL A   1      30.255  29.456  24.049  1.00  0.00     0.002 C 
BRANCH   2   3
ATOM      3  C   UNL A   1      30.206  28.796  22.667  1.00  0.00     0.021 C 
BRANCH   3   4
ATOM      4  C   UNL A   1      30.679  27.343  22.659  1.00  0.00     0.116 C 
BRANCH   4   5
ATOM      5  N   UNL A   1      31.937  27.215  21.945  1.00  0.00    -0.356 N 
ATOM      6  C   UNL A   1      33.015  26.416  22.168  1.00  0.00     0.223 C 
ATOM      7  O   UNL A   1      34.008  26.578  21.453  1.00  0.00    -0.275 OA
ATOM      8  H   UNL A   1      32.025  27.809  21.164  1.00  0.00     0.163 HD
BRANCH   6   9
ATOM      9  C   UNL A   1      32.989  25.310  23.222  1.00  0.00     0.079 C 
ATOM     10  C   UNL A   1      34.532  23.616  24.490  1.00  0.00    -0.005 C 
ATOM     11  C   UNL A   1      34.266  24.454  23.220  1.00  0.00     0.017 C 
ATOM     12  C   UNL A   1      34.186  24.427  25.747  1.00  0.00     0.008 C 
ATOM     13  C   UNL A   1      32.747  24.988  25.778  1.00  0.00    -0.005 C 
ATOM     14  C   UNL A   1      32.555  25.909  24.568  1.00  0.00     0.017 C 
BRANCH  10  15
ATOM     15  C   UNL A   1      35.976  22.931  24.520  1.00  0.00    -0.035 C 
ATOM     16  C   UNL A   1      36.988  23.651  25.440  1.00  0.00     0.011 C 
ATOM     17  C   UNL A   1      36.652  22.813  23.135  1.00  0.00     0.011 C 
ATOM     18  C   UNL A   1      35.808  21.494  25.068  1.00  0.00     0.011 C 
ENDBRANCH  10  15
BRANCH  13  19
ATOM     19  C   UNL A   1      31.560  23.977  26.043  1.00  0.00    -0.035 C 
ATOM     20  C   UNL A   1      30.304  24.798  26.434  1.00  0.00     0.011 C 
ATOM     21  C   UNL A   1      31.155  23.110  24.835  1.00  0.00     0.011 C 
ATOM     22  C   UNL A   1      31.868  23.032  27.222  1.00  0.00     0.011 C 
ENDBRANCH  13  19
ENDBRANCH   6   9
ENDBRANCH   4   5
ENDBRANCH   3   4
ENDBRANCH   2   3
ENDBRANCH   1   2
BRANCH   1  23
ATOM     23  C   UNL A   1      32.653  29.621  24.991  1.00  0.00     0.021 C 
BRANCH  23  24
ATOM     24  C   UNL A   1      33.204  29.956  26.372  1.00  0.00     0.116 C 
BRANCH  24  25
ATOM     25  N   UNL A   1      33.075  31.371  26.680  1.00  0.00    -0.352 N 
ATOM     26  C   UNL A   1      33.780  32.132  27.572  1.00  0.00     0.251 C 
ATOM     27  H   UNL A   1      32.379  31.850  26.174  1.00  0.00     0.163 HD
ATOM     28  O   UNL A   1      33.392  33.269  27.843  1.00  0.00    -0.269 OA
BRANCH  26  29
ATOM     29  C   UNL A   1      34.997  31.592  28.214  1.00  0.00     0.039 A 
ATOM     30  C   UNL A   1      36.159  32.367  28.208  1.00  0.00     0.014 A 
ATOM     31  C   UNL A   1      35.007  30.316  28.785  1.00  0.00     0.014 A 
ATOM     32  C   UNL A   1      37.324  31.872  28.797  1.00  0.00     0.010 A 
ATOM     33  C   UNL A   1      36.148  29.855  29.438  1.00  0.00     0.010 A 
ATOM     34  C   UNL A   1      37.326  30.616  29.427  1.00  0.00    -0.014 A 
BRANCH  34  35
ATOM     35  C   UNL A   1      38.560  30.090  30.060  1.00  0.00     0.031 A 
ATOM     36  C   UNL A   1      38.988  30.575  31.419  1.00  0.00     0.074 A 
ATOM     37  C   UNL A   1      39.330  29.216  29.386  1.00  0.00     0.049 A 
ATOM     38  N   UNL A   1      40.014  30.205  32.140  1.00  0.00    -0.248 NA
ATOM     39  C   UNL A   1      38.177  31.638  32.037  1.00  0.00     0.031 C 
ATOM     40  C   UNL A   1      39.083  28.752  28.019  1.00  0.00     0.029 A 
ATOM     41  N   UNL A   1      40.490  28.580  29.750  1.00  0.00    -0.354 N 
ATOM     42  C   UNL A   1      39.995  31.009  33.273  1.00  0.00     0.074 A 
ATOM     43  C   UNL A   1      38.877  31.915  33.126  1.00  0.00     0.031 C 
ATOM     44  C   UNL A   1      40.056  27.899  27.663  1.00  0.00     0.029 A 
ATOM     45  C   UNL A   1      41.001  27.764  28.768  1.00  0.00     0.049 A 
ATOM     46  H   UNL A   1      40.914  28.695  30.631  1.00  0.00     0.167 HD
ATOM     47  C   UNL A   1      40.811  30.977  34.353  1.00  0.00     0.034 A 
ATOM     48  C   UNL A   1      42.102  26.988  28.763  1.00  0.00     0.034 A 
ATOM     49  C   UNL A   1      41.891  30.040  34.517  1.00  0.00     0.049 A 
ATOM     50  C   UNL A   1      42.935  26.892  30.010  1.00  0.00     0.074 A 
ATOM     51  C   UNL A   1      42.706  29.847  35.618  1.00  0.00     0.029 A 
ATOM     52  N   UNL A   1      42.312  29.144  33.547  1.00  0.00    -0.354 N 
ATOM     53  N   UNL A   1      42.786  27.521  31.151  1.00  0.00    -0.248 NA
ATOM     54  C   UNL A   1      44.056  25.943  29.989  1.00  0.00     0.031 C 
ATOM     55  C   UNL A   1      43.633  28.846  35.305  1.00  0.00     0.029 A 
ATOM     56  C   UNL A   1      43.379  28.399  34.018  1.00  0.00     0.049 A 
ATOM     57  H   UNL A   1      41.910  29.050  32.653  1.00  0.00     0.167 HD
ATOM     58  C   UNL A   1      43.773  27.023  31.994  1.00  0.00     0.074 A 
ATOM     59  C   UNL A   1      44.497  26.020  31.238  1.00  0.00     0.031 C 
ATOM     60  C   UNL A   1      44.064  27.375  33.272  1.00  0.00     0.034 A 
BRANCH  47  61
ATOM     61  C   UNL A   1      40.528  31.952  35.467  1.00  0.00     0.023 A 
ATOM     62  C   UNL A   1      41.362  33.077  35.639  1.00  0.00     0.012 A 
ATOM     63  C   UNL A   1      39.425  31.777  36.325  1.00  0.00     0.148 A 
ATOM     64  C   UNL A   1      41.132  33.985  36.670  1.00  0.00     0.002 A 
ATOM     65  C   UNL A   1      39.173  32.713  37.323  1.00  0.00     0.091 A 
ATOM     66  F   UNL A   1      38.655  30.691  36.167  1.00  0.00    -0.205 F 
ATOM     67  C   UNL A   1      40.032  33.809  37.505  1.00  0.00     0.022 A 
BRANCH  65  68
ATOM     68  S   UNL A   1      37.736  32.611  38.396  1.00  0.00     0.127 S 
ATOM     69  O   UNL A   1      38.017  33.666  39.367  1.00  0.00    -0.237 OA
ATOM     70  O   UNL A   1      36.638  32.909  37.475  1.00  0.00    -0.237 OA
ATOM     71  O   UNL A   1      37.729  31.254  38.922  1.00  0.00    -0.744 OA
ENDBRANCH  65  68
ENDBRANCH  47  61
BRANCH  48  72
ATOM     72  C   UNL A   1      42.414  26.171  27.557  1.00  0.00     0.023 A 
ATOM     73  C   UNL A   1      43.181  26.731  26.517  1.00  0.00     0.012 A 
ATOM     74  C   UNL A   1      42.010  24.825  27.465  1.00  0.00     0.148 A 
ATOM     75  C   UNL A   1      43.519  25.974  25.396  1.00  0.00     0.002 A 
ATOM     76  C   UNL A   1      42.398  24.060  26.373  1.00  0.00     0.091 A 
ATOM     77  F   UNL A   1      41.275  24.314  28.464  1.00  0.00    -0.205 F 
ATOM     78  C   UNL A   1      43.139  24.636  25.329  1.00  0.00     0.022 A 
BRANCH  76  79
ATOM     79  S   UNL A   1      42.074  22.296  26.267  1.00  0.00     0.127 S 
ATOM     80  O   UNL A   1      42.627  21.814  27.531  1.00  0.00    -0.237 OA
ATOM     81  O   UNL A   1      40.613  22.264  26.183  1.00  0.00    -0.237 OA
ATOM     82  O   UNL A   1      42.754  21.841  25.065  1.00  0.00    -0.744 OA
ENDBRANCH  76  79
ENDBRANCH  48  72
BRANCH  60  83
ATOM     83  C   UNL A   1      45.204  26.654  33.947  1.00  0.00     0.023 A 
ATOM     84  C   UNL A   1      46.519  27.141  33.808  1.00  0.00     0.012 A 
ATOM     85  C   UNL A   1      44.967  25.528  34.758  1.00  0.00     0.148 A 
ATOM     86  C   UNL A   1      47.585  26.493  34.432  1.00  0.00     0.002 A 
ATOM     87  C   UNL A   1      46.027  24.917  35.417  1.00  0.00     0.091 A 
ATOM     88  F   UNL A   1      43.713  25.063  34.862  1.00  0.00    -0.205 F 
ATOM     89  C   UNL A   1      47.338  25.388  35.244  1.00  0.00     0.022 A 
BRANCH  87  90
ATOM     90  S   UNL A   1      45.778  23.550  36.556  1.00  0.00     0.127 S 
ATOM     91  O   UNL A   1      44.941  24.166  37.585  1.00  0.00    -0.237 OA
ATOM     92  O   UNL A   1      45.088  22.566  35.721  1.00  0.00    -0.237 OA
ATOM     93  O   UNL A   1      47.111  23.146  36.982  1.00  0.00    -0.744 OA
ENDBRANCH  87  90
ENDBRANCH  60  83
ENDBRANCH  34  35
ENDBRANCH  26  29
ENDBRANCH  24  25
ENDBRANCH  23  24
ENDBRANCH   1  23
TORSDOF 18
ENDMDL
MODEL 3
REMARK VINA RESULT:     -11.1      4.573      9.667
REMARK SMILES CC(C)(C)[C@@H]1CC(C(=O)NCCCCCCNC(=O)c2ccc(-c3c4nc(c(-c5cccc(S(=O)(=O)[O-])c5F)c5ccc([nH]5)c(-c5cccc(S(=O)(=O)[O-])c5F)c5nc(c(-c6cccc(S(=O)(=O)[O-])c6F)c6ccc3[nH]6)C=C5)C=C4)cc2)C[C@@H](C(C)(C)C)C1
REMARK SMILES IDX 14 1 13 2 12 3 11 4 10 5 8 6 9 7 7 9 5 10 6 11 89 12 84 13
REMARK SMILES IDX 83 14 2 15 1 16 3 17 4 18 85 19 86 20 87 21 88 22 15 23
REMARK SMILES IDX 16 24 17 25 18 26 19 28 20 29 21 30 82 31 22 32 81 33 23 34
REMARK SMILES IDX 24 35 25 36 75 37 26 38 80 39 74 40 76 41 27 42 79 43 73 44
REMARK SMILES IDX 72 45 28 47 60 48 40 49 59 50 41 51 44 52 58 53 77 54 42 55
REMARK SMILES IDX 43 56 57 58 78 59 45 60 29 61 30 62 38 63 31 64 33 65 39 66
REMARK SMILES IDX 32 67 34 68 35 69 36 70 37 71 61 72 62 73 70 74 63 75 65 76
REMARK SMILES IDX 71 77 64 78 66 79 67 80 68 81 69 82 46 83 47 84 55 85 48 86
REMARK SMILES IDX 50 87 56 88 49 89 51 90 52 91 53 92 54 93
REMARK H PARENT 10 8 17 27 76 46 44 57
REMARK Flexibility Score: inf
ROOT
ATOM      1  C   UNL A   1      34.314  23.538  25.125  1.00  0.00     0.002 C 
ENDROOT
BRANCH   1   2
ATOM      2  C   UNL A   1      33.503  23.548  23.827  1.00  0.00     0.002 C 
BRANCH   2   3
ATOM      3  C   UNL A   1      32.214  22.720  23.867  1.00  0.00     0.021 C 
BRANCH   3   4
ATOM      4  C   UNL A   1      30.947  23.535  23.614  1.00  0.00     0.116 C 
BRANCH   4   5
ATOM      5  N   UNL A   1      30.272  23.838  24.863  1.00  0.00    -0.356 N 
ATOM      6  C   UNL A   1      30.325  24.935  25.665  1.00  0.00     0.223 C 
ATOM      7  O   UNL A   1      29.713  24.894  26.736  1.00  0.00    -0.275 OA
ATOM      8  H   UNL A   1      29.672  23.126  25.185  1.00  0.00     0.163 HD
BRANCH   6   9
ATOM      9  C   UNL A   1      31.061  26.205  25.240  1.00  0.00     0.079 C 
ATOM     10  C   UNL A   1      30.699  28.523  24.078  1.00  0.00    -0.005 C 
ATOM     11  C   UNL A   1      30.263  27.049  24.235  1.00  0.00     0.017 C 
ATOM     12  C   UNL A   1      31.037  29.128  25.448  1.00  0.00     0.008 C 
ATOM     13  C   UNL A   1      32.100  28.348  26.254  1.00  0.00    -0.005 C 
ATOM     14  C   UNL A   1      31.584  26.924  26.493  1.00  0.00     0.017 C 
BRANCH  10  15
ATOM     15  C   UNL A   1      29.697  29.402  23.196  1.00  0.00    -0.035 C 
ATOM     16  C   UNL A   1      28.297  28.769  23.026  1.00  0.00     0.011 C 
ATOM     17  C   UNL A   1      30.211  29.713  21.771  1.00  0.00     0.011 C 
ATOM     18  C   UNL A   1      29.497  30.758  23.912  1.00  0.00     0.011 C 
ENDBRANCH  10  15
BRANCH  13  19
ATOM     19  C   UNL A   1      33.607  28.442  25.784  1.00  0.00    -0.035 C 
ATOM     20  C   UNL A   1      34.380  29.307  26.813  1.00  0.00     0.011 C 
ATOM     21  C   UNL A   1      34.352  27.096  25.699  1.00  0.00     0.011 C 
ATOM     22  C   UNL A   1      33.736  29.142  24.417  1.00  0.00     0.011 C 
ENDBRANCH  13  19
ENDBRANCH   6   9
ENDBRANCH   4   5
ENDBRANCH   3   4
ENDBRANCH   2   3
ENDBRANCH   1   2
BRANCH   1  23
ATOM     23  C   UNL A   1      35.650  22.795  25.046  1.00  0.00     0.021 C 
BRANCH  23  24
ATOM     24  C   UNL A   1      36.755  23.375  25.921  1.00  0.00     0.116 C 
BRANCH  24  25
ATOM     25  N   UNL A   1      37.843  22.432  26.118  1.00  0.00    -0.352 N 
ATOM     26  C   UNL A   1      39.145  22.671  26.465  1.00  0.00     0.251 C 
ATOM     27  H   UNL A   1      37.610  21.485  25.981  1.00  0.00     0.163 HD
ATOM     28  O   UNL A   1      39.973  21.764  26.385  1.00  0.00    -0.269 OA
BRANCH  26  29
ATOM     29  C   UNL A   1      39.559  24.013  26.926  1.00  0.00     0.039 A 
ATOM     30  C   UNL A   1      40.037  24.928  25.986  1.00  0.00     0.014 A 
ATOM     31  C   UNL A   1      39.516  24.357  28.281  1.00  0.00     0.014 A 
ATOM     32  C   UNL A   1      40.445  26.197  26.401  1.00  0.00     0.010 A 
ATOM     33  C   UNL A   1      39.852  25.647  28.682  1.00  0.00     0.010 A 
ATOM     34  C   UNL A   1      40.346  26.572  27.751  1.00  0.00    -0.014 A 
BRANCH  34  35
ATOM     35  C   UNL A   1      40.773  27.922  28.194  1.00  0.00     0.031 A 
ATOM     36  C   UNL A   1      42.228  28.306  28.178  1.00  0.00     0.074 A 
ATOM     37  C   UNL A   1      39.856  28.785  28.668  1.00  0.00     0.049 A 
ATOM     38  N   UNL A   1      42.782  29.448  28.496  1.00  0.00    -0.248 NA
ATOM     39  C   UNL A   1      43.192  27.264  27.785  1.00  0.00     0.031 C 
ATOM     40  C   UNL A   1      38.431  28.494  28.837  1.00  0.00     0.029 A 
ATOM     41  N   UNL A   1      39.989  30.075  29.115  1.00  0.00    -0.354 N 
ATOM     42  C   UNL A   1      44.153  29.254  28.378  1.00  0.00     0.074 A 
ATOM     43  C   UNL A   1      44.350  27.872  27.997  1.00  0.00     0.031 C 
ATOM     44  C   UNL A   1      37.819  29.577  29.344  1.00  0.00     0.029 A 
ATOM     45  C   UNL A   1      38.808  30.632  29.546  1.00  0.00     0.049 A 
ATOM     46  H   UNL A   1      40.847  30.556  29.126  1.00  0.00     0.167 HD
ATOM     47  C   UNL A   1      45.156  30.148  28.538  1.00  0.00     0.034 A 
ATOM     48  C   UNL A   1      38.549  31.859  30.039  1.00  0.00     0.034 A 
ATOM     49  C   UNL A   1      44.952  31.534  28.868  1.00  0.00     0.049 A 
ATOM     50  C   UNL A   1      39.661  32.867  30.112  1.00  0.00     0.074 A 
ATOM     51  C   UNL A   1      45.887  32.550  28.944  1.00  0.00     0.029 A 
ATOM     52  N   UNL A   1      43.725  32.097  29.185  1.00  0.00    -0.354 N 
ATOM     53  N   UNL A   1      40.928  32.720  29.808  1.00  0.00    -0.248 NA
ATOM     54  C   UNL A   1      39.301  34.223  30.545  1.00  0.00     0.031 C 
ATOM     55  C   UNL A   1      45.228  33.724  29.327  1.00  0.00     0.029 A 
ATOM     56  C   UNL A   1      43.878  33.444  29.465  1.00  0.00     0.049 A 
ATOM     57  H   UNL A   1      42.870  31.610  29.208  1.00  0.00     0.167 HD
ATOM     58  C   UNL A   1      41.512  33.970  29.983  1.00  0.00     0.074 A 
ATOM     59  C   UNL A   1      40.451  34.868  30.395  1.00  0.00     0.031 C 
ATOM     60  C   UNL A   1      42.809  34.337  29.833  1.00  0.00     0.034 A 
BRANCH  47  61
ATOM     61  C   UNL A   1      46.564  29.664  28.304  1.00  0.00     0.023 A 
ATOM     62  C   UNL A   1      47.085  29.641  26.994  1.00  0.00     0.012 A 
ATOM     63  C   UNL A   1      47.383  29.261  29.377  1.00  0.00     0.148 A 
ATOM     64  C   UNL A   1      48.378  29.182  26.748  1.00  0.00     0.002 A 
ATOM     65  C   UNL A   1      48.688  28.849  29.130  1.00  0.00     0.091 A 
ATOM     66  F   UNL A   1      46.867  29.264  30.615  1.00  0.00    -0.205 F 
ATOM     67  C   UNL A   1      49.183  28.797  27.817  1.00  0.00     0.022 A 
BRANCH  65  68
ATOM     68  S   UNL A   1      49.824  28.409  30.451  1.00  0.00     0.127 S 
ATOM     69  O   UNL A   1      51.040  28.097  29.704  1.00  0.00    -0.237 OA
ATOM     70  O   UNL A   1      49.889  29.647  31.231  1.00  0.00    -0.237 OA
ATOM     71  O   UNL A   1      49.207  27.291  31.149  1.00  0.00    -0.744 OA
ENDBRANCH  65  68
ENDBRANCH  47  61
BRANCH  48  72
ATOM     72  C   UNL A   1      37.152  32.218  30.408  1.00  0.00     0.023 A 
ATOM     73  C   UNL A   1      36.713  32.030  31.734  1.00  0.00     0.012 A 
ATOM     74  C   UNL A   1      36.277  32.802  29.471  1.00  0.00     0.148 A 
ATOM     75  C   UNL A   1      35.422  32.395  32.114  1.00  0.00     0.002 A 
ATOM     76  C   UNL A   1      35.012  33.215  29.869  1.00  0.00     0.091 A 
ATOM     77  F   UNL A   1      36.713  32.965  28.213  1.00  0.00    -0.205 F 
ATOM     78  C   UNL A   1      34.576  32.998  31.186  1.00  0.00     0.022 A 
BRANCH  76  79
ATOM     79  S   UNL A   1      33.909  34.124  28.783  1.00  0.00     0.127 S 
ATOM     80  O   UNL A   1      34.792  35.168  28.265  1.00  0.00    -0.237 OA
ATOM     81  O   UNL A   1      33.532  33.098  27.810  1.00  0.00    -0.237 OA
ATOM     82  O   UNL A   1      32.815  34.583  29.624  1.00  0.00    -0.744 OA
ENDBRANCH  76  79
ENDBRANCH  48  72
BRANCH  60  83
ATOM     83  C   UNL A   1      43.155  35.781  30.094  1.00  0.00     0.023 A 
ATOM     84  C   UNL A   1      43.686  36.158  31.344  1.00  0.00     0.012 A 
ATOM     85  C   UNL A   1      43.004  36.754  29.087  1.00  0.00     0.148 A 
ATOM     86  C   UNL A   1      44.021  37.488  31.601  1.00  0.00     0.002 A 
ATOM     87  C   UNL A   1      43.386  38.067  29.333  1.00  0.00     0.091 A 
ATOM     88  F   UNL A   1      42.477  36.384  27.911  1.00  0.00    -0.205 F 
ATOM     89  C   UNL A   1      43.880  38.439  30.593  1.00  0.00     0.022 A 
BRANCH  87  90
ATOM     90  S   UNL A   1      43.327  39.329  28.056  1.00  0.00     0.127 S 
ATOM     91  O   UNL A   1      41.888  39.461  27.831  1.00  0.00    -0.237 OA
ATOM     92  O   UNL A   1      43.947  40.478  28.719  1.00  0.00    -0.237 OA
ATOM     93  O   UNL A   1      44.096  38.795  26.941  1.00  0.00    -0.744 OA
ENDBRANCH  87  90
ENDBRANCH  60  83
ENDBRANCH  34  35
ENDBRANCH  26  29
ENDBRANCH  24  25
ENDBRANCH  23  24
ENDBRANCH   1  23
TORSDOF 18
ENDMDL
