MODEL 1
REMARK VINA RESULT:     -11.8      0.000      0.000
REMARK SMILES O=C(Cc1cncnc1N1CCC2(CC1)OCCC[C@@H]2O)NCCCCCCNC(=O)c1ccc(-c2c3nc(c(-c4cccc(S(=O)(=O)[O-])c4F)c4ccc([nH]4)c(-c4cccc(S(=O)(=O)[O-])c4F)c4nc(c(-c5cccc(S(=O)(=O)[O-])c5F)c5ccc2[nH]5)C=C4)C=C3)cc1
REMARK SMILES IDX 25 1 24 2 23 3 22 4 1 5 2 6 3 8 4 9 5 10 9 11 6 12 8 13 7 14
REMARK SMILES IDX 10 15 11 16 15 17 12 18 14 19 13 20 16 21 20 22 17 23 19 24
REMARK SMILES IDX 18 25 21 26 26 28 27 29 28 30 29 31 30 32 31 34 32 35 33 36
REMARK SMILES IDX 94 37 34 38 93 39 35 40 36 41 37 42 87 43 38 44 92 45 86 46
REMARK SMILES IDX 88 47 39 48 91 49 85 50 84 51 40 53 72 54 52 55 71 56 53 57
REMARK SMILES IDX 56 58 70 59 89 60 54 61 55 62 69 64 90 65 57 66 41 67 42 68
REMARK SMILES IDX 50 69 43 70 45 71 51 72 44 73 46 74 47 75 48 76 49 77 73 78
REMARK SMILES IDX 74 79 82 80 75 81 77 82 83 83 76 84 78 85 79 86 80 87 81 88
REMARK SMILES IDX 58 89 59 90 67 91 60 92 62 93 68 94 61 95 63 96 64 97 65 98
REMARK SMILES IDX 66 99
REMARK H PARENT 22 7 21 27 29 33 88 52 56 63
REMARK Flexibility Score: inf
ROOT
ATOM      1  C   UNL A   1      32.457  29.670  27.219  1.00  0.00     0.002 C 
ENDROOT
BRANCH   1   2
ATOM      2  C   UNL A   1      33.835  29.282  26.675  1.00  0.00     0.021 C 
BRANCH   2   3
ATOM      3  C   UNL A   1      34.022  27.835  26.207  1.00  0.00     0.116 C 
BRANCH   3   4
ATOM      4  N   UNL A   1      33.097  27.398  25.171  1.00  0.00    -0.356 N 
ATOM      5  O   UNL A   1      34.273  28.308  23.431  1.00  0.00    -0.275 OA
ATOM      6  C   UNL A   1      33.344  27.609  23.832  1.00  0.00     0.224 C 
ATOM      7  H   UNL A   1      32.269  26.937  25.435  1.00  0.00     0.163 HD
BRANCH   6   8
ATOM      8  C   UNL A   1      32.365  26.998  22.839  1.00  0.00     0.141 C 
BRANCH   8   9
ATOM      9  C   UNL A   1      30.904  27.172  23.149  1.00  0.00     0.022 A 
ATOM     10  C   UNL A   1      30.226  28.274  22.653  1.00  0.00     0.121 A 
ATOM     11  C   UNL A   1      30.131  26.252  23.856  1.00  0.00     0.135 A 
ATOM     12  N   UNL A   1      28.912  28.489  22.824  1.00  0.00    -0.244 NA
ATOM     13  N   UNL A   1      28.807  26.421  24.014  1.00  0.00    -0.219 NA
ATOM     14  C   UNL A   1      28.264  27.534  23.499  1.00  0.00     0.224 A 
BRANCH  11  15
ATOM     15  N   UNL A   1      30.689  25.089  24.337  1.00  0.00    -0.356 N 
ATOM     16  C   UNL A   1      30.683  23.904  23.498  1.00  0.00     0.121 C 
ATOM     17  C   UNL A   1      30.669  24.788  25.760  1.00  0.00     0.121 C 
ATOM     18  C   UNL A   1      32.070  23.303  23.675  1.00  0.00     0.060 C 
ATOM     19  C   UNL A   1      31.994  24.115  26.116  1.00  0.00     0.060 C 
ATOM     20  C   UNL A   1      32.425  22.975  25.148  1.00  0.00     0.097 C 
ATOM     21  O   UNL A   1      31.755  21.772  25.588  1.00  0.00    -0.372 OA
ATOM     22  C   UNL A   1      33.965  22.774  25.317  1.00  0.00     0.146 C 
ATOM     23  C   UNL A   1      32.156  20.570  24.920  1.00  0.00     0.161 C 
ATOM     24  C   UNL A   1      34.463  21.531  24.587  1.00  0.00     0.037 C 
ATOM     25  C   UNL A   1      33.656  20.311  25.009  1.00  0.00     0.031 C 
BRANCH  22  26
ATOM     26  O   UNL A   1      34.299  22.632  26.706  1.00  0.00    -0.390 OA
ATOM     27  H   UNL A   1      34.424  23.509  27.100  1.00  0.00     0.211 HD
ENDBRANCH  22  26
ENDBRANCH  11  15
ENDBRANCH   8   9
ENDBRANCH   6   8
ENDBRANCH   3   4
ENDBRANCH   2   3
ENDBRANCH   1   2
BRANCH   1  28
ATOM     28  C   UNL A   1      31.466  30.296  26.233  1.00  0.00     0.002 C 
BRANCH  28  29
ATOM     29  C   UNL A   1      31.146  31.765  26.510  1.00  0.00     0.021 C 
BRANCH  29  30
ATOM     30  C   UNL A   1      32.366  32.685  26.516  1.00  0.00     0.116 C 
BRANCH  30  31
ATOM     31  N   UNL A   1      32.166  33.914  27.276  1.00  0.00    -0.352 N 
ATOM     32  C   UNL A   1      32.938  34.405  28.307  1.00  0.00     0.251 C 
ATOM     33  H   UNL A   1      31.385  34.458  27.022  1.00  0.00     0.163 HD
ATOM     34  O   UNL A   1      32.610  35.414  28.912  1.00  0.00    -0.269 OA
BRANCH  32  35
ATOM     35  C   UNL A   1      34.152  33.653  28.693  1.00  0.00     0.039 A 
ATOM     36  C   UNL A   1      35.397  34.280  28.599  1.00  0.00     0.014 A 
ATOM     37  C   UNL A   1      34.039  32.372  29.238  1.00  0.00     0.014 A 
ATOM     38  C   UNL A   1      36.523  33.651  29.134  1.00  0.00     0.010 A 
ATOM     39  C   UNL A   1      35.149  31.779  29.828  1.00  0.00     0.010 A 
ATOM     40  C   UNL A   1      36.400  32.417  29.793  1.00  0.00    -0.014 A 
BRANCH  40  41
ATOM     41  C   UNL A   1      37.552  31.790  30.490  1.00  0.00     0.031 A 
ATOM     42  C   UNL A   1      38.354  30.716  29.811  1.00  0.00     0.074 A 
ATOM     43  C   UNL A   1      37.802  32.107  31.776  1.00  0.00     0.049 A 
ATOM     44  N   UNL A   1      39.340  29.999  30.284  1.00  0.00    -0.248 NA
ATOM     45  C   UNL A   1      37.978  30.378  28.428  1.00  0.00     0.031 C 
ATOM     46  C   UNL A   1      37.036  33.064  32.578  1.00  0.00     0.029 A 
ATOM     47  N   UNL A   1      38.751  31.631  32.649  1.00  0.00    -0.354 N 
ATOM     48  C   UNL A   1      39.677  29.104  29.277  1.00  0.00     0.074 A 
ATOM     49  C   UNL A   1      38.768  29.344  28.178  1.00  0.00     0.031 C 
ATOM     50  C   UNL A   1      37.542  33.103  33.821  1.00  0.00     0.029 A 
ATOM     51  C   UNL A   1      38.652  32.161  33.915  1.00  0.00     0.049 A 
ATOM     52  H   UNL A   1      39.437  30.974  32.391  1.00  0.00     0.167 HD
ATOM     53  C   UNL A   1      40.673  28.187  29.256  1.00  0.00     0.034 A 
ATOM     54  C   UNL A   1      39.371  31.912  35.027  1.00  0.00     0.034 A 
ATOM     55  C   UNL A   1      41.609  27.989  30.328  1.00  0.00     0.049 A 
ATOM     56  C   UNL A   1      40.513  30.932  34.957  1.00  0.00     0.074 A 
ATOM     57  C   UNL A   1      42.716  27.161  30.361  1.00  0.00     0.029 A 
ATOM     58  N   UNL A   1      41.546  28.623  31.559  1.00  0.00    -0.354 N 
ATOM     59  N   UNL A   1      40.929  30.226  33.934  1.00  0.00    -0.248 NA
ATOM     60  C   UNL A   1      41.306  30.745  36.180  1.00  0.00     0.031 C 
ATOM     61  C   UNL A   1      43.319  27.286  31.618  1.00  0.00     0.029 A 
ATOM     62  C   UNL A   1      42.592  28.202  32.363  1.00  0.00     0.049 A 
ATOM     63  H   UNL A   1      40.859  29.277  31.823  1.00  0.00     0.167 HD
ATOM     64  C   UNL A   1      42.050  29.534  34.380  1.00  0.00     0.074 A 
ATOM     65  C   UNL A   1      42.261  29.925  35.759  1.00  0.00     0.031 C 
ATOM     66  C   UNL A   1      42.824  28.643  33.714  1.00  0.00     0.034 A 
BRANCH  53  67
ATOM     67  C   UNL A   1      40.844  27.375  28.000  1.00  0.00     0.023 A 
ATOM     68  C   UNL A   1      41.471  27.960  26.880  1.00  0.00     0.012 A 
ATOM     69  C   UNL A   1      40.438  26.028  27.939  1.00  0.00     0.148 A 
ATOM     70  C   UNL A   1      41.661  27.230  25.709  1.00  0.00     0.002 A 
ATOM     71  C   UNL A   1      40.668  25.293  26.781  1.00  0.00     0.091 A 
ATOM     72  F   UNL A   1      39.822  25.495  29.004  1.00  0.00    -0.205 F 
ATOM     73  C   UNL A   1      41.269  25.895  25.663  1.00  0.00     0.022 A 
BRANCH  71  74
ATOM     74  S   UNL A   1      40.266  23.547  26.650  1.00  0.00     0.127 S 
ATOM     75  O   UNL A   1      41.309  23.072  25.743  1.00  0.00    -0.237 OA
ATOM     76  O   UNL A   1      40.410  23.091  28.034  1.00  0.00    -0.237 OA
ATOM     77  O   UNL A   1      38.908  23.488  26.132  1.00  0.00    -0.744 OA
ENDBRANCH  71  74
ENDBRANCH  53  67
BRANCH  54  78
ATOM     78  C   UNL A   1      39.084  32.663  36.282  1.00  0.00     0.023 A 
ATOM     79  C   UNL A   1      39.617  33.957  36.446  1.00  0.00     0.012 A 
ATOM     80  C   UNL A   1      38.260  32.127  37.290  1.00  0.00     0.148 A 
ATOM     81  C   UNL A   1      39.361  34.691  37.604  1.00  0.00     0.002 A 
ATOM     82  C   UNL A   1      37.966  32.885  38.419  1.00  0.00     0.091 A 
ATOM     83  F   UNL A   1      37.774  30.889  37.123  1.00  0.00    -0.205 F 
ATOM     84  C   UNL A   1      38.527  34.160  38.586  1.00  0.00     0.022 A 
BRANCH  82  85
ATOM     85  S   UNL A   1      36.796  32.333  39.666  1.00  0.00     0.127 S 
ATOM     86  O   UNL A   1      36.914  33.383  40.673  1.00  0.00    -0.237 OA
ATOM     87  O   UNL A   1      35.536  32.331  38.921  1.00  0.00    -0.237 OA
ATOM     88  O   UNL A   1      37.252  31.009  40.067  1.00  0.00    -0.744 OA
ENDBRANCH  82  85
ENDBRANCH  54  78
BRANCH  66  89
ATOM     89  C   UNL A   1      43.991  28.041  34.450  1.00  0.00     0.023 A 
ATOM     90  C   UNL A   1      45.221  28.725  34.484  1.00  0.00     0.012 A 
ATOM     91  C   UNL A   1      43.843  26.844  35.180  1.00  0.00     0.148 A 
ATOM     92  C   UNL A   1      46.295  28.217  35.212  1.00  0.00     0.002 A 
ATOM     93  C   UNL A   1      44.904  26.366  35.940  1.00  0.00     0.091 A 
ATOM     94  F   UNL A   1      42.670  26.197  35.118  1.00  0.00    -0.205 F 
ATOM     95  C   UNL A   1      46.133  27.045  35.949  1.00  0.00     0.022 A 
BRANCH  93  96
ATOM     96  S   UNL A   1      44.755  24.917  36.992  1.00  0.00     0.127 S 
ATOM     97  O   UNL A   1      43.739  25.347  37.950  1.00  0.00    -0.237 OA
ATOM     98  O   UNL A   1      44.311  23.891  36.049  1.00  0.00    -0.237 OA
ATOM     99  O   UNL A   1      46.083  24.690  37.546  1.00  0.00    -0.744 OA
ENDBRANCH  93  96
ENDBRANCH  66  89
ENDBRANCH  40  41
ENDBRANCH  32  35
ENDBRANCH  30  31
ENDBRANCH  29  30
ENDBRANCH  28  29
ENDBRANCH   1  28
TORSDOF 19
ENDMDL
MODEL 2
REMARK VINA RESULT:     -11.8      5.715     11.112
REMARK SMILES O=C(Cc1cncnc1N1CCC2(CC1)OCCC[C@@H]2O)NCCCCCCNC(=O)c1ccc(-c2c3nc(c(-c4cccc(S(=O)(=O)[O-])c4F)c4ccc([nH]4)c(-c4cccc(S(=O)(=O)[O-])c4F)c4nc(c(-c5cccc(S(=O)(=O)[O-])c5F)c5ccc2[nH]5)C=C4)C=C3)cc1
REMARK SMILES IDX 25 1 24 2 23 3 22 4 1 5 2 6 3 8 4 9 5 10 9 11 6 12 8 13 7 14
REMARK SMILES IDX 10 15 11 16 15 17 12 18 14 19 13 20 16 21 20 22 17 23 19 24
REMARK SMILES IDX 18 25 21 26 26 28 27 29 28 30 29 31 30 32 31 34 32 35 33 36
REMARK SMILES IDX 94 37 34 38 93 39 35 40 36 41 37 42 87 43 38 44 92 45 86 46
REMARK SMILES IDX 88 47 39 48 91 49 85 50 84 51 40 53 72 54 52 55 71 56 53 57
REMARK SMILES IDX 56 58 70 59 89 60 54 61 55 62 69 64 90 65 57 66 41 67 42 68
REMARK SMILES IDX 50 69 43 70 45 71 51 72 44 73 46 74 47 75 48 76 49 77 73 78
REMARK SMILES IDX 74 79 82 80 75 81 77 82 83 83 76 84 78 85 79 86 80 87 81 88
REMARK SMILES IDX 58 89 59 90 67 91 60 92 62 93 68 94 61 95 63 96 64 97 65 98
REMARK SMILES IDX 66 99
REMARK H PARENT 22 7 21 27 29 33 88 52 56 63
REMARK Flexibility Score: inf
ROOT
ATOM      1  C   UNL A   1      36.990  22.067  24.323  1.00  0.00     0.002 C 
ENDROOT
BRANCH   1   2
ATOM      2  C   UNL A   1      37.383  23.161  25.320  1.00  0.00     0.021 C 
BRANCH   2   3
ATOM      3  C   UNL A   1      36.247  23.925  26.008  1.00  0.00     0.116 C 
BRANCH   3   4
ATOM      4  N   UNL A   1      34.905  23.513  25.621  1.00  0.00    -0.356 N 
ATOM      5  O   UNL A   1      34.403  22.504  27.613  1.00  0.00    -0.275 OA
ATOM      6  C   UNL A   1      34.047  22.891  26.500  1.00  0.00     0.224 C 
ATOM      7  H   UNL A   1      34.601  23.685  24.701  1.00  0.00     0.163 HD
BRANCH   6   8
ATOM      8  C   UNL A   1      32.629  22.620  26.017  1.00  0.00     0.141 C 
BRANCH   8   9
ATOM      9  C   UNL A   1      32.495  21.751  24.796  1.00  0.00     0.022 A 
ATOM     10  C   UNL A   1      32.544  20.373  24.929  1.00  0.00     0.121 A 
ATOM     11  C   UNL A   1      32.247  22.228  23.510  1.00  0.00     0.135 A 
ATOM     12  N   UNL A   1      32.376  19.512  23.913  1.00  0.00    -0.244 NA
ATOM     13  N   UNL A   1      32.039  21.391  22.478  1.00  0.00    -0.219 NA
ATOM     14  C   UNL A   1      32.123  20.076  22.728  1.00  0.00     0.224 A 
BRANCH  11  15
ATOM     15  N   UNL A   1      32.113  23.578  23.276  1.00  0.00    -0.356 N 
ATOM     16  C   UNL A   1      30.787  24.168  23.285  1.00  0.00     0.121 C 
ATOM     17  C   UNL A   1      33.050  24.278  22.410  1.00  0.00     0.121 C 
ATOM     18  C   UNL A   1      30.953  25.472  24.052  1.00  0.00     0.060 C 
ATOM     19  C   UNL A   1      33.299  25.661  23.009  1.00  0.00     0.060 C 
ATOM     20  C   UNL A   1      32.013  26.425  23.441  1.00  0.00     0.097 C 
ATOM     21  O   UNL A   1      31.500  27.085  22.262  1.00  0.00    -0.372 OA
ATOM     22  C   UNL A   1      32.440  27.516  24.474  1.00  0.00     0.146 C 
ATOM     23  C   UNL A   1      30.404  27.980  22.491  1.00  0.00     0.161 C 
ATOM     24  C   UNL A   1      31.299  28.476  24.796  1.00  0.00     0.037 C 
ATOM     25  C   UNL A   1      30.725  29.064  23.514  1.00  0.00     0.031 C 
BRANCH  22  26
ATOM     26  O   UNL A   1      33.533  28.290  23.957  1.00  0.00    -0.390 OA
ATOM     27  H   UNL A   1      34.120  27.716  23.439  1.00  0.00     0.211 HD
ENDBRANCH  22  26
ENDBRANCH  11  15
ENDBRANCH   8   9
ENDBRANCH   6   8
ENDBRANCH   3   4
ENDBRANCH   2   3
ENDBRANCH   1   2
BRANCH   1  28
ATOM     28  C   UNL A   1      36.663  20.685  24.896  1.00  0.00     0.002 C 
BRANCH  28  29
ATOM     29  C   UNL A   1      37.835  19.703  24.878  1.00  0.00     0.021 C 
BRANCH  29  30
ATOM     30  C   UNL A   1      38.805  19.861  26.049  1.00  0.00     0.116 C 
BRANCH  30  31
ATOM     31  N   UNL A   1      40.048  19.116  25.881  1.00  0.00    -0.352 N 
ATOM     32  C   UNL A   1      41.337  19.573  26.055  1.00  0.00     0.251 C 
ATOM     33  H   UNL A   1      39.955  18.173  25.609  1.00  0.00     0.163 HD
ATOM     34  O   UNL A   1      42.296  18.860  25.803  1.00  0.00    -0.269 OA
BRANCH  32  35
ATOM     35  C   UNL A   1      41.530  20.966  26.514  1.00  0.00     0.039 A 
ATOM     36  C   UNL A   1      42.195  21.196  27.721  1.00  0.00     0.014 A 
ATOM     37  C   UNL A   1      41.143  22.032  25.699  1.00  0.00     0.014 A 
ATOM     38  C   UNL A   1      42.548  22.502  28.070  1.00  0.00     0.010 A 
ATOM     39  C   UNL A   1      41.554  23.321  26.017  1.00  0.00     0.010 A 
ATOM     40  C   UNL A   1      42.271  23.569  27.199  1.00  0.00    -0.014 A 
BRANCH  40  41
ATOM     41  C   UNL A   1      42.754  24.944  27.478  1.00  0.00     0.031 A 
ATOM     42  C   UNL A   1      41.842  25.952  28.121  1.00  0.00     0.074 A 
ATOM     43  C   UNL A   1      43.975  25.320  27.048  1.00  0.00     0.049 A 
ATOM     44  N   UNL A   1      42.056  27.217  28.370  1.00  0.00    -0.248 NA
ATOM     45  C   UNL A   1      40.499  25.484  28.503  1.00  0.00     0.031 C 
ATOM     46  C   UNL A   1      44.919  24.463  26.326  1.00  0.00     0.029 A 
ATOM     47  N   UNL A   1      44.620  26.531  27.123  1.00  0.00    -0.354 N 
ATOM     48  C   UNL A   1      40.869  27.706  28.902  1.00  0.00     0.074 A 
ATOM     49  C   UNL A   1      39.926  26.609  28.908  1.00  0.00     0.031 C 
ATOM     50  C   UNL A   1      46.018  25.174  26.024  1.00  0.00     0.029 A 
ATOM     51  C   UNL A   1      45.851  26.541  26.508  1.00  0.00     0.049 A 
ATOM     52  H   UNL A   1      44.237  27.317  27.575  1.00  0.00     0.167 HD
ATOM     53  C   UNL A   1      40.598  28.947  29.371  1.00  0.00     0.034 A 
ATOM     54  C   UNL A   1      46.742  27.539  26.348  1.00  0.00     0.034 A 
ATOM     55  C   UNL A   1      41.554  30.019  29.415  1.00  0.00     0.049 A 
ATOM     56  C   UNL A   1      46.440  28.891  26.936  1.00  0.00     0.074 A 
ATOM     57  C   UNL A   1      41.409  31.278  29.969  1.00  0.00     0.029 A 
ATOM     58  N   UNL A   1      42.832  29.960  28.881  1.00  0.00    -0.354 N 
ATOM     59  N   UNL A   1      45.378  29.283  27.598  1.00  0.00    -0.248 NA
ATOM     60  C   UNL A   1      47.472  29.928  26.789  1.00  0.00     0.031 C 
ATOM     61  C   UNL A   1      42.598  31.986  29.760  1.00  0.00     0.029 A 
ATOM     62  C   UNL A   1      43.486  31.163  29.087  1.00  0.00     0.049 A 
ATOM     63  H   UNL A   1      43.218  29.178  28.423  1.00  0.00     0.167 HD
ATOM     64  C   UNL A   1      45.627  30.599  27.973  1.00  0.00     0.074 A 
ATOM     65  C   UNL A   1      46.949  30.930  27.485  1.00  0.00     0.031 C 
ATOM     66  C   UNL A   1      44.825  31.459  28.647  1.00  0.00     0.034 A 
BRANCH  53  67
ATOM     67  C   UNL A   1      39.227  29.189  29.944  1.00  0.00     0.023 A 
ATOM     68  C   UNL A   1      38.915  28.686  31.224  1.00  0.00     0.012 A 
ATOM     69  C   UNL A   1      38.269  29.951  29.249  1.00  0.00     0.148 A 
ATOM     70  C   UNL A   1      37.661  28.908  31.790  1.00  0.00     0.002 A 
ATOM     71  C   UNL A   1      37.034  30.204  29.837  1.00  0.00     0.091 A 
ATOM     72  F   UNL A   1      38.574  30.401  28.023  1.00  0.00    -0.205 F 
ATOM     73  C   UNL A   1      36.726  29.675  31.101  1.00  0.00     0.022 A 
BRANCH  71  74
ATOM     74  S   UNL A   1      35.790  31.243  29.062  1.00  0.00     0.127 S 
ATOM     75  O   UNL A   1      36.610  32.320  28.508  1.00  0.00    -0.237 OA
ATOM     76  O   UNL A   1      35.213  30.342  28.063  1.00  0.00    -0.237 OA
ATOM     77  O   UNL A   1      34.876  31.632  30.126  1.00  0.00    -0.744 OA
ENDBRANCH  71  74
ENDBRANCH  53  67
BRANCH  54  78
ATOM     78  C   UNL A   1      48.041  27.273  25.668  1.00  0.00     0.023 A 
ATOM     79  C   UNL A   1      49.106  26.726  26.410  1.00  0.00     0.012 A 
ATOM     80  C   UNL A   1      48.218  27.519  24.293  1.00  0.00     0.148 A 
ATOM     81  C   UNL A   1      50.333  26.457  25.803  1.00  0.00     0.002 A 
ATOM     82  C   UNL A   1      49.427  27.200  23.682  1.00  0.00     0.091 A 
ATOM     83  F   UNL A   1      47.199  28.054  23.605  1.00  0.00    -0.205 F 
ATOM     84  C   UNL A   1      50.490  26.684  24.438  1.00  0.00     0.022 A 
BRANCH  82  85
ATOM     85  S   UNL A   1      49.668  27.334  21.906  1.00  0.00     0.127 S 
ATOM     86  O   UNL A   1      50.932  26.626  21.722  1.00  0.00    -0.237 OA
ATOM     87  O   UNL A   1      48.491  26.638  21.386  1.00  0.00    -0.237 OA
ATOM     88  O   UNL A   1      49.689  28.762  21.624  1.00  0.00    -0.744 OA
ENDBRANCH  82  85
ENDBRANCH  54  78
BRANCH  66  89
ATOM     89  C   UNL A   1      45.356  32.840  28.922  1.00  0.00     0.023 A 
ATOM     90  C   UNL A   1      46.110  33.076  30.089  1.00  0.00     0.012 A 
ATOM     91  C   UNL A   1      45.185  33.879  27.986  1.00  0.00     0.148 A 
ATOM     92  C   UNL A   1      46.664  34.332  30.333  1.00  0.00     0.002 A 
ATOM     93  C   UNL A   1      45.779  35.115  28.213  1.00  0.00     0.091 A 
ATOM     94  F   UNL A   1      44.448  33.641  26.891  1.00  0.00    -0.205 F 
ATOM     95  C   UNL A   1      46.510  35.347  29.390  1.00  0.00     0.022 A 
BRANCH  93  96
ATOM     96  S   UNL A   1      45.710  36.450  27.012  1.00  0.00     0.127 S 
ATOM     97  O   UNL A   1      44.269  36.655  26.876  1.00  0.00    -0.237 OA
ATOM     98  O   UNL A   1      46.419  37.528  27.702  1.00  0.00    -0.237 OA
ATOM     99  O   UNL A   1      46.387  35.951  25.823  1.00  0.00    -0.744 OA
ENDBRANCH  93  96
ENDBRANCH  66  89
ENDBRANCH  40  41
ENDBRANCH  32  35
ENDBRANCH  30  31
ENDBRANCH  29  30
ENDBRANCH  28  29
ENDBRANCH   1  28
TORSDOF 19
ENDMDL
MODEL 3
REMARK VINA RESULT:     -11.7      5.715     10.726
REMARK SMILES O=C(Cc1cncnc1N1CCC2(CC1)OCCC[C@@H]2O)NCCCCCCNC(=O)c1ccc(-c2c3nc(c(-c4cccc(S(=O)(=O)[O-])c4F)c4ccc([nH]4)c(-c4cccc(S(=O)(=O)[O-])c4F)c4nc(c(-c5cccc(S(=O)(=O)[O-])c5F)c5ccc2[nH]5)C=C4)C=C3)cc1
REMARK SMILES IDX 25 1 24 2 23 3 22 4 1 5 2 6 3 8 4 9 5 10 9 11 6 12 8 13 7 14
REMARK SMILES IDX 10 15 11 16 15 17 12 18 14 19 13 20 16 21 20 22 17 23 19 24
REMARK SMILES IDX 18 25 21 26 26 28 27 29 28 30 29 31 30 32 31 34 32 35 33 36
REMARK SMILES IDX 94 37 34 38 93 39 35 40 36 41 37 42 87 43 38 44 92 45 86 46
REMARK SMILES IDX 88 47 39 48 91 49 85 50 84 51 40 53 72 54 52 55 71 56 53 57
REMARK SMILES IDX 56 58 70 59 89 60 54 61 55 62 69 64 90 65 57 66 41 67 42 68
REMARK SMILES IDX 50 69 43 70 45 71 51 72 44 73 46 74 47 75 48 76 49 77 73 78
REMARK SMILES IDX 74 79 82 80 75 81 77 82 83 83 76 84 78 85 79 86 80 87 81 88
REMARK SMILES IDX 58 89 59 90 67 91 60 92 62 93 68 94 61 95 63 96 64 97 65 98
REMARK SMILES IDX 66 99
REMARK H PARENT 22 7 21 27 29 33 88 52 56 63
REMARK Flexibility Score: inf
ROOT
ATOM      1  C   UNL A   1      37.925  22.196  25.831  1.00  0.00     0.002 C 
ENDROOT
BRANCH   1   2
ATOM      2  C   UNL A   1      37.488  23.651  25.634  1.00  0.00     0.021 C 
BRANCH   2   3
ATOM      3  C   UNL A   1      36.022  23.989  25.926  1.00  0.00     0.116 C 
BRANCH   3   4
ATOM      4  N   UNL A   1      35.230  24.351  24.760  1.00  0.00    -0.356 N 
ATOM      5  O   UNL A   1      33.983  25.945  25.829  1.00  0.00    -0.275 OA
ATOM      6  C   UNL A   1      34.309  25.375  24.788  1.00  0.00     0.224 C 
ATOM      7  H   UNL A   1      35.357  23.849  23.923  1.00  0.00     0.163 HD
BRANCH   6   8
ATOM      8  C   UNL A   1      33.632  25.741  23.475  1.00  0.00     0.141 C 
BRANCH   8   9
ATOM      9  C   UNL A   1      32.174  26.100  23.554  1.00  0.00     0.022 A 
ATOM     10  C   UNL A   1      31.758  27.361  23.159  1.00  0.00     0.121 A 
ATOM     11  C   UNL A   1      31.163  25.219  23.935  1.00  0.00     0.135 A 
ATOM     12  N   UNL A   1      30.475  27.757  23.136  1.00  0.00    -0.244 NA
ATOM     13  N   UNL A   1      29.867  25.575  23.889  1.00  0.00    -0.219 NA
ATOM     14  C   UNL A   1      29.587  26.827  23.501  1.00  0.00     0.224 A 
BRANCH  11  15
ATOM     15  N   UNL A   1      31.457  23.920  24.283  1.00  0.00    -0.356 N 
ATOM     16  C   UNL A   1      31.580  22.920  23.239  1.00  0.00     0.121 C 
ATOM     17  C   UNL A   1      31.013  23.373  25.556  1.00  0.00     0.121 C 
ATOM     18  C   UNL A   1      32.802  22.102  23.631  1.00  0.00     0.060 C 
ATOM     19  C   UNL A   1      32.120  22.463  26.087  1.00  0.00     0.060 C 
ATOM     20  C   UNL A   1      32.701  21.467  25.042  1.00  0.00     0.097 C 
ATOM     21  O   UNL A   1      31.829  20.313  25.030  1.00  0.00    -0.372 OA
ATOM     22  C   UNL A   1      34.108  21.018  25.551  1.00  0.00     0.146 C 
ATOM     23  C   UNL A   1      32.291  19.206  24.246  1.00  0.00     0.161 C 
ATOM     24  C   UNL A   1      34.676  19.869  24.725  1.00  0.00     0.037 C 
ATOM     25  C   UNL A   1      33.677  18.723  24.657  1.00  0.00     0.031 C 
BRANCH  22  26
ATOM     26  O   UNL A   1      34.026  20.581  26.916  1.00  0.00    -0.390 OA
ATOM     27  H   UNL A   1      33.599  21.268  27.451  1.00  0.00     0.211 HD
ENDBRANCH  22  26
ENDBRANCH  11  15
ENDBRANCH   8   9
ENDBRANCH   6   8
ENDBRANCH   3   4
ENDBRANCH   2   3
ENDBRANCH   1   2
BRANCH   1  28
ATOM     28  C   UNL A   1      37.808  21.262  24.623  1.00  0.00     0.002 C 
BRANCH  28  29
ATOM     29  C   UNL A   1      38.377  19.861  24.853  1.00  0.00     0.021 C 
BRANCH  29  30
ATOM     30  C   UNL A   1      39.133  19.699  26.171  1.00  0.00     0.116 C 
BRANCH  30  31
ATOM     31  N   UNL A   1      40.416  19.020  26.028  1.00  0.00    -0.352 N 
ATOM     32  C   UNL A   1      41.678  19.570  26.120  1.00  0.00     0.251 C 
ATOM     33  H   UNL A   1      40.377  18.054  25.842  1.00  0.00     0.163 HD
ATOM     34  O   UNL A   1      42.673  18.897  25.900  1.00  0.00    -0.269 OA
BRANCH  32  35
ATOM     35  C   UNL A   1      41.793  21.007  26.450  1.00  0.00     0.039 A 
ATOM     36  C   UNL A   1      41.836  21.394  27.791  1.00  0.00     0.014 A 
ATOM     37  C   UNL A   1      41.960  21.949  25.431  1.00  0.00     0.014 A 
ATOM     38  C   UNL A   1      42.133  22.721  28.113  1.00  0.00     0.010 A 
ATOM     39  C   UNL A   1      42.320  23.251  25.756  1.00  0.00     0.010 A 
ATOM     40  C   UNL A   1      42.422  23.648  27.099  1.00  0.00    -0.014 A 
BRANCH  40  41
ATOM     41  C   UNL A   1      42.874  25.027  27.413  1.00  0.00     0.031 A 
ATOM     42  C   UNL A   1      41.921  26.014  28.030  1.00  0.00     0.074 A 
ATOM     43  C   UNL A   1      44.106  25.425  27.038  1.00  0.00     0.049 A 
ATOM     44  N   UNL A   1      42.107  27.279  28.303  1.00  0.00    -0.248 NA
ATOM     45  C   UNL A   1      40.571  25.523  28.351  1.00  0.00     0.031 C 
ATOM     46  C   UNL A   1      45.091  24.591  26.345  1.00  0.00     0.029 A 
ATOM     47  N   UNL A   1      44.729  26.643  27.153  1.00  0.00    -0.354 N 
ATOM     48  C   UNL A   1      40.893  27.744  28.792  1.00  0.00     0.074 A 
ATOM     49  C   UNL A   1      39.967  26.634  28.746  1.00  0.00     0.031 C 
ATOM     50  C   UNL A   1      46.190  25.321  26.096  1.00  0.00     0.029 A 
ATOM     51  C   UNL A   1      45.984  26.678  26.589  1.00  0.00     0.049 A 
ATOM     52  H   UNL A   1      44.317  27.418  27.599  1.00  0.00     0.167 HD
ATOM     53  C   UNL A   1      40.585  28.975  29.265  1.00  0.00     0.034 A 
ATOM     54  C   UNL A   1      46.866  27.691  26.477  1.00  0.00     0.034 A 
ATOM     55  C   UNL A   1      41.523  30.060  29.360  1.00  0.00     0.049 A 
ATOM     56  C   UNL A   1      46.521  29.031  27.068  1.00  0.00     0.074 A 
ATOM     57  C   UNL A   1      41.338  31.309  29.922  1.00  0.00     0.029 A 
ATOM     58  N   UNL A   1      42.822  30.025  28.878  1.00  0.00    -0.354 N 
ATOM     59  N   UNL A   1      45.428  29.400  27.691  1.00  0.00    -0.248 NA
ATOM     60  C   UNL A   1      47.543  30.084  26.976  1.00  0.00     0.031 C 
ATOM     61  C   UNL A   1      42.523  32.037  29.771  1.00  0.00     0.029 A 
ATOM     62  C   UNL A   1      43.450  31.234  29.124  1.00  0.00     0.049 A 
ATOM     63  H   UNL A   1      43.237  29.255  28.427  1.00  0.00     0.167 HD
ATOM     64  C   UNL A   1      45.642  30.714  28.092  1.00  0.00     0.074 A 
ATOM     65  C   UNL A   1      46.978  31.070  27.662  1.00  0.00     0.031 C 
ATOM     66  C   UNL A   1      44.801  31.555  28.743  1.00  0.00     0.034 A 
BRANCH  53  67
ATOM     67  C   UNL A   1      39.189  29.191  29.784  1.00  0.00     0.023 A 
ATOM     68  C   UNL A   1      38.874  28.799  31.102  1.00  0.00     0.012 A 
ATOM     69  C   UNL A   1      38.206  29.823  28.998  1.00  0.00     0.148 A 
ATOM     70  C   UNL A   1      37.596  29.002  31.619  1.00  0.00     0.002 A 
ATOM     71  C   UNL A   1      36.945  30.059  29.534  1.00  0.00     0.091 A 
ATOM     72  F   UNL A   1      38.515  30.166  27.739  1.00  0.00    -0.205 F 
ATOM     73  C   UNL A   1      36.636  29.640  30.839  1.00  0.00     0.022 A 
BRANCH  71  74
ATOM     74  S   UNL A   1      35.663  30.940  28.635  1.00  0.00     0.127 S 
ATOM     75  O   UNL A   1      35.072  29.866  27.838  1.00  0.00    -0.237 OA
ATOM     76  O   UNL A   1      34.811  31.436  29.717  1.00  0.00    -0.237 OA
ATOM     77  O   UNL A   1      36.348  31.979  27.880  1.00  0.00    -0.744 OA
ENDBRANCH  71  74
ENDBRANCH  53  67
BRANCH  54  78
ATOM     78  C   UNL A   1      48.196  27.451  25.847  1.00  0.00     0.023 A 
ATOM     79  C   UNL A   1      49.278  27.055  26.657  1.00  0.00     0.012 A 
ATOM     80  C   UNL A   1      48.387  27.574  24.458  1.00  0.00     0.148 A 
ATOM     81  C   UNL A   1      50.534  26.815  26.099  1.00  0.00     0.002 A 
ATOM     82  C   UNL A   1      49.628  27.282  23.900  1.00  0.00     0.091 A 
ATOM     83  F   UNL A   1      47.349  27.967  23.705  1.00  0.00    -0.205 F 
ATOM     84  C   UNL A   1      50.707  26.918  24.720  1.00  0.00     0.022 A 
BRANCH  82  85
ATOM     85  S   UNL A   1      49.900  27.259  22.125  1.00  0.00     0.127 S 
ATOM     86  O   UNL A   1      48.788  26.434  21.662  1.00  0.00    -0.237 OA
ATOM     87  O   UNL A   1      49.798  28.679  21.783  1.00  0.00    -0.237 OA
ATOM     88  O   UNL A   1      51.231  26.697  21.943  1.00  0.00    -0.744 OA
ENDBRANCH  82  85
ENDBRANCH  54  78
BRANCH  66  89
ATOM     89  C   UNL A   1      45.301  32.940  29.056  1.00  0.00     0.023 A 
ATOM     90  C   UNL A   1      46.055  33.160  30.226  1.00  0.00     0.012 A 
ATOM     91  C   UNL A   1      45.101  34.001  28.151  1.00  0.00     0.148 A 
ATOM     92  C   UNL A   1      46.581  34.420  30.503  1.00  0.00     0.002 A 
ATOM     93  C   UNL A   1      45.666  35.244  28.412  1.00  0.00     0.091 A 
ATOM     94  F   UNL A   1      44.364  33.777  27.053  1.00  0.00    -0.205 F 
ATOM     95  C   UNL A   1      46.397  35.459  29.592  1.00  0.00     0.022 A 
BRANCH  93  96
ATOM     96  S   UNL A   1      45.559  36.611  27.250  1.00  0.00     0.127 S 
ATOM     97  O   UNL A   1      44.126  36.650  26.967  1.00  0.00    -0.237 OA
ATOM     98  O   UNL A   1      46.057  37.735  28.044  1.00  0.00    -0.237 OA
ATOM     99  O   UNL A   1      46.411  36.246  26.127  1.00  0.00    -0.744 OA
ENDBRANCH  93  96
ENDBRANCH  66  89
ENDBRANCH  40  41
ENDBRANCH  32  35
ENDBRANCH  30  31
ENDBRANCH  29  30
ENDBRANCH  28  29
ENDBRANCH   1  28
TORSDOF 19
ENDMDL
