MODEL 1
REMARK VINA RESULT:     -11.0      0.000      0.000
REMARK SMILES COCc1cccc(C(=O)N2C[C@@H](O)C[C@@H]2C(=O)NCCCCCCNC(=O)c2ccc(-c3c4nc(c(-c5cccc(S(=O)(=O)[O-])c5F)c5ccc([nH]5)c(-c5cccc(S(=O)(=O)[O-])c5F)c5nc(c(-c6cccc(S(=O)(=O)[O-])c6F)c6ccc3[nH]6)C=C5)C=C4)cc2)c1
REMARK SMILES IDX 22 1 21 2 20 3 19 4 17 5 18 6 16 8 11 9 12 10 13 11 15 12
REMARK SMILES IDX 9 13 10 14 8 15 4 16 5 17 92 18 6 19 7 20 3 21 2 22 1 23
REMARK SMILES IDX 14 24 23 26 24 27 25 28 26 29 27 30 28 32 29 33 30 34 91 35
REMARK SMILES IDX 31 36 90 37 32 38 33 39 34 40 84 41 35 42 89 43 83 44 85 45
REMARK SMILES IDX 36 46 88 47 82 48 81 49 37 51 69 52 49 53 68 54 50 55 53 56
REMARK SMILES IDX 67 57 86 58 51 59 52 60 66 62 87 63 54 64 38 65 39 66 47 67
REMARK SMILES IDX 40 68 42 69 48 70 41 71 43 72 44 73 45 74 46 75 70 76 71 77
REMARK SMILES IDX 79 78 72 79 74 80 80 81 73 82 75 83 76 84 77 85 78 86 55 87
REMARK SMILES IDX 56 88 64 89 57 90 59 91 65 92 58 93 60 94 61 95 62 96 63 97
REMARK H PARENT 19 7 14 25 26 31 85 50 53 61
REMARK Flexibility Score: inf
ROOT
ATOM      1  C   UNL A   1      36.437  21.500  25.106  1.00  0.00     0.002 C 
ENDROOT
BRANCH   1   2
ATOM      2  C   UNL A   1      36.071  22.339  23.875  1.00  0.00     0.021 C 
BRANCH   2   3
ATOM      3  C   UNL A   1      35.334  23.638  24.198  1.00  0.00     0.116 C 
BRANCH   3   4
ATOM      4  N   UNL A   1      34.891  24.317  22.996  1.00  0.00    -0.354 N 
ATOM      5  C   UNL A   1      33.926  25.270  22.857  1.00  0.00     0.242 C 
ATOM      6  O   UNL A   1      33.660  25.675  21.722  1.00  0.00    -0.273 OA
ATOM      7  H   UNL A   1      35.351  24.052  22.167  1.00  0.00     0.163 HD
BRANCH   5   8
ATOM      8  C   UNL A   1      33.261  25.864  24.112  1.00  0.00     0.177 C 
ATOM      9  N   UNL A   1      31.815  25.699  24.038  1.00  0.00    -0.324 N 
ATOM     10  C   UNL A   1      31.142  26.982  24.129  1.00  0.00     0.152 C 
ATOM     11  C   UNL A   1      32.168  27.949  23.553  1.00  0.00     0.136 C 
ATOM     12  C   UNL A   1      33.483  27.386  24.105  1.00  0.00     0.069 C 
BRANCH   9  13
ATOM     13  C   UNL A   1      31.274  24.431  23.959  1.00  0.00     0.254 C 
ATOM     14  O   UNL A   1      30.289  24.179  23.271  1.00  0.00    -0.269 OA
BRANCH  13  15
ATOM     15  C   UNL A   1      31.824  23.377  24.851  1.00  0.00     0.040 A 
ATOM     16  C   UNL A   1      32.611  21.087  25.168  1.00  0.00    -0.022 A 
ATOM     17  C   UNL A   1      32.944  21.414  26.490  1.00  0.00     0.006 A 
ATOM     18  C   UNL A   1      32.116  22.103  24.345  1.00  0.00     0.020 A 
ATOM     19  C   UNL A   1      32.750  22.711  26.978  1.00  0.00     0.001 A 
ATOM     20  C   UNL A   1      32.176  23.690  26.165  1.00  0.00     0.014 A 
BRANCH  16  21
ATOM     21  C   UNL A   1      32.801  19.674  24.663  1.00  0.00     0.195 C 
BRANCH  21  22
ATOM     22  O   UNL A   1      32.115  18.685  25.433  1.00  0.00    -0.380 OA
ATOM     23  C   UNL A   1      32.504  17.352  25.123  1.00  0.00     0.195 C 
ENDBRANCH  21  22
ENDBRANCH  16  21
ENDBRANCH  13  15
ENDBRANCH   9  13
BRANCH  11  24
ATOM     24  O   UNL A   1      31.939  29.292  23.940  1.00  0.00    -0.391 OA
ATOM     25  H   UNL A   1      32.681  29.844  23.647  1.00  0.00     0.211 HD
ENDBRANCH  11  24
ENDBRANCH   5   8
ENDBRANCH   3   4
ENDBRANCH   2   3
ENDBRANCH   1   2
BRANCH   1  26
ATOM     26  C   UNL A   1      36.396  19.981  24.902  1.00  0.00     0.002 C 
BRANCH  26  27
ATOM     27  C   UNL A   1      37.755  19.277  24.951  1.00  0.00     0.021 C 
BRANCH  27  28
ATOM     28  C   UNL A   1      38.843  20.034  25.706  1.00  0.00     0.116 C 
BRANCH  28  29
ATOM     29  N   UNL A   1      39.999  19.197  25.986  1.00  0.00    -0.352 N 
ATOM     30  C   UNL A   1      41.283  19.568  26.304  1.00  0.00     0.251 C 
ATOM     31  H   UNL A   1      39.839  18.227  25.942  1.00  0.00     0.163 HD
ATOM     32  O   UNL A   1      42.176  18.726  26.329  1.00  0.00    -0.269 OA
BRANCH  30  33
ATOM     33  C   UNL A   1      41.592  20.985  26.594  1.00  0.00     0.039 A 
ATOM     34  C   UNL A   1      41.708  21.392  27.926  1.00  0.00     0.014 A 
ATOM     35  C   UNL A   1      41.761  21.910  25.560  1.00  0.00     0.014 A 
ATOM     36  C   UNL A   1      42.056  22.713  28.219  1.00  0.00     0.010 A 
ATOM     37  C   UNL A   1      42.170  23.209  25.852  1.00  0.00     0.010 A 
ATOM     38  C   UNL A   1      42.321  23.625  27.184  1.00  0.00    -0.014 A 
BRANCH  38  39
ATOM     39  C   UNL A   1      42.785  25.006  27.471  1.00  0.00     0.031 A 
ATOM     40  C   UNL A   1      41.851  26.011  28.087  1.00  0.00     0.074 A 
ATOM     41  C   UNL A   1      44.022  25.381  27.088  1.00  0.00     0.049 A 
ATOM     42  N   UNL A   1      42.060  27.275  28.352  1.00  0.00    -0.248 NA
ATOM     43  C   UNL A   1      40.497  25.543  28.427  1.00  0.00     0.031 C 
ATOM     44  C   UNL A   1      44.994  24.523  26.408  1.00  0.00     0.029 A 
ATOM     45  N   UNL A   1      44.663  26.592  27.189  1.00  0.00    -0.354 N 
ATOM     46  C   UNL A   1      40.860  27.761  28.857  1.00  0.00     0.074 A 
ATOM     47  C   UNL A   1      39.918  26.665  28.833  1.00  0.00     0.031 C 
ATOM     48  C   UNL A   1      46.104  25.231  26.152  1.00  0.00     0.029 A 
ATOM     49  C   UNL A   1      45.917  26.600  26.625  1.00  0.00     0.049 A 
ATOM     50  H   UNL A   1      44.262  27.379  27.624  1.00  0.00     0.167 HD
ATOM     51  C   UNL A   1      40.577  29.000  29.326  1.00  0.00     0.034 A 
ATOM     52  C   UNL A   1      46.814  27.597  26.497  1.00  0.00     0.034 A 
ATOM     53  C   UNL A   1      41.530  30.076  29.394  1.00  0.00     0.049 A 
ATOM     54  C   UNL A   1      46.489  28.952  27.065  1.00  0.00     0.074 A 
ATOM     55  C   UNL A   1      41.367  31.336  29.940  1.00  0.00     0.029 A 
ATOM     56  N   UNL A   1      42.822  30.020  28.894  1.00  0.00    -0.354 N 
ATOM     57  N   UNL A   1      45.407  29.344  27.692  1.00  0.00    -0.248 NA
ATOM     58  C   UNL A   1      47.521  29.992  26.939  1.00  0.00     0.031 C 
ATOM     59  C   UNL A   1      42.557  32.050  29.757  1.00  0.00     0.029 A 
ATOM     60  C   UNL A   1      43.465  31.227  29.110  1.00  0.00     0.049 A 
ATOM     61  H   UNL A   1      43.223  29.238  28.451  1.00  0.00     0.167 HD
ATOM     62  C   UNL A   1      45.639  30.665  28.062  1.00  0.00     0.074 A 
ATOM     63  C   UNL A   1      46.974  30.997  27.609  1.00  0.00     0.031 C 
ATOM     64  C   UNL A   1      44.813  31.530  28.701  1.00  0.00     0.034 A 
BRANCH  51  65
ATOM     65  C   UNL A   1      39.193  29.243  29.867  1.00  0.00     0.023 A 
ATOM     66  C   UNL A   1      38.872  28.800  31.167  1.00  0.00     0.012 A 
ATOM     67  C   UNL A   1      38.232  29.957  29.125  1.00  0.00     0.148 A 
ATOM     68  C   UNL A   1      37.608  29.035  31.708  1.00  0.00     0.002 A 
ATOM     69  C   UNL A   1      36.989  30.225  29.686  1.00  0.00     0.091 A 
ATOM     70  F   UNL A   1      38.547  30.352  27.882  1.00  0.00    -0.205 F 
ATOM     71  C   UNL A   1      36.672  29.756  30.972  1.00  0.00     0.022 A 
BRANCH  69  72
ATOM     72  S   UNL A   1      35.740  31.209  28.849  1.00  0.00     0.127 S 
ATOM     73  O   UNL A   1      34.804  31.486  29.938  1.00  0.00    -0.237 OA
ATOM     74  O   UNL A   1      36.510  32.368  28.398  1.00  0.00    -0.237 OA
ATOM     75  O   UNL A   1      35.224  30.370  27.776  1.00  0.00    -0.744 OA
ENDBRANCH  69  72
ENDBRANCH  51  65
BRANCH  52  76
ATOM     76  C   UNL A   1      48.137  27.328  25.867  1.00  0.00     0.023 A 
ATOM     77  C   UNL A   1      49.194  26.846  26.664  1.00  0.00     0.012 A 
ATOM     78  C   UNL A   1      48.346  27.508  24.485  1.00  0.00     0.148 A 
ATOM     79  C   UNL A   1      50.442  26.575  26.103  1.00  0.00     0.002 A 
ATOM     80  C   UNL A   1      49.576  27.185  23.923  1.00  0.00     0.091 A 
ATOM     81  F   UNL A   1      47.333  27.981  23.746  1.00  0.00    -0.205 F 
ATOM     82  C   UNL A   1      50.630  26.733  24.732  1.00  0.00     0.022 A 
BRANCH  80  83
ATOM     83  S   UNL A   1      49.862  27.231  22.150  1.00  0.00     0.127 S 
ATOM     84  O   UNL A   1      51.236  26.745  22.054  1.00  0.00    -0.237 OA
ATOM     85  O   UNL A   1      48.844  26.305  21.652  1.00  0.00    -0.237 OA
ATOM     86  O   UNL A   1      49.649  28.618  21.757  1.00  0.00    -0.744 OA
ENDBRANCH  80  83
ENDBRANCH  52  76
BRANCH  64  87
ATOM     87  C   UNL A   1      45.330  32.917  28.972  1.00  0.00     0.023 A 
ATOM     88  C   UNL A   1      46.006  33.184  30.179  1.00  0.00     0.012 A 
ATOM     89  C   UNL A   1      45.213  33.934  28.003  1.00  0.00     0.148 A 
ATOM     90  C   UNL A   1      46.536  34.449  30.429  1.00  0.00     0.002 A 
ATOM     91  C   UNL A   1      45.783  35.180  28.242  1.00  0.00     0.091 A 
ATOM     92  F   UNL A   1      44.549  33.666  26.870  1.00  0.00    -0.205 F 
ATOM     93  C   UNL A   1      46.435  35.442  29.457  1.00  0.00     0.022 A 
BRANCH  91  94
ATOM     94  S   UNL A   1      45.783  36.489  27.011  1.00  0.00     0.127 S 
ATOM     95  O   UNL A   1      46.259  35.780  25.824  1.00  0.00    -0.237 OA
ATOM     96  O   UNL A   1      44.372  36.874  26.966  1.00  0.00    -0.237 OA
ATOM     97  O   UNL A   1      46.673  37.521  27.524  1.00  0.00    -0.744 OA
ENDBRANCH  91  94
ENDBRANCH  64  87
ENDBRANCH  38  39
ENDBRANCH  30  33
ENDBRANCH  28  29
ENDBRANCH  27  28
ENDBRANCH  26  27
ENDBRANCH   1  26
TORSDOF 21
ENDMDL
MODEL 2
REMARK VINA RESULT:     -10.9      1.418      3.370
REMARK SMILES COCc1cccc(C(=O)N2C[C@@H](O)C[C@@H]2C(=O)NCCCCCCNC(=O)c2ccc(-c3c4nc(c(-c5cccc(S(=O)(=O)[O-])c5F)c5ccc([nH]5)c(-c5cccc(S(=O)(=O)[O-])c5F)c5nc(c(-c6cccc(S(=O)(=O)[O-])c6F)c6ccc3[nH]6)C=C5)C=C4)cc2)c1
REMARK SMILES IDX 22 1 21 2 20 3 19 4 17 5 18 6 16 8 11 9 12 10 13 11 15 12
REMARK SMILES IDX 9 13 10 14 8 15 4 16 5 17 92 18 6 19 7 20 3 21 2 22 1 23
REMARK SMILES IDX 14 24 23 26 24 27 25 28 26 29 27 30 28 32 29 33 30 34 91 35
REMARK SMILES IDX 31 36 90 37 32 38 33 39 34 40 84 41 35 42 89 43 83 44 85 45
REMARK SMILES IDX 36 46 88 47 82 48 81 49 37 51 69 52 49 53 68 54 50 55 53 56
REMARK SMILES IDX 67 57 86 58 51 59 52 60 66 62 87 63 54 64 38 65 39 66 47 67
REMARK SMILES IDX 40 68 42 69 48 70 41 71 43 72 44 73 45 74 46 75 70 76 71 77
REMARK SMILES IDX 79 78 72 79 74 80 80 81 73 82 75 83 76 84 77 85 78 86 55 87
REMARK SMILES IDX 56 88 64 89 57 90 59 91 65 92 58 93 60 94 61 95 62 96 63 97
REMARK H PARENT 19 7 14 25 26 31 85 50 53 61
REMARK Flexibility Score: inf
ROOT
ATOM      1  C   UNL A   1      36.599  22.486  24.429  1.00  0.00     0.002 C 
ENDROOT
BRANCH   1   2
ATOM      2  C   UNL A   1      35.729  22.932  23.247  1.00  0.00     0.021 C 
BRANCH   2   3
ATOM      3  C   UNL A   1      34.372  23.508  23.649  1.00  0.00     0.116 C 
BRANCH   3   4
ATOM      4  N   UNL A   1      34.196  24.860  23.159  1.00  0.00    -0.354 N 
ATOM      5  C   UNL A   1      33.438  25.868  23.679  1.00  0.00     0.242 C 
ATOM      6  O   UNL A   1      33.378  26.936  23.062  1.00  0.00    -0.273 OA
ATOM      7  H   UNL A   1      34.692  25.081  22.338  1.00  0.00     0.163 HD
BRANCH   5   8
ATOM      8  C   UNL A   1      32.752  25.674  25.044  1.00  0.00     0.177 C 
ATOM      9  N   UNL A   1      31.455  26.339  25.051  1.00  0.00    -0.324 N 
ATOM     10  C   UNL A   1      31.381  27.315  26.123  1.00  0.00     0.152 C 
ATOM     11  C   UNL A   1      32.833  27.738  26.304  1.00  0.00     0.136 C 
ATOM     12  C   UNL A   1      33.577  26.411  26.111  1.00  0.00     0.069 C 
BRANCH   9  13
ATOM     13  C   UNL A   1      30.484  25.956  24.147  1.00  0.00     0.254 C 
ATOM     14  O   UNL A   1      30.502  24.864  23.587  1.00  0.00    -0.269 OA
BRANCH  13  15
ATOM     15  C   UNL A   1      29.470  26.964  23.740  1.00  0.00     0.040 A 
ATOM     16  C   UNL A   1      28.907  29.024  22.556  1.00  0.00    -0.022 A 
ATOM     17  C   UNL A   1      27.561  28.815  22.890  1.00  0.00     0.006 A 
ATOM     18  C   UNL A   1      29.836  28.049  22.932  1.00  0.00     0.020 A 
ATOM     19  C   UNL A   1      27.170  27.683  23.612  1.00  0.00     0.001 A 
ATOM     20  C   UNL A   1      28.124  26.763  24.051  1.00  0.00     0.014 A 
BRANCH  16  21
ATOM     21  C   UNL A   1      29.319  30.267  21.799  1.00  0.00     0.195 C 
BRANCH  21  22
ATOM     22  O   UNL A   1      28.991  31.488  22.467  1.00  0.00    -0.380 OA
ATOM     23  C   UNL A   1      28.389  32.456  21.616  1.00  0.00     0.195 C 
ENDBRANCH  21  22
ENDBRANCH  16  21
ENDBRANCH  13  15
ENDBRANCH   9  13
BRANCH  11  24
ATOM     24  O   UNL A   1      33.082  28.330  27.566  1.00  0.00    -0.391 OA
ATOM     25  H   UNL A   1      33.377  29.246  27.441  1.00  0.00     0.211 HD
ENDBRANCH  11  24
ENDBRANCH   5   8
ENDBRANCH   3   4
ENDBRANCH   2   3
ENDBRANCH   1   2
BRANCH   1  26
ATOM     26  C   UNL A   1      36.343  21.062  24.933  1.00  0.00     0.002 C 
BRANCH  26  27
ATOM     27  C   UNL A   1      37.554  20.126  24.896  1.00  0.00     0.021 C 
BRANCH  27  28
ATOM     28  C   UNL A   1      38.749  20.590  25.723  1.00  0.00     0.116 C 
BRANCH  28  29
ATOM     29  N   UNL A   1      39.742  19.540  25.887  1.00  0.00    -0.352 N 
ATOM     30  C   UNL A   1      41.090  19.650  26.132  1.00  0.00     0.251 C 
ATOM     31  H   UNL A   1      39.402  18.620  25.812  1.00  0.00     0.163 HD
ATOM     32  O   UNL A   1      41.809  18.658  26.059  1.00  0.00    -0.269 OA
BRANCH  30  33
ATOM     33  C   UNL A   1      41.675  20.968  26.462  1.00  0.00     0.039 A 
ATOM     34  C   UNL A   1      42.100  21.799  25.421  1.00  0.00     0.014 A 
ATOM     35  C   UNL A   1      41.810  21.382  27.790  1.00  0.00     0.014 A 
ATOM     36  C   UNL A   1      42.602  23.070  25.710  1.00  0.00     0.010 A 
ATOM     37  C   UNL A   1      42.249  22.673  28.073  1.00  0.00     0.010 A 
ATOM     38  C   UNL A   1      42.651  23.531  27.037  1.00  0.00    -0.014 A 
BRANCH  38  39
ATOM     39  C   UNL A   1      43.090  24.912  27.359  1.00  0.00     0.031 A 
ATOM     40  C   UNL A   1      42.129  25.896  27.966  1.00  0.00     0.074 A 
ATOM     41  C   UNL A   1      44.332  25.308  27.014  1.00  0.00     0.049 A 
ATOM     42  N   UNL A   1      42.316  27.158  28.257  1.00  0.00    -0.248 NA
ATOM     43  C   UNL A   1      40.772  25.407  28.263  1.00  0.00     0.031 C 
ATOM     44  C   UNL A   1      45.332  24.472  26.345  1.00  0.00     0.029 A 
ATOM     45  N   UNL A   1      44.956  26.524  27.151  1.00  0.00    -0.354 N 
ATOM     46  C   UNL A   1      41.097  27.622  28.737  1.00  0.00     0.074 A 
ATOM     47  C   UNL A   1      40.169  26.514  28.672  1.00  0.00     0.031 C 
ATOM     48  C   UNL A   1      46.440  25.198  26.130  1.00  0.00     0.029 A 
ATOM     49  C   UNL A   1      46.224  26.556  26.620  1.00  0.00     0.049 A 
ATOM     50  H   UNL A   1      44.534  27.299  27.587  1.00  0.00     0.167 HD
ATOM     51  C   UNL A   1      40.787  28.849  29.219  1.00  0.00     0.034 A 
ATOM     52  C   UNL A   1      47.111  27.566  26.531  1.00  0.00     0.034 A 
ATOM     53  C   UNL A   1      41.724  29.935  29.328  1.00  0.00     0.049 A 
ATOM     54  C   UNL A   1      46.755  28.907  27.112  1.00  0.00     0.074 A 
ATOM     55  C   UNL A   1      41.532  31.184  29.890  1.00  0.00     0.029 A 
ATOM     56  N   UNL A   1      43.030  29.903  28.862  1.00  0.00    -0.354 N 
ATOM     57  N   UNL A   1      45.653  29.277  27.717  1.00  0.00    -0.248 NA
ATOM     58  C   UNL A   1      47.778  29.961  27.029  1.00  0.00     0.031 C 
ATOM     59  C   UNL A   1      42.717  31.914  29.750  1.00  0.00     0.029 A 
ATOM     60  C   UNL A   1      43.652  31.113  29.113  1.00  0.00     0.049 A 
ATOM     61  H   UNL A   1      43.451  29.133  28.417  1.00  0.00     0.167 HD
ATOM     62  C   UNL A   1      45.859  30.594  28.113  1.00  0.00     0.074 A 
ATOM     63  C   UNL A   1      47.201  30.949  27.701  1.00  0.00     0.031 C 
ATOM     64  C   UNL A   1      45.006  31.438  28.745  1.00  0.00     0.034 A 
BRANCH  51  65
ATOM     65  C   UNL A   1      39.386  29.067  29.727  1.00  0.00     0.023 A 
ATOM     66  C   UNL A   1      39.052  28.647  31.031  1.00  0.00     0.012 A 
ATOM     67  C   UNL A   1      38.421  29.737  28.950  1.00  0.00     0.148 A 
ATOM     68  C   UNL A   1      37.772  28.859  31.542  1.00  0.00     0.002 A 
ATOM     69  C   UNL A   1      37.160  29.984  29.480  1.00  0.00     0.091 A 
ATOM     70  F   UNL A   1      38.750  30.110  27.704  1.00  0.00    -0.205 F 
ATOM     71  C   UNL A   1      36.831  29.537  30.772  1.00  0.00     0.022 A 
BRANCH  69  72
ATOM     72  S   UNL A   1      35.902  30.913  28.597  1.00  0.00     0.127 S 
ATOM     73  O   UNL A   1      35.391  29.907  27.667  1.00  0.00    -0.237 OA
ATOM     74  O   UNL A   1      34.977  31.279  29.669  1.00  0.00    -0.237 OA
ATOM     75  O   UNL A   1      36.594  32.039  27.984  1.00  0.00    -0.744 OA
ENDBRANCH  69  72
ENDBRANCH  51  65
BRANCH  52  76
ATOM     76  C   UNL A   1      48.454  27.322  25.931  1.00  0.00     0.023 A 
ATOM     77  C   UNL A   1      49.496  26.841  26.748  1.00  0.00     0.012 A 
ATOM     78  C   UNL A   1      48.696  27.527  24.558  1.00  0.00     0.148 A 
ATOM     79  C   UNL A   1      50.761  26.594  26.215  1.00  0.00     0.002 A 
ATOM     80  C   UNL A   1      49.943  27.227  24.023  1.00  0.00     0.091 A 
ATOM     81  F   UNL A   1      47.696  27.999  23.800  1.00  0.00    -0.205 F 
ATOM     82  C   UNL A   1      50.982  26.776  24.852  1.00  0.00     0.022 A 
BRANCH  80  83
ATOM     83  S   UNL A   1      50.274  27.306  22.259  1.00  0.00     0.127 S 
ATOM     84  O   UNL A   1      50.012  28.712  21.966  1.00  0.00    -0.237 OA
ATOM     85  O   UNL A   1      51.683  26.914  22.195  1.00  0.00    -0.237 OA
ATOM     86  O   UNL A   1      49.362  26.348  21.649  1.00  0.00    -0.744 OA
ENDBRANCH  80  83
ENDBRANCH  52  76
BRANCH  64  87
ATOM     87  C   UNL A   1      45.499  32.827  29.050  1.00  0.00     0.023 A 
ATOM     88  C   UNL A   1      46.196  33.069  30.251  1.00  0.00     0.012 A 
ATOM     89  C   UNL A   1      45.340  33.873  28.119  1.00  0.00     0.148 A 
ATOM     90  C   UNL A   1      46.703  34.337  30.532  1.00  0.00     0.002 A 
ATOM     91  C   UNL A   1      45.888  35.123  28.387  1.00  0.00     0.091 A 
ATOM     92  F   UNL A   1      44.657  33.628  26.992  1.00  0.00    -0.205 F 
ATOM     93  C   UNL A   1      46.560  35.359  29.597  1.00  0.00     0.022 A 
BRANCH  91  94
ATOM     94  S   UNL A   1      45.832  36.471  27.201  1.00  0.00     0.127 S 
ATOM     95  O   UNL A   1      44.392  36.647  27.019  1.00  0.00    -0.237 OA
ATOM     96  O   UNL A   1      46.492  37.555  27.929  1.00  0.00    -0.237 OA
ATOM     97  O   UNL A   1      46.559  36.002  26.028  1.00  0.00    -0.744 OA
ENDBRANCH  91  94
ENDBRANCH  64  87
ENDBRANCH  38  39
ENDBRANCH  30  33
ENDBRANCH  28  29
ENDBRANCH  27  28
ENDBRANCH  26  27
ENDBRANCH   1  26
TORSDOF 21
ENDMDL
MODEL 3
REMARK VINA RESULT:     -10.8      1.368      3.125
REMARK SMILES COCc1cccc(C(=O)N2C[C@@H](O)C[C@@H]2C(=O)NCCCCCCNC(=O)c2ccc(-c3c4nc(c(-c5cccc(S(=O)(=O)[O-])c5F)c5ccc([nH]5)c(-c5cccc(S(=O)(=O)[O-])c5F)c5nc(c(-c6cccc(S(=O)(=O)[O-])c6F)c6ccc3[nH]6)C=C5)C=C4)cc2)c1
REMARK SMILES IDX 22 1 21 2 20 3 19 4 17 5 18 6 16 8 11 9 12 10 13 11 15 12
REMARK SMILES IDX 9 13 10 14 8 15 4 16 5 17 92 18 6 19 7 20 3 21 2 22 1 23
REMARK SMILES IDX 14 24 23 26 24 27 25 28 26 29 27 30 28 32 29 33 30 34 91 35
REMARK SMILES IDX 31 36 90 37 32 38 33 39 34 40 84 41 35 42 89 43 83 44 85 45
REMARK SMILES IDX 36 46 88 47 82 48 81 49 37 51 69 52 49 53 68 54 50 55 53 56
REMARK SMILES IDX 67 57 86 58 51 59 52 60 66 62 87 63 54 64 38 65 39 66 47 67
REMARK SMILES IDX 40 68 42 69 48 70 41 71 43 72 44 73 45 74 46 75 70 76 71 77
REMARK SMILES IDX 79 78 72 79 74 80 80 81 73 82 75 83 76 84 77 85 78 86 55 87
REMARK SMILES IDX 56 88 64 89 57 90 59 91 65 92 58 93 60 94 61 95 62 96 63 97
REMARK H PARENT 19 7 14 25 26 31 85 50 53 61
REMARK Flexibility Score: inf
ROOT
ATOM      1  C   UNL A   1      37.511  22.404  24.805  1.00  0.00     0.002 C 
ENDROOT
BRANCH   1   2
ATOM      2  C   UNL A   1      36.538  23.549  24.497  1.00  0.00     0.021 C 
BRANCH   2   3
ATOM      3  C   UNL A   1      35.883  24.165  25.732  1.00  0.00     0.116 C 
BRANCH   3   4
ATOM      4  N   UNL A   1      34.864  23.296  26.287  1.00  0.00    -0.354 N 
ATOM      5  C   UNL A   1      33.576  23.116  25.878  1.00  0.00     0.242 C 
ATOM      6  O   UNL A   1      32.849  22.368  26.538  1.00  0.00    -0.273 OA
ATOM      7  H   UNL A   1      35.141  22.764  27.068  1.00  0.00     0.163 HD
BRANCH   5   8
ATOM      8  C   UNL A   1      33.094  23.780  24.574  1.00  0.00     0.177 C 
ATOM      9  N   UNL A   1      31.655  24.000  24.627  1.00  0.00    -0.324 N 
ATOM     10  C   UNL A   1      30.990  23.339  23.519  1.00  0.00     0.152 C 
ATOM     11  C   UNL A   1      31.911  22.164  23.218  1.00  0.00     0.136 C 
ATOM     12  C   UNL A   1      33.298  22.787  23.419  1.00  0.00     0.069 C 
BRANCH   9  13
ATOM     13  C   UNL A   1      31.121  24.806  25.614  1.00  0.00     0.254 C 
ATOM     14  O   UNL A   1      30.377  24.369  26.487  1.00  0.00    -0.269 OA
BRANCH  13  15
ATOM     15  C   UNL A   1      31.346  26.272  25.519  1.00  0.00     0.040 A 
ATOM     16  C   UNL A   1      30.838  28.417  24.468  1.00  0.00    -0.022 A 
ATOM     17  C   UNL A   1      31.690  29.039  25.391  1.00  0.00     0.006 A 
ATOM     18  C   UNL A   1      30.626  27.040  24.595  1.00  0.00     0.020 A 
ATOM     19  C   UNL A   1      32.339  28.295  26.382  1.00  0.00     0.001 A 
ATOM     20  C   UNL A   1      32.180  26.910  26.439  1.00  0.00     0.014 A 
BRANCH  16  21
ATOM     21  C   UNL A   1      30.165  29.230  23.385  1.00  0.00     0.195 C 
BRANCH  21  22
ATOM     22  O   UNL A   1      28.813  28.844  23.125  1.00  0.00    -0.380 OA
ATOM     23  C   UNL A   1      28.177  29.639  22.131  1.00  0.00     0.195 C 
ENDBRANCH  21  22
ENDBRANCH  16  21
ENDBRANCH  13  15
ENDBRANCH   9  13
BRANCH  11  24
ATOM     24  O   UNL A   1      31.728  21.638  21.916  1.00  0.00    -0.391 OA
ATOM     25  H   UNL A   1      30.839  21.864  21.598  1.00  0.00     0.211 HD
ENDBRANCH  11  24
ENDBRANCH   5   8
ENDBRANCH   3   4
ENDBRANCH   2   3
ENDBRANCH   1   2
BRANCH   1  26
ATOM     26  C   UNL A   1      36.989  20.996  24.497  1.00  0.00     0.002 C 
BRANCH  26  27
ATOM     27  C   UNL A   1      37.875  19.847  24.986  1.00  0.00     0.021 C 
BRANCH  27  28
ATOM     28  C   UNL A   1      39.023  20.265  25.899  1.00  0.00     0.116 C 
BRANCH  28  29
ATOM     29  N   UNL A   1      40.068  19.256  25.964  1.00  0.00    -0.352 N 
ATOM     30  C   UNL A   1      41.425  19.418  26.106  1.00  0.00     0.251 C 
ATOM     31  H   UNL A   1      39.760  18.324  25.897  1.00  0.00     0.163 HD
ATOM     32  O   UNL A   1      42.176  18.459  25.958  1.00  0.00    -0.269 OA
BRANCH  30  33
ATOM     33  C   UNL A   1      41.980  20.754  26.417  1.00  0.00     0.039 A 
ATOM     34  C   UNL A   1      42.285  21.620  25.363  1.00  0.00     0.014 A 
ATOM     35  C   UNL A   1      42.205  21.149  27.738  1.00  0.00     0.014 A 
ATOM     36  C   UNL A   1      42.756  22.907  25.638  1.00  0.00     0.010 A 
ATOM     37  C   UNL A   1      42.613  22.453  28.012  1.00  0.00     0.010 A 
ATOM     38  C   UNL A   1      42.894  23.345  26.966  1.00  0.00    -0.014 A 
BRANCH  38  39
ATOM     39  C   UNL A   1      43.301  24.738  27.281  1.00  0.00     0.031 A 
ATOM     40  C   UNL A   1      42.321  25.696  27.900  1.00  0.00     0.074 A 
ATOM     41  C   UNL A   1      44.527  25.166  26.920  1.00  0.00     0.049 A 
ATOM     42  N   UNL A   1      42.478  26.963  28.187  1.00  0.00    -0.248 NA
ATOM     43  C   UNL A   1      40.982  25.172  28.215  1.00  0.00     0.031 C 
ATOM     44  C   UNL A   1      45.540  24.356  26.239  1.00  0.00     0.029 A 
ATOM     45  N   UNL A   1      45.120  26.398  27.048  1.00  0.00    -0.354 N 
ATOM     46  C   UNL A   1      41.255  27.395  28.683  1.00  0.00     0.074 A 
ATOM     47  C   UNL A   1      40.355  26.264  28.630  1.00  0.00     0.031 C 
ATOM     48  C   UNL A   1      46.625  25.110  26.009  1.00  0.00     0.029 A 
ATOM     49  C   UNL A   1      46.380  26.463  26.500  1.00  0.00     0.049 A 
ATOM     50  H   UNL A   1      44.684  27.162  27.489  1.00  0.00     0.167 HD
ATOM     51  C   UNL A   1      40.918  28.615  29.168  1.00  0.00     0.034 A 
ATOM     52  C   UNL A   1      47.239  27.495  26.400  1.00  0.00     0.034 A 
ATOM     53  C   UNL A   1      41.828  29.725  29.264  1.00  0.00     0.049 A 
ATOM     54  C   UNL A   1      46.855  28.828  26.984  1.00  0.00     0.074 A 
ATOM     55  C   UNL A   1      41.610  30.969  29.828  1.00  0.00     0.029 A 
ATOM     56  N   UNL A   1      43.128  29.727  28.781  1.00  0.00    -0.354 N 
ATOM     57  N   UNL A   1      45.752  29.169  27.603  1.00  0.00    -0.248 NA
ATOM     58  C   UNL A   1      47.849  29.908  26.887  1.00  0.00     0.031 C 
ATOM     59  C   UNL A   1      42.774  31.730  29.672  1.00  0.00     0.029 A 
ATOM     60  C   UNL A   1      43.721  30.953  29.024  1.00  0.00     0.049 A 
ATOM     61  H   UNL A   1      43.563  28.967  28.331  1.00  0.00     0.167 HD
ATOM     62  C   UNL A   1      45.928  30.491  27.995  1.00  0.00     0.074 A 
ATOM     63  C   UNL A   1      47.255  30.881  27.565  1.00  0.00     0.031 C 
ATOM     64  C   UNL A   1      45.062  31.314  28.637  1.00  0.00     0.034 A 
BRANCH  51  65
ATOM     65  C   UNL A   1      39.519  28.796  29.694  1.00  0.00     0.023 A 
ATOM     66  C   UNL A   1      39.226  28.419  31.021  1.00  0.00     0.012 A 
ATOM     67  C   UNL A   1      38.513  29.392  28.908  1.00  0.00     0.148 A 
ATOM     68  C   UNL A   1      37.948  28.600  31.548  1.00  0.00     0.002 A 
ATOM     69  C   UNL A   1      37.252  29.608  29.453  1.00  0.00     0.091 A 
ATOM     70  F   UNL A   1      38.803  29.724  27.642  1.00  0.00    -0.205 F 
ATOM     71  C   UNL A   1      36.966  29.204  30.768  1.00  0.00     0.022 A 
BRANCH  69  72
ATOM     72  S   UNL A   1      35.941  30.446  28.556  1.00  0.00     0.127 S 
ATOM     73  O   UNL A   1      36.704  31.277  27.625  1.00  0.00    -0.237 OA
ATOM     74  O   UNL A   1      35.229  29.329  27.933  1.00  0.00    -0.237 OA
ATOM     75  O   UNL A   1      35.172  31.171  29.557  1.00  0.00    -0.744 OA
ENDBRANCH  69  72
ENDBRANCH  51  65
BRANCH  52  76
ATOM     76  C   UNL A   1      48.580  27.287  25.782  1.00  0.00     0.023 A 
ATOM     77  C   UNL A   1      49.638  26.809  26.580  1.00  0.00     0.012 A 
ATOM     78  C   UNL A   1      48.804  27.521  24.411  1.00  0.00     0.148 A 
ATOM     79  C   UNL A   1      50.902  26.594  26.031  1.00  0.00     0.002 A 
ATOM     80  C   UNL A   1      50.052  27.253  23.859  1.00  0.00     0.091 A 
ATOM     81  F   UNL A   1      47.790  27.989  23.672  1.00  0.00    -0.205 F 
ATOM     82  C   UNL A   1      51.107  26.805  24.670  1.00  0.00     0.022 A 
BRANCH  80  83
ATOM     83  S   UNL A   1      50.364  27.369  22.094  1.00  0.00     0.127 S 
ATOM     84  O   UNL A   1      51.752  26.925  22.004  1.00  0.00    -0.237 OA
ATOM     85  O   UNL A   1      49.380  26.433  21.547  1.00  0.00    -0.237 OA
ATOM     86  O   UNL A   1      50.118  28.762  21.745  1.00  0.00    -0.744 OA
ENDBRANCH  80  83
ENDBRANCH  52  76
BRANCH  64  87
ATOM     87  C   UNL A   1      45.521  32.715  28.936  1.00  0.00     0.023 A 
ATOM     88  C   UNL A   1      46.248  32.972  30.115  1.00  0.00     0.012 A 
ATOM     89  C   UNL A   1      45.301  33.760  28.016  1.00  0.00     0.148 A 
ATOM     90  C   UNL A   1      46.725  34.253  30.388  1.00  0.00     0.002 A 
ATOM     91  C   UNL A   1      45.819  35.025  28.274  1.00  0.00     0.091 A 
ATOM     92  F   UNL A   1      44.590  33.500  26.910  1.00  0.00    -0.205 F 
ATOM     93  C   UNL A   1      46.522  35.275  29.463  1.00  0.00     0.022 A 
BRANCH  91  94
ATOM     94  S   UNL A   1      45.685  36.377  27.099  1.00  0.00     0.127 S 
ATOM     95  O   UNL A   1      46.497  37.410  27.740  1.00  0.00    -0.237 OA
ATOM     96  O   UNL A   1      46.275  35.799  25.891  1.00  0.00    -0.237 OA
ATOM     97  O   UNL A   1      44.262  36.674  26.992  1.00  0.00    -0.744 OA
ENDBRANCH  91  94
ENDBRANCH  64  87
ENDBRANCH  38  39
ENDBRANCH  30  33
ENDBRANCH  28  29
ENDBRANCH  27  28
ENDBRANCH  26  27
ENDBRANCH   1  26
TORSDOF 21
ENDMDL
