MODEL 1
REMARK VINA RESULT:     -12.5      0.000      0.000
REMARK SMILES C[NH+]1CCC(C(=O)N2C[C@@H](C(=O)NCCCCCCNC(=O)c3ccc(-c4c5nc(c(-c6cccc(S(=O)(=O)[O-])c6F)c6ccc([nH]6)c(-c6cccc(S(=O)(=O)[O-])c6F)c6nc(c(-c7cccc(S(=O)(=O)[O-])c7F)c7ccc4[nH]7)C=C6)C=C5)cc3)[C@H](c3ccc4c(c3)OCO4)C2)CC1
REMARK SMILES IDX 17 1 16 2 15 3 14 4 13 5 11 6 12 7 10 9 8 10 9 11 96 12
REMARK SMILES IDX 86 13 6 14 7 15 5 16 1 17 2 18 3 19 98 20 4 22 97 23 87 24
REMARK SMILES IDX 88 25 92 26 89 27 91 28 90 29 93 30 95 31 94 32 18 33 19 34
REMARK SMILES IDX 20 35 21 36 22 38 23 39 24 40 85 41 25 42 84 43 26 44 27 45
REMARK SMILES IDX 28 46 78 47 29 48 83 49 77 50 79 51 30 52 82 53 76 54 75 55
REMARK SMILES IDX 31 57 63 58 43 59 62 60 44 61 47 62 61 63 80 64 45 65 46 66
REMARK SMILES IDX 60 68 81 69 48 70 32 71 33 72 41 73 34 74 36 75 42 76 35 77
REMARK SMILES IDX 37 78 38 79 39 80 40 81 64 82 65 83 73 84 66 85 68 86 74 87
REMARK SMILES IDX 67 88 69 89 70 90 71 91 72 92 49 93 50 94 58 95 51 96 53 97
REMARK SMILES IDX 59 98 52 99 54 100 55 101 56 102 57 103
REMARK H PARENT 13 8 2 21 20 37 79 56 47 67
REMARK Flexibility Score: inf
ROOT
ATOM      1  C   UNL A   1      36.698  19.560  24.892  1.00  0.00     0.002 C 
ENDROOT
BRANCH   1   2
ATOM      2  C   UNL A   1      35.954  20.890  24.727  1.00  0.00     0.002 C 
BRANCH   2   3
ATOM      3  C   UNL A   1      36.800  22.085  24.269  1.00  0.00     0.021 C 
BRANCH   3   4
ATOM      4  C   UNL A   1      36.940  23.216  25.285  1.00  0.00     0.116 C 
BRANCH   4   5
ATOM      5  N   UNL A   1      36.067  23.052  26.437  1.00  0.00    -0.356 N 
ATOM      6  C   UNL A   1      34.736  23.319  26.569  1.00  0.00     0.225 C 
ATOM      7  O   UNL A   1      34.173  22.983  27.612  1.00  0.00    -0.275 OA
ATOM      8  H   UNL A   1      36.503  22.695  27.244  1.00  0.00     0.163 HD
BRANCH   6   9
ATOM      9  C   UNL A   1      33.991  24.009  25.449  1.00  0.00     0.107 C 
ATOM     10  N   UNL A   1      32.921  25.937  24.757  1.00  0.00    -0.341 N 
ATOM     11  C   UNL A   1      33.945  25.506  25.683  1.00  0.00     0.133 C 
ATOM     12  C   UNL A   1      31.872  24.919  24.696  1.00  0.00     0.128 C 
ATOM     13  C   UNL A   1      32.485  23.667  25.376  1.00  0.00     0.053 C 
BRANCH  10  14
ATOM     14  C   UNL A   1      32.821  27.088  24.020  1.00  0.00     0.226 C 
ATOM     15  O   UNL A   1      33.841  27.610  23.550  1.00  0.00    -0.275 OA
BRANCH  14  16
ATOM     16  C   UNL A   1      31.520  27.901  24.014  1.00  0.00     0.090 C 
ATOM     17  C   UNL A   1      28.151  30.230  22.707  1.00  0.00     0.332 C 
ATOM     18  N   UNL A   1      29.456  29.585  22.841  1.00  0.00    -0.337 N 
ATOM     19  C   UNL A   1      29.318  28.125  22.783  1.00  0.00     0.262 C 
ATOM     20  C   UNL A   1      30.129  30.002  24.079  1.00  0.00     0.262 C 
ATOM     21  H   UNL A   1      30.037  29.883  22.057  1.00  0.00     0.347 HD
ATOM     22  C   UNL A   1      30.691  27.457  22.800  1.00  0.00     0.075 C 
ATOM     23  C   UNL A   1      31.548  29.424  24.112  1.00  0.00     0.075 C 
ENDBRANCH  14  16
ENDBRANCH  10  14
BRANCH  13  24
ATOM     24  C   UNL A   1      32.285  22.314  24.725  1.00  0.00    -0.038 A 
ATOM     25  C   UNL A   1      32.298  22.130  23.324  1.00  0.00     0.008 A 
ATOM     26  C   UNL A   1      32.258  21.180  25.563  1.00  0.00     0.054 A 
ATOM     27  C   UNL A   1      32.326  20.846  22.764  1.00  0.00     0.051 A 
ATOM     28  C   UNL A   1      32.324  19.931  24.983  1.00  0.00     0.166 A 
ATOM     29  C   UNL A   1      32.368  19.770  23.622  1.00  0.00     0.165 A 
ATOM     30  O   UNL A   1      32.446  18.752  25.652  1.00  0.00    -0.454 OA
ATOM     31  O   UNL A   1      32.517  18.469  23.260  1.00  0.00    -0.454 OA
ATOM     32  C   UNL A   1      32.642  17.839  24.549  1.00  0.00     0.468 C 
ENDBRANCH  13  24
ENDBRANCH   6   9
ENDBRANCH   4   5
ENDBRANCH   3   4
ENDBRANCH   2   3
ENDBRANCH   1   2
BRANCH   1  33
ATOM     33  C   UNL A   1      38.217  19.618  24.720  1.00  0.00     0.021 C 
BRANCH  33  34
ATOM     34  C   UNL A   1      39.019  19.826  26.002  1.00  0.00     0.116 C 
BRANCH  34  35
ATOM     35  N   UNL A   1      40.247  19.046  26.022  1.00  0.00    -0.352 N 
ATOM     36  C   UNL A   1      41.554  19.458  26.142  1.00  0.00     0.251 C 
ATOM     37  H   UNL A   1      40.124  18.073  25.936  1.00  0.00     0.163 HD
ATOM     38  O   UNL A   1      42.458  18.644  25.965  1.00  0.00    -0.269 OA
BRANCH  36  39
ATOM     39  C   UNL A   1      41.886  20.868  26.462  1.00  0.00     0.039 A 
ATOM     40  C   UNL A   1      42.241  21.196  27.776  1.00  0.00     0.014 A 
ATOM     41  C   UNL A   1      41.817  21.876  25.496  1.00  0.00     0.014 A 
ATOM     42  C   UNL A   1      42.581  22.513  28.104  1.00  0.00     0.010 A 
ATOM     43  C   UNL A   1      42.230  23.171  25.807  1.00  0.00     0.010 A 
ATOM     44  C   UNL A   1      42.605  23.510  27.116  1.00  0.00    -0.014 A 
BRANCH  44  45
ATOM     45  C   UNL A   1      43.018  24.907  27.427  1.00  0.00     0.031 A 
ATOM     46  C   UNL A   1      42.039  25.868  28.051  1.00  0.00     0.074 A 
ATOM     47  C   UNL A   1      44.239  25.344  27.056  1.00  0.00     0.049 A 
ATOM     48  N   UNL A   1      42.187  27.140  28.318  1.00  0.00    -0.248 NA
ATOM     49  C   UNL A   1      40.706  25.340  28.395  1.00  0.00     0.031 C 
ATOM     50  C   UNL A   1      45.249  24.544  26.360  1.00  0.00     0.029 A 
ATOM     51  N   UNL A   1      44.824  26.581  27.177  1.00  0.00    -0.354 N 
ATOM     52  C   UNL A   1      40.960  27.575  28.805  1.00  0.00     0.074 A 
ATOM     53  C   UNL A   1      40.069  26.436  28.782  1.00  0.00     0.031 C 
ATOM     54  C   UNL A   1      46.323  25.312  26.107  1.00  0.00     0.029 A 
ATOM     55  C   UNL A   1      46.071  26.663  26.600  1.00  0.00     0.049 A 
ATOM     56  H   UNL A   1      44.392  27.338  27.635  1.00  0.00     0.167 HD
ATOM     57  C   UNL A   1      40.612  28.804  29.255  1.00  0.00     0.034 A 
ATOM     58  C   UNL A   1      46.912  27.708  26.472  1.00  0.00     0.034 A 
ATOM     59  C   UNL A   1      41.518  29.915  29.353  1.00  0.00     0.049 A 
ATOM     60  C   UNL A   1      46.529  29.039  27.063  1.00  0.00     0.074 A 
ATOM     61  C   UNL A   1      41.293  31.158  29.918  1.00  0.00     0.029 A 
ATOM     62  N   UNL A   1      42.819  29.921  28.877  1.00  0.00    -0.354 N 
ATOM     63  N   UNL A   1      45.430  29.374  27.695  1.00  0.00    -0.248 NA
ATOM     64  C   UNL A   1      47.517  30.124  26.962  1.00  0.00     0.031 C 
ATOM     65  C   UNL A   1      42.455  31.922  29.769  1.00  0.00     0.029 A 
ATOM     66  C   UNL A   1      43.406  31.148  29.126  1.00  0.00     0.049 A 
ATOM     67  H   UNL A   1      43.259  29.163  28.427  1.00  0.00     0.167 HD
ATOM     68  C   UNL A   1      45.609  30.693  28.095  1.00  0.00     0.074 A 
ATOM     69  C   UNL A   1      46.930  31.090  27.657  1.00  0.00     0.031 C 
ATOM     70  C   UNL A   1      44.747  31.510  28.748  1.00  0.00     0.034 A 
BRANCH  57  71
ATOM     71  C   UNL A   1      39.203  29.009  29.744  1.00  0.00     0.023 A 
ATOM     72  C   UNL A   1      38.860  28.626  31.056  1.00  0.00     0.012 A 
ATOM     73  C   UNL A   1      38.250  29.673  28.944  1.00  0.00     0.148 A 
ATOM     74  C   UNL A   1      37.585  28.881  31.559  1.00  0.00     0.002 A 
ATOM     75  C   UNL A   1      36.994  29.958  29.468  1.00  0.00     0.091 A 
ATOM     76  F   UNL A   1      38.591  30.013  27.693  1.00  0.00    -0.205 F 
ATOM     77  C   UNL A   1      36.658  29.556  30.770  1.00  0.00     0.022 A 
BRANCH  75  78
ATOM     78  S   UNL A   1      35.756  30.894  28.562  1.00  0.00     0.127 S 
ATOM     79  O   UNL A   1      35.142  29.848  27.739  1.00  0.00    -0.237 OA
ATOM     80  O   UNL A   1      34.901  31.395  29.641  1.00  0.00    -0.237 OA
ATOM     81  O   UNL A   1      36.477  31.918  27.829  1.00  0.00    -0.744 OA
ENDBRANCH  75  78
ENDBRANCH  57  71
BRANCH  58  82
ATOM     82  C   UNL A   1      48.233  27.528  25.804  1.00  0.00     0.023 A 
ATOM     83  C   UNL A   1      49.377  27.278  26.588  1.00  0.00     0.012 A 
ATOM     84  C   UNL A   1      48.364  27.591  24.404  1.00  0.00     0.148 A 
ATOM     85  C   UNL A   1      50.631  27.136  25.994  1.00  0.00     0.002 A 
ATOM     86  C   UNL A   1      49.607  27.393  23.813  1.00  0.00     0.091 A 
ATOM     87  F   UNL A   1      47.270  27.848  23.673  1.00  0.00    -0.205 F 
ATOM     88  C   UNL A   1      50.745  27.184  24.607  1.00  0.00     0.022 A 
BRANCH  86  89
ATOM     89  S   UNL A   1      49.807  27.303  22.031  1.00  0.00     0.127 S 
ATOM     90  O   UNL A   1      51.207  26.911  21.904  1.00  0.00    -0.237 OA
ATOM     91  O   UNL A   1      48.840  26.267  21.663  1.00  0.00    -0.237 OA
ATOM     92  O   UNL A   1      49.465  28.633  21.542  1.00  0.00    -0.744 OA
ENDBRANCH  86  89
ENDBRANCH  58  82
BRANCH  70  93
ATOM     93  C   UNL A   1      45.208  32.907  29.070  1.00  0.00     0.023 A 
ATOM     94  C   UNL A   1      45.945  33.144  30.247  1.00  0.00     0.012 A 
ATOM     95  C   UNL A   1      44.984  33.965  28.167  1.00  0.00     0.148 A 
ATOM     96  C   UNL A   1      46.429  34.420  30.533  1.00  0.00     0.002 A 
ATOM     97  C   UNL A   1      45.509  35.223  28.437  1.00  0.00     0.091 A 
ATOM     98  F   UNL A   1      44.262  33.723  27.062  1.00  0.00    -0.205 F 
ATOM     99  C   UNL A   1      46.222  35.455  29.624  1.00  0.00     0.022 A 
BRANCH  97 100
ATOM    100  S   UNL A   1      45.373  36.587  27.275  1.00  0.00     0.127 S 
ATOM    101  O   UNL A   1      45.984  37.682  28.028  1.00  0.00    -0.237 OA
ATOM    102  O   UNL A   1      46.164  36.112  26.140  1.00  0.00    -0.237 OA
ATOM    103  O   UNL A   1      43.950  36.734  26.998  1.00  0.00    -0.744 OA
ENDBRANCH  97 100
ENDBRANCH  70  93
ENDBRANCH  44  45
ENDBRANCH  36  39
ENDBRANCH  34  35
ENDBRANCH  33  34
ENDBRANCH   1  33
TORSDOF 19
ENDMDL
MODEL 2
REMARK VINA RESULT:     -12.0      3.139      9.068
REMARK SMILES C[NH+]1CCC(C(=O)N2C[C@@H](C(=O)NCCCCCCNC(=O)c3ccc(-c4c5nc(c(-c6cccc(S(=O)(=O)[O-])c6F)c6ccc([nH]6)c(-c6cccc(S(=O)(=O)[O-])c6F)c6nc(c(-c7cccc(S(=O)(=O)[O-])c7F)c7ccc4[nH]7)C=C6)C=C5)cc3)[C@H](c3ccc4c(c3)OCO4)C2)CC1
REMARK SMILES IDX 17 1 16 2 15 3 14 4 13 5 11 6 12 7 10 9 8 10 9 11 96 12
REMARK SMILES IDX 86 13 6 14 7 15 5 16 1 17 2 18 3 19 98 20 4 22 97 23 87 24
REMARK SMILES IDX 88 25 92 26 89 27 91 28 90 29 93 30 95 31 94 32 18 33 19 34
REMARK SMILES IDX 20 35 21 36 22 38 23 39 24 40 85 41 25 42 84 43 26 44 27 45
REMARK SMILES IDX 28 46 78 47 29 48 83 49 77 50 79 51 30 52 82 53 76 54 75 55
REMARK SMILES IDX 31 57 63 58 43 59 62 60 44 61 47 62 61 63 80 64 45 65 46 66
REMARK SMILES IDX 60 68 81 69 48 70 32 71 33 72 41 73 34 74 36 75 42 76 35 77
REMARK SMILES IDX 37 78 38 79 39 80 40 81 64 82 65 83 73 84 66 85 68 86 74 87
REMARK SMILES IDX 67 88 69 89 70 90 71 91 72 92 49 93 50 94 58 95 51 96 53 97
REMARK SMILES IDX 59 98 52 99 54 100 55 101 56 102 57 103
REMARK H PARENT 13 8 2 21 20 37 79 56 47 67
REMARK Flexibility Score: inf
ROOT
ATOM      1  C   UNL A   1      34.741  24.092  23.539  1.00  0.00     0.002 C 
ENDROOT
BRANCH   1   2
ATOM      2  C   UNL A   1      34.045  23.230  22.479  1.00  0.00     0.002 C 
BRANCH   2   3
ATOM      3  C   UNL A   1      33.059  23.959  21.558  1.00  0.00     0.021 C 
BRANCH   3   4
ATOM      4  C   UNL A   1      33.244  25.472  21.467  1.00  0.00     0.116 C 
BRANCH   4   5
ATOM      5  N   UNL A   1      31.990  26.202  21.584  1.00  0.00    -0.356 N 
ATOM      6  C   UNL A   1      31.249  26.492  22.692  1.00  0.00     0.225 C 
ATOM      7  O   UNL A   1      30.275  27.236  22.565  1.00  0.00    -0.275 OA
ATOM      8  H   UNL A   1      31.622  26.538  20.735  1.00  0.00     0.163 HD
BRANCH   6   9
ATOM      9  C   UNL A   1      31.632  25.903  24.031  1.00  0.00     0.107 C 
ATOM     10  N   UNL A   1      31.200  24.264  25.602  1.00  0.00    -0.341 N 
ATOM     11  C   UNL A   1      31.059  24.509  24.183  1.00  0.00     0.133 C 
ATOM     12  C   UNL A   1      30.959  25.512  26.328  1.00  0.00     0.128 C 
ATOM     13  C   UNL A   1      31.006  26.623  25.248  1.00  0.00     0.053 C 
BRANCH  10  14
ATOM     14  C   UNL A   1      31.485  23.106  26.277  1.00  0.00     0.226 C 
ATOM     15  O   UNL A   1      31.084  22.954  27.438  1.00  0.00    -0.275 OA
BRANCH  14  16
ATOM     16  C   UNL A   1      32.535  22.126  25.735  1.00  0.00     0.090 C 
ATOM     17  C   UNL A   1      34.580  18.505  24.644  1.00  0.00     0.332 C 
ATOM     18  N   UNL A   1      33.722  19.509  25.270  1.00  0.00    -0.337 N 
ATOM     19  C   UNL A   1      32.770  20.055  24.296  1.00  0.00     0.262 C 
ATOM     20  C   UNL A   1      34.520  20.580  25.884  1.00  0.00     0.262 C 
ATOM     21  H   UNL A   1      33.193  19.053  26.014  1.00  0.00     0.347 HD
ATOM     22  C   UNL A   1      31.795  21.012  24.979  1.00  0.00     0.075 C 
ATOM     23  C   UNL A   1      33.598  21.531  26.655  1.00  0.00     0.075 C 
ENDBRANCH  14  16
ENDBRANCH  10  14
BRANCH  13  24
ATOM     24  C   UNL A   1      31.765  27.900  25.550  1.00  0.00    -0.038 A 
ATOM     25  C   UNL A   1      31.197  29.184  25.379  1.00  0.00     0.008 A 
ATOM     26  C   UNL A   1      33.018  27.785  26.185  1.00  0.00     0.054 A 
ATOM     27  C   UNL A   1      31.842  30.327  25.867  1.00  0.00     0.051 A 
ATOM     28  C   UNL A   1      33.609  28.924  26.687  1.00  0.00     0.166 A 
ATOM     29  C   UNL A   1      33.031  30.160  26.541  1.00  0.00     0.165 A 
ATOM     30  O   UNL A   1      34.741  28.965  27.440  1.00  0.00    -0.454 OA
ATOM     31  O   UNL A   1      33.728  31.135  27.179  1.00  0.00    -0.454 OA
ATOM     32  C   UNL A   1      34.767  30.362  27.809  1.00  0.00     0.468 C 
ENDBRANCH  13  24
ENDBRANCH   6   9
ENDBRANCH   4   5
ENDBRANCH   3   4
ENDBRANCH   2   3
ENDBRANCH   1   2
BRANCH   1  33
ATOM     33  C   UNL A   1      36.203  23.745  23.828  1.00  0.00     0.021 C 
BRANCH  33  34
ATOM     34  C   UNL A   1      36.613  23.791  25.297  1.00  0.00     0.116 C 
BRANCH  34  35
ATOM     35  N   UNL A   1      37.555  22.738  25.645  1.00  0.00    -0.352 N 
ATOM     36  C   UNL A   1      38.803  22.821  26.217  1.00  0.00     0.251 C 
ATOM     37  H   UNL A   1      37.252  21.824  25.437  1.00  0.00     0.163 HD
ATOM     38  O   UNL A   1      39.506  21.814  26.271  1.00  0.00    -0.269 OA
BRANCH  36  39
ATOM     39  C   UNL A   1      39.316  24.106  26.751  1.00  0.00     0.039 A 
ATOM     40  C   UNL A   1      40.010  24.965  25.891  1.00  0.00     0.014 A 
ATOM     41  C   UNL A   1      39.155  24.460  28.093  1.00  0.00     0.014 A 
ATOM     42  C   UNL A   1      40.488  26.194  26.359  1.00  0.00     0.010 A 
ATOM     43  C   UNL A   1      39.564  25.716  28.539  1.00  0.00     0.010 A 
ATOM     44  C   UNL A   1      40.245  26.595  27.683  1.00  0.00    -0.014 A 
BRANCH  44  45
ATOM     45  C   UNL A   1      40.692  27.921  28.191  1.00  0.00     0.031 A 
ATOM     46  C   UNL A   1      42.161  28.214  28.363  1.00  0.00     0.074 A 
ATOM     47  C   UNL A   1      39.779  28.828  28.595  1.00  0.00     0.049 A 
ATOM     48  N   UNL A   1      42.738  29.275  28.867  1.00  0.00    -0.248 NA
ATOM     49  C   UNL A   1      43.108  27.165  27.942  1.00  0.00     0.031 C 
ATOM     50  C   UNL A   1      38.327  28.636  28.571  1.00  0.00     0.029 A 
ATOM     51  N   UNL A   1      39.937  30.078  29.143  1.00  0.00    -0.354 N 
ATOM     52  C   UNL A   1      44.101  29.002  28.875  1.00  0.00     0.074 A 
ATOM     53  C   UNL A   1      44.268  27.668  28.342  1.00  0.00     0.031 C 
ATOM     54  C   UNL A   1      37.730  29.722  29.089  1.00  0.00     0.029 A 
ATOM     55  C   UNL A   1      38.752  30.678  29.504  1.00  0.00     0.049 A 
ATOM     56  H   UNL A   1      40.816  30.505  29.265  1.00  0.00     0.167 HD
ATOM     57  C   UNL A   1      45.124  29.798  29.266  1.00  0.00     0.034 A 
ATOM     58  C   UNL A   1      38.514  31.858  30.111  1.00  0.00     0.034 A 
ATOM     59  C   UNL A   1      44.966  31.153  29.720  1.00  0.00     0.049 A 
ATOM     60  C   UNL A   1      39.673  32.757  30.451  1.00  0.00     0.074 A 
ATOM     61  C   UNL A   1      45.950  32.080  30.012  1.00  0.00     0.029 A 
ATOM     62  N   UNL A   1      43.749  31.774  29.950  1.00  0.00    -0.354 N 
ATOM     63  N   UNL A   1      40.955  32.554  30.269  1.00  0.00    -0.248 NA
ATOM     64  C   UNL A   1      39.352  34.066  31.041  1.00  0.00     0.031 C 
ATOM     65  C   UNL A   1      45.329  33.260  30.434  1.00  0.00     0.029 A 
ATOM     66  C   UNL A   1      43.958  33.070  30.388  1.00  0.00     0.049 A 
ATOM     67  H   UNL A   1      42.867  31.355  29.821  1.00  0.00     0.167 HD
ATOM     68  C   UNL A   1      41.589  33.718  30.689  1.00  0.00     0.074 A 
ATOM     69  C   UNL A   1      40.549  34.633  31.111  1.00  0.00     0.031 C 
ATOM     70  C   UNL A   1      42.914  33.997  30.740  1.00  0.00     0.034 A 
BRANCH  57  71
ATOM     71  C   UNL A   1      46.525  29.258  29.162  1.00  0.00     0.023 A 
ATOM     72  C   UNL A   1      47.113  28.630  30.278  1.00  0.00     0.012 A 
ATOM     73  C   UNL A   1      47.218  29.279  27.934  1.00  0.00     0.148 A 
ATOM     74  C   UNL A   1      48.377  28.050  30.183  1.00  0.00     0.002 A 
ATOM     75  C   UNL A   1      48.461  28.664  27.837  1.00  0.00     0.091 A 
ATOM     76  F   UNL A   1      46.649  29.897  26.890  1.00  0.00    -0.205 F 
ATOM     77  C   UNL A   1      49.044  28.057  28.961  1.00  0.00     0.022 A 
BRANCH  75  78
ATOM     78  S   UNL A   1      49.367  28.547  26.290  1.00  0.00     0.127 S 
ATOM     79  O   UNL A   1      50.069  29.833  26.263  1.00  0.00    -0.237 OA
ATOM     80  O   UNL A   1      50.232  27.389  26.528  1.00  0.00    -0.237 OA
ATOM     81  O   UNL A   1      48.371  28.362  25.250  1.00  0.00    -0.744 OA
ENDBRANCH  75  78
ENDBRANCH  57  71
BRANCH  58  82
ATOM     82  C   UNL A   1      37.114  32.290  30.384  1.00  0.00     0.023 A 
ATOM     83  C   UNL A   1      36.504  31.932  31.603  1.00  0.00     0.012 A 
ATOM     84  C   UNL A   1      36.387  33.057  29.454  1.00  0.00     0.148 A 
ATOM     85  C   UNL A   1      35.184  32.296  31.873  1.00  0.00     0.002 A 
ATOM     86  C   UNL A   1      35.091  33.464  29.753  1.00  0.00     0.091 A 
ATOM     87  F   UNL A   1      36.974  33.374  28.291  1.00  0.00    -0.205 F 
ATOM     88  C   UNL A   1      34.481  33.069  30.953  1.00  0.00     0.022 A 
BRANCH  86  89
ATOM     89  S   UNL A   1      34.174  34.575  28.680  1.00  0.00     0.127 S 
ATOM     90  O   UNL A   1      32.907  34.703  29.391  1.00  0.00    -0.237 OA
ATOM     91  O   UNL A   1      35.012  35.775  28.690  1.00  0.00    -0.237 OA
ATOM     92  O   UNL A   1      34.122  33.900  27.389  1.00  0.00    -0.744 OA
ENDBRANCH  86  89
ENDBRANCH  58  82
BRANCH  70  93
ATOM     93  C   UNL A   1      43.329  35.357  31.234  1.00  0.00     0.023 A 
ATOM     94  C   UNL A   1      43.631  36.373  30.305  1.00  0.00     0.012 A 
ATOM     95  C   UNL A   1      43.338  35.652  32.611  1.00  0.00     0.148 A 
ATOM     96  C   UNL A   1      43.962  37.655  30.743  1.00  0.00     0.002 A 
ATOM     97  C   UNL A   1      43.624  36.944  33.037  1.00  0.00     0.091 A 
ATOM     98  F   UNL A   1      43.068  34.666  33.479  1.00  0.00    -0.205 F 
ATOM     99  C   UNL A   1      43.946  37.943  32.105  1.00  0.00     0.022 A 
BRANCH  97 100
ATOM    100  S   UNL A   1      43.530  37.425  34.766  1.00  0.00     0.127 S 
ATOM    101  O   UNL A   1      44.603  36.626  35.356  1.00  0.00    -0.237 OA
ATOM    102  O   UNL A   1      43.802  38.861  34.706  1.00  0.00    -0.237 OA
ATOM    103  O   UNL A   1      42.182  37.085  35.201  1.00  0.00    -0.744 OA
ENDBRANCH  97 100
ENDBRANCH  70  93
ENDBRANCH  44  45
ENDBRANCH  36  39
ENDBRANCH  34  35
ENDBRANCH  33  34
ENDBRANCH   1  33
TORSDOF 19
ENDMDL
MODEL 3
REMARK VINA RESULT:     -11.9      1.319      7.295
REMARK SMILES C[NH+]1CCC(C(=O)N2C[C@@H](C(=O)NCCCCCCNC(=O)c3ccc(-c4c5nc(c(-c6cccc(S(=O)(=O)[O-])c6F)c6ccc([nH]6)c(-c6cccc(S(=O)(=O)[O-])c6F)c6nc(c(-c7cccc(S(=O)(=O)[O-])c7F)c7ccc4[nH]7)C=C6)C=C5)cc3)[C@H](c3ccc4c(c3)OCO4)C2)CC1
REMARK SMILES IDX 17 1 16 2 15 3 14 4 13 5 11 6 12 7 10 9 8 10 9 11 96 12
REMARK SMILES IDX 86 13 6 14 7 15 5 16 1 17 2 18 3 19 98 20 4 22 97 23 87 24
REMARK SMILES IDX 88 25 92 26 89 27 91 28 90 29 93 30 95 31 94 32 18 33 19 34
REMARK SMILES IDX 20 35 21 36 22 38 23 39 24 40 85 41 25 42 84 43 26 44 27 45
REMARK SMILES IDX 28 46 78 47 29 48 83 49 77 50 79 51 30 52 82 53 76 54 75 55
REMARK SMILES IDX 31 57 63 58 43 59 62 60 44 61 47 62 61 63 80 64 45 65 46 66
REMARK SMILES IDX 60 68 81 69 48 70 32 71 33 72 41 73 34 74 36 75 42 76 35 77
REMARK SMILES IDX 37 78 38 79 39 80 40 81 64 82 65 83 73 84 66 85 68 86 74 87
REMARK SMILES IDX 67 88 69 89 70 90 71 91 72 92 49 93 50 94 58 95 51 96 53 97
REMARK SMILES IDX 59 98 52 99 54 100 55 101 56 102 57 103
REMARK H PARENT 13 8 2 21 20 37 79 56 47 67
REMARK Flexibility Score: inf
ROOT
ATOM      1  C   UNL A   1      37.304  20.007  24.872  1.00  0.00     0.002 C 
ENDROOT
BRANCH   1   2
ATOM      2  C   UNL A   1      37.550  21.516  24.776  1.00  0.00     0.002 C 
BRANCH   2   3
ATOM      3  C   UNL A   1      36.887  22.378  25.857  1.00  0.00     0.021 C 
BRANCH   3   4
ATOM      4  C   UNL A   1      35.881  23.408  25.348  1.00  0.00     0.116 C 
BRANCH   4   5
ATOM      5  N   UNL A   1      35.646  23.309  23.916  1.00  0.00    -0.356 N 
ATOM      6  C   UNL A   1      34.472  23.290  23.223  1.00  0.00     0.225 C 
ATOM      7  O   UNL A   1      34.518  23.324  21.992  1.00  0.00    -0.275 OA
ATOM      8  H   UNL A   1      36.458  23.247  23.363  1.00  0.00     0.163 HD
BRANCH   6   9
ATOM      9  C   UNL A   1      33.157  23.228  23.968  1.00  0.00     0.107 C 
ATOM     10  N   UNL A   1      31.856  24.141  25.645  1.00  0.00    -0.341 N 
ATOM     11  C   UNL A   1      32.920  24.511  24.737  1.00  0.00     0.133 C 
ATOM     12  C   UNL A   1      32.056  22.758  26.077  1.00  0.00     0.128 C 
ATOM     13  C   UNL A   1      33.116  22.180  25.105  1.00  0.00     0.053 C 
BRANCH  10  14
ATOM     14  C   UNL A   1      30.798  24.875  26.114  1.00  0.00     0.226 C 
ATOM     15  O   UNL A   1      29.974  24.352  26.877  1.00  0.00    -0.275 OA
BRANCH  14  16
ATOM     16  C   UNL A   1      30.448  26.231  25.486  1.00  0.00     0.090 C 
ATOM     17  C   UNL A   1      29.908  29.410  22.644  1.00  0.00     0.332 C 
ATOM     18  N   UNL A   1      30.355  28.218  23.362  1.00  0.00    -0.337 N 
ATOM     19  C   UNL A   1      29.254  27.258  23.503  1.00  0.00     0.262 C 
ATOM     20  C   UNL A   1      30.919  28.569  24.673  1.00  0.00     0.262 C 
ATOM     21  H   UNL A   1      31.095  27.778  22.814  1.00  0.00     0.347 HD
ATOM     22  C   UNL A   1      29.752  25.964  24.144  1.00  0.00     0.075 C 
ATOM     23  C   UNL A   1      31.509  27.317  25.330  1.00  0.00     0.075 C 
ENDBRANCH  14  16
ENDBRANCH  10  14
BRANCH  13  24
ATOM     24  C   UNL A   1      32.902  20.793  24.533  1.00  0.00    -0.038 A 
ATOM     25  C   UNL A   1      32.148  20.559  23.360  1.00  0.00     0.008 A 
ATOM     26  C   UNL A   1      33.628  19.728  25.103  1.00  0.00     0.054 A 
ATOM     27  C   UNL A   1      32.148  19.302  22.742  1.00  0.00     0.051 A 
ATOM     28  C   UNL A   1      33.638  18.514  24.451  1.00  0.00     0.166 A 
ATOM     29  C   UNL A   1      32.926  18.311  23.296  1.00  0.00     0.165 A 
ATOM     30  O   UNL A   1      34.394  17.436  24.794  1.00  0.00    -0.454 OA
ATOM     31  O   UNL A   1      33.139  17.077  22.769  1.00  0.00    -0.454 OA
ATOM     32  C   UNL A   1      34.126  16.557  23.678  1.00  0.00     0.468 C 
ENDBRANCH  13  24
ENDBRANCH   6   9
ENDBRANCH   4   5
ENDBRANCH   3   4
ENDBRANCH   2   3
ENDBRANCH   1   2
BRANCH   1  33
ATOM     33  C   UNL A   1      38.509  19.158  25.281  1.00  0.00     0.021 C 
BRANCH  33  34
ATOM     34  C   UNL A   1      39.543  19.858  26.157  1.00  0.00     0.116 C 
BRANCH  34  35
ATOM     35  N   UNL A   1      40.851  19.224  26.090  1.00  0.00    -0.352 N 
ATOM     36  C   UNL A   1      42.107  19.782  26.134  1.00  0.00     0.251 C 
ATOM     37  H   UNL A   1      40.834  18.244  25.997  1.00  0.00     0.163 HD
ATOM     38  O   UNL A   1      43.085  19.078  25.889  1.00  0.00    -0.269 OA
BRANCH  36  39
ATOM     39  C   UNL A   1      42.297  21.218  26.453  1.00  0.00     0.039 A 
ATOM     40  C   UNL A   1      42.436  21.599  27.793  1.00  0.00     0.014 A 
ATOM     41  C   UNL A   1      42.303  22.197  25.456  1.00  0.00     0.014 A 
ATOM     42  C   UNL A   1      42.637  22.943  28.124  1.00  0.00     0.010 A 
ATOM     43  C   UNL A   1      42.580  23.525  25.781  1.00  0.00     0.010 A 
ATOM     44  C   UNL A   1      42.740  23.917  27.118  1.00  0.00    -0.014 A 
BRANCH  44  45
ATOM     45  C   UNL A   1      43.011  25.346  27.440  1.00  0.00     0.031 A 
ATOM     46  C   UNL A   1      44.410  25.898  27.331  1.00  0.00     0.074 A 
ATOM     47  C   UNL A   1      42.022  26.123  27.927  1.00  0.00     0.049 A 
ATOM     48  N   UNL A   1      44.854  27.088  27.646  1.00  0.00    -0.248 NA
ATOM     49  C   UNL A   1      45.454  24.986  26.831  1.00  0.00     0.031 C 
ATOM     50  C   UNL A   1      40.645  25.689  28.170  1.00  0.00     0.029 A 
ATOM     51  N   UNL A   1      42.032  27.432  28.343  1.00  0.00    -0.354 N 
ATOM     52  C   UNL A   1      46.228  27.051  27.437  1.00  0.00     0.074 A 
ATOM     53  C   UNL A   1      46.550  25.716  26.984  1.00  0.00     0.031 C 
ATOM     54  C   UNL A   1      39.948  26.707  28.702  1.00  0.00     0.029 A 
ATOM     55  C   UNL A   1      40.830  27.859  28.860  1.00  0.00     0.049 A 
ATOM     56  H   UNL A   1      42.826  28.012  28.278  1.00  0.00     0.167 HD
ATOM     57  C   UNL A   1      47.136  28.045  27.583  1.00  0.00     0.034 A 
ATOM     58  C   UNL A   1      40.478  29.040  29.408  1.00  0.00     0.034 A 
ATOM     59  C   UNL A   1      46.805  29.393  27.954  1.00  0.00     0.049 A 
ATOM     60  C   UNL A   1      41.491  30.152  29.472  1.00  0.00     0.074 A 
ATOM     61  C   UNL A   1      47.636  30.499  27.999  1.00  0.00     0.029 A 
ATOM     62  N   UNL A   1      45.547  29.822  28.345  1.00  0.00    -0.354 N 
ATOM     63  N   UNL A   1      42.744  30.149  29.086  1.00  0.00    -0.248 NA
ATOM     64  C   UNL A   1      41.032  31.442  30.009  1.00  0.00     0.031 C 
ATOM     65  C   UNL A   1      46.883  31.594  28.433  1.00  0.00     0.029 A 
ATOM     66  C   UNL A   1      45.581  31.173  28.641  1.00  0.00     0.049 A 
ATOM     67  H   UNL A   1      44.748  29.249  28.403  1.00  0.00     0.167 HD
ATOM     68  C   UNL A   1      43.211  31.440  29.300  1.00  0.00     0.074 A 
ATOM     69  C   UNL A   1      42.101  32.207  29.827  1.00  0.00     0.031 C 
ATOM     70  C   UNL A   1      44.454  31.942  29.099  1.00  0.00     0.034 A 
BRANCH  57  71
ATOM     71  C   UNL A   1      48.578  27.741  27.277  1.00  0.00     0.023 A 
ATOM     72  C   UNL A   1      49.414  27.243  28.296  1.00  0.00     0.012 A 
ATOM     73  C   UNL A   1      49.076  27.848  25.963  1.00  0.00     0.148 A 
ATOM     74  C   UNL A   1      50.730  26.876  28.019  1.00  0.00     0.002 A 
ATOM     75  C   UNL A   1      50.378  27.443  25.687  1.00  0.00     0.091 A 
ATOM     76  F   UNL A   1      48.270  28.341  25.012  1.00  0.00    -0.205 F 
ATOM     77  C   UNL A   1      51.207  26.966  26.714  1.00  0.00     0.022 A 
BRANCH  75  78
ATOM     78  S   UNL A   1      51.061  27.444  24.025  1.00  0.00     0.127 S 
ATOM     79  O   UNL A   1      51.270  28.876  23.794  1.00  0.00    -0.237 OA
ATOM     80  O   UNL A   1      52.294  26.672  24.201  1.00  0.00    -0.237 OA
ATOM     81  O   UNL A   1      50.064  26.816  23.176  1.00  0.00    -0.744 OA
ENDBRANCH  75  78
ENDBRANCH  57  71
BRANCH  58  82
ATOM     82  C   UNL A   1      39.083  29.256  29.887  1.00  0.00     0.023 A 
ATOM     83  C   UNL A   1      38.747  28.922  31.214  1.00  0.00     0.012 A 
ATOM     84  C   UNL A   1      38.092  29.795  29.046  1.00  0.00     0.148 A 
ATOM     85  C   UNL A   1      37.443  29.084  31.682  1.00  0.00     0.002 A 
ATOM     86  C   UNL A   1      36.807  30.007  29.534  1.00  0.00     0.091 A 
ATOM     87  F   UNL A   1      38.422  30.090  27.780  1.00  0.00    -0.205 F 
ATOM     88  C   UNL A   1      36.476  29.635  30.846  1.00  0.00     0.022 A 
BRANCH  86  89
ATOM     89  S   UNL A   1      35.548  30.838  28.560  1.00  0.00     0.127 S 
ATOM     90  O   UNL A   1      34.828  29.712  27.974  1.00  0.00    -0.237 OA
ATOM     91  O   UNL A   1      34.807  31.580  29.582  1.00  0.00    -0.237 OA
ATOM     92  O   UNL A   1      36.283  31.686  27.630  1.00  0.00    -0.744 OA
ENDBRANCH  86  89
ENDBRANCH  58  82
BRANCH  70  93
ATOM     93  C   UNL A   1      44.685  33.398  29.409  1.00  0.00     0.023 A 
ATOM     94  C   UNL A   1      45.083  33.779  30.706  1.00  0.00     0.012 A 
ATOM     95  C   UNL A   1      44.591  34.373  28.397  1.00  0.00     0.148 A 
ATOM     96  C   UNL A   1      45.358  35.115  30.996  1.00  0.00     0.002 A 
ATOM     97  C   UNL A   1      44.911  35.695  28.684  1.00  0.00     0.091 A 
ATOM     98  F   UNL A   1      44.191  33.992  27.175  1.00  0.00    -0.205 F 
ATOM     99  C   UNL A   1      45.284  36.069  29.985  1.00  0.00     0.022 A 
BRANCH  97 100
ATOM    100  S   UNL A   1      44.937  36.970  27.418  1.00  0.00     0.127 S 
ATOM    101  O   UNL A   1      43.551  36.956  26.952  1.00  0.00    -0.237 OA
ATOM    102  O   UNL A   1      45.311  38.161  28.181  1.00  0.00    -0.237 OA
ATOM    103  O   UNL A   1      45.931  36.543  26.443  1.00  0.00    -0.744 OA
ENDBRANCH  97 100
ENDBRANCH  70  93
ENDBRANCH  44  45
ENDBRANCH  36  39
ENDBRANCH  34  35
ENDBRANCH  33  34
ENDBRANCH   1  33
TORSDOF 19
ENDMDL
