MODEL 1
REMARK VINA RESULT:     -12.6      0.000      0.000
REMARK SMILES Cc1cccc(CC(=O)N2CCC3(CCC(=O)N([C@H](C)C(=O)NCCCCCCNC(=O)c4ccc(-c5c6nc(c(-c7cccc(S(=O)(=O)[O-])c7F)c7ccc([nH]7)c(-c7cccc(S(=O)(=O)[O-])c7F)c7nc(c(-c8cccc(S(=O)(=O)[O-])c8F)c8ccc5[nH]8)C=C7)C=C6)cc4)C3)CC2)c1
REMARK SMILES IDX 26 1 25 2 24 3 23 4 21 5 22 6 19 8 20 9 18 10 8 11 9 12
REMARK SMILES IDX 10 13 11 14 98 15 12 16 97 17 13 18 14 19 96 20 15 21 16 22
REMARK SMILES IDX 17 23 7 24 6 25 1 26 2 27 3 28 99 29 4 30 5 31 27 32 28 33
REMARK SMILES IDX 29 34 30 35 31 36 32 38 33 39 34 40 95 41 35 42 94 43 36 44
REMARK SMILES IDX 37 45 38 46 88 47 39 48 93 49 87 50 89 51 40 52 92 53 86 54
REMARK SMILES IDX 85 55 41 57 73 58 53 59 72 60 54 61 57 62 71 63 90 64 55 65
REMARK SMILES IDX 56 66 70 68 91 69 58 70 42 71 43 72 51 73 44 74 46 75 52 76
REMARK SMILES IDX 45 77 47 78 48 79 49 80 50 81 74 82 75 83 83 84 76 85 78 86
REMARK SMILES IDX 84 87 77 88 79 89 80 90 81 91 82 92 59 93 60 94 68 95 61 96
REMARK SMILES IDX 63 97 69 98 62 99 64 100 65 101 66 102 67 103
REMARK H PARENT 23 7 30 37 89 56 57 67
REMARK Flexibility Score: inf
ROOT
ATOM      1  C   UNL A   1      39.334  21.726  26.043  1.00  0.00     0.002 C 
ENDROOT
BRANCH   1   2
ATOM      2  C   UNL A   1      37.957  22.328  25.741  1.00  0.00     0.021 C 
BRANCH   2   3
ATOM      3  C   UNL A   1      36.947  21.383  25.114  1.00  0.00     0.116 C 
BRANCH   3   4
ATOM      4  N   UNL A   1      36.304  21.871  23.914  1.00  0.00    -0.354 N 
ATOM      5  C   UNL A   1      35.386  22.880  23.799  1.00  0.00     0.242 C 
ATOM      6  O   UNL A   1      35.218  23.386  22.683  1.00  0.00    -0.273 OA
ATOM      7  H   UNL A   1      36.557  21.421  23.076  1.00  0.00     0.163 HD
BRANCH   5   8
ATOM      8  C   UNL A   1      34.565  23.384  25.017  1.00  0.00     0.171 C 
ATOM      9  C   UNL A   1      35.140  24.639  25.678  1.00  0.00     0.042 C 
BRANCH   8  10
ATOM     10  N   UNL A   1      33.096  23.438  24.893  1.00  0.00    -0.330 N 
ATOM     11  C   UNL A   1      30.353  28.933  22.647  1.00  0.00     0.226 C 
ATOM     12  O   UNL A   1      30.791  29.416  21.598  1.00  0.00    -0.275 OA
ATOM     13  N   UNL A   1      30.400  27.566  22.874  1.00  0.00    -0.342 N 
ATOM     14  C   UNL A   1      31.341  26.745  22.114  1.00  0.00     0.120 C 
ATOM     15  C   UNL A   1      29.541  26.800  23.763  1.00  0.00     0.120 C 
ATOM     16  C   UNL A   1      32.220  25.934  23.080  1.00  0.00     0.030 C 
ATOM     17  C   UNL A   1      30.387  26.100  24.813  1.00  0.00     0.030 C 
ATOM     18  C   UNL A   1      31.412  25.145  24.152  1.00  0.00    -0.008 C 
ATOM     19  C   UNL A   1      30.642  23.947  23.533  1.00  0.00     0.019 C 
ATOM     20  C   UNL A   1      32.369  24.638  25.260  1.00  0.00     0.127 C 
ATOM     21  C   UNL A   1      31.542  22.779  23.186  1.00  0.00     0.101 C 
ATOM     22  C   UNL A   1      32.353  22.393  24.392  1.00  0.00     0.223 C 
ATOM     23  O   UNL A   1      32.351  21.261  24.858  1.00  0.00    -0.275 OA
BRANCH  11  24
ATOM     24  C   UNL A   1      29.990  29.889  23.783  1.00  0.00     0.135 C 
BRANCH  24  25
ATOM     25  C   UNL A   1      31.007  30.162  24.859  1.00  0.00    -0.038 A 
ATOM     26  C   UNL A   1      34.007  28.381  26.403  1.00  0.00     0.044 C 
ATOM     27  C   UNL A   1      32.941  29.403  26.138  1.00  0.00    -0.051 A 
ATOM     28  C   UNL A   1      32.777  30.491  27.002  1.00  0.00     0.003 A 
ATOM     29  C   UNL A   1      32.068  29.260  25.054  1.00  0.00     0.007 A 
ATOM     30  C   UNL A   1      31.758  31.420  26.784  1.00  0.00     0.001 A 
ATOM     31  C   UNL A   1      30.875  31.261  25.715  1.00  0.00     0.004 A 
ENDBRANCH  24  25
ENDBRANCH  11  24
ENDBRANCH   8  10
ENDBRANCH   5   8
ENDBRANCH   3   4
ENDBRANCH   2   3
ENDBRANCH   1   2
BRANCH   1  32
ATOM     32  C   UNL A   1      40.125  22.297  27.231  1.00  0.00     0.002 C 
BRANCH  32  33
ATOM     33  C   UNL A   1      41.610  22.596  27.024  1.00  0.00     0.021 C 
BRANCH  33  34
ATOM     34  C   UNL A   1      42.072  22.645  25.578  1.00  0.00     0.116 C 
BRANCH  34  35
ATOM     35  N   UNL A   1      42.975  21.562  25.231  1.00  0.00    -0.352 N 
ATOM     36  C   UNL A   1      44.342  21.582  25.033  1.00  0.00     0.251 C 
ATOM     37  H   UNL A   1      42.548  20.681  25.123  1.00  0.00     0.163 HD
ATOM     38  O   UNL A   1      44.879  20.599  24.523  1.00  0.00    -0.269 OA
BRANCH  36  39
ATOM     39  C   UNL A   1      45.155  22.691  25.592  1.00  0.00     0.039 A 
ATOM     40  C   UNL A   1      45.349  22.685  26.980  1.00  0.00     0.014 A 
ATOM     41  C   UNL A   1      45.429  23.839  24.855  1.00  0.00     0.014 A 
ATOM     42  C   UNL A   1      45.492  23.891  27.657  1.00  0.00     0.010 A 
ATOM     43  C   UNL A   1      45.485  25.041  25.521  1.00  0.00     0.010 A 
ATOM     44  C   UNL A   1      45.412  25.063  26.920  1.00  0.00    -0.014 A 
BRANCH  44  45
ATOM     45  C   UNL A   1      45.136  26.373  27.479  1.00  0.00     0.031 A 
ATOM     46  C   UNL A   1      43.788  26.947  27.377  1.00  0.00     0.074 A 
ATOM     47  C   UNL A   1      46.050  26.879  28.338  1.00  0.00     0.049 A 
ATOM     48  N   UNL A   1      43.468  28.121  27.796  1.00  0.00    -0.248 NA
ATOM     49  C   UNL A   1      42.689  26.237  26.735  1.00  0.00     0.031 C 
ATOM     50  C   UNL A   1      45.824  27.828  29.419  1.00  0.00     0.029 A 
ATOM     51  N   UNL A   1      47.444  26.785  28.252  1.00  0.00    -0.354 N 
ATOM     52  C   UNL A   1      42.093  28.194  27.785  1.00  0.00     0.074 A 
ATOM     53  C   UNL A   1      41.676  27.070  26.985  1.00  0.00     0.031 C 
ATOM     54  C   UNL A   1      46.986  28.432  29.713  1.00  0.00     0.029 A 
ATOM     55  C   UNL A   1      47.933  28.029  28.688  1.00  0.00     0.049 A 
ATOM     56  H   UNL A   1      47.971  26.010  27.950  1.00  0.00     0.167 HD
ATOM     57  C   UNL A   1      41.492  29.105  28.601  1.00  0.00     0.034 A 
ATOM     58  C   UNL A   1      48.631  28.887  27.886  1.00  0.00     0.034 A 
ATOM     59  C   UNL A   1      42.480  30.073  29.108  1.00  0.00     0.049 A 
ATOM     60  C   UNL A   1      47.979  30.256  27.759  1.00  0.00     0.074 A 
ATOM     61  C   UNL A   1      43.122  30.247  30.323  1.00  0.00     0.029 A 
ATOM     62  N   UNL A   1      43.147  30.889  28.197  1.00  0.00    -0.354 N 
ATOM     63  N   UNL A   1      46.795  30.559  28.216  1.00  0.00    -0.248 NA
ATOM     64  C   UNL A   1      48.608  31.388  27.084  1.00  0.00     0.031 C 
ATOM     65  C   UNL A   1      44.251  31.091  30.104  1.00  0.00     0.029 A 
ATOM     66  C   UNL A   1      44.271  31.460  28.770  1.00  0.00     0.049 A 
ATOM     67  H   UNL A   1      42.857  31.039  27.267  1.00  0.00     0.167 HD
ATOM     68  C   UNL A   1      46.436  31.817  27.805  1.00  0.00     0.074 A 
ATOM     69  C   UNL A   1      47.646  32.324  27.178  1.00  0.00     0.031 C 
ATOM     70  C   UNL A   1      45.159  32.295  27.960  1.00  0.00     0.034 A 
BRANCH  57  71
ATOM     71  C   UNL A   1      40.073  29.002  29.158  1.00  0.00     0.023 A 
ATOM     72  C   UNL A   1      39.012  29.071  28.225  1.00  0.00     0.012 A 
ATOM     73  C   UNL A   1      39.681  28.956  30.520  1.00  0.00     0.148 A 
ATOM     74  C   UNL A   1      37.666  29.152  28.613  1.00  0.00     0.002 A 
ATOM     75  C   UNL A   1      38.340  29.025  30.910  1.00  0.00     0.091 A 
ATOM     76  F   UNL A   1      40.593  28.860  31.483  1.00  0.00    -0.205 F 
ATOM     77  C   UNL A   1      37.328  29.138  29.957  1.00  0.00     0.022 A 
BRANCH  75  78
ATOM     78  S   UNL A   1      37.832  29.020  32.643  1.00  0.00     0.127 S 
ATOM     79  O   UNL A   1      36.472  29.556  32.563  1.00  0.00    -0.237 OA
ATOM     80  O   UNL A   1      37.907  27.600  32.984  1.00  0.00    -0.237 OA
ATOM     81  O   UNL A   1      38.775  29.871  33.358  1.00  0.00    -0.744 OA
ENDBRANCH  75  78
ENDBRANCH  57  71
BRANCH  58  82
ATOM     82  C   UNL A   1      49.427  28.202  26.826  1.00  0.00     0.023 A 
ATOM     83  C   UNL A   1      50.497  27.383  27.262  1.00  0.00     0.012 A 
ATOM     84  C   UNL A   1      48.914  28.014  25.531  1.00  0.00     0.148 A 
ATOM     85  C   UNL A   1      50.948  26.316  26.484  1.00  0.00     0.002 A 
ATOM     86  C   UNL A   1      49.368  26.943  24.760  1.00  0.00     0.091 A 
ATOM     87  F   UNL A   1      47.933  28.822  25.108  1.00  0.00    -0.205 F 
ATOM     88  C   UNL A   1      50.356  26.073  25.250  1.00  0.00     0.022 A 
BRANCH  86  89
ATOM     89  S   UNL A   1      48.612  26.524  23.182  1.00  0.00     0.127 S 
ATOM     90  O   UNL A   1      48.228  25.133  23.401  1.00  0.00    -0.237 OA
ATOM     91  O   UNL A   1      47.497  27.468  23.109  1.00  0.00    -0.237 OA
ATOM     92  O   UNL A   1      49.654  26.759  22.194  1.00  0.00    -0.744 OA
ENDBRANCH  86  89
ENDBRANCH  58  82
BRANCH  70  93
ATOM     93  C   UNL A   1      44.599  33.572  27.337  1.00  0.00     0.023 A 
ATOM     94  C   UNL A   1      43.993  33.600  26.067  1.00  0.00     0.012 A 
ATOM     95  C   UNL A   1      44.538  34.781  28.085  1.00  0.00     0.148 A 
ATOM     96  C   UNL A   1      43.413  34.761  25.539  1.00  0.00     0.002 A 
ATOM     97  C   UNL A   1      43.856  35.899  27.603  1.00  0.00     0.091 A 
ATOM     98  F   UNL A   1      45.160  34.871  29.269  1.00  0.00    -0.205 F 
ATOM     99  C   UNL A   1      43.321  35.904  26.316  1.00  0.00     0.022 A 
BRANCH  97 100
ATOM    100  S   UNL A   1      43.503  37.298  28.679  1.00  0.00     0.127 S 
ATOM    101  O   UNL A   1      44.798  37.972  28.741  1.00  0.00    -0.237 OA
ATOM    102  O   UNL A   1      42.476  38.024  27.929  1.00  0.00    -0.237 OA
ATOM    103  O   UNL A   1      43.023  36.703  29.919  1.00  0.00    -0.744 OA
ENDBRANCH  97 100
ENDBRANCH  70  93
ENDBRANCH  44  45
ENDBRANCH  36  39
ENDBRANCH  34  35
ENDBRANCH  33  34
ENDBRANCH  32  33
ENDBRANCH   1  32
TORSDOF 19
ENDMDL
MODEL 2
REMARK VINA RESULT:     -12.4      4.657     10.788
REMARK SMILES Cc1cccc(CC(=O)N2CCC3(CCC(=O)N([C@H](C)C(=O)NCCCCCCNC(=O)c4ccc(-c5c6nc(c(-c7cccc(S(=O)(=O)[O-])c7F)c7ccc([nH]7)c(-c7cccc(S(=O)(=O)[O-])c7F)c7nc(c(-c8cccc(S(=O)(=O)[O-])c8F)c8ccc5[nH]8)C=C7)C=C6)cc4)C3)CC2)c1
REMARK SMILES IDX 26 1 25 2 24 3 23 4 21 5 22 6 19 8 20 9 18 10 8 11 9 12
REMARK SMILES IDX 10 13 11 14 98 15 12 16 97 17 13 18 14 19 96 20 15 21 16 22
REMARK SMILES IDX 17 23 7 24 6 25 1 26 2 27 3 28 99 29 4 30 5 31 27 32 28 33
REMARK SMILES IDX 29 34 30 35 31 36 32 38 33 39 34 40 95 41 35 42 94 43 36 44
REMARK SMILES IDX 37 45 38 46 88 47 39 48 93 49 87 50 89 51 40 52 92 53 86 54
REMARK SMILES IDX 85 55 41 57 73 58 53 59 72 60 54 61 57 62 71 63 90 64 55 65
REMARK SMILES IDX 56 66 70 68 91 69 58 70 42 71 43 72 51 73 44 74 46 75 52 76
REMARK SMILES IDX 45 77 47 78 48 79 49 80 50 81 74 82 75 83 83 84 76 85 78 86
REMARK SMILES IDX 84 87 77 88 79 89 80 90 81 91 82 92 59 93 60 94 68 95 61 96
REMARK SMILES IDX 63 97 69 98 62 99 64 100 65 101 66 102 67 103
REMARK H PARENT 23 7 30 37 89 56 57 67
REMARK Flexibility Score: inf
ROOT
ATOM      1  C   UNL A   1      34.288  31.534  27.970  1.00  0.00     0.002 C 
ENDROOT
BRANCH   1   2
ATOM      2  C   UNL A   1      35.172  30.288  28.085  1.00  0.00     0.021 C 
BRANCH   2   3
ATOM      3  C   UNL A   1      34.752  29.100  27.237  1.00  0.00     0.116 C 
BRANCH   3   4
ATOM      4  N   UNL A   1      34.289  29.424  25.905  1.00  0.00    -0.354 N 
ATOM      5  C   UNL A   1      33.210  28.909  25.238  1.00  0.00     0.242 C 
ATOM      6  O   UNL A   1      32.768  29.544  24.274  1.00  0.00    -0.273 OA
ATOM      7  H   UNL A   1      34.815  30.098  25.418  1.00  0.00     0.163 HD
BRANCH   5   8
ATOM      8  C   UNL A   1      32.553  27.565  25.657  1.00  0.00     0.171 C 
ATOM      9  C   UNL A   1      31.542  27.697  26.798  1.00  0.00     0.042 C 
BRANCH   8  10
ATOM     10  N   UNL A   1      32.082  26.658  24.593  1.00  0.00    -0.330 N 
ATOM     11  C   UNL A   1      33.119  20.238  25.277  1.00  0.00     0.226 C 
ATOM     12  O   UNL A   1      32.781  19.703  26.338  1.00  0.00    -0.275 OA
ATOM     13  N   UNL A   1      32.440  21.347  24.793  1.00  0.00    -0.342 N 
ATOM     14  C   UNL A   1      31.638  22.154  25.711  1.00  0.00     0.120 C 
ATOM     15  C   UNL A   1      32.365  21.787  23.409  1.00  0.00     0.120 C 
ATOM     16  C   UNL A   1      32.081  23.624  25.630  1.00  0.00     0.030 C 
ATOM     17  C   UNL A   1      32.928  23.192  23.288  1.00  0.00     0.030 C 
ATOM     18  C   UNL A   1      32.138  24.184  24.178  1.00  0.00    -0.008 C 
ATOM     19  C   UNL A   1      30.721  24.370  23.572  1.00  0.00     0.019 C 
ATOM     20  C   UNL A   1      32.895  25.536  24.168  1.00  0.00     0.127 C 
ATOM     21  C   UNL A   1      29.990  25.575  24.129  1.00  0.00     0.101 C 
ATOM     22  C   UNL A   1      30.854  26.798  23.986  1.00  0.00     0.223 C 
ATOM     23  O   UNL A   1      30.483  27.806  23.400  1.00  0.00    -0.275 OA
BRANCH  11  24
ATOM     24  C   UNL A   1      34.440  19.807  24.642  1.00  0.00     0.135 C 
BRANCH  24  25
ATOM     25  C   UNL A   1      35.701  20.540  25.017  1.00  0.00    -0.038 A 
ATOM     26  C   UNL A   1      36.697  24.083  26.021  1.00  0.00     0.044 C 
ATOM     27  C   UNL A   1      36.783  22.630  25.661  1.00  0.00    -0.051 A 
ATOM     28  C   UNL A   1      38.030  22.019  25.485  1.00  0.00     0.003 A 
ATOM     29  C   UNL A   1      35.624  21.876  25.450  1.00  0.00     0.007 A 
ATOM     30  C   UNL A   1      38.115  20.678  25.106  1.00  0.00     0.001 A 
ATOM     31  C   UNL A   1      36.956  19.937  24.875  1.00  0.00     0.004 A 
ENDBRANCH  24  25
ENDBRANCH  11  24
ENDBRANCH   8  10
ENDBRANCH   5   8
ENDBRANCH   3   4
ENDBRANCH   2   3
ENDBRANCH   1   2
BRANCH   1  32
ATOM     32  C   UNL A   1      34.968  32.870  27.626  1.00  0.00     0.002 C 
BRANCH  32  33
ATOM     33  C   UNL A   1      34.369  34.149  28.212  1.00  0.00     0.021 C 
BRANCH  33  34
ATOM     34  C   UNL A   1      33.836  34.031  29.630  1.00  0.00     0.116 C 
BRANCH  34  35
ATOM     35  N   UNL A   1      34.717  34.625  30.620  1.00  0.00    -0.352 N 
ATOM     36  C   UNL A   1      35.805  34.079  31.273  1.00  0.00     0.251 C 
ATOM     37  H   UNL A   1      34.507  35.556  30.861  1.00  0.00     0.163 HD
ATOM     38  O   UNL A   1      36.274  34.678  32.241  1.00  0.00    -0.269 OA
BRANCH  36  39
ATOM     39  C   UNL A   1      36.497  32.897  30.701  1.00  0.00     0.039 A 
ATOM     40  C   UNL A   1      36.253  31.667  31.327  1.00  0.00     0.014 A 
ATOM     41  C   UNL A   1      37.568  33.032  29.823  1.00  0.00     0.014 A 
ATOM     42  C   UNL A   1      37.246  30.695  31.336  1.00  0.00     0.010 A 
ATOM     43  C   UNL A   1      38.588  32.112  29.896  1.00  0.00     0.010 A 
ATOM     44  C   UNL A   1      38.459  30.999  30.735  1.00  0.00    -0.014 A 
BRANCH  44  45
ATOM     45  C   UNL A   1      39.705  30.300  30.991  1.00  0.00     0.031 A 
ATOM     46  C   UNL A   1      39.985  29.025  30.318  1.00  0.00     0.074 A 
ATOM     47  C   UNL A   1      40.688  31.002  31.599  1.00  0.00     0.049 A 
ATOM     48  N   UNL A   1      41.036  28.312  30.526  1.00  0.00    -0.248 NA
ATOM     49  C   UNL A   1      39.049  28.423  29.377  1.00  0.00     0.031 C 
ATOM     50  C   UNL A   1      42.126  30.792  31.495  1.00  0.00     0.029 A 
ATOM     51  N   UNL A   1      40.554  31.937  32.633  1.00  0.00    -0.354 N 
ATOM     52  C   UNL A   1      41.081  27.359  29.535  1.00  0.00     0.074 A 
ATOM     53  C   UNL A   1      39.763  27.378  28.952  1.00  0.00     0.031 C 
ATOM     54  C   UNL A   1      42.720  31.337  32.567  1.00  0.00     0.029 A 
ATOM     55  C   UNL A   1      41.657  31.724  33.478  1.00  0.00     0.049 A 
ATOM     56  H   UNL A   1      39.837  32.603  32.744  1.00  0.00     0.167 HD
ATOM     57  C   UNL A   1      42.287  26.801  29.234  1.00  0.00     0.034 A 
ATOM     58  C   UNL A   1      41.544  31.304  34.773  1.00  0.00     0.034 A 
ATOM     59  C   UNL A   1      43.274  27.114  30.282  1.00  0.00     0.049 A 
ATOM     60  C   UNL A   1      42.286  30.006  35.052  1.00  0.00     0.074 A 
ATOM     61  C   UNL A   1      44.338  27.997  30.370  1.00  0.00     0.029 A 
ATOM     62  N   UNL A   1      43.049  26.648  31.575  1.00  0.00    -0.354 N 
ATOM     63  N   UNL A   1      42.840  29.258  34.137  1.00  0.00    -0.248 NA
ATOM     64  C   UNL A   1      42.441  29.437  36.388  1.00  0.00     0.031 C 
ATOM     65  C   UNL A   1      44.674  28.141  31.748  1.00  0.00     0.029 A 
ATOM     66  C   UNL A   1      43.846  27.316  32.490  1.00  0.00     0.049 A 
ATOM     67  H   UNL A   1      42.408  25.937  31.807  1.00  0.00     0.167 HD
ATOM     68  C   UNL A   1      43.287  28.085  34.691  1.00  0.00     0.074 A 
ATOM     69  C   UNL A   1      43.094  28.292  36.118  1.00  0.00     0.031 C 
ATOM     70  C   UNL A   1      43.710  27.032  33.920  1.00  0.00     0.034 A 
BRANCH  57  71
ATOM     71  C   UNL A   1      42.673  26.185  27.890  1.00  0.00     0.023 A 
ATOM     72  C   UNL A   1      42.693  27.050  26.771  1.00  0.00     0.012 A 
ATOM     73  C   UNL A   1      42.909  24.817  27.603  1.00  0.00     0.148 A 
ATOM     74  C   UNL A   1      42.871  26.588  25.458  1.00  0.00     0.002 A 
ATOM     75  C   UNL A   1      43.097  24.353  26.297  1.00  0.00     0.091 A 
ATOM     76  F   UNL A   1      42.941  23.917  28.581  1.00  0.00    -0.205 F 
ATOM     77  C   UNL A   1      43.065  25.237  25.218  1.00  0.00     0.022 A 
BRANCH  75  78
ATOM     78  S   UNL A   1      43.345  22.606  25.913  1.00  0.00     0.127 S 
ATOM     79  O   UNL A   1      43.319  22.609  24.450  1.00  0.00    -0.237 OA
ATOM     80  O   UNL A   1      44.660  22.344  26.498  1.00  0.00    -0.237 OA
ATOM     81  O   UNL A   1      42.245  21.880  26.535  1.00  0.00    -0.744 OA
ENDBRANCH  75  78
ENDBRANCH  57  71
BRANCH  58  82
ATOM     82  C   UNL A   1      40.282  31.744  35.437  1.00  0.00     0.023 A 
ATOM     83  C   UNL A   1      39.167  30.880  35.321  1.00  0.00     0.012 A 
ATOM     84  C   UNL A   1      40.289  32.707  36.462  1.00  0.00     0.148 A 
ATOM     85  C   UNL A   1      38.155  30.880  36.283  1.00  0.00     0.002 A 
ATOM     86  C   UNL A   1      39.275  32.699  37.421  1.00  0.00     0.091 A 
ATOM     87  F   UNL A   1      41.326  33.551  36.538  1.00  0.00    -0.205 F 
ATOM     88  C   UNL A   1      38.230  31.763  37.352  1.00  0.00     0.022 A 
BRANCH  86  89
ATOM     89  S   UNL A   1      39.332  33.766  38.868  1.00  0.00     0.127 S 
ATOM     90  O   UNL A   1      39.250  35.090  38.259  1.00  0.00    -0.237 OA
ATOM     91  O   UNL A   1      38.141  33.352  39.609  1.00  0.00    -0.237 OA
ATOM     92  O   UNL A   1      40.586  33.435  39.528  1.00  0.00    -0.744 OA
ENDBRANCH  86  89
ENDBRANCH  58  82
BRANCH  70  93
ATOM     93  C   UNL A   1      44.004  25.619  34.417  1.00  0.00     0.023 A 
ATOM     94  C   UNL A   1      43.009  24.629  34.534  1.00  0.00     0.012 A 
ATOM     95  C   UNL A   1      45.340  25.192  34.654  1.00  0.00     0.148 A 
ATOM     96  C   UNL A   1      43.303  23.314  34.916  1.00  0.00     0.002 A 
ATOM     97  C   UNL A   1      45.639  23.855  34.918  1.00  0.00     0.091 A 
ATOM     98  F   UNL A   1      46.341  26.083  34.646  1.00  0.00    -0.205 F 
ATOM     99  C   UNL A   1      44.620  22.918  35.084  1.00  0.00     0.022 A 
BRANCH  97 100
ATOM    100  S   UNL A   1      47.340  23.268  34.890  1.00  0.00     0.127 S 
ATOM    101  O   UNL A   1      47.764  23.490  36.270  1.00  0.00    -0.237 OA
ATOM    102  O   UNL A   1      47.183  21.859  34.523  1.00  0.00    -0.237 OA
ATOM    103  O   UNL A   1      47.996  24.077  33.873  1.00  0.00    -0.744 OA
ENDBRANCH  97 100
ENDBRANCH  70  93
ENDBRANCH  44  45
ENDBRANCH  36  39
ENDBRANCH  34  35
ENDBRANCH  33  34
ENDBRANCH  32  33
ENDBRANCH   1  32
TORSDOF 19
ENDMDL
MODEL 3
REMARK VINA RESULT:     -12.1      4.288     10.030
REMARK SMILES Cc1cccc(CC(=O)N2CCC3(CCC(=O)N([C@H](C)C(=O)NCCCCCCNC(=O)c4ccc(-c5c6nc(c(-c7cccc(S(=O)(=O)[O-])c7F)c7ccc([nH]7)c(-c7cccc(S(=O)(=O)[O-])c7F)c7nc(c(-c8cccc(S(=O)(=O)[O-])c8F)c8ccc5[nH]8)C=C7)C=C6)cc4)C3)CC2)c1
REMARK SMILES IDX 26 1 25 2 24 3 23 4 21 5 22 6 19 8 20 9 18 10 8 11 9 12
REMARK SMILES IDX 10 13 11 14 98 15 12 16 97 17 13 18 14 19 96 20 15 21 16 22
REMARK SMILES IDX 17 23 7 24 6 25 1 26 2 27 3 28 99 29 4 30 5 31 27 32 28 33
REMARK SMILES IDX 29 34 30 35 31 36 32 38 33 39 34 40 95 41 35 42 94 43 36 44
REMARK SMILES IDX 37 45 38 46 88 47 39 48 93 49 87 50 89 51 40 52 92 53 86 54
REMARK SMILES IDX 85 55 41 57 73 58 53 59 72 60 54 61 57 62 71 63 90 64 55 65
REMARK SMILES IDX 56 66 70 68 91 69 58 70 42 71 43 72 51 73 44 74 46 75 52 76
REMARK SMILES IDX 45 77 47 78 48 79 49 80 50 81 74 82 75 83 83 84 76 85 78 86
REMARK SMILES IDX 84 87 77 88 79 89 80 90 81 91 82 92 59 93 60 94 68 95 61 96
REMARK SMILES IDX 63 97 69 98 62 99 64 100 65 101 66 102 67 103
REMARK H PARENT 23 7 30 37 89 56 57 67
REMARK Flexibility Score: inf
ROOT
ATOM      1  C   UNL A   1      34.747  31.251  27.595  1.00  0.00     0.002 C 
ENDROOT
BRANCH   1   2
ATOM      2  C   UNL A   1      34.819  29.753  27.913  1.00  0.00     0.021 C 
BRANCH   2   3
ATOM      3  C   UNL A   1      34.815  28.823  26.712  1.00  0.00     0.116 C 
BRANCH   3   4
ATOM      4  N   UNL A   1      34.048  29.284  25.575  1.00  0.00    -0.354 N 
ATOM      5  C   UNL A   1      32.860  28.794  25.104  1.00  0.00     0.242 C 
ATOM      6  O   UNL A   1      32.190  29.519  24.359  1.00  0.00    -0.273 OA
ATOM      7  H   UNL A   1      34.429  30.043  25.078  1.00  0.00     0.163 HD
BRANCH   5   8
ATOM      8  C   UNL A   1      32.354  27.373  25.475  1.00  0.00     0.171 C 
ATOM      9  C   UNL A   1      31.369  27.350  26.646  1.00  0.00     0.042 C 
BRANCH   8  10
ATOM     10  N   UNL A   1      31.947  26.472  24.381  1.00  0.00    -0.330 N 
ATOM     11  C   UNL A   1      32.893  20.043  25.116  1.00  0.00     0.226 C 
ATOM     12  O   UNL A   1      32.484  19.509  26.153  1.00  0.00    -0.275 OA
ATOM     13  N   UNL A   1      32.254  21.158  24.592  1.00  0.00    -0.342 N 
ATOM     14  C   UNL A   1      31.401  21.969  25.458  1.00  0.00     0.120 C 
ATOM     15  C   UNL A   1      32.271  21.600  23.207  1.00  0.00     0.120 C 
ATOM     16  C   UNL A   1      31.858  23.436  25.409  1.00  0.00     0.030 C 
ATOM     17  C   UNL A   1      32.851  23.002  23.126  1.00  0.00     0.030 C 
ATOM     18  C   UNL A   1      32.012  23.998  23.965  1.00  0.00    -0.008 C 
ATOM     19  C   UNL A   1      30.638  24.194  23.269  1.00  0.00     0.019 C 
ATOM     20  C   UNL A   1      32.778  25.344  24.007  1.00  0.00     0.127 C 
ATOM     21  C   UNL A   1      29.882  25.403  23.781  1.00  0.00     0.101 C 
ATOM     22  C   UNL A   1      30.761  26.621  23.696  1.00  0.00     0.223 C 
ATOM     23  O   UNL A   1      30.436  27.632  23.090  1.00  0.00    -0.275 OA
BRANCH  11  24
ATOM     24  C   UNL A   1      34.249  19.604  24.567  1.00  0.00     0.135 C 
BRANCH  24  25
ATOM     25  C   UNL A   1      35.470  20.416  24.909  1.00  0.00    -0.038 A 
ATOM     26  C   UNL A   1      36.283  24.046  25.754  1.00  0.00     0.044 C 
ATOM     27  C   UNL A   1      36.444  22.585  25.460  1.00  0.00    -0.051 A 
ATOM     28  C   UNL A   1      37.721  22.031  25.311  1.00  0.00     0.003 A 
ATOM     29  C   UNL A   1      35.325  21.764  25.282  1.00  0.00     0.007 A 
ATOM     30  C   UNL A   1      37.874  20.680  24.993  1.00  0.00     0.001 A 
ATOM     31  C   UNL A   1      36.755  19.871  24.795  1.00  0.00     0.004 A 
ENDBRANCH  24  25
ENDBRANCH  11  24
ENDBRANCH   8  10
ENDBRANCH   5   8
ENDBRANCH   3   4
ENDBRANCH   2   3
ENDBRANCH   1   2
BRANCH   1  32
ATOM     32  C   UNL A   1      33.605  32.067  28.224  1.00  0.00     0.002 C 
BRANCH  32  33
ATOM     33  C   UNL A   1      33.714  33.592  28.192  1.00  0.00     0.021 C 
BRANCH  33  34
ATOM     34  C   UNL A   1      35.126  34.148  28.261  1.00  0.00     0.116 C 
BRANCH  34  35
ATOM     35  N   UNL A   1      35.530  34.509  29.608  1.00  0.00    -0.352 N 
ATOM     36  C   UNL A   1      36.036  33.717  30.620  1.00  0.00     0.251 C 
ATOM     37  H   UNL A   1      35.429  35.463  29.833  1.00  0.00     0.163 HD
ATOM     38  O   UNL A   1      36.099  34.181  31.758  1.00  0.00    -0.269 OA
BRANCH  36  39
ATOM     39  C   UNL A   1      36.655  32.407  30.296  1.00  0.00     0.039 A 
ATOM     40  C   UNL A   1      36.760  31.488  31.349  1.00  0.00     0.014 A 
ATOM     41  C   UNL A   1      37.385  32.214  29.127  1.00  0.00     0.014 A 
ATOM     42  C   UNL A   1      37.816  30.585  31.367  1.00  0.00     0.010 A 
ATOM     43  C   UNL A   1      38.480  31.383  29.175  1.00  0.00     0.010 A 
ATOM     44  C   UNL A   1      38.745  30.650  30.338  1.00  0.00    -0.014 A 
BRANCH  44  45
ATOM     45  C   UNL A   1      40.083  30.092  30.397  1.00  0.00     0.031 A 
ATOM     46  C   UNL A   1      40.302  28.673  30.084  1.00  0.00     0.074 A 
ATOM     47  C   UNL A   1      41.112  30.968  30.437  1.00  0.00     0.049 A 
ATOM     48  N   UNL A   1      41.443  28.083  30.162  1.00  0.00    -0.248 NA
ATOM     49  C   UNL A   1      39.212  27.786  29.698  1.00  0.00     0.031 C 
ATOM     50  C   UNL A   1      42.475  30.761  29.966  1.00  0.00     0.029 A 
ATOM     51  N   UNL A   1      41.172  32.180  31.134  1.00  0.00    -0.354 N 
ATOM     52  C   UNL A   1      41.312  26.864  29.537  1.00  0.00     0.074 A 
ATOM     53  C   UNL A   1      39.889  26.673  29.406  1.00  0.00     0.031 C 
ATOM     54  C   UNL A   1      43.283  31.629  30.593  1.00  0.00     0.029 A 
ATOM     55  C   UNL A   1      42.487  32.267  31.625  1.00  0.00     0.049 A 
ATOM     56  H   UNL A   1      40.446  32.834  31.255  1.00  0.00     0.167 HD
ATOM     57  C   UNL A   1      42.438  26.261  29.062  1.00  0.00     0.034 A 
ATOM     58  C   UNL A   1      42.795  32.280  32.956  1.00  0.00     0.034 A 
ATOM     59  C   UNL A   1      43.640  26.909  29.615  1.00  0.00     0.049 A 
ATOM     60  C   UNL A   1      43.727  31.151  33.369  1.00  0.00     0.074 A 
ATOM     61  C   UNL A   1      44.577  27.793  29.106  1.00  0.00     0.029 A 
ATOM     62  N   UNL A   1      43.846  26.875  30.992  1.00  0.00    -0.354 N 
ATOM     63  N   UNL A   1      44.080  30.161  32.595  1.00  0.00    -0.248 NA
ATOM     64  C   UNL A   1      44.319  31.040  34.699  1.00  0.00     0.031 C 
ATOM     65  C   UNL A   1      45.273  28.374  30.207  1.00  0.00     0.029 A 
ATOM     66  C   UNL A   1      44.789  27.814  31.377  1.00  0.00     0.049 A 
ATOM     67  H   UNL A   1      43.383  26.264  31.610  1.00  0.00     0.167 HD
ATOM     68  C   UNL A   1      44.796  29.234  33.309  1.00  0.00     0.074 A 
ATOM     69  C   UNL A   1      44.994  29.881  34.596  1.00  0.00     0.031 C 
ATOM     70  C   UNL A   1      45.099  27.997  32.796  1.00  0.00     0.034 A 
BRANCH  57  71
ATOM     71  C   UNL A   1      42.493  25.257  27.913  1.00  0.00     0.023 A 
ATOM     72  C   UNL A   1      42.750  25.774  26.621  1.00  0.00     0.012 A 
ATOM     73  C   UNL A   1      42.206  23.869  27.964  1.00  0.00     0.148 A 
ATOM     74  C   UNL A   1      42.667  24.991  25.460  1.00  0.00     0.002 A 
ATOM     75  C   UNL A   1      42.134  23.082  26.810  1.00  0.00     0.091 A 
ATOM     76  F   UNL A   1      41.977  23.268  29.128  1.00  0.00    -0.205 F 
ATOM     77  C   UNL A   1      42.351  23.645  25.552  1.00  0.00     0.022 A 
BRANCH  75  78
ATOM     78  S   UNL A   1      41.718  21.325  26.857  1.00  0.00     0.127 S 
ATOM     79  O   UNL A   1      40.360  21.348  27.400  1.00  0.00    -0.237 OA
ATOM     80  O   UNL A   1      41.804  20.948  25.447  1.00  0.00    -0.237 OA
ATOM     81  O   UNL A   1      42.703  20.685  27.721  1.00  0.00    -0.744 OA
ENDBRANCH  75  78
ENDBRANCH  57  71
BRANCH  58  82
ATOM     82  C   UNL A   1      41.732  32.885  33.811  1.00  0.00     0.023 A 
ATOM     83  C   UNL A   1      41.377  34.227  33.532  1.00  0.00     0.012 A 
ATOM     84  C   UNL A   1      40.836  32.086  34.542  1.00  0.00     0.148 A 
ATOM     85  C   UNL A   1      40.109  34.716  33.849  1.00  0.00     0.002 A 
ATOM     86  C   UNL A   1      39.569  32.581  34.853  1.00  0.00     0.091 A 
ATOM     87  F   UNL A   1      41.197  30.831  34.842  1.00  0.00    -0.205 F 
ATOM     88  C   UNL A   1      39.192  33.880  34.475  1.00  0.00     0.022 A 
BRANCH  86  89
ATOM     89  S   UNL A   1      38.305  31.543  35.605  1.00  0.00     0.127 S 
ATOM     90  O   UNL A   1      37.099  32.328  35.361  1.00  0.00    -0.237 OA
ATOM     91  O   UNL A   1      38.407  30.311  34.823  1.00  0.00    -0.237 OA
ATOM     92  O   UNL A   1      38.715  31.401  36.993  1.00  0.00    -0.744 OA
ENDBRANCH  86  89
ENDBRANCH  58  82
BRANCH  70  93
ATOM     93  C   UNL A   1      45.680  26.821  33.578  1.00  0.00     0.023 A 
ATOM     94  C   UNL A   1      47.063  26.629  33.750  1.00  0.00     0.012 A 
ATOM     95  C   UNL A   1      44.832  25.934  34.297  1.00  0.00     0.148 A 
ATOM     96  C   UNL A   1      47.583  25.592  34.536  1.00  0.00     0.002 A 
ATOM     97  C   UNL A   1      45.353  24.979  35.169  1.00  0.00     0.091 A 
ATOM     98  F   UNL A   1      43.503  25.991  34.128  1.00  0.00    -0.205 F 
ATOM     99  C   UNL A   1      46.729  24.781  35.266  1.00  0.00     0.022 A 
BRANCH  97 100
ATOM    100  S   UNL A   1      44.282  24.091  36.312  1.00  0.00     0.127 S 
ATOM    101  O   UNL A   1      43.471  23.281  35.405  1.00  0.00    -0.237 OA
ATOM    102  O   UNL A   1      45.238  23.328  37.116  1.00  0.00    -0.237 OA
ATOM    103  O   UNL A   1      43.582  25.133  37.051  1.00  0.00    -0.744 OA
ENDBRANCH  97 100
ENDBRANCH  70  93
ENDBRANCH  44  45
ENDBRANCH  36  39
ENDBRANCH  34  35
ENDBRANCH  33  34
ENDBRANCH  32  33
ENDBRANCH   1  32
TORSDOF 19
ENDMDL
