MODEL 1
REMARK VINA RESULT:     -11.5      0.000      0.000
REMARK SMILES COc1cccc([C@@H]2C[N@@H+](Cc3nccn3C)C[C@H]2C(=O)NCCCCCCNC(=O)c2ccc(-c3c4nc(c(-c5cccc(S(=O)(=O)[O-])c5F)c5ccc([nH]5)c(-c5cccc(S(=O)(=O)[O-])c5F)c5nc(c(-c6cccc(S(=O)(=O)[O-])c6F)c6ccc3[nH]6)C=C5)C=C4)cc2)c1
REMARK SMILES IDX 26 1 25 2 24 3 23 4 22 5 20 6 21 7 19 9 8 10 9 11 10 12
REMARK SMILES IDX 18 13 7 15 3 16 4 17 95 18 5 19 6 20 2 21 1 22 11 23 12 24
REMARK SMILES IDX 13 25 16 26 14 27 15 28 17 29 27 30 28 31 29 32 30 33 31 35
REMARK SMILES IDX 32 36 33 37 94 38 34 39 93 40 35 41 36 42 37 43 87 44 38 45
REMARK SMILES IDX 92 46 86 47 88 48 39 49 91 50 85 51 84 52 40 54 72 55 52 56
REMARK SMILES IDX 71 57 53 58 56 59 70 60 89 61 54 62 55 63 69 65 90 66 57 67
REMARK SMILES IDX 41 68 42 69 50 70 43 71 45 72 51 73 44 74 46 75 47 76 48 77
REMARK SMILES IDX 49 78 73 79 74 80 82 81 75 82 77 83 83 84 76 85 78 86 79 87
REMARK SMILES IDX 80 88 81 89 58 90 59 91 67 92 60 93 62 94 68 95 61 96 63 97
REMARK SMILES IDX 64 98 65 99 66 100
REMARK H PARENT 22 8 10 14 29 34 88 53 56 64
REMARK Flexibility Score: inf
ROOT
ATOM      1  C   UNL A   1      36.673  19.835  24.941  1.00  0.00     0.002 C 
ENDROOT
BRANCH   1   2
ATOM      2  C   UNL A   1      36.447  21.324  25.225  1.00  0.00     0.002 C 
BRANCH   2   3
ATOM      3  C   UNL A   1      36.529  22.340  24.068  1.00  0.00     0.021 C 
BRANCH   3   4
ATOM      4  C   UNL A   1      35.814  23.693  24.272  1.00  0.00     0.116 C 
BRANCH   4   5
ATOM      5  N   UNL A   1      34.961  24.089  23.127  1.00  0.00    -0.356 N 
ATOM      6  C   UNL A   1      33.764  24.628  22.803  1.00  0.00     0.229 C 
ATOM      7  O   UNL A   1      33.914  25.467  21.887  1.00  0.00    -0.275 OA
ATOM      8  H   UNL A   1      35.446  23.886  22.295  1.00  0.00     0.163 HD
BRANCH   6   9
ATOM      9  C   UNL A   1      32.283  24.346  23.193  1.00  0.00     0.146 C 
ATOM     10  C   UNL A   1      31.982  23.795  24.592  1.00  0.00     0.092 C 
ATOM     11  C   UNL A   1      30.445  23.927  24.716  1.00  0.00     0.271 C 
ATOM     12  N   UNL A   1      30.021  25.027  23.836  1.00  0.00    -0.327 N 
ATOM     13  C   UNL A   1      31.077  25.217  22.826  1.00  0.00     0.277 C 
ATOM     14  H   UNL A   1      29.172  24.800  23.318  1.00  0.00     0.348 HD
BRANCH  10  15
ATOM     15  C   UNL A   1      32.418  22.352  24.812  1.00  0.00    -0.035 A 
ATOM     16  C   UNL A   1      32.674  20.052  24.017  1.00  0.00     0.119 A 
ATOM     17  C   UNL A   1      33.113  19.672  25.283  1.00  0.00     0.046 A 
ATOM     18  C   UNL A   1      32.324  21.384  23.789  1.00  0.00     0.050 A 
ATOM     19  C   UNL A   1      33.230  20.617  26.303  1.00  0.00     0.004 A 
ATOM     20  C   UNL A   1      32.884  21.949  26.069  1.00  0.00     0.004 A 
BRANCH  16  21
ATOM     21  O   UNL A   1      32.581  19.043  23.098  1.00  0.00    -0.497 OA
ATOM     22  C   UNL A   1      32.702  17.723  23.620  1.00  0.00     0.278 C 
ENDBRANCH  16  21
ENDBRANCH  10  15
BRANCH  12  23
ATOM     23  C   UNL A   1      29.548  26.212  24.580  1.00  0.00     0.339 C 
BRANCH  23  24
ATOM     24  C   UNL A   1      30.095  27.487  24.033  1.00  0.00     0.164 A 
ATOM     25  N   UNL A   1      29.504  28.243  23.123  1.00  0.00    -0.236 NA
ATOM     26  N   UNL A   1      31.125  28.168  24.622  1.00  0.00    -0.333 N 
ATOM     27  C   UNL A   1      29.978  29.503  23.333  1.00  0.00     0.131 A 
ATOM     28  C   UNL A   1      30.910  29.484  24.338  1.00  0.00     0.107 A 
ATOM     29  C   UNL A   1      32.143  27.626  25.484  1.00  0.00     0.151 C 
ENDBRANCH  23  24
ENDBRANCH  12  23
ENDBRANCH   6   9
ENDBRANCH   4   5
ENDBRANCH   3   4
ENDBRANCH   2   3
ENDBRANCH   1   2
BRANCH   1  30
ATOM     30  C   UNL A   1      38.108  19.301  24.952  1.00  0.00     0.021 C 
BRANCH  30  31
ATOM     31  C   UNL A   1      39.104  19.989  25.887  1.00  0.00     0.116 C 
BRANCH  31  32
ATOM     32  N   UNL A   1      40.323  19.217  26.077  1.00  0.00    -0.352 N 
ATOM     33  C   UNL A   1      41.616  19.619  26.277  1.00  0.00     0.251 C 
ATOM     34  H   UNL A   1      40.196  18.241  26.059  1.00  0.00     0.163 HD
ATOM     35  O   UNL A   1      42.523  18.783  26.207  1.00  0.00    -0.269 OA
BRANCH  33  36
ATOM     36  C   UNL A   1      41.945  21.028  26.567  1.00  0.00     0.039 A 
ATOM     37  C   UNL A   1      42.226  21.398  27.887  1.00  0.00     0.014 A 
ATOM     38  C   UNL A   1      41.925  21.997  25.560  1.00  0.00     0.014 A 
ATOM     39  C   UNL A   1      42.542  22.724  28.186  1.00  0.00     0.010 A 
ATOM     40  C   UNL A   1      42.303  23.307  25.849  1.00  0.00     0.010 A 
ATOM     41  C   UNL A   1      42.612  23.685  27.164  1.00  0.00    -0.014 A 
BRANCH  41  42
ATOM     42  C   UNL A   1      43.037  25.078  27.455  1.00  0.00     0.031 A 
ATOM     43  C   UNL A   1      42.079  26.056  28.079  1.00  0.00     0.074 A 
ATOM     44  C   UNL A   1      44.269  25.480  27.081  1.00  0.00     0.049 A 
ATOM     45  N   UNL A   1      42.266  27.317  28.373  1.00  0.00    -0.248 NA
ATOM     46  C   UNL A   1      40.729  25.563  28.394  1.00  0.00     0.031 C 
ATOM     47  C   UNL A   1      45.255  24.643  26.394  1.00  0.00     0.029 A 
ATOM     48  N   UNL A   1      44.892  26.697  27.198  1.00  0.00    -0.354 N 
ATOM     49  C   UNL A   1      41.053  27.777  28.872  1.00  0.00     0.074 A 
ATOM     50  C   UNL A   1      40.127  26.667  28.817  1.00  0.00     0.031 C 
ATOM     51  C   UNL A   1      46.357  25.370  26.150  1.00  0.00     0.029 A 
ATOM     52  C   UNL A   1      46.146  26.730  26.631  1.00  0.00     0.049 A 
ATOM     53  H   UNL A   1      44.481  27.473  27.643  1.00  0.00     0.167 HD
ATOM     54  C   UNL A   1      40.745  29.006  29.351  1.00  0.00     0.034 A 
ATOM     55  C   UNL A   1      47.022  27.746  26.503  1.00  0.00     0.034 A 
ATOM     56  C   UNL A   1      41.682  30.095  29.431  1.00  0.00     0.049 A 
ATOM     57  C   UNL A   1      46.666  29.089  27.080  1.00  0.00     0.074 A 
ATOM     58  C   UNL A   1      41.498  31.347  29.990  1.00  0.00     0.029 A 
ATOM     59  N   UNL A   1      42.972  30.068  28.923  1.00  0.00    -0.354 N 
ATOM     60  N   UNL A   1      45.574  29.454  27.707  1.00  0.00    -0.248 NA
ATOM     61  C   UNL A   1      47.677  30.150  26.967  1.00  0.00     0.031 C 
ATOM     62  C   UNL A   1      42.666  32.090  29.788  1.00  0.00     0.029 A 
ATOM     63  C   UNL A   1      43.590  31.288  29.138  1.00  0.00     0.049 A 
ATOM     64  H   UNL A   1      43.387  29.296  28.476  1.00  0.00     0.167 HD
ATOM     65  C   UNL A   1      45.776  30.774  28.089  1.00  0.00     0.074 A 
ATOM     66  C   UNL A   1      47.108  31.135  27.648  1.00  0.00     0.031 C 
ATOM     67  C   UNL A   1      44.933  31.618  28.732  1.00  0.00     0.034 A 
BRANCH  54  68
ATOM     68  C   UNL A   1      39.349  29.233  29.869  1.00  0.00     0.023 A 
ATOM     69  C   UNL A   1      38.993  28.764  31.150  1.00  0.00     0.012 A 
ATOM     70  C   UNL A   1      38.413  29.978  29.124  1.00  0.00     0.148 A 
ATOM     71  C   UNL A   1      37.721  29.003  31.669  1.00  0.00     0.002 A 
ATOM     72  C   UNL A   1      37.162  30.253  29.667  1.00  0.00     0.091 A 
ATOM     73  F   UNL A   1      38.762  30.402  27.901  1.00  0.00    -0.205 F 
ATOM     74  C   UNL A   1      36.811  29.757  30.932  1.00  0.00     0.022 A 
BRANCH  72  75
ATOM     75  S   UNL A   1      35.949  31.284  28.835  1.00  0.00     0.127 S 
ATOM     76  O   UNL A   1      36.745  32.470  28.511  1.00  0.00    -0.237 OA
ATOM     77  O   UNL A   1      35.590  30.461  27.679  1.00  0.00    -0.237 OA
ATOM     78  O   UNL A   1      34.876  31.498  29.790  1.00  0.00    -0.744 OA
ENDBRANCH  72  75
ENDBRANCH  54  68
BRANCH  55  79
ATOM     79  C   UNL A   1      48.339  27.518  25.840  1.00  0.00     0.023 A 
ATOM     80  C   UNL A   1      49.458  27.166  26.620  1.00  0.00     0.012 A 
ATOM     81  C   UNL A   1      48.481  27.624  24.443  1.00  0.00     0.148 A 
ATOM     82  C   UNL A   1      50.704  26.964  26.024  1.00  0.00     0.002 A 
ATOM     83  C   UNL A   1      49.712  27.362  23.851  1.00  0.00     0.091 A 
ATOM     84  F   UNL A   1      47.407  27.969  23.719  1.00  0.00    -0.205 F 
ATOM     85  C   UNL A   1      50.828  27.052  24.640  1.00  0.00     0.022 A 
BRANCH  83  86
ATOM     86  S   UNL A   1      49.922  27.314  22.067  1.00  0.00     0.127 S 
ATOM     87  O   UNL A   1      49.684  28.711  21.701  1.00  0.00    -0.237 OA
ATOM     88  O   UNL A   1      51.318  26.879  21.941  1.00  0.00    -0.237 OA
ATOM     89  O   UNL A   1      48.953  26.355  21.578  1.00  0.00    -0.744 OA
ENDBRANCH  83  86
ENDBRANCH  55  79
BRANCH  67  90
ATOM     90  C   UNL A   1      45.430  33.008  29.030  1.00  0.00     0.023 A 
ATOM     91  C   UNL A   1      46.146  33.260  30.217  1.00  0.00     0.012 A 
ATOM     92  C   UNL A   1      45.248  34.049  28.097  1.00  0.00     0.148 A 
ATOM     93  C   UNL A   1      46.639  34.535  30.488  1.00  0.00     0.002 A 
ATOM     94  C   UNL A   1      45.789  35.302  28.350  1.00  0.00     0.091 A 
ATOM     95  F   UNL A   1      44.550  33.793  26.981  1.00  0.00    -0.205 F 
ATOM     96  C   UNL A   1      46.472  35.552  29.551  1.00  0.00     0.022 A 
BRANCH  94  97
ATOM     97  S   UNL A   1      45.709  36.646  27.159  1.00  0.00     0.127 S 
ATOM     98  O   UNL A   1      46.444  37.702  27.853  1.00  0.00    -0.237 OA
ATOM     99  O   UNL A   1      46.403  36.076  26.004  1.00  0.00    -0.237 OA
ATOM    100  O   UNL A   1      44.293  36.910  26.944  1.00  0.00    -0.744 OA
ENDBRANCH  94  97
ENDBRANCH  67  90
ENDBRANCH  41  42
ENDBRANCH  33  36
ENDBRANCH  31  32
ENDBRANCH  30  31
ENDBRANCH   1  30
TORSDOF 20
ENDMDL
MODEL 2
REMARK VINA RESULT:     -11.4      6.025     11.316
REMARK SMILES COc1cccc([C@@H]2C[N@@H+](Cc3nccn3C)C[C@H]2C(=O)NCCCCCCNC(=O)c2ccc(-c3c4nc(c(-c5cccc(S(=O)(=O)[O-])c5F)c5ccc([nH]5)c(-c5cccc(S(=O)(=O)[O-])c5F)c5nc(c(-c6cccc(S(=O)(=O)[O-])c6F)c6ccc3[nH]6)C=C5)C=C4)cc2)c1
REMARK SMILES IDX 26 1 25 2 24 3 23 4 22 5 20 6 21 7 19 9 8 10 9 11 10 12
REMARK SMILES IDX 18 13 7 15 3 16 4 17 95 18 5 19 6 20 2 21 1 22 11 23 12 24
REMARK SMILES IDX 13 25 16 26 14 27 15 28 17 29 27 30 28 31 29 32 30 33 31 35
REMARK SMILES IDX 32 36 33 37 94 38 34 39 93 40 35 41 36 42 37 43 87 44 38 45
REMARK SMILES IDX 92 46 86 47 88 48 39 49 91 50 85 51 84 52 40 54 72 55 52 56
REMARK SMILES IDX 71 57 53 58 56 59 70 60 89 61 54 62 55 63 69 65 90 66 57 67
REMARK SMILES IDX 41 68 42 69 50 70 43 71 45 72 51 73 44 74 46 75 47 76 48 77
REMARK SMILES IDX 49 78 73 79 74 80 82 81 75 82 77 83 83 84 76 85 78 86 79 87
REMARK SMILES IDX 80 88 81 89 58 90 59 91 67 92 60 93 62 94 68 95 61 96 63 97
REMARK SMILES IDX 64 98 65 99 66 100
REMARK H PARENT 22 8 10 14 29 34 88 53 56 64
REMARK Flexibility Score: inf
ROOT
ATOM      1  C   UNL A   1      31.551  30.259  26.073  1.00  0.00     0.002 C 
ENDROOT
BRANCH   1   2
ATOM      2  C   UNL A   1      31.760  29.185  27.146  1.00  0.00     0.002 C 
BRANCH   2   3
ATOM      3  C   UNL A   1      32.091  27.740  26.721  1.00  0.00     0.021 C 
BRANCH   3   4
ATOM      4  C   UNL A   1      30.973  26.947  26.009  1.00  0.00     0.116 C 
BRANCH   4   5
ATOM      5  N   UNL A   1      30.843  25.551  26.490  1.00  0.00    -0.356 N 
ATOM      6  C   UNL A   1      31.399  24.321  26.409  1.00  0.00     0.229 C 
ATOM      7  O   UNL A   1      31.456  23.810  27.549  1.00  0.00    -0.275 OA
ATOM      8  H   UNL A   1      30.064  25.501  27.090  1.00  0.00     0.163 HD
BRANCH   6   9
ATOM      9  C   UNL A   1      31.829  23.376  25.247  1.00  0.00     0.146 C 
ATOM     10  C   UNL A   1      33.130  23.680  24.496  1.00  0.00     0.092 C 
ATOM     11  C   UNL A   1      33.373  22.405  23.652  1.00  0.00     0.271 C 
ATOM     12  N   UNL A   1      32.722  21.283  24.346  1.00  0.00    -0.327 N 
ATOM     13  C   UNL A   1      31.694  21.850  25.237  1.00  0.00     0.277 C 
ATOM     14  H   UNL A   1      32.229  20.665  23.701  1.00  0.00     0.348 HD
BRANCH  10  15
ATOM     15  C   UNL A   1      33.073  24.913  23.602  1.00  0.00    -0.035 A 
ATOM     16  C   UNL A   1      32.416  26.012  21.518  1.00  0.00     0.119 A 
ATOM     17  C   UNL A   1      33.090  27.162  21.922  1.00  0.00     0.046 A 
ATOM     18  C   UNL A   1      32.416  24.894  22.353  1.00  0.00     0.050 A 
ATOM     19  C   UNL A   1      33.731  27.207  23.160  1.00  0.00     0.004 A 
ATOM     20  C   UNL A   1      33.723  26.088  23.996  1.00  0.00     0.004 A 
BRANCH  16  21
ATOM     21  O   UNL A   1      31.839  26.072  20.279  1.00  0.00    -0.497 OA
ATOM     22  C   UNL A   1      32.529  25.378  19.244  1.00  0.00     0.278 C 
ENDBRANCH  16  21
ENDBRANCH  10  15
BRANCH  12  23
ATOM     23  C   UNL A   1      33.686  20.322  24.920  1.00  0.00     0.339 C 
BRANCH  23  24
ATOM     24  C   UNL A   1      34.961  20.972  25.340  1.00  0.00     0.164 A 
ATOM     25  N   UNL A   1      36.036  21.107  24.581  1.00  0.00    -0.236 NA
ATOM     26  N   UNL A   1      35.063  21.762  26.452  1.00  0.00    -0.333 N 
ATOM     27  C   UNL A   1      36.692  22.196  25.069  1.00  0.00     0.131 A 
ATOM     28  C   UNL A   1      36.034  22.676  26.172  1.00  0.00     0.107 A 
ATOM     29  C   UNL A   1      34.220  21.728  27.620  1.00  0.00     0.151 C 
ENDBRANCH  23  24
ENDBRANCH  12  23
ENDBRANCH   6   9
ENDBRANCH   4   5
ENDBRANCH   3   4
ENDBRANCH   2   3
ENDBRANCH   1   2
BRANCH   1  30
ATOM     30  C   UNL A   1      31.492  31.725  26.511  1.00  0.00     0.021 C 
BRANCH  30  31
ATOM     31  C   UNL A   1      32.745  32.312  27.161  1.00  0.00     0.116 C 
BRANCH  31  32
ATOM     32  N   UNL A   1      32.581  33.707  27.543  1.00  0.00    -0.352 N 
ATOM     33  C   UNL A   1      33.185  34.444  28.525  1.00  0.00     0.251 C 
ATOM     34  H   UNL A   1      31.924  34.204  27.003  1.00  0.00     0.163 HD
ATOM     35  O   UNL A   1      32.736  35.562  28.799  1.00  0.00    -0.269 OA
BRANCH  33  36
ATOM     36  C   UNL A   1      34.354  33.928  29.263  1.00  0.00     0.039 A 
ATOM     37  C   UNL A   1      34.143  33.049  30.331  1.00  0.00     0.014 A 
ATOM     38  C   UNL A   1      35.650  34.344  28.946  1.00  0.00     0.014 A 
ATOM     39  C   UNL A   1      35.233  32.545  31.043  1.00  0.00     0.010 A 
ATOM     40  C   UNL A   1      36.740  33.791  29.616  1.00  0.00     0.010 A 
ATOM     41  C   UNL A   1      36.544  32.889  30.672  1.00  0.00    -0.014 A 
BRANCH  41  42
ATOM     42  C   UNL A   1      37.714  32.288  31.362  1.00  0.00     0.031 A 
ATOM     43  C   UNL A   1      38.465  31.143  30.740  1.00  0.00     0.074 A 
ATOM     44  C   UNL A   1      38.047  32.730  32.592  1.00  0.00     0.049 A 
ATOM     45  N   UNL A   1      39.485  30.475  31.213  1.00  0.00    -0.248 NA
ATOM     46  C   UNL A   1      37.996  30.669  29.428  1.00  0.00     0.031 C 
ATOM     47  C   UNL A   1      37.341  33.779  33.330  1.00  0.00     0.029 A 
ATOM     48  N   UNL A   1      39.043  32.335  33.450  1.00  0.00    -0.354 N 
ATOM     49  C   UNL A   1      39.759  29.484  30.278  1.00  0.00     0.074 A 
ATOM     50  C   UNL A   1      38.780  29.619  29.221  1.00  0.00     0.031 C 
ATOM     51  C   UNL A   1      37.924  33.944  34.529  1.00  0.00     0.029 A 
ATOM     52  C   UNL A   1      39.022  32.993  34.658  1.00  0.00     0.049 A 
ATOM     53  H   UNL A   1      39.708  31.645  33.223  1.00  0.00     0.167 HD
ATOM     54  C   UNL A   1      40.748  28.558  30.288  1.00  0.00     0.034 A 
ATOM     55  C   UNL A   1      39.793  32.839  35.753  1.00  0.00     0.034 A 
ATOM     56  C   UNL A   1      41.737  28.452  31.328  1.00  0.00     0.049 A 
ATOM     57  C   UNL A   1      40.908  31.830  35.719  1.00  0.00     0.074 A 
ATOM     58  C   UNL A   1      42.837  27.615  31.385  1.00  0.00     0.029 A 
ATOM     59  N   UNL A   1      41.736  29.192  32.501  1.00  0.00    -0.354 N 
ATOM     60  N   UNL A   1      41.258  31.020  34.749  1.00  0.00    -0.248 NA
ATOM     61  C   UNL A   1      41.758  31.739  36.915  1.00  0.00     0.031 C 
ATOM     62  C   UNL A   1      43.481  27.824  32.609  1.00  0.00     0.029 A 
ATOM     63  C   UNL A   1      42.804  28.818  33.297  1.00  0.00     0.049 A 
ATOM     64  H   UNL A   1      41.072  29.881  32.733  1.00  0.00     0.167 HD
ATOM     65  C   UNL A   1      42.385  30.346  35.203  1.00  0.00     0.074 A 
ATOM     66  C   UNL A   1      42.675  30.864  36.525  1.00  0.00     0.031 C 
ATOM     67  C   UNL A   1      43.106  29.375  34.591  1.00  0.00     0.034 A 
BRANCH  54  68
ATOM     68  C   UNL A   1      40.843  27.611  29.120  1.00  0.00     0.023 A 
ATOM     69  C   UNL A   1      40.005  26.478  29.070  1.00  0.00     0.012 A 
ATOM     70  C   UNL A   1      41.701  27.882  28.036  1.00  0.00     0.148 A 
ATOM     71  C   UNL A   1      40.042  25.612  27.977  1.00  0.00     0.002 A 
ATOM     72  C   UNL A   1      41.699  27.041  26.929  1.00  0.00     0.091 A 
ATOM     73  F   UNL A   1      42.503  28.954  28.108  1.00  0.00    -0.205 F 
ATOM     74  C   UNL A   1      40.880  25.901  26.903  1.00  0.00     0.022 A 
BRANCH  72  75
ATOM     75  S   UNL A   1      42.679  27.369  25.459  1.00  0.00     0.127 S 
ATOM     76  O   UNL A   1      44.021  27.514  26.028  1.00  0.00    -0.237 OA
ATOM     77  O   UNL A   1      42.481  26.145  24.681  1.00  0.00    -0.237 OA
ATOM     78  O   UNL A   1      42.124  28.570  24.861  1.00  0.00    -0.744 OA
ENDBRANCH  72  75
ENDBRANCH  54  68
BRANCH  55  79
ATOM     79  C   UNL A   1      39.565  33.694  36.954  1.00  0.00     0.023 A 
ATOM     80  C   UNL A   1      40.009  35.031  36.950  1.00  0.00     0.012 A 
ATOM     81  C   UNL A   1      38.891  33.198  38.087  1.00  0.00     0.148 A 
ATOM     82  C   UNL A   1      39.823  35.845  38.068  1.00  0.00     0.002 A 
ATOM     83  C   UNL A   1      38.656  34.033  39.173  1.00  0.00     0.091 A 
ATOM     84  F   UNL A   1      38.485  31.920  38.075  1.00  0.00    -0.205 F 
ATOM     85  C   UNL A   1      39.137  35.350  39.174  1.00  0.00     0.022 A 
BRANCH  83  86
ATOM     86  S   UNL A   1      37.658  33.517  40.576  1.00  0.00     0.127 S 
ATOM     87  O   UNL A   1      38.516  32.503  41.193  1.00  0.00    -0.237 OA
ATOM     88  O   UNL A   1      37.543  34.766  41.338  1.00  0.00    -0.237 OA
ATOM     89  O   UNL A   1      36.409  33.040  40.021  1.00  0.00    -0.744 OA
ENDBRANCH  83  86
ENDBRANCH  55  79
BRANCH  67  90
ATOM     90  C   UNL A   1      44.301  28.825  35.326  1.00  0.00     0.023 A 
ATOM     91  C   UNL A   1      45.574  29.390  35.119  1.00  0.00     0.012 A 
ATOM     92  C   UNL A   1      44.146  27.795  36.275  1.00  0.00     0.148 A 
ATOM     93  C   UNL A   1      46.682  28.912  35.817  1.00  0.00     0.002 A 
ATOM     94  C   UNL A   1      45.245  27.361  37.005  1.00  0.00     0.091 A 
ATOM     95  F   UNL A   1      42.928  27.260  36.446  1.00  0.00    -0.205 F 
ATOM     96  C   UNL A   1      46.516  27.908  36.768  1.00  0.00     0.022 A 
BRANCH  94  97
ATOM     97  S   UNL A   1      45.110  26.142  38.318  1.00  0.00     0.127 S 
ATOM     98  O   UNL A   1      44.238  26.827  39.271  1.00  0.00    -0.237 OA
ATOM     99  O   UNL A   1      44.491  25.011  37.628  1.00  0.00    -0.237 OA
ATOM    100  O   UNL A   1      46.469  25.897  38.782  1.00  0.00    -0.744 OA
ENDBRANCH  94  97
ENDBRANCH  67  90
ENDBRANCH  41  42
ENDBRANCH  33  36
ENDBRANCH  31  32
ENDBRANCH  30  31
ENDBRANCH   1  30
TORSDOF 20
ENDMDL
MODEL 3
REMARK VINA RESULT:     -11.3      1.661      4.003
REMARK SMILES COc1cccc([C@@H]2C[N@@H+](Cc3nccn3C)C[C@H]2C(=O)NCCCCCCNC(=O)c2ccc(-c3c4nc(c(-c5cccc(S(=O)(=O)[O-])c5F)c5ccc([nH]5)c(-c5cccc(S(=O)(=O)[O-])c5F)c5nc(c(-c6cccc(S(=O)(=O)[O-])c6F)c6ccc3[nH]6)C=C5)C=C4)cc2)c1
REMARK SMILES IDX 26 1 25 2 24 3 23 4 22 5 20 6 21 7 19 9 8 10 9 11 10 12
REMARK SMILES IDX 18 13 7 15 3 16 4 17 95 18 5 19 6 20 2 21 1 22 11 23 12 24
REMARK SMILES IDX 13 25 16 26 14 27 15 28 17 29 27 30 28 31 29 32 30 33 31 35
REMARK SMILES IDX 32 36 33 37 94 38 34 39 93 40 35 41 36 42 37 43 87 44 38 45
REMARK SMILES IDX 92 46 86 47 88 48 39 49 91 50 85 51 84 52 40 54 72 55 52 56
REMARK SMILES IDX 71 57 53 58 56 59 70 60 89 61 54 62 55 63 69 65 90 66 57 67
REMARK SMILES IDX 41 68 42 69 50 70 43 71 45 72 51 73 44 74 46 75 47 76 48 77
REMARK SMILES IDX 49 78 73 79 74 80 82 81 75 82 77 83 83 84 76 85 78 86 79 87
REMARK SMILES IDX 80 88 81 89 58 90 59 91 67 92 60 93 62 94 68 95 61 96 63 97
REMARK SMILES IDX 64 98 65 99 66 100
REMARK H PARENT 22 8 10 14 29 34 88 53 56 64
REMARK Flexibility Score: inf
ROOT
ATOM      1  C   UNL A   1      37.937  21.355  24.938  1.00  0.00     0.002 C 
ENDROOT
BRANCH   1   2
ATOM      2  C   UNL A   1      38.425  22.434  25.910  1.00  0.00     0.002 C 
BRANCH   2   3
ATOM      3  C   UNL A   1      37.589  23.714  26.107  1.00  0.00     0.021 C 
BRANCH   3   4
ATOM      4  C   UNL A   1      36.199  23.752  25.436  1.00  0.00     0.116 C 
BRANCH   4   5
ATOM      5  N   UNL A   1      35.121  23.184  26.278  1.00  0.00    -0.356 N 
ATOM      6  C   UNL A   1      34.231  22.169  26.360  1.00  0.00     0.229 C 
ATOM      7  O   UNL A   1      34.219  21.714  27.525  1.00  0.00    -0.275 OA
ATOM      8  H   UNL A   1      35.012  23.757  27.071  1.00  0.00     0.163 HD
BRANCH   6   9
ATOM      9  C   UNL A   1      33.155  21.562  25.410  1.00  0.00     0.146 C 
ATOM     10  C   UNL A   1      33.202  21.922  23.921  1.00  0.00     0.092 C 
ATOM     11  C   UNL A   1      32.207  20.929  23.272  1.00  0.00     0.271 C 
ATOM     12  N   UNL A   1      32.147  19.735  24.130  1.00  0.00    -0.327 N 
ATOM     13  C   UNL A   1      32.610  20.132  25.472  1.00  0.00     0.277 C 
ATOM     14  H   UNL A   1      31.193  19.394  24.248  1.00  0.00     0.348 HD
BRANCH  10  15
ATOM     15  C   UNL A   1      32.813  23.360  23.603  1.00  0.00    -0.035 A 
ATOM     16  C   UNL A   1      31.242  25.229  23.749  1.00  0.00     0.119 A 
ATOM     17  C   UNL A   1      32.059  25.971  22.899  1.00  0.00     0.046 A 
ATOM     18  C   UNL A   1      31.617  23.929  24.091  1.00  0.00     0.050 A 
ATOM     19  C   UNL A   1      33.254  25.433  22.421  1.00  0.00     0.004 A 
ATOM     20  C   UNL A   1      33.628  24.134  22.770  1.00  0.00     0.004 A 
BRANCH  16  21
ATOM     21  O   UNL A   1      30.087  25.848  24.143  1.00  0.00    -0.497 OA
ATOM     22  C   UNL A   1      29.808  27.093  23.511  1.00  0.00     0.278 C 
ENDBRANCH  16  21
ENDBRANCH  10  15
BRANCH  12  23
ATOM     23  C   UNL A   1      32.760  18.545  23.506  1.00  0.00     0.339 C 
BRANCH  23  24
ATOM     24  C   UNL A   1      33.115  17.495  24.504  1.00  0.00     0.164 A 
ATOM     25  N   UNL A   1      32.276  16.603  25.005  1.00  0.00    -0.236 NA
ATOM     26  N   UNL A   1      34.406  17.147  24.792  1.00  0.00    -0.333 N 
ATOM     27  C   UNL A   1      33.048  15.541  25.366  1.00  0.00     0.131 A 
ATOM     28  C   UNL A   1      34.368  15.829  25.137  1.00  0.00     0.107 A 
ATOM     29  C   UNL A   1      35.582  17.962  24.624  1.00  0.00     0.151 C 
ENDBRANCH  23  24
ENDBRANCH  12  23
ENDBRANCH   6   9
ENDBRANCH   4   5
ENDBRANCH   3   4
ENDBRANCH   2   3
ENDBRANCH   1   2
BRANCH   1  30
ATOM     30  C   UNL A   1      38.600  19.975  24.987  1.00  0.00     0.021 C 
BRANCH  30  31
ATOM     31  C   UNL A   1      39.188  19.528  26.325  1.00  0.00     0.116 C 
BRANCH  31  32
ATOM     32  N   UNL A   1      40.456  18.830  26.177  1.00  0.00    -0.352 N 
ATOM     33  C   UNL A   1      41.737  19.305  26.094  1.00  0.00     0.251 C 
ATOM     34  H   UNL A   1      40.380  17.849  26.129  1.00  0.00     0.163 HD
ATOM     35  O   UNL A   1      42.644  18.534  25.763  1.00  0.00    -0.269 OA
BRANCH  33  36
ATOM     36  C   UNL A   1      42.052  20.717  26.386  1.00  0.00     0.039 A 
ATOM     37  C   UNL A   1      42.316  21.091  27.708  1.00  0.00     0.014 A 
ATOM     38  C   UNL A   1      42.034  21.685  25.377  1.00  0.00     0.014 A 
ATOM     39  C   UNL A   1      42.618  22.420  28.009  1.00  0.00     0.010 A 
ATOM     40  C   UNL A   1      42.398  22.998  25.668  1.00  0.00     0.010 A 
ATOM     41  C   UNL A   1      42.691  23.381  26.986  1.00  0.00    -0.014 A 
BRANCH  41  42
ATOM     42  C   UNL A   1      43.101  24.777  27.280  1.00  0.00     0.031 A 
ATOM     43  C   UNL A   1      42.132  25.746  27.901  1.00  0.00     0.074 A 
ATOM     44  C   UNL A   1      44.330  25.191  26.910  1.00  0.00     0.049 A 
ATOM     45  N   UNL A   1      42.306  27.008  28.196  1.00  0.00    -0.248 NA
ATOM     46  C   UNL A   1      40.785  25.240  28.210  1.00  0.00     0.031 C 
ATOM     47  C   UNL A   1      45.327  24.364  26.226  1.00  0.00     0.029 A 
ATOM     48  N   UNL A   1      44.942  26.414  27.030  1.00  0.00    -0.354 N 
ATOM     49  C   UNL A   1      41.087  27.456  28.691  1.00  0.00     0.074 A 
ATOM     50  C   UNL A   1      40.172  26.337  28.633  1.00  0.00     0.031 C 
ATOM     51  C   UNL A   1      46.423  25.102  25.986  1.00  0.00     0.029 A 
ATOM     52  C   UNL A   1      46.197  26.460  26.468  1.00  0.00     0.049 A 
ATOM     53  H   UNL A   1      44.521  27.186  27.474  1.00  0.00     0.167 HD
ATOM     54  C   UNL A   1      40.765  28.682  29.170  1.00  0.00     0.034 A 
ATOM     55  C   UNL A   1      47.063  27.484  26.343  1.00  0.00     0.034 A 
ATOM     56  C   UNL A   1      41.691  29.779  29.254  1.00  0.00     0.049 A 
ATOM     57  C   UNL A   1      46.692  28.823  26.920  1.00  0.00     0.074 A 
ATOM     58  C   UNL A   1      41.493  31.029  29.813  1.00  0.00     0.029 A 
ATOM     59  N   UNL A   1      42.983  29.765  28.751  1.00  0.00    -0.354 N 
ATOM     60  N   UNL A   1      45.595  29.177  27.543  1.00  0.00    -0.248 NA
ATOM     61  C   UNL A   1      47.694  29.894  26.810  1.00  0.00     0.031 C 
ATOM     62  C   UNL A   1      42.655  31.784  29.615  1.00  0.00     0.029 A 
ATOM     63  C   UNL A   1      43.588  30.991  28.968  1.00  0.00     0.049 A 
ATOM     64  H   UNL A   1      43.407  28.998  28.305  1.00  0.00     0.167 HD
ATOM     65  C   UNL A   1      45.783  30.499  27.926  1.00  0.00     0.074 A 
ATOM     66  C   UNL A   1      47.113  30.873  27.491  1.00  0.00     0.031 C 
ATOM     67  C   UNL A   1      44.929  31.334  28.568  1.00  0.00     0.034 A 
BRANCH  54  68
ATOM     68  C   UNL A   1      39.365  28.895  29.683  1.00  0.00     0.023 A 
ATOM     69  C   UNL A   1      39.032  28.494  30.994  1.00  0.00     0.012 A 
ATOM     70  C   UNL A   1      38.401  29.562  28.901  1.00  0.00     0.148 A 
ATOM     71  C   UNL A   1      37.755  28.724  31.506  1.00  0.00     0.002 A 
ATOM     72  C   UNL A   1      37.145  29.829  29.435  1.00  0.00     0.091 A 
ATOM     73  F   UNL A   1      38.729  29.920  27.652  1.00  0.00    -0.205 F 
ATOM     74  C   UNL A   1      36.817  29.401  30.731  1.00  0.00     0.022 A 
BRANCH  72  75
ATOM     75  S   UNL A   1      35.894  30.767  28.550  1.00  0.00     0.127 S 
ATOM     76  O   UNL A   1      35.275  29.726  27.727  1.00  0.00    -0.237 OA
ATOM     77  O   UNL A   1      35.051  31.257  29.642  1.00  0.00    -0.237 OA
ATOM     78  O   UNL A   1      36.605  31.800  27.817  1.00  0.00    -0.744 OA
ENDBRANCH  72  75
ENDBRANCH  54  68
BRANCH  55  79
ATOM     79  C   UNL A   1      48.384  27.269  25.684  1.00  0.00     0.023 A 
ATOM     80  C   UNL A   1      49.488  26.858  26.457  1.00  0.00     0.012 A 
ATOM     81  C   UNL A   1      48.546  27.446  24.296  1.00  0.00     0.148 A 
ATOM     82  C   UNL A   1      50.738  26.667  25.867  1.00  0.00     0.002 A 
ATOM     83  C   UNL A   1      49.780  27.195  23.706  1.00  0.00     0.091 A 
ATOM     84  F   UNL A   1      47.487  27.847  23.579  1.00  0.00    -0.205 F 
ATOM     85  C   UNL A   1      50.881  26.825  24.491  1.00  0.00     0.022 A 
BRANCH  83  86
ATOM     86  S   UNL A   1      50.012  27.237  21.924  1.00  0.00     0.127 S 
ATOM     87  O   UNL A   1      48.967  26.319  21.467  1.00  0.00    -0.237 OA
ATOM     88  O   UNL A   1      49.760  28.650  21.621  1.00  0.00    -0.237 OA
ATOM     89  O   UNL A   1      51.377  26.812  21.692  1.00  0.00    -0.744 OA
ENDBRANCH  83  86
ENDBRANCH  55  79
BRANCH  67  90
ATOM     90  C   UNL A   1      45.412  32.729  28.867  1.00  0.00     0.023 A 
ATOM     91  C   UNL A   1      46.096  32.993  30.070  1.00  0.00     0.012 A 
ATOM     92  C   UNL A   1      45.249  33.762  27.923  1.00  0.00     0.148 A 
ATOM     93  C   UNL A   1      46.576  34.272  30.346  1.00  0.00     0.002 A 
ATOM     94  C   UNL A   1      45.777  35.020  28.181  1.00  0.00     0.091 A 
ATOM     95  F   UNL A   1      44.582  33.495  26.791  1.00  0.00    -0.205 F 
ATOM     96  C   UNL A   1      46.428  35.281  29.397  1.00  0.00     0.022 A 
BRANCH  94  97
ATOM     97  S   UNL A   1      45.722  36.354  26.979  1.00  0.00     0.127 S 
ATOM     98  O   UNL A   1      44.284  36.595  26.868  1.00  0.00    -0.237 OA
ATOM     99  O   UNL A   1      46.468  37.414  27.658  1.00  0.00    -0.237 OA
ATOM    100  O   UNL A   1      46.362  35.840  25.776  1.00  0.00    -0.744 OA
ENDBRANCH  94  97
ENDBRANCH  67  90
ENDBRANCH  41  42
ENDBRANCH  33  36
ENDBRANCH  31  32
ENDBRANCH  30  31
ENDBRANCH   1  30
TORSDOF 20
ENDMDL
