MODEL 1
REMARK VINA RESULT:     -11.8      0.000      0.000
REMARK SMILES Cc1ccccc1-c1nc(CC(=O)NCCCCCCNC(=O)c2ccc(-c3c4nc(c(-c5cccc(S(=O)(=O)[O-])c5F)c5ccc([nH]5)c(-c5cccc(S(=O)(=O)[O-])c5F)c5nc(c(-c6cccc(S(=O)(=O)[O-])c6F)c6ccc3[nH]6)C=C5)C=C4)cc2)cs1
REMARK SMILES IDX 18 1 17 2 16 3 15 4 14 5 12 6 13 7 11 9 10 10 8 11 9 12
REMARK SMILES IDX 88 13 87 14 7 15 1 16 2 17 3 18 4 19 6 20 5 21 19 22 20 23
REMARK SMILES IDX 21 24 22 25 23 27 24 28 25 29 86 30 26 31 85 32 27 33 28 34
REMARK SMILES IDX 29 35 79 36 30 37 84 38 78 39 80 40 31 41 83 42 77 43 76 44
REMARK SMILES IDX 32 46 64 47 44 48 63 49 45 50 48 51 62 52 81 53 46 54 47 55
REMARK SMILES IDX 61 57 82 58 49 59 33 60 34 61 42 62 35 63 37 64 43 65 36 66
REMARK SMILES IDX 38 67 39 68 40 69 41 70 65 71 66 72 74 73 67 74 69 75 75 76
REMARK SMILES IDX 68 77 70 78 71 79 72 80 73 81 50 82 51 83 59 84 52 85 54 86
REMARK SMILES IDX 60 87 53 88 55 89 56 90 57 91 58 92
REMARK H PARENT 14 8 21 26 80 45 48 56
REMARK Flexibility Score: inf
ROOT
ATOM      1  C   UNL A   1      32.137  30.215  25.525  1.00  0.00     0.002 C 
ENDROOT
BRANCH   1   2
ATOM      2  C   UNL A   1      31.393  28.919  25.168  1.00  0.00     0.002 C 
BRANCH   2   3
ATOM      3  C   UNL A   1      31.512  27.764  26.173  1.00  0.00     0.021 C 
BRANCH   3   4
ATOM      4  C   UNL A   1      30.848  26.456  25.737  1.00  0.00     0.116 C 
BRANCH   4   5
ATOM      5  N   UNL A   1      30.984  25.418  26.741  1.00  0.00    -0.356 N 
ATOM      6  C   UNL A   1      30.915  24.064  26.583  1.00  0.00     0.226 C 
ATOM      7  O   UNL A   1      31.031  23.349  27.581  1.00  0.00    -0.275 OA
ATOM      8  H   UNL A   1      31.148  25.731  27.659  1.00  0.00     0.163 HD
BRANCH   6   9
ATOM      9  C   UNL A   1      30.765  23.462  25.200  1.00  0.00     0.157 C 
BRANCH   9  10
ATOM     10  C   UNL A   1      32.064  23.329  24.482  1.00  0.00     0.061 A 
ATOM     11  C   UNL A   1      34.272  23.038  24.465  1.00  0.00     0.123 A 
ATOM     12  N   UNL A   1      33.200  23.065  25.234  1.00  0.00    -0.241 NA
ATOM     13  S   UNL A   1      33.957  23.255  22.785  1.00  0.00    -0.122 S 
ATOM     14  C   UNL A   1      32.289  23.443  23.124  1.00  0.00     0.091 A 
BRANCH  11  15
ATOM     15  C   UNL A   1      35.642  22.820  24.947  1.00  0.00     0.013 A 
ATOM     16  C   UNL A   1      35.419  20.266  24.786  1.00  0.00     0.045 C 
ATOM     17  C   UNL A   1      36.180  21.523  25.108  1.00  0.00    -0.041 A 
ATOM     18  C   UNL A   1      37.486  21.379  25.613  1.00  0.00     0.004 A 
ATOM     19  C   UNL A   1      38.257  22.493  25.941  1.00  0.00     0.000 A 
ATOM     20  C   UNL A   1      36.435  23.932  25.294  1.00  0.00     0.011 A 
ATOM     21  C   UNL A   1      37.733  23.770  25.780  1.00  0.00     0.001 A 
ENDBRANCH  11  15
ENDBRANCH   9  10
ENDBRANCH   6   9
ENDBRANCH   4   5
ENDBRANCH   3   4
ENDBRANCH   2   3
ENDBRANCH   1   2
BRANCH   1  22
ATOM     22  C   UNL A   1      32.369  30.469  27.015  1.00  0.00     0.021 C 
BRANCH  22  23
ATOM     23  C   UNL A   1      33.756  30.086  27.509  1.00  0.00     0.116 C 
BRANCH  23  24
ATOM     24  N   UNL A   1      34.607  31.233  27.779  1.00  0.00    -0.352 N 
ATOM     25  C   UNL A   1      35.889  31.286  28.288  1.00  0.00     0.251 C 
ATOM     26  H   UNL A   1      34.207  32.106  27.566  1.00  0.00     0.163 HD
ATOM     27  O   UNL A   1      36.341  32.386  28.605  1.00  0.00    -0.269 OA
BRANCH  25  28
ATOM     28  C   UNL A   1      36.747  30.074  28.321  1.00  0.00     0.039 A 
ATOM     29  C   UNL A   1      36.990  29.482  29.569  1.00  0.00     0.014 A 
ATOM     30  C   UNL A   1      37.463  29.646  27.205  1.00  0.00     0.014 A 
ATOM     31  C   UNL A   1      38.109  28.669  29.747  1.00  0.00     0.010 A 
ATOM     32  C   UNL A   1      38.611  28.905  27.389  1.00  0.00     0.010 A 
ATOM     33  C   UNL A   1      38.974  28.491  28.674  1.00  0.00    -0.014 A 
BRANCH  33  34
ATOM     34  C   UNL A   1      40.352  28.042  28.795  1.00  0.00     0.031 A 
ATOM     35  C   UNL A   1      40.710  26.620  28.672  1.00  0.00     0.074 A 
ATOM     36  C   UNL A   1      41.313  28.994  28.755  1.00  0.00     0.049 A 
ATOM     37  N   UNL A   1      41.892  26.163  28.915  1.00  0.00    -0.248 NA
ATOM     38  C   UNL A   1      39.751  25.582  28.309  1.00  0.00     0.031 C 
ATOM     39  C   UNL A   1      42.708  28.838  28.363  1.00  0.00     0.029 A 
ATOM     40  N   UNL A   1      41.256  30.283  29.299  1.00  0.00    -0.354 N 
ATOM     41  C   UNL A   1      41.936  24.890  28.401  1.00  0.00     0.074 A 
ATOM     42  C   UNL A   1      40.558  24.520  28.201  1.00  0.00     0.031 C 
ATOM     43  C   UNL A   1      43.424  29.827  28.919  1.00  0.00     0.029 A 
ATOM     44  C   UNL A   1      42.535  30.528  29.828  1.00  0.00     0.049 A 
ATOM     45  H   UNL A   1      40.481  30.891  29.309  1.00  0.00     0.167 HD
ATOM     46  C   UNL A   1      43.143  24.381  28.031  1.00  0.00     0.034 A 
ATOM     47  C   UNL A   1      42.776  30.751  31.153  1.00  0.00     0.034 A 
ATOM     48  C   UNL A   1      44.249  25.180  28.574  1.00  0.00     0.049 A 
ATOM     49  C   UNL A   1      43.782  29.787  31.757  1.00  0.00     0.074 A 
ATOM     50  C   UNL A   1      45.182  26.036  28.016  1.00  0.00     0.029 A 
ATOM     51  N   UNL A   1      44.362  25.324  29.955  1.00  0.00    -0.354 N 
ATOM     52  N   UNL A   1      44.268  28.747  31.137  1.00  0.00    -0.248 NA
ATOM     53  C   UNL A   1      44.298  29.899  33.119  1.00  0.00     0.031 C 
ATOM     54  C   UNL A   1      45.773  26.784  29.075  1.00  0.00     0.029 A 
ATOM     55  C   UNL A   1      45.236  26.349  30.275  1.00  0.00     0.049 A 
ATOM     56  H   UNL A   1      43.885  24.771  30.614  1.00  0.00     0.167 HD
ATOM     57  C   UNL A   1      45.008  27.986  32.004  1.00  0.00     0.074 A 
ATOM     58  C   UNL A   1      45.070  28.800  33.206  1.00  0.00     0.031 C 
ATOM     59  C   UNL A   1      45.436  26.727  31.672  1.00  0.00     0.034 A 
BRANCH  46  60
ATOM     60  C   UNL A   1      43.356  23.275  27.010  1.00  0.00     0.023 A 
ATOM     61  C   UNL A   1      43.996  23.630  25.799  1.00  0.00     0.012 A 
ATOM     62  C   UNL A   1      42.865  21.946  27.082  1.00  0.00     0.148 A 
ATOM     63  C   UNL A   1      44.127  22.737  24.728  1.00  0.00     0.002 A 
ATOM     64  C   UNL A   1      43.063  21.033  26.042  1.00  0.00     0.091 A 
ATOM     65  F   UNL A   1      42.101  21.564  28.108  1.00  0.00    -0.205 F 
ATOM     66  C   UNL A   1      43.677  21.431  24.855  1.00  0.00     0.022 A 
BRANCH  64  67
ATOM     67  S   UNL A   1      42.553  19.309  26.177  1.00  0.00     0.127 S 
ATOM     68  O   UNL A   1      42.322  19.166  27.614  1.00  0.00    -0.237 OA
ATOM     69  O   UNL A   1      41.340  19.271  25.358  1.00  0.00    -0.237 OA
ATOM     70  O   UNL A   1      43.657  18.519  25.642  1.00  0.00    -0.744 OA
ENDBRANCH  64  67
ENDBRANCH  46  60
BRANCH  47  71
ATOM     71  C   UNL A   1      41.630  31.380  31.876  1.00  0.00     0.023 A 
ATOM     72  C   UNL A   1      41.274  32.693  31.483  1.00  0.00     0.012 A 
ATOM     73  C   UNL A   1      40.698  30.613  32.598  1.00  0.00     0.148 A 
ATOM     74  C   UNL A   1      39.984  33.181  31.693  1.00  0.00     0.002 A 
ATOM     75  C   UNL A   1      39.411  31.110  32.807  1.00  0.00     0.091 A 
ATOM     76  F   UNL A   1      41.052  29.384  32.997  1.00  0.00    -0.205 F 
ATOM     77  C   UNL A   1      39.044  32.377  32.325  1.00  0.00     0.022 A 
BRANCH  75  78
ATOM     78  S   UNL A   1      38.122  30.110  33.565  1.00  0.00     0.127 S 
ATOM     79  O   UNL A   1      38.473  28.774  33.095  1.00  0.00    -0.237 OA
ATOM     80  O   UNL A   1      38.344  30.340  34.992  1.00  0.00    -0.237 OA
ATOM     81  O   UNL A   1      36.875  30.667  33.061  1.00  0.00    -0.744 OA
ENDBRANCH  75  78
ENDBRANCH  47  71
BRANCH  59  82
ATOM     82  C   UNL A   1      46.047  25.711  32.630  1.00  0.00     0.023 A 
ATOM     83  C   UNL A   1      47.434  25.615  32.856  1.00  0.00     0.012 A 
ATOM     84  C   UNL A   1      45.219  24.905  33.459  1.00  0.00     0.148 A 
ATOM     85  C   UNL A   1      47.977  24.738  33.803  1.00  0.00     0.002 A 
ATOM     86  C   UNL A   1      45.759  24.114  34.473  1.00  0.00     0.091 A 
ATOM     87  F   UNL A   1      43.893  24.883  33.264  1.00  0.00    -0.205 F 
ATOM     88  C   UNL A   1      47.140  24.004  34.630  1.00  0.00     0.022 A 
BRANCH  86  89
ATOM     89  S   UNL A   1      44.689  23.348  35.701  1.00  0.00     0.127 S 
ATOM     90  O   UNL A   1      45.653  22.755  36.624  1.00  0.00    -0.237 OA
ATOM     91  O   UNL A   1      43.953  24.490  36.246  1.00  0.00    -0.237 OA
ATOM     92  O   UNL A   1      43.863  22.419  34.940  1.00  0.00    -0.744 OA
ENDBRANCH  86  89
ENDBRANCH  59  82
ENDBRANCH  33  34
ENDBRANCH  25  28
ENDBRANCH  23  24
ENDBRANCH  22  23
ENDBRANCH   1  22
TORSDOF 18
ENDMDL
MODEL 2
REMARK VINA RESULT:     -11.4      1.405      2.091
REMARK SMILES Cc1ccccc1-c1nc(CC(=O)NCCCCCCNC(=O)c2ccc(-c3c4nc(c(-c5cccc(S(=O)(=O)[O-])c5F)c5ccc([nH]5)c(-c5cccc(S(=O)(=O)[O-])c5F)c5nc(c(-c6cccc(S(=O)(=O)[O-])c6F)c6ccc3[nH]6)C=C5)C=C4)cc2)cs1
REMARK SMILES IDX 18 1 17 2 16 3 15 4 14 5 12 6 13 7 11 9 10 10 8 11 9 12
REMARK SMILES IDX 88 13 87 14 7 15 1 16 2 17 3 18 4 19 6 20 5 21 19 22 20 23
REMARK SMILES IDX 21 24 22 25 23 27 24 28 25 29 86 30 26 31 85 32 27 33 28 34
REMARK SMILES IDX 29 35 79 36 30 37 84 38 78 39 80 40 31 41 83 42 77 43 76 44
REMARK SMILES IDX 32 46 64 47 44 48 63 49 45 50 48 51 62 52 81 53 46 54 47 55
REMARK SMILES IDX 61 57 82 58 49 59 33 60 34 61 42 62 35 63 37 64 43 65 36 66
REMARK SMILES IDX 38 67 39 68 40 69 41 70 65 71 66 72 74 73 67 74 69 75 75 76
REMARK SMILES IDX 68 77 70 78 71 79 72 80 73 81 50 82 51 83 59 84 52 85 54 86
REMARK SMILES IDX 60 87 53 88 55 89 56 90 57 91 58 92
REMARK H PARENT 14 8 21 26 80 45 48 56
REMARK Flexibility Score: inf
ROOT
ATOM      1  C   UNL A   1      32.665  29.722  25.390  1.00  0.00     0.002 C 
ENDROOT
BRANCH   1   2
ATOM      2  C   UNL A   1      31.355  29.345  24.680  1.00  0.00     0.002 C 
BRANCH   2   3
ATOM      3  C   UNL A   1      31.156  27.857  24.356  1.00  0.00     0.021 C 
BRANCH   3   4
ATOM      4  C   UNL A   1      32.270  26.934  24.853  1.00  0.00     0.116 C 
BRANCH   4   5
ATOM      5  N   UNL A   1      33.163  26.537  23.780  1.00  0.00    -0.356 N 
ATOM      6  C   UNL A   1      33.003  25.540  22.862  1.00  0.00     0.226 C 
ATOM      7  O   UNL A   1      33.904  25.346  22.042  1.00  0.00    -0.275 OA
ATOM      8  H   UNL A   1      33.996  27.056  23.704  1.00  0.00     0.163 HD
BRANCH   6   9
ATOM      9  C   UNL A   1      31.717  24.738  22.820  1.00  0.00     0.157 C 
BRANCH   9  10
ATOM     10  C   UNL A   1      31.733  23.571  23.747  1.00  0.00     0.061 A 
ATOM     11  C   UNL A   1      32.326  21.489  24.266  1.00  0.00     0.123 A 
ATOM     12  N   UNL A   1      32.462  22.452  23.375  1.00  0.00    -0.241 NA
ATOM     13  S   UNL A   1      31.373  21.909  25.638  1.00  0.00    -0.122 S 
ATOM     14  C   UNL A   1      31.091  23.459  24.965  1.00  0.00     0.091 A 
BRANCH  11  15
ATOM     15  C   UNL A   1      32.936  20.157  24.159  1.00  0.00     0.013 A 
ATOM     16  C   UNL A   1      35.040  20.888  25.440  1.00  0.00     0.045 C 
ATOM     17  C   UNL A   1      34.211  19.874  24.699  1.00  0.00    -0.041 A 
ATOM     18  C   UNL A   1      34.759  18.588  24.528  1.00  0.00     0.004 A 
ATOM     19  C   UNL A   1      34.059  17.592  23.849  1.00  0.00     0.000 A 
ATOM     20  C   UNL A   1      32.249  19.138  23.468  1.00  0.00     0.011 A 
ATOM     21  C   UNL A   1      32.803  17.867  23.320  1.00  0.00     0.001 A 
ENDBRANCH  11  15
ENDBRANCH   9  10
ENDBRANCH   6   9
ENDBRANCH   4   5
ENDBRANCH   3   4
ENDBRANCH   2   3
ENDBRANCH   1   2
BRANCH   1  22
ATOM     22  C   UNL A   1      32.550  30.760  26.507  1.00  0.00     0.021 C 
BRANCH  22  23
ATOM     23  C   UNL A   1      33.539  30.569  27.647  1.00  0.00     0.116 C 
BRANCH  23  24
ATOM     24  N   UNL A   1      34.419  31.709  27.843  1.00  0.00    -0.352 N 
ATOM     25  C   UNL A   1      35.710  31.761  28.327  1.00  0.00     0.251 C 
ATOM     26  H   UNL A   1      34.033  32.579  27.591  1.00  0.00     0.163 HD
ATOM     27  O   UNL A   1      36.191  32.866  28.578  1.00  0.00    -0.269 OA
BRANCH  25  28
ATOM     28  C   UNL A   1      36.544  30.534  28.408  1.00  0.00     0.039 A 
ATOM     29  C   UNL A   1      36.787  29.995  29.680  1.00  0.00     0.014 A 
ATOM     30  C   UNL A   1      37.239  30.039  27.307  1.00  0.00     0.014 A 
ATOM     31  C   UNL A   1      37.890  29.167  29.885  1.00  0.00     0.010 A 
ATOM     32  C   UNL A   1      38.374  29.284  27.515  1.00  0.00     0.010 A 
ATOM     33  C   UNL A   1      38.740  28.922  28.814  1.00  0.00    -0.014 A 
BRANCH  33  34
ATOM     34  C   UNL A   1      40.110  28.449  28.943  1.00  0.00     0.031 A 
ATOM     35  C   UNL A   1      40.444  27.021  28.829  1.00  0.00     0.074 A 
ATOM     36  C   UNL A   1      41.087  29.385  28.904  1.00  0.00     0.049 A 
ATOM     37  N   UNL A   1      41.616  26.544  29.080  1.00  0.00    -0.248 NA
ATOM     38  C   UNL A   1      39.468  25.997  28.466  1.00  0.00     0.031 C 
ATOM     39  C   UNL A   1      42.481  29.202  28.519  1.00  0.00     0.029 A 
ATOM     40  N   UNL A   1      41.050  30.677  29.441  1.00  0.00    -0.354 N 
ATOM     41  C   UNL A   1      41.641  25.269  28.571  1.00  0.00     0.074 A 
ATOM     42  C   UNL A   1      40.258  24.921  28.367  1.00  0.00     0.031 C 
ATOM     43  C   UNL A   1      43.211  30.182  29.074  1.00  0.00     0.029 A 
ATOM     44  C   UNL A   1      42.330  30.902  29.975  1.00  0.00     0.049 A 
ATOM     45  H   UNL A   1      40.286  31.298  29.445  1.00  0.00     0.167 HD
ATOM     46  C   UNL A   1      42.840  24.737  28.209  1.00  0.00     0.034 A 
ATOM     47  C   UNL A   1      42.570  31.128  31.300  1.00  0.00     0.034 A 
ATOM     48  C   UNL A   1      43.957  25.520  28.754  1.00  0.00     0.049 A 
ATOM     49  C   UNL A   1      43.556  30.149  31.913  1.00  0.00     0.074 A 
ATOM     50  C   UNL A   1      44.907  26.356  28.197  1.00  0.00     0.029 A 
ATOM     51  N   UNL A   1      44.067  25.668  30.135  1.00  0.00    -0.354 N 
ATOM     52  N   UNL A   1      44.027  29.097  31.300  1.00  0.00    -0.248 NA
ATOM     53  C   UNL A   1      44.068  30.259  33.277  1.00  0.00     0.031 C 
ATOM     54  C   UNL A   1      45.507  27.100  29.254  1.00  0.00     0.029 A 
ATOM     55  C   UNL A   1      44.957  26.679  30.454  1.00  0.00     0.049 A 
ATOM     56  H   UNL A   1      43.577  25.126  30.795  1.00  0.00     0.167 HD
ATOM     57  C   UNL A   1      44.749  28.328  32.175  1.00  0.00     0.074 A 
ATOM     58  C   UNL A   1      44.820  29.147  33.373  1.00  0.00     0.031 C 
ATOM     59  C   UNL A   1      45.157  27.060  31.850  1.00  0.00     0.034 A 
BRANCH  46  60
ATOM     60  C   UNL A   1      43.039  23.623  27.195  1.00  0.00     0.023 A 
ATOM     61  C   UNL A   1      43.790  23.932  26.037  1.00  0.00     0.012 A 
ATOM     62  C   UNL A   1      42.441  22.337  27.218  1.00  0.00     0.148 A 
ATOM     63  C   UNL A   1      43.927  23.036  24.968  1.00  0.00     0.002 A 
ATOM     64  C   UNL A   1      42.641  21.416  26.185  1.00  0.00     0.091 A 
ATOM     65  F   UNL A   1      41.577  22.011  28.183  1.00  0.00    -0.205 F 
ATOM     66  C   UNL A   1      43.368  21.769  25.049  1.00  0.00     0.022 A 
BRANCH  64  67
ATOM     67  S   UNL A   1      41.989  19.736  26.265  1.00  0.00     0.127 S 
ATOM     68  O   UNL A   1      40.546  19.961  26.185  1.00  0.00    -0.237 OA
ATOM     69  O   UNL A   1      42.575  19.110  25.079  1.00  0.00    -0.237 OA
ATOM     70  O   UNL A   1      42.463  19.179  27.528  1.00  0.00    -0.744 OA
ENDBRANCH  64  67
ENDBRANCH  46  60
BRANCH  47  71
ATOM     71  C   UNL A   1      41.431  31.780  32.014  1.00  0.00     0.023 A 
ATOM     72  C   UNL A   1      41.004  33.034  31.517  1.00  0.00     0.012 A 
ATOM     73  C   UNL A   1      40.566  31.051  32.849  1.00  0.00     0.148 A 
ATOM     74  C   UNL A   1      39.705  33.492  31.741  1.00  0.00     0.002 A 
ATOM     75  C   UNL A   1      39.269  31.517  33.072  1.00  0.00     0.091 A 
ATOM     76  F   UNL A   1      40.987  29.881  33.345  1.00  0.00    -0.205 F 
ATOM     77  C   UNL A   1      38.828  32.718  32.491  1.00  0.00     0.022 A 
BRANCH  75  78
ATOM     78  S   UNL A   1      38.057  30.547  33.983  1.00  0.00     0.127 S 
ATOM     79  O   UNL A   1      38.815  30.177  35.173  1.00  0.00    -0.237 OA
ATOM     80  O   UNL A   1      36.986  31.516  34.209  1.00  0.00    -0.237 OA
ATOM     81  O   UNL A   1      37.697  29.463  33.081  1.00  0.00    -0.744 OA
ENDBRANCH  75  78
ENDBRANCH  47  71
BRANCH  59  82
ATOM     82  C   UNL A   1      45.746  26.038  32.816  1.00  0.00     0.023 A 
ATOM     83  C   UNL A   1      47.124  25.962  33.097  1.00  0.00     0.012 A 
ATOM     84  C   UNL A   1      44.899  25.205  33.596  1.00  0.00     0.148 A 
ATOM     85  C   UNL A   1      47.643  25.079  34.052  1.00  0.00     0.002 A 
ATOM     86  C   UNL A   1      45.410  24.406  34.619  1.00  0.00     0.091 A 
ATOM     87  F   UNL A   1      43.582  25.163  33.346  1.00  0.00    -0.205 F 
ATOM     88  C   UNL A   1      46.786  24.316  34.831  1.00  0.00     0.022 A 
BRANCH  86  89
ATOM     89  S   UNL A   1      44.304  23.600  35.789  1.00  0.00     0.127 S 
ATOM     90  O   UNL A   1      43.083  23.446  35.004  1.00  0.00    -0.237 OA
ATOM     91  O   UNL A   1      45.001  22.345  36.079  1.00  0.00    -0.237 OA
ATOM     92  O   UNL A   1      44.238  24.516  36.920  1.00  0.00    -0.744 OA
ENDBRANCH  86  89
ENDBRANCH  59  82
ENDBRANCH  33  34
ENDBRANCH  25  28
ENDBRANCH  23  24
ENDBRANCH  22  23
ENDBRANCH   1  22
TORSDOF 18
ENDMDL
MODEL 3
REMARK VINA RESULT:     -11.4      4.098      9.512
REMARK SMILES Cc1ccccc1-c1nc(CC(=O)NCCCCCCNC(=O)c2ccc(-c3c4nc(c(-c5cccc(S(=O)(=O)[O-])c5F)c5ccc([nH]5)c(-c5cccc(S(=O)(=O)[O-])c5F)c5nc(c(-c6cccc(S(=O)(=O)[O-])c6F)c6ccc3[nH]6)C=C5)C=C4)cc2)cs1
REMARK SMILES IDX 18 1 17 2 16 3 15 4 14 5 12 6 13 7 11 9 10 10 8 11 9 12
REMARK SMILES IDX 88 13 87 14 7 15 1 16 2 17 3 18 4 19 6 20 5 21 19 22 20 23
REMARK SMILES IDX 21 24 22 25 23 27 24 28 25 29 86 30 26 31 85 32 27 33 28 34
REMARK SMILES IDX 29 35 79 36 30 37 84 38 78 39 80 40 31 41 83 42 77 43 76 44
REMARK SMILES IDX 32 46 64 47 44 48 63 49 45 50 48 51 62 52 81 53 46 54 47 55
REMARK SMILES IDX 61 57 82 58 49 59 33 60 34 61 42 62 35 63 37 64 43 65 36 66
REMARK SMILES IDX 38 67 39 68 40 69 41 70 65 71 66 72 74 73 67 74 69 75 75 76
REMARK SMILES IDX 68 77 70 78 71 79 72 80 73 81 50 82 51 83 59 84 52 85 54 86
REMARK SMILES IDX 60 87 53 88 55 89 56 90 57 91 58 92
REMARK H PARENT 14 8 21 26 80 45 48 56
REMARK Flexibility Score: inf
ROOT
ATOM      1  C   UNL A   1      37.586  23.575  25.309  1.00  0.00     0.002 C 
ENDROOT
BRANCH   1   2
ATOM      2  C   UNL A   1      36.241  24.009  25.913  1.00  0.00     0.002 C 
BRANCH   2   3
ATOM      3  C   UNL A   1      35.066  24.152  24.934  1.00  0.00     0.021 C 
BRANCH   3   4
ATOM      4  C   UNL A   1      33.880  24.962  25.461  1.00  0.00     0.116 C 
BRANCH   4   5
ATOM      5  N   UNL A   1      33.244  24.315  26.594  1.00  0.00    -0.356 N 
ATOM      6  C   UNL A   1      31.982  23.803  26.685  1.00  0.00     0.226 C 
ATOM      7  O   UNL A   1      31.622  23.315  27.759  1.00  0.00    -0.275 OA
ATOM      8  H   UNL A   1      33.796  24.235  27.405  1.00  0.00     0.163 HD
BRANCH   6   9
ATOM      9  C   UNL A   1      31.076  23.782  25.471  1.00  0.00     0.157 C 
BRANCH   9  10
ATOM     10  C   UNL A   1      31.527  22.817  24.428  1.00  0.00     0.061 A 
ATOM     11  C   UNL A   1      32.447  20.884  23.815  1.00  0.00     0.123 A 
ATOM     12  N   UNL A   1      32.035  21.596  24.846  1.00  0.00    -0.241 NA
ATOM     13  S   UNL A   1      32.172  21.618  22.280  1.00  0.00    -0.122 S 
ATOM     14  C   UNL A   1      31.507  22.991  23.058  1.00  0.00     0.091 A 
BRANCH  11  15
ATOM     15  C   UNL A   1      33.071  19.558  23.908  1.00  0.00     0.013 A 
ATOM     16  C   UNL A   1      35.136  20.485  25.125  1.00  0.00     0.045 C 
ATOM     17  C   UNL A   1      34.335  19.368  24.512  1.00  0.00    -0.041 A 
ATOM     18  C   UNL A   1      34.899  18.078  24.534  1.00  0.00     0.004 A 
ATOM     19  C   UNL A   1      34.224  16.989  23.983  1.00  0.00     0.000 A 
ATOM     20  C   UNL A   1      32.411  18.445  23.349  1.00  0.00     0.011 A 
ATOM     21  C   UNL A   1      32.980  17.172  23.392  1.00  0.00     0.001 A 
ENDBRANCH  11  15
ENDBRANCH   9  10
ENDBRANCH   6   9
ENDBRANCH   4   5
ENDBRANCH   3   4
ENDBRANCH   2   3
ENDBRANCH   1   2
BRANCH   1  22
ATOM     22  C   UNL A   1      38.163  22.258  25.830  1.00  0.00     0.021 C 
BRANCH  22  23
ATOM     23  C   UNL A   1      39.539  22.384  26.468  1.00  0.00     0.116 C 
BRANCH  23  24
ATOM     24  N   UNL A   1      40.409  21.254  26.185  1.00  0.00    -0.352 N 
ATOM     25  C   UNL A   1      41.787  21.179  26.163  1.00  0.00     0.251 C 
ATOM     26  H   UNL A   1      39.943  20.413  25.976  1.00  0.00     0.163 HD
ATOM     27  O   UNL A   1      42.304  20.157  25.713  1.00  0.00    -0.269 OA
BRANCH  25  28
ATOM     28  C   UNL A   1      42.618  22.237  26.793  1.00  0.00     0.039 A 
ATOM     29  C   UNL A   1      42.575  22.355  28.190  1.00  0.00     0.014 A 
ATOM     30  C   UNL A   1      43.260  23.218  26.040  1.00  0.00     0.014 A 
ATOM     31  C   UNL A   1      42.931  23.558  28.798  1.00  0.00     0.010 A 
ATOM     32  C   UNL A   1      43.541  24.435  26.624  1.00  0.00     0.010 A 
ATOM     33  C   UNL A   1      43.295  24.626  27.987  1.00  0.00    -0.014 A 
BRANCH  33  34
ATOM     34  C   UNL A   1      43.288  26.018  28.408  1.00  0.00     0.031 A 
ATOM     35  C   UNL A   1      42.078  26.848  28.297  1.00  0.00     0.074 A 
ATOM     36  C   UNL A   1      44.341  26.441  29.144  1.00  0.00     0.049 A 
ATOM     37  N   UNL A   1      42.066  28.118  28.520  1.00  0.00    -0.248 NA
ATOM     38  C   UNL A   1      40.782  26.322  27.877  1.00  0.00     0.031 C 
ATOM     39  C   UNL A   1      44.383  27.556  30.084  1.00  0.00     0.029 A 
ATOM     40  N   UNL A   1      45.682  26.065  29.005  1.00  0.00    -0.354 N 
ATOM     41  C   UNL A   1      40.748  28.487  28.633  1.00  0.00     0.074 A 
ATOM     42  C   UNL A   1      40.004  27.395  28.060  1.00  0.00     0.031 C 
ATOM     43  C   UNL A   1      45.655  27.960  30.213  1.00  0.00     0.029 A 
ATOM     44  C   UNL A   1      46.429  27.236  29.221  1.00  0.00     0.049 A 
ATOM     45  H   UNL A   1      46.030  25.168  28.798  1.00  0.00     0.167 HD
ATOM     46  C   UNL A   1      40.443  29.589  29.371  1.00  0.00     0.034 A 
ATOM     47  C   UNL A   1      47.232  27.808  28.276  1.00  0.00     0.034 A 
ATOM     48  C   UNL A   1      41.639  30.398  29.643  1.00  0.00     0.049 A 
ATOM     49  C   UNL A   1      46.883  29.255  27.978  1.00  0.00     0.074 A 
ATOM     50  C   UNL A   1      42.387  30.658  30.778  1.00  0.00     0.029 A 
ATOM     51  N   UNL A   1      42.365  30.910  28.570  1.00  0.00    -0.354 N 
ATOM     52  N   UNL A   1      45.832  29.870  28.448  1.00  0.00    -0.248 NA
ATOM     53  C   UNL A   1      47.671  30.116  27.100  1.00  0.00     0.031 C 
ATOM     54  C   UNL A   1      43.625  31.225  30.362  1.00  0.00     0.029 A 
ATOM     55  C   UNL A   1      43.610  31.354  28.983  1.00  0.00     0.049 A 
ATOM     56  H   UNL A   1      42.036  30.952  27.644  1.00  0.00     0.167 HD
ATOM     57  C   UNL A   1      45.705  31.101  27.858  1.00  0.00     0.074 A 
ATOM     58  C   UNL A   1      46.932  31.241  27.091  1.00  0.00     0.031 C 
ATOM     59  C   UNL A   1      44.568  31.853  28.000  1.00  0.00     0.034 A 
BRANCH  46  60
ATOM     60  C   UNL A   1      39.103  29.862  30.035  1.00  0.00     0.023 A 
ATOM     61  C   UNL A   1      38.521  28.803  30.771  1.00  0.00     0.012 A 
ATOM     62  C   UNL A   1      38.304  31.024  29.888  1.00  0.00     0.148 A 
ATOM     63  C   UNL A   1      37.231  28.883  31.311  1.00  0.00     0.002 A 
ATOM     64  C   UNL A   1      37.047  31.132  30.492  1.00  0.00     0.091 A 
ATOM     65  F   UNL A   1      38.688  32.010  29.073  1.00  0.00    -0.205 F 
ATOM     66  C   UNL A   1      36.499  30.055  31.189  1.00  0.00     0.022 A 
BRANCH  64  67
ATOM     67  S   UNL A   1      36.079  32.651  30.416  1.00  0.00     0.127 S 
ATOM     68  O   UNL A   1      34.801  32.232  30.990  1.00  0.00    -0.237 OA
ATOM     69  O   UNL A   1      36.855  33.565  31.256  1.00  0.00    -0.237 OA
ATOM     70  O   UNL A   1      36.035  33.031  29.007  1.00  0.00    -0.744 OA
ENDBRANCH  64  67
ENDBRANCH  46  60
BRANCH  47  71
ATOM     71  C   UNL A   1      47.803  26.830  27.301  1.00  0.00     0.023 A 
ATOM     72  C   UNL A   1      46.966  26.440  26.228  1.00  0.00     0.012 A 
ATOM     73  C   UNL A   1      49.188  26.614  27.193  1.00  0.00     0.148 A 
ATOM     74  C   UNL A   1      47.504  25.966  25.032  1.00  0.00     0.002 A 
ATOM     75  C   UNL A   1      49.719  26.135  25.995  1.00  0.00     0.091 A 
ATOM     76  F   UNL A   1      49.972  26.952  28.224  1.00  0.00    -0.205 F 
ATOM     77  C   UNL A   1      48.882  25.845  24.904  1.00  0.00     0.022 A 
BRANCH  75  78
ATOM     78  S   UNL A   1      51.494  26.005  25.731  1.00  0.00     0.127 S 
ATOM     79  O   UNL A   1      51.789  24.722  26.360  1.00  0.00    -0.237 OA
ATOM     80  O   UNL A   1      51.596  26.015  24.272  1.00  0.00    -0.237 OA
ATOM     81  O   UNL A   1      52.053  27.185  26.373  1.00  0.00    -0.744 OA
ENDBRANCH  75  78
ENDBRANCH  47  71
BRANCH  59  82
ATOM     82  C   UNL A   1      44.223  33.107  27.204  1.00  0.00     0.023 A 
ATOM     83  C   UNL A   1      44.030  33.093  25.809  1.00  0.00     0.012 A 
ATOM     84  C   UNL A   1      43.931  34.330  27.866  1.00  0.00     0.148 A 
ATOM     85  C   UNL A   1      43.626  34.232  25.100  1.00  0.00     0.002 A 
ATOM     86  C   UNL A   1      43.426  35.429  27.171  1.00  0.00     0.091 A 
ATOM     87  F   UNL A   1      44.154  34.451  29.183  1.00  0.00    -0.205 F 
ATOM     88  C   UNL A   1      43.300  35.395  25.782  1.00  0.00     0.022 A 
BRANCH  86  89
ATOM     89  S   UNL A   1      42.777  36.853  28.060  1.00  0.00     0.127 S 
ATOM     90  O   UNL A   1      43.996  37.556  28.449  1.00  0.00    -0.237 OA
ATOM     91  O   UNL A   1      41.983  37.537  27.036  1.00  0.00    -0.237 OA
ATOM     92  O   UNL A   1      41.984  36.281  29.140  1.00  0.00    -0.744 OA
ENDBRANCH  86  89
ENDBRANCH  59  82
ENDBRANCH  33  34
ENDBRANCH  25  28
ENDBRANCH  23  24
ENDBRANCH  22  23
ENDBRANCH   1  22
TORSDOF 18
ENDMDL
