MODEL 1
REMARK VINA RESULT:     -11.1      0.000      0.000
REMARK SMILES COc1ccc(-c2c(C(=O)NCCCCCCNC(=O)c3ccc(-c4c5nc(c(-c6cccc(S(=O)(=O)[O-])c6F)c6ccc([nH]6)c(-c6cccc(S(=O)(=O)[O-])c6F)c6nc(c(-c7cccc(S(=O)(=O)[O-])c7F)c7ccc4[nH]7)C=C6)C=C5)cc3)sc3c2N=C(O)C[C@H]3c2ccc(OC)c(OC)c2)cc1
REMARK SMILES IDX 15 1 14 2 13 3 12 4 11 5 9 6 10 7 8 9 7 10 86 11 84 12 85 13
REMARK SMILES IDX 87 14 91 15 88 16 90 17 6 18 3 19 4 20 103 21 5 22 102 23
REMARK SMILES IDX 2 24 1 25 92 26 93 27 101 28 94 29 98 30 95 31 99 32 100 33
REMARK SMILES IDX 96 34 97 35 89 36 16 38 17 39 18 40 19 41 20 43 21 44 22 45
REMARK SMILES IDX 83 46 23 47 82 48 24 49 25 50 26 51 76 52 27 53 81 54 75 55
REMARK SMILES IDX 77 56 28 57 80 58 74 59 73 60 29 62 61 63 41 64 60 65 42 66
REMARK SMILES IDX 45 67 59 68 78 69 43 70 44 71 58 73 79 74 46 75 30 76 31 77
REMARK SMILES IDX 39 78 32 79 34 80 40 81 33 82 35 83 36 84 37 85 38 86 62 87
REMARK SMILES IDX 63 88 71 89 64 90 66 91 72 92 65 93 67 94 68 95 69 96 70 97
REMARK SMILES IDX 47 98 48 99 56 100 49 101 51 102 57 103 50 104 52 105 53 106
REMARK SMILES IDX 54 107 55 108
REMARK H PARENT 11 8 89 37 18 42 77 61 45 72
REMARK Flexibility Score: inf
ROOT
ATOM      1  C   UNL A   1      35.898  31.886  27.745  1.00  0.00     0.002 C 
ENDROOT
BRANCH   1   2
ATOM      2  C   UNL A   1      36.114  30.390  27.468  1.00  0.00     0.002 C 
BRANCH   2   3
ATOM      3  C   UNL A   1      35.079  29.374  27.953  1.00  0.00     0.021 C 
BRANCH   3   4
ATOM      4  C   UNL A   1      34.054  28.853  26.959  1.00  0.00     0.116 C 
BRANCH   4   5
ATOM      5  N   UNL A   1      32.729  28.557  27.426  1.00  0.00    -0.351 N 
ATOM      6  C   UNL A   1      31.911  27.491  27.094  1.00  0.00     0.262 C 
ATOM      7  O   UNL A   1      30.855  27.461  27.742  1.00  0.00    -0.268 OA
ATOM      8  H   UNL A   1      32.352  29.199  28.069  1.00  0.00     0.163 HD
BRANCH   6   9
ATOM      9  C   UNL A   1      32.211  26.495  26.046  1.00  0.00     0.102 A 
ATOM     10  C   UNL A   1      32.136  26.409  24.650  1.00  0.00     0.031 A 
ATOM     11  C   UNL A   1      32.584  25.138  24.167  1.00  0.00     0.090 A 
ATOM     12  S   UNL A   1      32.860  24.986  26.675  1.00  0.00    -0.131 S 
ATOM     13  C   UNL A   1      32.963  24.271  25.143  1.00  0.00     0.040 A 
ATOM     14  N   UNL A   1      32.581  24.817  22.804  1.00  0.00    -0.216 NA
ATOM     15  C   UNL A   1      33.403  22.870  24.890  1.00  0.00     0.071 C 
ATOM     16  C   UNL A   1      32.750  23.571  22.526  1.00  0.00     0.186 C 
ATOM     17  C   UNL A   1      33.006  22.425  23.469  1.00  0.00     0.111 C 
BRANCH  10  18
ATOM     18  C   UNL A   1      31.569  27.386  23.735  1.00  0.00    -0.014 A 
ATOM     19  C   UNL A   1      30.310  29.262  22.084  1.00  0.00     0.118 A 
ATOM     20  C   UNL A   1      31.704  29.276  22.250  1.00  0.00     0.047 A 
ATOM     21  C   UNL A   1      29.559  28.252  22.676  1.00  0.00     0.047 A 
ATOM     22  C   UNL A   1      32.340  28.339  23.074  1.00  0.00     0.012 A 
ATOM     23  C   UNL A   1      30.186  27.317  23.489  1.00  0.00     0.012 A 
BRANCH  19  24
ATOM     24  O   UNL A   1      29.788  30.294  21.349  1.00  0.00    -0.497 OA
ATOM     25  C   UNL A   1      28.390  30.526  21.525  1.00  0.00     0.278 C 
ENDBRANCH  19  24
ENDBRANCH  10  18
BRANCH  15  26
ATOM     26  C   UNL A   1      34.889  22.666  25.145  1.00  0.00    -0.035 A 
ATOM     27  C   UNL A   1      35.730  23.709  25.538  1.00  0.00     0.008 A 
ATOM     28  C   UNL A   1      35.438  21.383  24.975  1.00  0.00     0.054 A 
ATOM     29  C   UNL A   1      37.086  23.465  25.756  1.00  0.00     0.051 A 
ATOM     30  C   UNL A   1      36.802  21.126  25.180  1.00  0.00     0.161 A 
ATOM     31  C   UNL A   1      37.634  22.184  25.585  1.00  0.00     0.160 A 
BRANCH  30  32
ATOM     32  O   UNL A   1      37.353  19.886  24.985  1.00  0.00    -0.493 OA
ATOM     33  C   UNL A   1      36.471  18.790  24.774  1.00  0.00     0.278 C 
ENDBRANCH  30  32
BRANCH  31  34
ATOM     34  O   UNL A   1      38.983  22.163  25.839  1.00  0.00    -0.493 OA
ATOM     35  C   UNL A   1      39.647  20.911  25.858  1.00  0.00     0.278 C 
ENDBRANCH  31  34
ENDBRANCH  15  26
BRANCH  16  36
ATOM     36  O   UNL A   1      32.655  23.200  21.232  1.00  0.00    -0.496 OA
ATOM     37  H   UNL A   1      32.671  22.292  21.003  1.00  0.00     0.294 HD
ENDBRANCH  16  36
ENDBRANCH   6   9
ENDBRANCH   4   5
ENDBRANCH   3   4
ENDBRANCH   2   3
ENDBRANCH   1   2
BRANCH   1  38
ATOM     38  C   UNL A   1      34.532  32.368  28.246  1.00  0.00     0.021 C 
BRANCH  38  39
ATOM     39  C   UNL A   1      34.501  33.704  28.966  1.00  0.00     0.116 C 
BRANCH  39  40
ATOM     40  N   UNL A   1      34.189  33.630  30.388  1.00  0.00    -0.352 N 
ATOM     41  C   UNL A   1      34.793  32.810  31.332  1.00  0.00     0.251 C 
ATOM     42  H   UNL A   1      33.476  34.224  30.714  1.00  0.00     0.163 HD
ATOM     43  O   UNL A   1      34.215  32.527  32.369  1.00  0.00    -0.269 OA
BRANCH  41  44
ATOM     44  C   UNL A   1      36.152  32.281  31.065  1.00  0.00     0.039 A 
ATOM     45  C   UNL A   1      37.224  33.135  30.783  1.00  0.00     0.014 A 
ATOM     46  C   UNL A   1      36.345  30.901  31.080  1.00  0.00     0.014 A 
ATOM     47  C   UNL A   1      38.492  32.588  30.576  1.00  0.00     0.010 A 
ATOM     48  C   UNL A   1      37.613  30.376  31.038  1.00  0.00     0.010 A 
ATOM     49  C   UNL A   1      38.680  31.204  30.717  1.00  0.00    -0.014 A 
BRANCH  49  50
ATOM     50  C   UNL A   1      40.014  30.610  30.650  1.00  0.00     0.031 A 
ATOM     51  C   UNL A   1      40.680  30.508  31.974  1.00  0.00     0.074 A 
ATOM     52  C   UNL A   1      40.499  30.014  29.536  1.00  0.00     0.049 A 
ATOM     53  N   UNL A   1      41.680  31.203  32.404  1.00  0.00    -0.248 NA
ATOM     54  C   UNL A   1      40.050  29.673  33.010  1.00  0.00     0.031 C 
ATOM     55  C   UNL A   1      39.782  29.786  28.272  1.00  0.00     0.029 A 
ATOM     56  N   UNL A   1      41.675  29.351  29.333  1.00  0.00    -0.354 N 
ATOM     57  C   UNL A   1      41.980  30.674  33.659  1.00  0.00     0.074 A 
ATOM     58  C   UNL A   1      40.813  29.947  34.072  1.00  0.00     0.031 C 
ATOM     59  C   UNL A   1      40.415  28.832  27.556  1.00  0.00     0.029 A 
ATOM     60  C   UNL A   1      41.667  28.515  28.215  1.00  0.00     0.049 A 
ATOM     61  H   UNL A   1      42.458  29.455  29.919  1.00  0.00     0.167 HD
ATOM     62  C   UNL A   1      43.275  30.595  34.080  1.00  0.00     0.034 A 
ATOM     63  C   UNL A   1      42.603  27.601  27.864  1.00  0.00     0.034 A 
ATOM     64  C   UNL A   1      44.130  31.367  33.212  1.00  0.00     0.049 A 
ATOM     65  C   UNL A   1      43.856  27.981  28.543  1.00  0.00     0.074 A 
ATOM     66  C   UNL A   1      44.311  32.695  32.899  1.00  0.00     0.029 A 
ATOM     67  N   UNL A   1      44.701  30.625  32.209  1.00  0.00    -0.354 N 
ATOM     68  N   UNL A   1      44.519  29.066  28.261  1.00  0.00    -0.248 NA
ATOM     69  C   UNL A   1      44.208  27.338  29.800  1.00  0.00     0.031 C 
ATOM     70  C   UNL A   1      44.771  32.711  31.550  1.00  0.00     0.029 A 
ATOM     71  C   UNL A   1      44.915  31.395  31.104  1.00  0.00     0.049 A 
ATOM     72  H   UNL A   1      44.924  29.668  32.277  1.00  0.00     0.167 HD
ATOM     73  C   UNL A   1      44.987  29.493  29.490  1.00  0.00     0.074 A 
ATOM     74  C   UNL A   1      44.939  28.313  30.346  1.00  0.00     0.031 C 
ATOM     75  C   UNL A   1      45.046  30.825  29.780  1.00  0.00     0.034 A 
BRANCH  62  76
ATOM     76  C   UNL A   1      43.878  29.469  34.910  1.00  0.00     0.023 A 
ATOM     77  C   UNL A   1      44.732  29.856  35.973  1.00  0.00     0.012 A 
ATOM     78  C   UNL A   1      43.922  28.107  34.533  1.00  0.00     0.148 A 
ATOM     79  C   UNL A   1      45.629  28.962  36.570  1.00  0.00     0.002 A 
ATOM     80  C   UNL A   1      44.768  27.206  35.173  1.00  0.00     0.091 A 
ATOM     81  F   UNL A   1      43.245  27.681  33.468  1.00  0.00    -0.205 F 
ATOM     82  C   UNL A   1      45.647  27.634  36.169  1.00  0.00     0.022 A 
BRANCH  80  83
ATOM     83  S   UNL A   1      44.819  25.466  34.714  1.00  0.00     0.127 S 
ATOM     84  O   UNL A   1      45.944  24.987  35.511  1.00  0.00    -0.237 OA
ATOM     85  O   UNL A   1      43.503  25.005  35.156  1.00  0.00    -0.237 OA
ATOM     86  O   UNL A   1      45.009  25.443  33.269  1.00  0.00    -0.744 OA
ENDBRANCH  80  83
ENDBRANCH  62  76
BRANCH  63  87
ATOM     87  C   UNL A   1      42.482  26.327  27.120  1.00  0.00     0.023 A 
ATOM     88  C   UNL A   1      42.809  26.273  25.750  1.00  0.00     0.012 A 
ATOM     89  C   UNL A   1      42.329  25.109  27.818  1.00  0.00     0.148 A 
ATOM     90  C   UNL A   1      43.020  25.048  25.104  1.00  0.00     0.002 A 
ATOM     91  C   UNL A   1      42.540  23.894  27.174  1.00  0.00     0.091 A 
ATOM     92  F   UNL A   1      42.067  25.153  29.130  1.00  0.00    -0.205 F 
ATOM     93  C   UNL A   1      42.898  23.859  25.819  1.00  0.00     0.022 A 
BRANCH  91  94
ATOM     94  S   UNL A   1      42.442  22.319  28.036  1.00  0.00     0.127 S 
ATOM     95  O   UNL A   1      42.838  21.377  26.989  1.00  0.00    -0.237 OA
ATOM     96  O   UNL A   1      43.424  22.495  29.103  1.00  0.00    -0.237 OA
ATOM     97  O   UNL A   1      41.058  22.187  28.475  1.00  0.00    -0.744 OA
ENDBRANCH  91  94
ENDBRANCH  63  87
BRANCH  75  98
ATOM     98  C   UNL A   1      45.070  31.786  28.627  1.00  0.00     0.023 A 
ATOM     99  C   UNL A   1      43.925  32.455  28.150  1.00  0.00     0.012 A 
ATOM    100  C   UNL A   1      46.327  32.116  28.098  1.00  0.00     0.148 A 
ATOM    101  C   UNL A   1      44.038  33.425  27.149  1.00  0.00     0.002 A 
ATOM    102  C   UNL A   1      46.442  33.117  27.146  1.00  0.00     0.091 A 
ATOM    103  F   UNL A   1      47.400  31.457  28.562  1.00  0.00    -0.205 F 
ATOM    104  C   UNL A   1      45.298  33.768  26.660  1.00  0.00     0.022 A 
BRANCH 102 105
ATOM    105  S   UNL A   1      48.047  33.680  26.582  1.00  0.00     0.127 S 
ATOM    106  O   UNL A   1      47.694  34.500  25.426  1.00  0.00    -0.237 OA
ATOM    107  O   UNL A   1      48.540  34.429  27.740  1.00  0.00    -0.237 OA
ATOM    108  O   UNL A   1      48.813  32.475  26.287  1.00  0.00    -0.744 OA
ENDBRANCH 102 105
ENDBRANCH  75  98
ENDBRANCH  49  50
ENDBRANCH  41  44
ENDBRANCH  39  40
ENDBRANCH  38  39
ENDBRANCH   1  38
TORSDOF 22
ENDMDL
MODEL 2
REMARK VINA RESULT:     -10.3      5.424     11.319
REMARK SMILES COc1ccc(-c2c(C(=O)NCCCCCCNC(=O)c3ccc(-c4c5nc(c(-c6cccc(S(=O)(=O)[O-])c6F)c6ccc([nH]6)c(-c6cccc(S(=O)(=O)[O-])c6F)c6nc(c(-c7cccc(S(=O)(=O)[O-])c7F)c7ccc4[nH]7)C=C6)C=C5)cc3)sc3c2N=C(O)C[C@H]3c2ccc(OC)c(OC)c2)cc1
REMARK SMILES IDX 15 1 14 2 13 3 12 4 11 5 9 6 10 7 8 9 7 10 86 11 84 12 85 13
REMARK SMILES IDX 87 14 91 15 88 16 90 17 6 18 3 19 4 20 103 21 5 22 102 23
REMARK SMILES IDX 2 24 1 25 92 26 93 27 101 28 94 29 98 30 95 31 99 32 100 33
REMARK SMILES IDX 96 34 97 35 89 36 16 38 17 39 18 40 19 41 20 43 21 44 22 45
REMARK SMILES IDX 83 46 23 47 82 48 24 49 25 50 26 51 76 52 27 53 81 54 75 55
REMARK SMILES IDX 77 56 28 57 80 58 74 59 73 60 29 62 61 63 41 64 60 65 42 66
REMARK SMILES IDX 45 67 59 68 78 69 43 70 44 71 58 73 79 74 46 75 30 76 31 77
REMARK SMILES IDX 39 78 32 79 34 80 40 81 33 82 35 83 36 84 37 85 38 86 62 87
REMARK SMILES IDX 63 88 71 89 64 90 66 91 72 92 65 93 67 94 68 95 69 96 70 97
REMARK SMILES IDX 47 98 48 99 56 100 49 101 51 102 57 103 50 104 52 105 53 106
REMARK SMILES IDX 54 107 55 108
REMARK H PARENT 11 8 89 37 18 42 77 61 45 72
REMARK Flexibility Score: inf
ROOT
ATOM      1  C   UNL A   1      34.415  33.453  33.470  1.00  0.00     0.002 C 
ENDROOT
BRANCH   1   2
ATOM      2  C   UNL A   1      35.245  34.441  34.304  1.00  0.00     0.002 C 
BRANCH   2   3
ATOM      3  C   UNL A   1      36.004  33.941  35.535  1.00  0.00     0.021 C 
BRANCH   3   4
ATOM      4  C   UNL A   1      37.433  33.458  35.358  1.00  0.00     0.116 C 
BRANCH   4   5
ATOM      5  N   UNL A   1      37.753  32.105  35.716  1.00  0.00    -0.351 N 
ATOM      6  C   UNL A   1      37.860  31.544  36.977  1.00  0.00     0.262 C 
ATOM      7  O   UNL A   1      38.055  30.321  36.958  1.00  0.00    -0.268 OA
ATOM      8  H   UNL A   1      37.918  31.493  34.963  1.00  0.00     0.163 HD
BRANCH   6   9
ATOM      9  C   UNL A   1      37.800  32.304  38.243  1.00  0.00     0.102 A 
ATOM     10  C   UNL A   1      38.420  33.427  38.805  1.00  0.00     0.031 A 
ATOM     11  C   UNL A   1      37.935  33.703  40.123  1.00  0.00     0.090 A 
ATOM     12  S   UNL A   1      36.625  31.669  39.389  1.00  0.00    -0.131 S 
ATOM     13  C   UNL A   1      37.002  32.822  40.571  1.00  0.00     0.040 A 
ATOM     14  N   UNL A   1      38.425  34.768  40.889  1.00  0.00    -0.216 NA
ATOM     15  C   UNL A   1      36.400  32.865  41.934  1.00  0.00     0.071 C 
ATOM     16  C   UNL A   1      38.108  34.749  42.137  1.00  0.00     0.186 C 
ATOM     17  C   UNL A   1      37.233  33.764  42.867  1.00  0.00     0.111 C 
BRANCH  10  18
ATOM     18  C   UNL A   1      39.520  34.198  38.248  1.00  0.00    -0.014 A 
ATOM     19  C   UNL A   1      41.555  35.844  37.259  1.00  0.00     0.118 A 
ATOM     20  C   UNL A   1      41.803  34.492  37.544  1.00  0.00     0.047 A 
ATOM     21  C   UNL A   1      40.264  36.347  37.388  1.00  0.00     0.047 A 
ATOM     22  C   UNL A   1      40.788  33.663  38.037  1.00  0.00     0.012 A 
ATOM     23  C   UNL A   1      39.253  35.526  37.871  1.00  0.00     0.012 A 
BRANCH  19  24
ATOM     24  O   UNL A   1      42.648  36.585  36.893  1.00  0.00    -0.497 OA
ATOM     25  C   UNL A   1      43.863  36.263  37.571  1.00  0.00     0.278 C 
ENDBRANCH  19  24
ENDBRANCH  10  18
BRANCH  15  26
ATOM     26  C   UNL A   1      34.937  33.283  41.916  1.00  0.00    -0.035 A 
ATOM     27  C   UNL A   1      34.289  33.686  40.746  1.00  0.00     0.008 A 
ATOM     28  C   UNL A   1      34.210  33.266  43.119  1.00  0.00     0.054 A 
ATOM     29  C   UNL A   1      32.946  34.061  40.788  1.00  0.00     0.051 A 
ATOM     30  C   UNL A   1      32.862  33.650  43.177  1.00  0.00     0.161 A 
ATOM     31  C   UNL A   1      32.221  34.046  41.990  1.00  0.00     0.160 A 
BRANCH  30  32
ATOM     32  O   UNL A   1      32.154  33.669  44.351  1.00  0.00    -0.493 OA
ATOM     33  C   UNL A   1      32.263  32.543  45.214  1.00  0.00     0.278 C 
ENDBRANCH  30  32
BRANCH  31  34
ATOM     34  O   UNL A   1      30.924  34.459  41.814  1.00  0.00    -0.493 OA
ATOM     35  C   UNL A   1      30.634  35.841  41.936  1.00  0.00     0.278 C 
ENDBRANCH  31  34
ENDBRANCH  15  26
BRANCH  16  36
ATOM     36  O   UNL A   1      38.639  35.699  42.932  1.00  0.00    -0.496 OA
ATOM     37  H   UNL A   1      38.327  36.581  42.881  1.00  0.00     0.294 HD
ENDBRANCH  16  36
ENDBRANCH   6   9
ENDBRANCH   4   5
ENDBRANCH   3   4
ENDBRANCH   2   3
ENDBRANCH   1   2
BRANCH   1  38
ATOM     38  C   UNL A   1      35.130  32.494  32.512  1.00  0.00     0.021 C 
BRANCH  38  39
ATOM     39  C   UNL A   1      36.042  33.120  31.472  1.00  0.00     0.116 C 
BRANCH  39  40
ATOM     40  N   UNL A   1      35.659  32.871  30.088  1.00  0.00    -0.352 N 
ATOM     41  C   UNL A   1      36.435  32.275  29.103  1.00  0.00     0.251 C 
ATOM     42  H   UNL A   1      34.756  33.157  29.823  1.00  0.00     0.163 HD
ATOM     43  O   UNL A   1      36.199  32.473  27.921  1.00  0.00    -0.269 OA
BRANCH  41  44
ATOM     44  C   UNL A   1      37.555  31.390  29.503  1.00  0.00     0.039 A 
ATOM     45  C   UNL A   1      37.378  30.009  29.644  1.00  0.00     0.014 A 
ATOM     46  C   UNL A   1      38.798  31.964  29.759  1.00  0.00     0.014 A 
ATOM     47  C   UNL A   1      38.475  29.216  29.987  1.00  0.00     0.010 A 
ATOM     48  C   UNL A   1      39.906  31.173  29.935  1.00  0.00     0.010 A 
ATOM     49  C   UNL A   1      39.742  29.807  30.120  1.00  0.00    -0.014 A 
BRANCH  49  50
ATOM     50  C   UNL A   1      40.938  28.995  30.335  1.00  0.00     0.031 A 
ATOM     51  C   UNL A   1      41.323  28.882  31.766  1.00  0.00     0.074 A 
ATOM     52  C   UNL A   1      41.504  28.244  29.361  1.00  0.00     0.049 A 
ATOM     53  N   UNL A   1      42.336  29.429  32.350  1.00  0.00    -0.248 NA
ATOM     54  C   UNL A   1      40.377  28.244  32.695  1.00  0.00     0.031 C 
ATOM     55  C   UNL A   1      40.999  28.045  27.993  1.00  0.00     0.029 A 
ATOM     56  N   UNL A   1      42.560  27.381  29.415  1.00  0.00    -0.354 N 
ATOM     57  C   UNL A   1      42.303  28.952  33.660  1.00  0.00     0.074 A 
ATOM     58  C   UNL A   1      40.970  28.464  33.872  1.00  0.00     0.031 C 
ATOM     59  C   UNL A   1      41.572  26.949  27.453  1.00  0.00     0.029 A 
ATOM     60  C   UNL A   1      42.605  26.476  28.353  1.00  0.00     0.049 A 
ATOM     61  H   UNL A   1      43.229  27.395  30.136  1.00  0.00     0.167 HD
ATOM     62  C   UNL A   1      43.464  28.689  34.325  1.00  0.00     0.034 A 
ATOM     63  C   UNL A   1      43.412  25.395  28.226  1.00  0.00     0.034 A 
ATOM     64  C   UNL A   1      44.587  29.240  33.607  1.00  0.00     0.049 A 
ATOM     65  C   UNL A   1      44.568  25.609  29.117  1.00  0.00     0.074 A 
ATOM     66  C   UNL A   1      45.056  30.492  33.279  1.00  0.00     0.029 A 
ATOM     67  N   UNL A   1      45.189  28.341  32.764  1.00  0.00    -0.354 N 
ATOM     68  N   UNL A   1      45.454  26.544  28.923  1.00  0.00    -0.248 NA
ATOM     69  C   UNL A   1      44.564  25.013  30.444  1.00  0.00     0.031 C 
ATOM     70  C   UNL A   1      45.749  30.331  32.044  1.00  0.00     0.029 A 
ATOM     71  C   UNL A   1      45.735  28.980  31.690  1.00  0.00     0.049 A 
ATOM     72  H   UNL A   1      45.222  27.368  32.913  1.00  0.00     0.167 HD
ATOM     73  C   UNL A   1      45.759  26.978  30.200  1.00  0.00     0.074 A 
ATOM     74  C   UNL A   1      45.346  25.889  31.079  1.00  0.00     0.031 C 
ATOM     75  C   UNL A   1      46.001  28.299  30.440  1.00  0.00     0.034 A 
BRANCH  62  76
ATOM     76  C   UNL A   1      43.696  27.544  35.302  1.00  0.00     0.023 A 
ATOM     77  C   UNL A   1      44.160  27.898  36.593  1.00  0.00     0.012 A 
ATOM     78  C   UNL A   1      43.796  26.178  34.952  1.00  0.00     0.148 A 
ATOM     79  C   UNL A   1      44.757  26.968  37.451  1.00  0.00     0.002 A 
ATOM     80  C   UNL A   1      44.331  25.242  35.833  1.00  0.00     0.091 A 
ATOM     81  F   UNL A   1      43.498  25.774  33.718  1.00  0.00    -0.205 F 
ATOM     82  C   UNL A   1      44.843  25.636  37.071  1.00  0.00     0.022 A 
BRANCH  80  83
ATOM     83  S   UNL A   1      44.446  23.498  35.406  1.00  0.00     0.127 S 
ATOM     84  O   UNL A   1      44.961  22.927  36.647  1.00  0.00    -0.237 OA
ATOM     85  O   UNL A   1      43.053  23.175  35.102  1.00  0.00    -0.237 OA
ATOM     86  O   UNL A   1      45.342  23.430  34.258  1.00  0.00    -0.744 OA
ENDBRANCH  80  83
ENDBRANCH  62  76
BRANCH  63  87
ATOM     87  C   UNL A   1      43.202  24.108  27.526  1.00  0.00     0.023 A 
ATOM     88  C   UNL A   1      41.921  23.522  27.489  1.00  0.00     0.012 A 
ATOM     89  C   UNL A   1      44.191  23.607  26.650  1.00  0.00     0.148 A 
ATOM     90  C   UNL A   1      41.619  22.500  26.580  1.00  0.00     0.002 A 
ATOM     91  C   UNL A   1      43.887  22.592  25.748  1.00  0.00     0.091 A 
ATOM     92  F   UNL A   1      45.396  24.191  26.646  1.00  0.00    -0.205 F 
ATOM     93  C   UNL A   1      42.598  22.044  25.700  1.00  0.00     0.022 A 
BRANCH  91  94
ATOM     94  S   UNL A   1      45.083  21.978  24.553  1.00  0.00     0.127 S 
ATOM     95  O   UNL A   1      45.062  23.031  23.538  1.00  0.00    -0.237 OA
ATOM     96  O   UNL A   1      46.307  21.922  25.350  1.00  0.00    -0.237 OA
ATOM     97  O   UNL A   1      44.572  20.691  24.100  1.00  0.00    -0.744 OA
ENDBRANCH  91  94
ENDBRANCH  63  87
BRANCH  75  98
ATOM     98  C   UNL A   1      46.405  29.153  29.275  1.00  0.00     0.023 A 
ATOM     99  C   UNL A   1      47.680  29.102  28.678  1.00  0.00     0.012 A 
ATOM    100  C   UNL A   1      45.404  29.942  28.685  1.00  0.00     0.148 A 
ATOM    101  C   UNL A   1      47.952  29.839  27.522  1.00  0.00     0.002 A 
ATOM    102  C   UNL A   1      45.661  30.629  27.509  1.00  0.00     0.091 A 
ATOM    103  F   UNL A   1      44.201  29.984  29.278  1.00  0.00    -0.205 F 
ATOM    104  C   UNL A   1      46.938  30.590  26.928  1.00  0.00     0.022 A 
BRANCH 102 105
ATOM    105  S   UNL A   1      44.357  31.500  26.641  1.00  0.00     0.127 S 
ATOM    106  O   UNL A   1      45.076  32.072  25.505  1.00  0.00    -0.237 OA
ATOM    107  O   UNL A   1      43.430  30.419  26.302  1.00  0.00    -0.237 OA
ATOM    108  O   UNL A   1      43.818  32.465  27.593  1.00  0.00    -0.744 OA
ENDBRANCH 102 105
ENDBRANCH  75  98
ENDBRANCH  49  50
ENDBRANCH  41  44
ENDBRANCH  39  40
ENDBRANCH  38  39
ENDBRANCH   1  38
TORSDOF 22
ENDMDL
MODEL 3
REMARK VINA RESULT:     -10.3      4.825     11.816
REMARK SMILES COc1ccc(-c2c(C(=O)NCCCCCCNC(=O)c3ccc(-c4c5nc(c(-c6cccc(S(=O)(=O)[O-])c6F)c6ccc([nH]6)c(-c6cccc(S(=O)(=O)[O-])c6F)c6nc(c(-c7cccc(S(=O)(=O)[O-])c7F)c7ccc4[nH]7)C=C6)C=C5)cc3)sc3c2N=C(O)C[C@H]3c2ccc(OC)c(OC)c2)cc1
REMARK SMILES IDX 15 1 14 2 13 3 12 4 11 5 9 6 10 7 8 9 7 10 86 11 84 12 85 13
REMARK SMILES IDX 87 14 91 15 88 16 90 17 6 18 3 19 4 20 103 21 5 22 102 23
REMARK SMILES IDX 2 24 1 25 92 26 93 27 101 28 94 29 98 30 95 31 99 32 100 33
REMARK SMILES IDX 96 34 97 35 89 36 16 38 17 39 18 40 19 41 20 43 21 44 22 45
REMARK SMILES IDX 83 46 23 47 82 48 24 49 25 50 26 51 76 52 27 53 81 54 75 55
REMARK SMILES IDX 77 56 28 57 80 58 74 59 73 60 29 62 61 63 41 64 60 65 42 66
REMARK SMILES IDX 45 67 59 68 78 69 43 70 44 71 58 73 79 74 46 75 30 76 31 77
REMARK SMILES IDX 39 78 32 79 34 80 40 81 33 82 35 83 36 84 37 85 38 86 62 87
REMARK SMILES IDX 63 88 71 89 64 90 66 91 72 92 65 93 67 94 68 95 69 96 70 97
REMARK SMILES IDX 47 98 48 99 56 100 49 101 51 102 57 103 50 104 52 105 53 106
REMARK SMILES IDX 54 107 55 108
REMARK H PARENT 11 8 89 37 18 42 77 61 45 72
REMARK Flexibility Score: inf
ROOT
ATOM      1  C   UNL A   1      42.803  24.370  28.029  1.00  0.00     0.002 C 
ENDROOT
BRANCH   1   2
ATOM      2  C   UNL A   1      43.549  25.670  27.687  1.00  0.00     0.002 C 
BRANCH   2   3
ATOM      3  C   UNL A   1      43.738  26.070  26.223  1.00  0.00     0.021 C 
BRANCH   3   4
ATOM      4  C   UNL A   1      45.143  26.055  25.644  1.00  0.00     0.116 C 
BRANCH   4   5
ATOM      5  N   UNL A   1      45.553  27.141  24.800  1.00  0.00    -0.351 N 
ATOM      6  C   UNL A   1      46.390  28.202  25.098  1.00  0.00     0.262 C 
ATOM      7  O   UNL A   1      46.630  28.930  24.125  1.00  0.00    -0.268 OA
ATOM      8  H   UNL A   1      45.189  27.131  23.886  1.00  0.00     0.163 HD
BRANCH   6   9
ATOM      9  C   UNL A   1      46.928  28.497  26.443  1.00  0.00     0.102 A 
ATOM     10  C   UNL A   1      48.039  28.136  27.214  1.00  0.00     0.031 A 
ATOM     11  C   UNL A   1      48.026  28.764  28.500  1.00  0.00     0.090 A 
ATOM     12  S   UNL A   1      45.937  29.622  27.364  1.00  0.00    -0.131 S 
ATOM     13  C   UNL A   1      46.943  29.553  28.725  1.00  0.00     0.040 A 
ATOM     14  N   UNL A   1      49.029  28.535  29.450  1.00  0.00    -0.216 NA
ATOM     15  C   UNL A   1      46.676  30.256  30.012  1.00  0.00     0.071 C 
ATOM     16  C   UNL A   1      48.767  28.939  30.644  1.00  0.00     0.186 C 
ATOM     17  C   UNL A   1      47.549  29.675  31.140  1.00  0.00     0.111 C 
BRANCH  10  18
ATOM     18  C   UNL A   1      49.060  27.155  26.883  1.00  0.00    -0.014 A 
ATOM     19  C   UNL A   1      51.146  25.419  26.200  1.00  0.00     0.118 A 
ATOM     20  C   UNL A   1      50.198  25.053  27.168  1.00  0.00     0.047 A 
ATOM     21  C   UNL A   1      50.996  26.619  25.512  1.00  0.00     0.047 A 
ATOM     22  C   UNL A   1      49.151  25.917  27.513  1.00  0.00     0.012 A 
ATOM     23  C   UNL A   1      49.955  27.476  25.847  1.00  0.00     0.012 A 
BRANCH  19  24
ATOM     24  O   UNL A   1      52.189  24.546  26.028  1.00  0.00    -0.497 OA
ATOM     25  C   UNL A   1      53.199  24.971  25.113  1.00  0.00     0.278 C 
ENDBRANCH  19  24
ENDBRANCH  10  18
BRANCH  15  26
ATOM     26  C   UNL A   1      46.839  31.765  29.901  1.00  0.00    -0.035 A 
ATOM     27  C   UNL A   1      46.232  32.650  30.794  1.00  0.00     0.008 A 
ATOM     28  C   UNL A   1      47.626  32.289  28.861  1.00  0.00     0.054 A 
ATOM     29  C   UNL A   1      46.414  34.025  30.644  1.00  0.00     0.051 A 
ATOM     30  C   UNL A   1      47.810  33.670  28.693  1.00  0.00     0.161 A 
ATOM     31  C   UNL A   1      47.199  34.548  29.605  1.00  0.00     0.160 A 
BRANCH  30  32
ATOM     32  O   UNL A   1      48.549  34.192  27.663  1.00  0.00    -0.493 OA
ATOM     33  C   UNL A   1      48.291  33.713  26.348  1.00  0.00     0.278 C 
ENDBRANCH  30  32
BRANCH  31  34
ATOM     34  O   UNL A   1      47.240  35.919  29.631  1.00  0.00    -0.493 OA
ATOM     35  C   UNL A   1      47.954  36.554  30.679  1.00  0.00     0.278 C 
ENDBRANCH  31  34
ENDBRANCH  15  26
BRANCH  16  36
ATOM     36  O   UNL A   1      49.661  28.652  31.612  1.00  0.00    -0.496 OA
ATOM     37  H   UNL A   1      50.448  28.190  31.400  1.00  0.00     0.294 HD
ENDBRANCH  16  36
ENDBRANCH   6   9
ENDBRANCH   4   5
ENDBRANCH   3   4
ENDBRANCH   2   3
ENDBRANCH   1   2
BRANCH   1  38
ATOM     38  C   UNL A   1      42.181  23.541  26.901  1.00  0.00     0.021 C 
BRANCH  38  39
ATOM     39  C   UNL A   1      40.863  22.853  27.205  1.00  0.00     0.116 C 
BRANCH  39  40
ATOM     40  N   UNL A   1      39.744  23.266  26.367  1.00  0.00    -0.352 N 
ATOM     41  C   UNL A   1      38.907  24.355  26.571  1.00  0.00     0.251 C 
ATOM     42  H   UNL A   1      39.562  22.715  25.572  1.00  0.00     0.163 HD
ATOM     43  O   UNL A   1      37.793  24.385  26.072  1.00  0.00    -0.269 OA
BRANCH  41  44
ATOM     44  C   UNL A   1      39.384  25.486  27.404  1.00  0.00     0.039 A 
ATOM     45  C   UNL A   1      40.032  26.587  26.834  1.00  0.00     0.014 A 
ATOM     46  C   UNL A   1      39.192  25.425  28.782  1.00  0.00     0.014 A 
ATOM     47  C   UNL A   1      40.427  27.643  27.659  1.00  0.00     0.010 A 
ATOM     48  C   UNL A   1      39.432  26.526  29.567  1.00  0.00     0.010 A 
ATOM     49  C   UNL A   1      40.112  27.609  29.026  1.00  0.00    -0.014 A 
BRANCH  49  50
ATOM     50  C   UNL A   1      40.380  28.754  29.894  1.00  0.00     0.031 A 
ATOM     51  C   UNL A   1      39.149  29.458  30.337  1.00  0.00     0.074 A 
ATOM     52  C   UNL A   1      41.601  29.010  30.419  1.00  0.00     0.049 A 
ATOM     53  N   UNL A   1      38.733  30.622  29.959  1.00  0.00    -0.248 NA
ATOM     54  C   UNL A   1      38.170  28.714  31.145  1.00  0.00     0.031 C 
ATOM     55  C   UNL A   1      42.809  28.181  30.291  1.00  0.00     0.029 A 
ATOM     56  N   UNL A   1      41.997  29.978  31.297  1.00  0.00    -0.354 N 
ATOM     57  C   UNL A   1      37.589  30.864  30.719  1.00  0.00     0.074 A 
ATOM     58  C   UNL A   1      37.160  29.585  31.210  1.00  0.00     0.031 C 
ATOM     59  C   UNL A   1      43.697  28.520  31.251  1.00  0.00     0.029 A 
ATOM     60  C   UNL A   1      43.205  29.697  31.939  1.00  0.00     0.049 A 
ATOM     61  H   UNL A   1      41.480  30.798  31.461  1.00  0.00     0.167 HD
ATOM     62  C   UNL A   1      37.307  32.126  31.152  1.00  0.00     0.034 A 
ATOM     63  C   UNL A   1      43.756  30.363  32.982  1.00  0.00     0.034 A 
ATOM     64  C   UNL A   1      38.148  33.085  30.480  1.00  0.00     0.049 A 
ATOM     65  C   UNL A   1      43.158  31.711  33.002  1.00  0.00     0.074 A 
ATOM     66  C   UNL A   1      38.308  33.559  29.198  1.00  0.00     0.029 A 
ATOM     67  N   UNL A   1      39.286  33.396  31.180  1.00  0.00    -0.354 N 
ATOM     68  N   UNL A   1      43.363  32.596  32.069  1.00  0.00    -0.248 NA
ATOM     69  C   UNL A   1      42.030  31.976  33.883  1.00  0.00     0.031 C 
ATOM     70  C   UNL A   1      39.683  33.923  29.093  1.00  0.00     0.029 A 
ATOM     71  C   UNL A   1      40.301  33.719  30.328  1.00  0.00     0.049 A 
ATOM     72  H   UNL A   1      39.361  33.386  32.162  1.00  0.00     0.167 HD
ATOM     73  C   UNL A   1      42.141  33.229  31.942  1.00  0.00     0.074 A 
ATOM     74  C   UNL A   1      41.439  32.954  33.191  1.00  0.00     0.031 C 
ATOM     75  C   UNL A   1      41.693  33.625  30.716  1.00  0.00     0.034 A 
BRANCH  62  76
ATOM     76  C   UNL A   1      36.686  32.492  32.494  1.00  0.00     0.023 A 
ATOM     77  C   UNL A   1      35.554  33.344  32.455  1.00  0.00     0.012 A 
ATOM     78  C   UNL A   1      37.305  32.329  33.754  1.00  0.00     0.148 A 
ATOM     79  C   UNL A   1      35.115  34.050  33.581  1.00  0.00     0.002 A 
ATOM     80  C   UNL A   1      36.825  32.980  34.887  1.00  0.00     0.091 A 
ATOM     81  F   UNL A   1      38.443  31.644  33.862  1.00  0.00    -0.205 F 
ATOM     82  C   UNL A   1      35.751  33.868  34.800  1.00  0.00     0.022 A 
BRANCH  80  83
ATOM     83  S   UNL A   1      37.594  32.765  36.500  1.00  0.00     0.127 S 
ATOM     84  O   UNL A   1      38.833  33.520  36.336  1.00  0.00    -0.237 OA
ATOM     85  O   UNL A   1      36.604  33.378  37.384  1.00  0.00    -0.237 OA
ATOM     86  O   UNL A   1      37.748  31.326  36.676  1.00  0.00    -0.744 OA
ENDBRANCH  80  83
ENDBRANCH  62  76
BRANCH  63  87
ATOM     87  C   UNL A   1      44.639  29.892  34.073  1.00  0.00     0.023 A 
ATOM     88  C   UNL A   1      45.748  30.666  34.471  1.00  0.00     0.012 A 
ATOM     89  C   UNL A   1      44.226  28.836  34.914  1.00  0.00     0.148 A 
ATOM     90  C   UNL A   1      46.399  30.425  35.687  1.00  0.00     0.002 A 
ATOM     91  C   UNL A   1      44.875  28.599  36.123  1.00  0.00     0.091 A 
ATOM     92  F   UNL A   1      43.144  28.128  34.567  1.00  0.00    -0.205 F 
ATOM     93  C   UNL A   1      45.954  29.401  36.520  1.00  0.00     0.022 A 
BRANCH  91  94
ATOM     94  S   UNL A   1      44.336  27.324  37.270  1.00  0.00     0.127 S 
ATOM     95  O   UNL A   1      42.883  27.490  37.243  1.00  0.00    -0.237 OA
ATOM     96  O   UNL A   1      44.824  26.108  36.624  1.00  0.00    -0.237 OA
ATOM     97  O   UNL A   1      44.957  27.645  38.549  1.00  0.00    -0.744 OA
ENDBRANCH  91  94
ENDBRANCH  63  87
BRANCH  75  98
ATOM     98  C   UNL A   1      42.713  33.806  29.630  1.00  0.00     0.023 A 
ATOM     99  C   UNL A   1      43.206  32.746  28.842  1.00  0.00     0.012 A 
ATOM    100  C   UNL A   1      43.083  35.123  29.315  1.00  0.00     0.148 A 
ATOM    101  C   UNL A   1      44.066  33.002  27.770  1.00  0.00     0.002 A 
ATOM    102  C   UNL A   1      43.892  35.377  28.219  1.00  0.00     0.091 A 
ATOM    103  F   UNL A   1      42.609  36.113  30.087  1.00  0.00    -0.205 F 
ATOM    104  C   UNL A   1      44.396  34.318  27.449  1.00  0.00     0.022 A 
BRANCH 102 105
ATOM    105  S   UNL A   1      44.237  37.054  27.690  1.00  0.00     0.127 S 
ATOM    106  O   UNL A   1      45.456  36.882  26.905  1.00  0.00    -0.237 OA
ATOM    107  O   UNL A   1      43.044  37.388  26.909  1.00  0.00    -0.237 OA
ATOM    108  O   UNL A   1      44.382  37.837  28.912  1.00  0.00    -0.744 OA
ENDBRANCH 102 105
ENDBRANCH  75  98
ENDBRANCH  49  50
ENDBRANCH  41  44
ENDBRANCH  39  40
ENDBRANCH  38  39
ENDBRANCH   1  38
TORSDOF 22
ENDMDL
