MODEL 1
REMARK VINA RESULT:     -11.1      0.000      0.000
REMARK SMILES CSc1nc(C2CC2)nc(C)c1C(=O)NCCCCNC(=O)c1ccc(-c2c3nc(c(-c4cccc(S(=O)(=O)[O-])c4F)c4ccc([nH]4)c(-c4cccc(S(=O)(=O)[O-])c4F)c4nc(c(-c5cccc(S(=O)(=O)[O-])c5F)c5ccc2[nH]5)C=C4)C=C3)cc1
REMARK SMILES IDX 18 1 17 2 16 3 15 4 13 5 14 6 12 8 3 9 4 10 5 11 10 12 9 13
REMARK SMILES IDX 11 14 2 15 1 16 6 17 7 18 8 19 19 20 20 21 21 22 22 24 23 25
REMARK SMILES IDX 24 26 85 27 25 28 84 29 26 30 27 31 28 32 78 33 29 34 83 35
REMARK SMILES IDX 77 36 79 37 30 38 82 39 76 40 75 41 31 43 63 44 43 45 62 46
REMARK SMILES IDX 44 47 47 48 61 49 80 50 45 51 46 52 60 54 81 55 48 56 32 57
REMARK SMILES IDX 33 58 41 59 34 60 36 61 42 62 35 63 37 64 38 65 39 66 40 67
REMARK SMILES IDX 64 68 65 69 73 70 66 71 68 72 74 73 67 74 69 75 70 76 71 77
REMARK SMILES IDX 72 78 49 79 50 80 58 81 51 82 53 83 59 84 52 85 54 86 55 87
REMARK SMILES IDX 56 88 57 89
REMARK H PARENT 15 7 20 23 79 42 47 53
REMARK Flexibility Score: inf
ROOT
ATOM      1  C   UNL A   1      31.369  29.945  25.446  1.00  0.00     0.023 C 
ENDROOT
BRANCH   1   2
ATOM      2  C   UNL A   1      31.715  29.106  24.212  1.00  0.00     0.023 C 
BRANCH   2   3
ATOM      3  C   UNL A   1      30.596  28.172  23.764  1.00  0.00     0.116 C 
BRANCH   3   4
ATOM      4  N   UNL A   1      30.361  27.091  24.693  1.00  0.00    -0.352 N 
ATOM      5  C   UNL A   1      31.083  26.240  25.481  1.00  0.00     0.255 C 
ATOM      6  O   UNL A   1      30.447  25.968  26.505  1.00  0.00    -0.269 OA
ATOM      7  H   UNL A   1      29.396  26.916  24.786  1.00  0.00     0.163 HD
BRANCH   5   8
ATOM      8  C   UNL A   1      32.433  25.608  25.269  1.00  0.00     0.093 A 
ATOM      9  C   UNL A   1      32.496  24.345  24.643  1.00  0.00     0.113 A 
ATOM     10  N   UNL A   1      33.643  23.638  24.438  1.00  0.00    -0.225 NA
ATOM     11  C   UNL A   1      34.797  24.173  24.821  1.00  0.00     0.133 A 
ATOM     12  C   UNL A   1      33.695  26.073  25.627  1.00  0.00     0.055 A 
ATOM     13  N   UNL A   1      34.844  25.370  25.405  1.00  0.00    -0.237 NA
ATOM     14  C   UNL A   1      34.027  27.346  26.317  1.00  0.00     0.068 C 
BRANCH   9  15
ATOM     15  S   UNL A   1      31.137  23.434  23.898  1.00  0.00    -0.109 SA
ATOM     16  C   UNL A   1      32.106  22.162  23.044  1.00  0.00     0.092 C 
ENDBRANCH   9  15
BRANCH  11  17
ATOM     17  C   UNL A   1      36.101  23.450  24.590  1.00  0.00     0.058 C 
ATOM     18  C   UNL A   1      37.254  23.536  25.560  1.00  0.00     0.012 C 
ATOM     19  C   UNL A   1      36.457  22.268  25.464  1.00  0.00     0.012 C 
ENDBRANCH  11  17
ENDBRANCH   5   8
ENDBRANCH   3   4
ENDBRANCH   2   3
ENDBRANCH   1   2
BRANCH   1  20
ATOM     20  C   UNL A   1      32.565  30.514  26.208  1.00  0.00     0.116 C 
BRANCH  20  21
ATOM     21  N   UNL A   1      32.382  31.884  26.671  1.00  0.00    -0.352 N 
ATOM     22  C   UNL A   1      33.231  32.608  27.477  1.00  0.00     0.251 C 
ATOM     23  H   UNL A   1      31.561  32.340  26.376  1.00  0.00     0.163 HD
ATOM     24  O   UNL A   1      32.931  33.733  27.859  1.00  0.00    -0.269 OA
BRANCH  22  25
ATOM     25  C   UNL A   1      34.490  31.971  27.913  1.00  0.00     0.039 A 
ATOM     26  C   UNL A   1      35.639  32.756  28.024  1.00  0.00     0.014 A 
ATOM     27  C   UNL A   1      34.494  30.633  28.314  1.00  0.00     0.014 A 
ATOM     28  C   UNL A   1      36.782  32.214  28.614  1.00  0.00     0.010 A 
ATOM     29  C   UNL A   1      35.610  30.119  28.963  1.00  0.00     0.010 A 
ATOM     30  C   UNL A   1      36.763  30.904  29.124  1.00  0.00    -0.014 A 
BRANCH  30  31
ATOM     31  C   UNL A   1      37.927  30.344  29.855  1.00  0.00     0.031 A 
ATOM     32  C   UNL A   1      38.211  30.779  31.265  1.00  0.00     0.074 A 
ATOM     33  C   UNL A   1      38.786  29.528  29.212  1.00  0.00     0.049 A 
ATOM     34  N   UNL A   1      39.209  30.449  32.043  1.00  0.00    -0.248 NA
ATOM     35  C   UNL A   1      37.271  31.738  31.868  1.00  0.00     0.031 C 
ATOM     36  C   UNL A   1      38.676  29.115  27.812  1.00  0.00     0.029 A 
ATOM     37  N   UNL A   1      39.941  28.926  29.645  1.00  0.00    -0.354 N 
ATOM     38  C   UNL A   1      39.041  31.188  33.207  1.00  0.00     0.074 A 
ATOM     39  C   UNL A   1      37.867  32.010  33.021  1.00  0.00     0.031 C 
ATOM     40  C   UNL A   1      39.716  28.324  27.503  1.00  0.00     0.029 A 
ATOM     41  C   UNL A   1      40.577  28.189  28.673  1.00  0.00     0.049 A 
ATOM     42  H   UNL A   1      40.282  29.012  30.564  1.00  0.00     0.167 HD
ATOM     43  C   UNL A   1      39.776  31.158  34.343  1.00  0.00     0.034 A 
ATOM     44  C   UNL A   1      41.722  27.479  28.721  1.00  0.00     0.034 A 
ATOM     45  C   UNL A   1      40.904  30.292  34.548  1.00  0.00     0.049 A 
ATOM     46  C   UNL A   1      42.476  27.398  30.021  1.00  0.00     0.074 A 
ATOM     47  C   UNL A   1      41.646  30.103  35.700  1.00  0.00     0.029 A 
ATOM     48  N   UNL A   1      41.453  29.467  33.578  1.00  0.00    -0.354 N 
ATOM     49  N   UNL A   1      42.197  27.962  31.172  1.00  0.00    -0.248 NA
ATOM     50  C   UNL A   1      43.678  26.553  30.043  1.00  0.00     0.031 C 
ATOM     51  C   UNL A   1      42.650  29.169  35.423  1.00  0.00     0.029 A 
ATOM     52  C   UNL A   1      42.526  28.769  34.102  1.00  0.00     0.049 A 
ATOM     53  H   UNL A   1      41.126  29.391  32.653  1.00  0.00     0.167 HD
ATOM     54  C   UNL A   1      43.168  27.516  32.061  1.00  0.00     0.074 A 
ATOM     55  C   UNL A   1      44.030  26.617  31.321  1.00  0.00     0.031 C 
ATOM     56  C   UNL A   1      43.339  27.834  33.368  1.00  0.00     0.034 A 
BRANCH  43  57
ATOM     57  C   UNL A   1      39.332  32.041  35.479  1.00  0.00     0.023 A 
ATOM     58  C   UNL A   1      38.444  31.527  36.446  1.00  0.00     0.012 A 
ATOM     59  C   UNL A   1      39.813  33.357  35.613  1.00  0.00     0.148 A 
ATOM     60  C   UNL A   1      38.010  32.320  37.507  1.00  0.00     0.002 A 
ATOM     61  C   UNL A   1      39.409  34.129  36.698  1.00  0.00     0.091 A 
ATOM     62  F   UNL A   1      40.634  33.841  34.670  1.00  0.00    -0.205 F 
ATOM     63  C   UNL A   1      38.499  33.616  37.638  1.00  0.00     0.022 A 
BRANCH  61  64
ATOM     64  S   UNL A   1      40.043  35.785  36.988  1.00  0.00     0.127 S 
ATOM     65  O   UNL A   1      39.335  36.162  38.210  1.00  0.00    -0.237 OA
ATOM     66  O   UNL A   1      41.476  35.543  37.164  1.00  0.00    -0.237 OA
ATOM     67  O   UNL A   1      39.705  36.552  35.798  1.00  0.00    -0.744 OA
ENDBRANCH  61  64
ENDBRANCH  43  57
BRANCH  44  68
ATOM     68  C   UNL A   1      42.169  26.714  27.524  1.00  0.00     0.023 A 
ATOM     69  C   UNL A   1      42.903  27.378  26.521  1.00  0.00     0.012 A 
ATOM     70  C   UNL A   1      41.918  25.335  27.393  1.00  0.00     0.148 A 
ATOM     71  C   UNL A   1      43.358  26.688  25.397  1.00  0.00     0.002 A 
ATOM     72  C   UNL A   1      42.419  24.643  26.294  1.00  0.00     0.091 A 
ATOM     73  F   UNL A   1      41.209  24.725  28.351  1.00  0.00    -0.205 F 
ATOM     74  C   UNL A   1      43.126  25.320  25.289  1.00  0.00     0.022 A 
BRANCH  72  75
ATOM     75  S   UNL A   1      42.282  22.858  26.140  1.00  0.00     0.127 S 
ATOM     76  O   UNL A   1      42.949  22.616  24.864  1.00  0.00    -0.237 OA
ATOM     77  O   UNL A   1      43.019  22.395  27.318  1.00  0.00    -0.237 OA
ATOM     78  O   UNL A   1      40.855  22.571  26.178  1.00  0.00    -0.744 OA
ENDBRANCH  72  75
ENDBRANCH  44  68
BRANCH  56  79
ATOM     79  C   UNL A   1      44.490  27.193  34.098  1.00  0.00     0.023 A 
ATOM     80  C   UNL A   1      45.712  27.883  34.211  1.00  0.00     0.012 A 
ATOM     81  C   UNL A   1      44.332  25.951  34.744  1.00  0.00     0.148 A 
ATOM     82  C   UNL A   1      46.770  27.336  34.936  1.00  0.00     0.002 A 
ATOM     83  C   UNL A   1      45.377  25.432  35.501  1.00  0.00     0.091 A 
ATOM     84  F   UNL A   1      43.168  25.300  34.606  1.00  0.00    -0.205 F 
ATOM     85  C   UNL A   1      46.598  26.118  35.590  1.00  0.00     0.022 A 
BRANCH  83  86
ATOM     86  S   UNL A   1      45.207  23.917  36.451  1.00  0.00     0.127 S 
ATOM     87  O   UNL A   1      46.600  23.506  36.611  1.00  0.00    -0.237 OA
ATOM     88  O   UNL A   1      44.564  24.387  37.680  1.00  0.00    -0.237 OA
ATOM     89  O   UNL A   1      44.379  23.032  35.643  1.00  0.00    -0.744 OA
ENDBRANCH  83  86
ENDBRANCH  56  79
ENDBRANCH  30  31
ENDBRANCH  22  25
ENDBRANCH  20  21
ENDBRANCH   1  20
TORSDOF 16
ENDMDL
MODEL 2
REMARK VINA RESULT:     -11.0      1.727      2.254
REMARK SMILES CSc1nc(C2CC2)nc(C)c1C(=O)NCCCCNC(=O)c1ccc(-c2c3nc(c(-c4cccc(S(=O)(=O)[O-])c4F)c4ccc([nH]4)c(-c4cccc(S(=O)(=O)[O-])c4F)c4nc(c(-c5cccc(S(=O)(=O)[O-])c5F)c5ccc2[nH]5)C=C4)C=C3)cc1
REMARK SMILES IDX 18 1 17 2 16 3 15 4 13 5 14 6 12 8 3 9 4 10 5 11 10 12 9 13
REMARK SMILES IDX 11 14 2 15 1 16 6 17 7 18 8 19 19 20 20 21 21 22 22 24 23 25
REMARK SMILES IDX 24 26 85 27 25 28 84 29 26 30 27 31 28 32 78 33 29 34 83 35
REMARK SMILES IDX 77 36 79 37 30 38 82 39 76 40 75 41 31 43 63 44 43 45 62 46
REMARK SMILES IDX 44 47 47 48 61 49 80 50 45 51 46 52 60 54 81 55 48 56 32 57
REMARK SMILES IDX 33 58 41 59 34 60 36 61 42 62 35 63 37 64 38 65 39 66 40 67
REMARK SMILES IDX 64 68 65 69 73 70 66 71 68 72 74 73 67 74 69 75 70 76 71 77
REMARK SMILES IDX 72 78 49 79 50 80 58 81 51 82 53 83 59 84 52 85 54 86 55 87
REMARK SMILES IDX 56 88 57 89
REMARK H PARENT 15 7 20 23 79 42 47 53
REMARK Flexibility Score: inf
ROOT
ATOM      1  C   UNL A   1      31.621  29.538  26.863  1.00  0.00     0.023 C 
ENDROOT
BRANCH   1   2
ATOM      2  C   UNL A   1      32.026  28.208  27.505  1.00  0.00     0.023 C 
BRANCH   2   3
ATOM      3  C   UNL A   1      32.641  27.210  26.529  1.00  0.00     0.116 C 
BRANCH   3   4
ATOM      4  N   UNL A   1      31.707  26.759  25.524  1.00  0.00    -0.352 N 
ATOM      5  C   UNL A   1      31.135  25.591  25.106  1.00  0.00     0.255 C 
ATOM      6  O   UNL A   1      29.994  25.804  24.682  1.00  0.00    -0.269 OA
ATOM      7  H   UNL A   1      31.388  27.516  24.981  1.00  0.00     0.163 HD
BRANCH   5   8
ATOM      8  C   UNL A   1      31.681  24.188  25.062  1.00  0.00     0.093 A 
ATOM      9  C   UNL A   1      32.735  23.901  24.169  1.00  0.00     0.113 A 
ATOM     10  N   UNL A   1      33.285  22.667  23.989  1.00  0.00    -0.225 NA
ATOM     11  C   UNL A   1      32.828  21.655  24.718  1.00  0.00     0.133 A 
ATOM     12  C   UNL A   1      31.282  23.060  25.773  1.00  0.00     0.055 A 
ATOM     13  N   UNL A   1      31.846  21.828  25.603  1.00  0.00    -0.237 NA
ATOM     14  C   UNL A   1      30.198  22.964  26.784  1.00  0.00     0.068 C 
BRANCH   9  15
ATOM     15  S   UNL A   1      33.649  25.073  23.158  1.00  0.00    -0.109 SA
ATOM     16  C   UNL A   1      32.495  25.177  21.763  1.00  0.00     0.092 C 
ENDBRANCH   9  15
BRANCH  11  17
ATOM     17  C   UNL A   1      33.421  20.274  24.584  1.00  0.00     0.058 C 
ATOM     18  C   UNL A   1      32.904  19.094  25.372  1.00  0.00     0.012 C 
ATOM     19  C   UNL A   1      32.621  19.189  23.901  1.00  0.00     0.012 C 
ENDBRANCH  11  17
ENDBRANCH   5   8
ENDBRANCH   3   4
ENDBRANCH   2   3
ENDBRANCH   1   2
BRANCH   1  20
ATOM     20  C   UNL A   1      32.779  30.442  26.442  1.00  0.00     0.116 C 
BRANCH  20  21
ATOM     21  N   UNL A   1      32.645  31.826  26.876  1.00  0.00    -0.352 N 
ATOM     22  C   UNL A   1      33.538  32.548  27.637  1.00  0.00     0.251 C 
ATOM     23  H   UNL A   1      31.828  32.297  26.594  1.00  0.00     0.163 HD
ATOM     24  O   UNL A   1      33.278  33.690  27.998  1.00  0.00    -0.269 OA
BRANCH  22  25
ATOM     25  C   UNL A   1      34.793  31.890  28.049  1.00  0.00     0.039 A 
ATOM     26  C   UNL A   1      35.953  32.658  28.157  1.00  0.00     0.014 A 
ATOM     27  C   UNL A   1      34.784  30.546  28.434  1.00  0.00     0.014 A 
ATOM     28  C   UNL A   1      37.096  32.093  28.726  1.00  0.00     0.010 A 
ATOM     29  C   UNL A   1      35.900  30.010  29.063  1.00  0.00     0.010 A 
ATOM     30  C   UNL A   1      37.065  30.778  29.220  1.00  0.00    -0.014 A 
BRANCH  30  31
ATOM     31  C   UNL A   1      38.230  30.194  29.931  1.00  0.00     0.031 A 
ATOM     32  C   UNL A   1      38.553  30.629  31.333  1.00  0.00     0.074 A 
ATOM     33  C   UNL A   1      39.057  29.355  29.275  1.00  0.00     0.049 A 
ATOM     34  N   UNL A   1      39.558  30.279  32.092  1.00  0.00    -0.248 NA
ATOM     35  C   UNL A   1      37.648  31.612  31.950  1.00  0.00     0.031 C 
ATOM     36  C   UNL A   1      38.908  28.938  27.879  1.00  0.00     0.029 A 
ATOM     37  N   UNL A   1      40.206  28.727  29.687  1.00  0.00    -0.354 N 
ATOM     38  C   UNL A   1      39.432  31.026  33.255  1.00  0.00     0.074 A 
ATOM     39  C   UNL A   1      38.273  31.876  33.088  1.00  0.00     0.031 C 
ATOM     40  C   UNL A   1      39.924  28.121  27.553  1.00  0.00     0.029 A 
ATOM     41  C   UNL A   1      40.804  27.971  28.707  1.00  0.00     0.049 A 
ATOM     42  H   UNL A   1      40.568  28.810  30.599  1.00  0.00     0.167 HD
ATOM     43  C   UNL A   1      40.188  30.985  34.377  1.00  0.00     0.034 A 
ATOM     44  C   UNL A   1      41.933  27.235  28.735  1.00  0.00     0.034 A 
ATOM     45  C   UNL A   1      41.299  30.093  34.564  1.00  0.00     0.049 A 
ATOM     46  C   UNL A   1      42.711  27.142  30.020  1.00  0.00     0.074 A 
ATOM     47  C   UNL A   1      42.060  29.891  35.701  1.00  0.00     0.029 A 
ATOM     48  N   UNL A   1      41.809  29.251  33.587  1.00  0.00    -0.354 N 
ATOM     49  N   UNL A   1      42.469  27.717  31.173  1.00  0.00    -0.248 NA
ATOM     50  C   UNL A   1      43.893  26.268  30.022  1.00  0.00     0.031 C 
ATOM     51  C   UNL A   1      43.036  28.932  35.408  1.00  0.00     0.029 A 
ATOM     52  C   UNL A   1      42.876  28.530  34.092  1.00  0.00     0.049 A 
ATOM     53  H   UNL A   1      41.462  29.178  32.668  1.00  0.00     0.167 HD
ATOM     54  C   UNL A   1      43.447  27.252  32.046  1.00  0.00     0.074 A 
ATOM     55  C   UNL A   1      44.272  26.330  31.293  1.00  0.00     0.031 C 
ATOM     56  C   UNL A   1      43.652  27.572  33.347  1.00  0.00     0.034 A 
BRANCH  43  57
ATOM     57  C   UNL A   1      39.788  31.883  35.517  1.00  0.00     0.023 A 
ATOM     58  C   UNL A   1      40.333  33.181  35.596  1.00  0.00     0.012 A 
ATOM     59  C   UNL A   1      38.855  31.465  36.484  1.00  0.00     0.148 A 
ATOM     60  C   UNL A   1      39.986  34.036  36.641  1.00  0.00     0.002 A 
ATOM     61  C   UNL A   1      38.481  32.338  37.500  1.00  0.00     0.091 A 
ATOM     62  F   UNL A   1      38.367  30.218  36.410  1.00  0.00    -0.205 F 
ATOM     63  C   UNL A   1      39.054  33.618  37.587  1.00  0.00     0.022 A 
BRANCH  61  64
ATOM     64  S   UNL A   1      37.233  31.914  38.721  1.00  0.00     0.127 S 
ATOM     65  O   UNL A   1      37.912  32.257  39.969  1.00  0.00    -0.237 OA
ATOM     66  O   UNL A   1      36.130  32.807  38.362  1.00  0.00    -0.237 OA
ATOM     67  O   UNL A   1      36.951  30.499  38.522  1.00  0.00    -0.744 OA
ENDBRANCH  61  64
ENDBRANCH  43  57
BRANCH  44  68
ATOM     68  C   UNL A   1      42.338  26.454  27.533  1.00  0.00     0.023 A 
ATOM     69  C   UNL A   1      43.106  27.083  26.534  1.00  0.00     0.012 A 
ATOM     70  C   UNL A   1      42.012  25.091  27.394  1.00  0.00     0.148 A 
ATOM     71  C   UNL A   1      43.523  26.376  25.405  1.00  0.00     0.002 A 
ATOM     72  C   UNL A   1      42.474  24.380  26.291  1.00  0.00     0.091 A 
ATOM     73  F   UNL A   1      41.271  24.515  28.349  1.00  0.00    -0.205 F 
ATOM     74  C   UNL A   1      43.217  25.024  25.289  1.00  0.00     0.022 A 
BRANCH  72  75
ATOM     75  S   UNL A   1      42.240  22.606  26.126  1.00  0.00     0.127 S 
ATOM     76  O   UNL A   1      42.927  22.330  24.867  1.00  0.00    -0.237 OA
ATOM     77  O   UNL A   1      42.918  22.099  27.321  1.00  0.00    -0.237 OA
ATOM     78  O   UNL A   1      40.799  22.401  26.124  1.00  0.00    -0.744 OA
ENDBRANCH  72  75
ENDBRANCH  44  68
BRANCH  56  79
ATOM     79  C   UNL A   1      44.802  26.908  34.057  1.00  0.00     0.023 A 
ATOM     80  C   UNL A   1      46.090  27.467  33.969  1.00  0.00     0.012 A 
ATOM     81  C   UNL A   1      44.588  25.784  34.879  1.00  0.00     0.148 A 
ATOM     82  C   UNL A   1      47.157  26.905  34.668  1.00  0.00     0.002 A 
ATOM     83  C   UNL A   1      45.648  25.254  35.607  1.00  0.00     0.091 A 
ATOM     84  F   UNL A   1      43.358  25.252  34.932  1.00  0.00    -0.205 F 
ATOM     85  C   UNL A   1      46.933  25.808  35.496  1.00  0.00     0.022 A 
BRANCH  83  86
ATOM     86  S   UNL A   1      45.426  23.901  36.769  1.00  0.00     0.127 S 
ATOM     87  O   UNL A   1      44.451  24.464  37.700  1.00  0.00    -0.237 OA
ATOM     88  O   UNL A   1      44.906  22.834  35.912  1.00  0.00    -0.237 OA
ATOM     89  O   UNL A   1      46.746  23.635  37.324  1.00  0.00    -0.744 OA
ENDBRANCH  83  86
ENDBRANCH  56  79
ENDBRANCH  30  31
ENDBRANCH  22  25
ENDBRANCH  20  21
ENDBRANCH   1  20
TORSDOF 16
ENDMDL
MODEL 3
REMARK VINA RESULT:     -10.9      2.513      8.272
REMARK SMILES CSc1nc(C2CC2)nc(C)c1C(=O)NCCCCNC(=O)c1ccc(-c2c3nc(c(-c4cccc(S(=O)(=O)[O-])c4F)c4ccc([nH]4)c(-c4cccc(S(=O)(=O)[O-])c4F)c4nc(c(-c5cccc(S(=O)(=O)[O-])c5F)c5ccc2[nH]5)C=C4)C=C3)cc1
REMARK SMILES IDX 18 1 17 2 16 3 15 4 13 5 14 6 12 8 3 9 4 10 5 11 10 12 9 13
REMARK SMILES IDX 11 14 2 15 1 16 6 17 7 18 8 19 19 20 20 21 21 22 22 24 23 25
REMARK SMILES IDX 24 26 85 27 25 28 84 29 26 30 27 31 28 32 78 33 29 34 83 35
REMARK SMILES IDX 77 36 79 37 30 38 82 39 76 40 75 41 31 43 63 44 43 45 62 46
REMARK SMILES IDX 44 47 47 48 61 49 80 50 45 51 46 52 60 54 81 55 48 56 32 57
REMARK SMILES IDX 33 58 41 59 34 60 36 61 42 62 35 63 37 64 38 65 39 66 40 67
REMARK SMILES IDX 64 68 65 69 73 70 66 71 68 72 74 73 67 74 69 75 70 76 71 77
REMARK SMILES IDX 72 78 49 79 50 80 58 81 51 82 53 83 59 84 52 85 54 86 55 87
REMARK SMILES IDX 56 88 57 89
REMARK H PARENT 15 7 20 23 79 42 47 53
REMARK Flexibility Score: inf
ROOT
ATOM      1  C   UNL A   1      32.159  31.407  26.916  1.00  0.00     0.023 C 
ENDROOT
BRANCH   1   2
ATOM      2  C   UNL A   1      32.488  29.916  27.047  1.00  0.00     0.023 C 
BRANCH   2   3
ATOM      3  C   UNL A   1      33.974  29.597  26.926  1.00  0.00     0.116 C 
BRANCH   3   4
ATOM      4  N   UNL A   1      34.338  29.105  25.617  1.00  0.00    -0.352 N 
ATOM      5  C   UNL A   1      33.858  28.238  24.677  1.00  0.00     0.255 C 
ATOM      6  O   UNL A   1      34.153  28.633  23.544  1.00  0.00    -0.269 OA
ATOM      7  H   UNL A   1      35.180  29.516  25.312  1.00  0.00     0.163 HD
BRANCH   5   8
ATOM      8  C   UNL A   1      33.104  26.942  24.826  1.00  0.00     0.093 A 
ATOM      9  C   UNL A   1      31.699  26.960  24.698  1.00  0.00     0.113 A 
ATOM     10  N   UNL A   1      30.892  25.874  24.861  1.00  0.00    -0.225 NA
ATOM     11  C   UNL A   1      31.452  24.701  25.133  1.00  0.00     0.133 A 
ATOM     12  C   UNL A   1      33.583  25.667  25.109  1.00  0.00     0.055 A 
ATOM     13  N   UNL A   1      32.774  24.577  25.256  1.00  0.00    -0.237 NA
ATOM     14  C   UNL A   1      34.994  25.259  25.330  1.00  0.00     0.068 C 
BRANCH   9  15
ATOM     15  S   UNL A   1      30.672  28.350  24.204  1.00  0.00    -0.109 SA
ATOM     16  C   UNL A   1      30.619  28.022  22.422  1.00  0.00     0.092 C 
ENDBRANCH   9  15
BRANCH  11  17
ATOM     17  C   UNL A   1      30.610  23.458  25.292  1.00  0.00     0.058 C 
ATOM     18  C   UNL A   1      31.181  22.157  25.801  1.00  0.00     0.012 C 
ATOM     19  C   UNL A   1      30.275  22.966  26.682  1.00  0.00     0.012 C 
ENDBRANCH  11  17
ENDBRANCH   5   8
ENDBRANCH   3   4
ENDBRANCH   2   3
ENDBRANCH   1   2
BRANCH   1  20
ATOM     20  C   UNL A   1      33.171  32.359  27.552  1.00  0.00     0.116 C 
BRANCH  20  21
ATOM     21  N   UNL A   1      32.676  33.716  27.745  1.00  0.00    -0.352 N 
ATOM     22  C   UNL A   1      33.152  34.654  28.633  1.00  0.00     0.251 C 
ATOM     23  H   UNL A   1      31.918  33.991  27.180  1.00  0.00     0.163 HD
ATOM     24  O   UNL A   1      32.603  35.744  28.753  1.00  0.00    -0.269 OA
BRANCH  22  25
ATOM     25  C   UNL A   1      34.311  34.294  29.473  1.00  0.00     0.039 A 
ATOM     26  C   UNL A   1      34.086  33.652  30.692  1.00  0.00     0.014 A 
ATOM     27  C   UNL A   1      35.609  34.492  28.997  1.00  0.00     0.014 A 
ATOM     28  C   UNL A   1      35.171  33.137  31.404  1.00  0.00     0.010 A 
ATOM     29  C   UNL A   1      36.678  33.917  29.672  1.00  0.00     0.010 A 
ATOM     30  C   UNL A   1      36.471  33.230  30.879  1.00  0.00    -0.014 A 
BRANCH  30  31
ATOM     31  C   UNL A   1      37.625  32.593  31.560  1.00  0.00     0.031 A 
ATOM     32  C   UNL A   1      38.350  31.450  30.905  1.00  0.00     0.074 A 
ATOM     33  C   UNL A   1      37.951  32.971  32.812  1.00  0.00     0.049 A 
ATOM     34  N   UNL A   1      39.338  30.730  31.366  1.00  0.00    -0.248 NA
ATOM     35  C   UNL A   1      37.879  31.042  29.571  1.00  0.00     0.031 C 
ATOM     36  C   UNL A   1      37.258  33.997  33.595  1.00  0.00     0.029 A 
ATOM     37  N   UNL A   1      38.929  32.514  33.659  1.00  0.00    -0.354 N 
ATOM     38  C   UNL A   1      39.580  29.759  30.403  1.00  0.00     0.074 A 
ATOM     39  C   UNL A   1      38.612  29.960  29.347  1.00  0.00     0.031 C 
ATOM     40  C   UNL A   1      37.836  34.093  34.803  1.00  0.00     0.029 A 
ATOM     41  C   UNL A   1      38.925  33.127  34.890  1.00  0.00     0.049 A 
ATOM     42  H   UNL A   1      39.574  31.813  33.409  1.00  0.00     0.167 HD
ATOM     43  C   UNL A   1      40.544  28.809  30.379  1.00  0.00     0.034 A 
ATOM     44  C   UNL A   1      39.713  32.935  35.967  1.00  0.00     0.034 A 
ATOM     45  C   UNL A   1      41.544  28.654  31.399  1.00  0.00     0.049 A 
ATOM     46  C   UNL A   1      40.829  31.928  35.884  1.00  0.00     0.074 A 
ATOM     47  C   UNL A   1      42.631  27.799  31.416  1.00  0.00     0.029 A 
ATOM     48  N   UNL A   1      41.581  29.374  32.584  1.00  0.00    -0.354 N 
ATOM     49  N   UNL A   1      41.158  31.143  34.886  1.00  0.00    -0.248 NA
ATOM     50  C   UNL A   1      41.707  31.808  37.056  1.00  0.00     0.031 C 
ATOM     51  C   UNL A   1      43.321  27.996  32.617  1.00  0.00     0.029 A 
ATOM     52  C   UNL A   1      42.670  28.981  33.342  1.00  0.00     0.049 A 
ATOM     53  H   UNL A   1      40.929  30.062  32.846  1.00  0.00     0.167 HD
ATOM     54  C   UNL A   1      42.297  30.460  35.297  1.00  0.00     0.074 A 
ATOM     55  C   UNL A   1      42.615  30.940  36.626  1.00  0.00     0.031 C 
ATOM     56  C   UNL A   1      43.006  29.509  34.639  1.00  0.00     0.034 A 
BRANCH  43  57
ATOM     57  C   UNL A   1      40.602  27.911  29.172  1.00  0.00     0.023 A 
ATOM     58  C   UNL A   1      39.723  26.812  29.086  1.00  0.00     0.012 A 
ATOM     59  C   UNL A   1      41.493  28.168  28.113  1.00  0.00     0.148 A 
ATOM     60  C   UNL A   1      39.755  25.960  27.984  1.00  0.00     0.002 A 
ATOM     61  C   UNL A   1      41.491  27.337  26.997  1.00  0.00     0.091 A 
ATOM     62  F   UNL A   1      42.342  29.200  28.223  1.00  0.00    -0.205 F 
ATOM     63  C   UNL A   1      40.632  26.227  26.936  1.00  0.00     0.022 A 
BRANCH  61  64
ATOM     64  S   UNL A   1      42.534  27.646  25.567  1.00  0.00     0.127 S 
ATOM     65  O   UNL A   1      42.242  26.483  24.732  1.00  0.00    -0.237 OA
ATOM     66  O   UNL A   1      41.999  28.911  25.059  1.00  0.00    -0.237 OA
ATOM     67  O   UNL A   1      43.893  27.732  26.081  1.00  0.00    -0.744 OA
ENDBRANCH  61  64
ENDBRANCH  43  57
BRANCH  44  68
ATOM     68  C   UNL A   1      39.531  33.783  37.178  1.00  0.00     0.023 A 
ATOM     69  C   UNL A   1      39.984  35.117  37.155  1.00  0.00     0.012 A 
ATOM     70  C   UNL A   1      38.876  33.299  38.326  1.00  0.00     0.148 A 
ATOM     71  C   UNL A   1      39.808  35.947  38.262  1.00  0.00     0.002 A 
ATOM     72  C   UNL A   1      38.660  34.148  39.407  1.00  0.00     0.091 A 
ATOM     73  F   UNL A   1      38.464  32.024  38.333  1.00  0.00    -0.205 F 
ATOM     74  C   UNL A   1      39.138  35.466  39.383  1.00  0.00     0.022 A 
BRANCH  72  75
ATOM     75  S   UNL A   1      37.689  33.653  40.837  1.00  0.00     0.127 S 
ATOM     76  O   UNL A   1      37.405  34.941  41.465  1.00  0.00    -0.237 OA
ATOM     77  O   UNL A   1      36.536  33.005  40.210  1.00  0.00    -0.237 OA
ATOM     78  O   UNL A   1      38.543  32.750  41.595  1.00  0.00    -0.744 OA
ENDBRANCH  72  75
ENDBRANCH  44  68
BRANCH  56  79
ATOM     79  C   UNL A   1      44.213  28.934  35.332  1.00  0.00     0.023 A 
ATOM     80  C   UNL A   1      45.474  29.527  35.138  1.00  0.00     0.012 A 
ATOM     81  C   UNL A   1      44.081  27.864  36.239  1.00  0.00     0.148 A 
ATOM     82  C   UNL A   1      46.594  29.050  35.817  1.00  0.00     0.002 A 
ATOM     83  C   UNL A   1      45.194  27.422  36.946  1.00  0.00     0.091 A 
ATOM     84  F   UNL A   1      42.875  27.298  36.393  1.00  0.00    -0.205 F 
ATOM     85  C   UNL A   1      46.451  28.007  36.729  1.00  0.00     0.022 A 
BRANCH  83  86
ATOM     86  S   UNL A   1      45.080  26.148  38.207  1.00  0.00     0.127 S 
ATOM     87  O   UNL A   1      46.461  26.068  38.678  1.00  0.00    -0.237 OA
ATOM     88  O   UNL A   1      44.142  26.737  39.165  1.00  0.00    -0.237 OA
ATOM     89  O   UNL A   1      44.577  24.961  37.528  1.00  0.00    -0.744 OA
ENDBRANCH  83  86
ENDBRANCH  56  79
ENDBRANCH  30  31
ENDBRANCH  22  25
ENDBRANCH  20  21
ENDBRANCH   1  20
TORSDOF 16
ENDMDL
