MODEL 1
REMARK VINA RESULT:     -11.2      0.000      0.000
REMARK SMILES CCc1ccsc1C(=O)N(CC(=O)NCCCCNC(=O)c1ccc(-c2c3nc(c(-c4cccc(S(=O)(=O)[O-])c4F)c4ccc([nH]4)c(-c4cccc(S(=O)(=O)[O-])c4F)c4nc(c(-c5cccc(S(=O)(=O)[O-])c5F)c5ccc2[nH]5)C=C4)C=C3)cc1)c1ccccc1N
REMARK SMILES IDX 16 1 15 2 14 3 12 4 13 5 11 7 10 8 8 9 9 10 7 11 3 12 4 13
REMARK SMILES IDX 5 14 6 15 2 16 1 17 85 18 86 19 90 20 87 21 89 22 88 23
REMARK SMILES IDX 91 24 17 27 18 28 19 29 20 30 21 32 22 33 23 34 84 35 24 36
REMARK SMILES IDX 83 37 25 38 26 39 27 40 77 41 28 42 82 43 76 44 78 45 29 46
REMARK SMILES IDX 81 47 75 48 74 49 30 51 62 52 42 53 61 54 43 55 46 56 60 57
REMARK SMILES IDX 79 58 44 59 45 60 59 62 80 63 47 64 31 65 32 66 40 67 33 68
REMARK SMILES IDX 35 69 41 70 34 71 36 72 37 73 38 74 39 75 63 76 64 77 72 78
REMARK SMILES IDX 65 79 67 80 73 81 66 82 68 83 69 84 70 85 71 86 48 87 49 88
REMARK SMILES IDX 57 89 50 90 52 91 58 92 51 93 53 94 54 95 55 96 56 97
REMARK H PARENT 14 6 91 25 91 26 19 31 78 50 46 61
REMARK Flexibility Score: inf
ROOT
ATOM      1  C   UNL A   1      31.858  27.877  27.241  1.00  0.00     0.023 C 
ENDROOT
BRANCH   1   2
ATOM      2  C   UNL A   1      32.398  26.524  26.801  1.00  0.00     0.116 C 
BRANCH   2   3
ATOM      3  N   UNL A   1      31.411  25.472  26.845  1.00  0.00    -0.355 N 
ATOM      4  C   UNL A   1      31.565  24.122  26.898  1.00  0.00     0.240 C 
ATOM      5  O   UNL A   1      30.550  23.459  27.144  1.00  0.00    -0.273 OA
ATOM      6  H   UNL A   1      30.476  25.781  26.836  1.00  0.00     0.163 HD
BRANCH   4   7
ATOM      7  C   UNL A   1      32.933  23.417  26.832  1.00  0.00     0.226 C 
BRANCH   7   8
ATOM      8  N   UNL A   1      33.550  23.138  25.555  1.00  0.00    -0.296 N 
BRANCH   8   9
ATOM      9  C   UNL A   1      32.957  23.349  24.291  1.00  0.00     0.269 C 
ATOM     10  O   UNL A   1      32.855  22.321  23.596  1.00  0.00    -0.268 OA
BRANCH   9  11
ATOM     11  C   UNL A   1      32.396  24.642  23.710  1.00  0.00     0.096 A 
ATOM     12  C   UNL A   1      32.677  25.998  23.377  1.00  0.00    -0.025 A 
ATOM     13  C   UNL A   1      31.418  26.714  23.094  1.00  0.00     0.016 A 
ATOM     14  C   UNL A   1      30.282  25.968  23.136  1.00  0.00     0.066 A 
ATOM     15  S   UNL A   1      30.652  24.352  23.361  1.00  0.00    -0.138 S 
BRANCH  12  16
ATOM     16  C   UNL A   1      33.843  26.995  23.400  1.00  0.00     0.034 C 
ATOM     17  C   UNL A   1      34.014  28.180  22.490  1.00  0.00     0.009 C 
ENDBRANCH  12  16
ENDBRANCH   9  11
ENDBRANCH   8   9
BRANCH   8  18
ATOM     18  C   UNL A   1      34.974  22.821  25.687  1.00  0.00     0.068 A 
ATOM     19  C   UNL A   1      35.901  23.885  25.707  1.00  0.00     0.028 A 
ATOM     20  C   UNL A   1      35.483  21.499  25.606  1.00  0.00     0.056 A 
ATOM     21  C   UNL A   1      37.272  23.675  25.546  1.00  0.00     0.002 A 
ATOM     22  C   UNL A   1      36.860  21.315  25.377  1.00  0.00     0.028 A 
ATOM     23  C   UNL A   1      37.748  22.389  25.346  1.00  0.00     0.002 A 
BRANCH  20  24
ATOM     24  N   UNL A   1      34.663  20.362  25.527  1.00  0.00    -0.397 N 
ATOM     25  H   UNL A   1      34.043  20.253  24.770  1.00  0.00     0.156 HD
ATOM     26  H   UNL A   1      34.707  19.674  26.230  1.00  0.00     0.156 HD
ENDBRANCH  20  24
ENDBRANCH   8  18
ENDBRANCH   7   8
ENDBRANCH   4   7
ENDBRANCH   2   3
ENDBRANCH   1   2
BRANCH   1  27
ATOM     27  C   UNL A   1      31.650  28.863  26.092  1.00  0.00     0.023 C 
BRANCH  27  28
ATOM     28  C   UNL A   1      32.799  29.837  25.862  1.00  0.00     0.116 C 
BRANCH  28  29
ATOM     29  N   UNL A   1      32.512  31.188  26.327  1.00  0.00    -0.352 N 
ATOM     30  C   UNL A   1      33.209  31.939  27.245  1.00  0.00     0.251 C 
ATOM     31  H   UNL A   1      31.718  31.617  25.936  1.00  0.00     0.163 HD
ATOM     32  O   UNL A   1      32.771  33.022  27.624  1.00  0.00    -0.269 OA
BRANCH  30  33
ATOM     33  C   UNL A   1      34.473  31.410  27.799  1.00  0.00     0.039 A 
ATOM     34  C   UNL A   1      35.534  32.290  28.019  1.00  0.00     0.014 A 
ATOM     35  C   UNL A   1      34.585  30.063  28.155  1.00  0.00     0.014 A 
ATOM     36  C   UNL A   1      36.684  31.832  28.664  1.00  0.00     0.010 A 
ATOM     37  C   UNL A   1      35.698  29.630  28.869  1.00  0.00     0.010 A 
ATOM     38  C   UNL A   1      36.760  30.508  29.133  1.00  0.00    -0.014 A 
BRANCH  38  39
ATOM     39  C   UNL A   1      37.927  30.042  29.926  1.00  0.00     0.031 A 
ATOM     40  C   UNL A   1      38.151  30.550  31.325  1.00  0.00     0.074 A 
ATOM     41  C   UNL A   1      38.835  29.226  29.353  1.00  0.00     0.049 A 
ATOM     42  N   UNL A   1      39.129  30.281  32.151  1.00  0.00    -0.248 NA
ATOM     43  C   UNL A   1      37.165  31.503  31.859  1.00  0.00     0.031 C 
ATOM     44  C   UNL A   1      38.786  28.740  27.972  1.00  0.00     0.029 A 
ATOM     45  N   UNL A   1      39.996  28.684  29.852  1.00  0.00    -0.354 N 
ATOM     46  C   UNL A   1      38.901  31.058  33.280  1.00  0.00     0.074 A 
ATOM     47  C   UNL A   1      37.706  31.832  33.024  1.00  0.00     0.031 C 
ATOM     48  C   UNL A   1      39.862  27.973  27.735  1.00  0.00     0.029 A 
ATOM     49  C   UNL A   1      40.694  27.934  28.933  1.00  0.00     0.049 A 
ATOM     50  H   UNL A   1      40.298  28.819  30.778  1.00  0.00     0.167 HD
ATOM     51  C   UNL A   1      39.605  31.103  34.435  1.00  0.00     0.034 A 
ATOM     52  C   UNL A   1      41.877  27.297  29.038  1.00  0.00     0.034 A 
ATOM     53  C   UNL A   1      40.765  30.298  34.705  1.00  0.00     0.049 A 
ATOM     54  C   UNL A   1      42.608  27.322  30.354  1.00  0.00     0.074 A 
ATOM     55  C   UNL A   1      41.480  30.193  35.885  1.00  0.00     0.029 A 
ATOM     56  N   UNL A   1      41.391  29.476  33.783  1.00  0.00    -0.354 N 
ATOM     57  N   UNL A   1      42.273  27.917  31.472  1.00  0.00    -0.248 NA
ATOM     58  C   UNL A   1      43.860  26.555  30.434  1.00  0.00     0.031 C 
ATOM     59  C   UNL A   1      42.560  29.332  35.666  1.00  0.00     0.029 A 
ATOM     60  C   UNL A   1      42.495  28.872  34.361  1.00  0.00     0.049 A 
ATOM     61  H   UNL A   1      41.096  29.340  32.854  1.00  0.00     0.167 HD
ATOM     62  C   UNL A   1      43.252  27.572  32.396  1.00  0.00     0.074 A 
ATOM     63  C   UNL A   1      44.177  26.691  31.713  1.00  0.00     0.031 C 
ATOM     64  C   UNL A   1      43.383  27.961  33.688  1.00  0.00     0.034 A 
BRANCH  51  65
ATOM     65  C   UNL A   1      39.116  32.023  35.524  1.00  0.00     0.023 A 
ATOM     66  C   UNL A   1      38.171  31.558  36.460  1.00  0.00     0.012 A 
ATOM     67  C   UNL A   1      39.657  33.316  35.670  1.00  0.00     0.148 A 
ATOM     68  C   UNL A   1      37.748  32.375  37.508  1.00  0.00     0.002 A 
ATOM     69  C   UNL A   1      39.266  34.107  36.744  1.00  0.00     0.091 A 
ATOM     70  F   UNL A   1      40.539  33.747  34.759  1.00  0.00    -0.205 F 
ATOM     71  C   UNL A   1      38.304  33.642  37.657  1.00  0.00     0.022 A 
BRANCH  69  72
ATOM     72  S   UNL A   1      39.983  35.720  37.074  1.00  0.00     0.127 S 
ATOM     73  O   UNL A   1      41.400  35.388  37.219  1.00  0.00    -0.237 OA
ATOM     74  O   UNL A   1      39.652  36.457  35.855  1.00  0.00    -0.237 OA
ATOM     75  O   UNL A   1      39.334  36.212  38.280  1.00  0.00    -0.744 OA
ENDBRANCH  69  72
ENDBRANCH  51  65
BRANCH  52  76
ATOM     76  C   UNL A   1      42.426  26.541  27.876  1.00  0.00     0.023 A 
ATOM     77  C   UNL A   1      43.224  27.205  26.924  1.00  0.00     0.012 A 
ATOM     78  C   UNL A   1      42.170  25.166  27.716  1.00  0.00     0.148 A 
ATOM     79  C   UNL A   1      43.720  26.524  25.812  1.00  0.00     0.002 A 
ATOM     80  C   UNL A   1      42.718  24.480  26.639  1.00  0.00     0.091 A 
ATOM     81  F   UNL A   1      41.399  24.553  28.626  1.00  0.00    -0.205 F 
ATOM     82  C   UNL A   1      43.476  25.160  25.674  1.00  0.00     0.022 A 
BRANCH  80  83
ATOM     83  S   UNL A   1      42.566  22.699  26.458  1.00  0.00     0.127 S 
ATOM     84  O   UNL A   1      41.134  22.544  26.217  1.00  0.00    -0.237 OA
ATOM     85  O   UNL A   1      43.418  22.439  25.297  1.00  0.00    -0.237 OA
ATOM     86  O   UNL A   1      43.065  22.136  27.705  1.00  0.00    -0.744 OA
ENDBRANCH  80  83
ENDBRANCH  52  76
BRANCH  64  87
ATOM     87  C   UNL A   1      44.551  27.414  34.468  1.00  0.00     0.023 A 
ATOM     88  C   UNL A   1      45.791  28.081  34.438  1.00  0.00     0.012 A 
ATOM     89  C   UNL A   1      44.399  26.274  35.282  1.00  0.00     0.148 A 
ATOM     90  C   UNL A   1      46.873  27.600  35.176  1.00  0.00     0.002 A 
ATOM     91  C   UNL A   1      45.465  25.832  36.055  1.00  0.00     0.091 A 
ATOM     92  F   UNL A   1      43.216  25.643  35.285  1.00  0.00    -0.205 F 
ATOM     93  C   UNL A   1      46.707  26.484  35.993  1.00  0.00     0.022 A 
BRANCH  91  94
ATOM     94  S   UNL A   1      45.315  24.464  37.211  1.00  0.00     0.127 S 
ATOM     95  O   UNL A   1      45.023  23.347  36.313  1.00  0.00    -0.237 OA
ATOM     96  O   UNL A   1      46.643  24.427  37.821  1.00  0.00    -0.237 OA
ATOM     97  O   UNL A   1      44.239  24.827  38.125  1.00  0.00    -0.744 OA
ENDBRANCH  91  94
ENDBRANCH  64  87
ENDBRANCH  38  39
ENDBRANCH  30  33
ENDBRANCH  28  29
ENDBRANCH  27  28
ENDBRANCH   1  27
TORSDOF 20
ENDMDL
MODEL 2
REMARK VINA RESULT:     -11.0      1.137      2.710
REMARK SMILES CCc1ccsc1C(=O)N(CC(=O)NCCCCNC(=O)c1ccc(-c2c3nc(c(-c4cccc(S(=O)(=O)[O-])c4F)c4ccc([nH]4)c(-c4cccc(S(=O)(=O)[O-])c4F)c4nc(c(-c5cccc(S(=O)(=O)[O-])c5F)c5ccc2[nH]5)C=C4)C=C3)cc1)c1ccccc1N
REMARK SMILES IDX 16 1 15 2 14 3 12 4 13 5 11 7 10 8 8 9 9 10 7 11 3 12 4 13
REMARK SMILES IDX 5 14 6 15 2 16 1 17 85 18 86 19 90 20 87 21 89 22 88 23
REMARK SMILES IDX 91 24 17 27 18 28 19 29 20 30 21 32 22 33 23 34 84 35 24 36
REMARK SMILES IDX 83 37 25 38 26 39 27 40 77 41 28 42 82 43 76 44 78 45 29 46
REMARK SMILES IDX 81 47 75 48 74 49 30 51 62 52 42 53 61 54 43 55 46 56 60 57
REMARK SMILES IDX 79 58 44 59 45 60 59 62 80 63 47 64 31 65 32 66 40 67 33 68
REMARK SMILES IDX 35 69 41 70 34 71 36 72 37 73 38 74 39 75 63 76 64 77 72 78
REMARK SMILES IDX 65 79 67 80 73 81 66 82 68 83 69 84 70 85 71 86 48 87 49 88
REMARK SMILES IDX 57 89 50 90 52 91 58 92 51 93 53 94 54 95 55 96 56 97
REMARK H PARENT 14 6 91 25 91 26 19 31 78 50 46 61
REMARK Flexibility Score: inf
ROOT
ATOM      1  C   UNL A   1      31.573  27.786  26.749  1.00  0.00     0.023 C 
ENDROOT
BRANCH   1   2
ATOM      2  C   UNL A   1      30.786  26.701  26.026  1.00  0.00     0.116 C 
BRANCH   2   3
ATOM      3  N   UNL A   1      31.003  25.381  26.566  1.00  0.00    -0.355 N 
ATOM      4  C   UNL A   1      31.284  24.209  25.937  1.00  0.00     0.240 C 
ATOM      5  O   UNL A   1      31.635  23.265  26.657  1.00  0.00    -0.273 OA
ATOM      6  H   UNL A   1      30.938  25.319  27.547  1.00  0.00     0.163 HD
BRANCH   4   7
ATOM      7  C   UNL A   1      31.344  24.055  24.406  1.00  0.00     0.226 C 
BRANCH   7   8
ATOM      8  N   UNL A   1      32.619  23.976  23.728  1.00  0.00    -0.296 N 
BRANCH   8   9
ATOM      9  C   UNL A   1      33.232  22.790  23.267  1.00  0.00     0.269 C 
ATOM     10  O   UNL A   1      32.907  22.462  22.111  1.00  0.00    -0.268 OA
BRANCH   9  11
ATOM     11  C   UNL A   1      34.256  21.913  23.979  1.00  0.00     0.096 A 
ATOM     12  C   UNL A   1      34.482  20.668  24.635  1.00  0.00    -0.025 A 
ATOM     13  C   UNL A   1      35.775  20.707  25.346  1.00  0.00     0.016 A 
ATOM     14  C   UNL A   1      36.508  21.842  25.196  1.00  0.00     0.066 A 
ATOM     15  S   UNL A   1      35.782  22.864  24.088  1.00  0.00    -0.138 S 
BRANCH  12  16
ATOM     16  C   UNL A   1      33.734  19.378  24.994  1.00  0.00     0.034 C 
ATOM     17  C   UNL A   1      32.525  18.829  24.288  1.00  0.00     0.009 C 
ENDBRANCH  12  16
ENDBRANCH   9  11
ENDBRANCH   8   9
BRANCH   8  18
ATOM     18  C   UNL A   1      33.126  25.296  23.347  1.00  0.00     0.068 A 
ATOM     19  C   UNL A   1      33.772  26.077  24.329  1.00  0.00     0.028 A 
ATOM     20  C   UNL A   1      32.837  25.904  22.098  1.00  0.00     0.056 A 
ATOM     21  C   UNL A   1      34.030  27.436  24.140  1.00  0.00     0.002 A 
ATOM     22  C   UNL A   1      33.045  27.290  21.955  1.00  0.00     0.028 A 
ATOM     23  C   UNL A   1      33.634  28.051  22.963  1.00  0.00     0.002 A 
BRANCH  20  24
ATOM     24  N   UNL A   1      32.154  25.248  21.062  1.00  0.00    -0.397 N 
ATOM     25  H   UNL A   1      31.486  24.556  21.273  1.00  0.00     0.156 HD
ATOM     26  H   UNL A   1      32.342  25.481  20.124  1.00  0.00     0.156 HD
ENDBRANCH  20  24
ENDBRANCH   8  18
ENDBRANCH   7   8
ENDBRANCH   4   7
ENDBRANCH   2   3
ENDBRANCH   1   2
BRANCH   1  27
ATOM     27  C   UNL A   1      31.397  29.181  26.149  1.00  0.00     0.023 C 
BRANCH  27  28
ATOM     28  C   UNL A   1      32.674  30.009  26.058  1.00  0.00     0.116 C 
BRANCH  28  29
ATOM     29  N   UNL A   1      32.489  31.400  26.452  1.00  0.00    -0.352 N 
ATOM     30  C   UNL A   1      33.271  32.159  27.290  1.00  0.00     0.251 C 
ATOM     31  H   UNL A   1      31.702  31.852  26.072  1.00  0.00     0.163 HD
ATOM     32  O   UNL A   1      32.916  33.287  27.621  1.00  0.00    -0.269 OA
BRANCH  30  33
ATOM     33  C   UNL A   1      34.528  31.587  27.817  1.00  0.00     0.039 A 
ATOM     34  C   UNL A   1      35.620  32.433  28.020  1.00  0.00     0.014 A 
ATOM     35  C   UNL A   1      34.604  30.236  28.166  1.00  0.00     0.014 A 
ATOM     36  C   UNL A   1      36.768  31.936  28.641  1.00  0.00     0.010 A 
ATOM     37  C   UNL A   1      35.716  29.765  28.857  1.00  0.00     0.010 A 
ATOM     38  C   UNL A   1      36.811  30.608  29.103  1.00  0.00    -0.014 A 
BRANCH  38  39
ATOM     39  C   UNL A   1      37.977  30.101  29.872  1.00  0.00     0.031 A 
ATOM     40  C   UNL A   1      38.240  30.591  31.270  1.00  0.00     0.074 A 
ATOM     41  C   UNL A   1      38.850  29.263  29.278  1.00  0.00     0.049 A 
ATOM     42  N   UNL A   1      39.225  30.287  32.077  1.00  0.00    -0.248 NA
ATOM     43  C   UNL A   1      37.293  31.570  31.829  1.00  0.00     0.031 C 
ATOM     44  C   UNL A   1      38.762  28.789  27.894  1.00  0.00     0.029 A 
ATOM     45  N   UNL A   1      40.002  28.683  29.751  1.00  0.00    -0.354 N 
ATOM     46  C   UNL A   1      39.040  31.062  33.215  1.00  0.00     0.074 A 
ATOM     47  C   UNL A   1      37.864  31.873  32.987  1.00  0.00     0.031 C 
ATOM     48  C   UNL A   1      39.810  27.992  27.632  1.00  0.00     0.029 A 
ATOM     49  C   UNL A   1      40.662  27.920  28.815  1.00  0.00     0.049 A 
ATOM     50  H   UNL A   1      40.325  28.802  30.673  1.00  0.00     0.167 HD
ATOM     51  C   UNL A   1      39.765  31.078  34.358  1.00  0.00     0.034 A 
ATOM     52  C   UNL A   1      41.827  27.247  28.894  1.00  0.00     0.034 A 
ATOM     53  C   UNL A   1      40.906  30.237  34.601  1.00  0.00     0.049 A 
ATOM     54  C   UNL A   1      42.582  27.240  30.196  1.00  0.00     0.074 A 
ATOM     55  C   UNL A   1      41.638  30.101  35.768  1.00  0.00     0.029 A 
ATOM     56  N   UNL A   1      41.491  29.403  33.662  1.00  0.00    -0.354 N 
ATOM     57  N   UNL A   1      42.284  27.836  31.325  1.00  0.00    -0.248 NA
ATOM     58  C   UNL A   1      43.811  26.436  30.248  1.00  0.00     0.031 C 
ATOM     59  C   UNL A   1      42.688  29.210  35.523  1.00  0.00     0.029 A 
ATOM     60  C   UNL A   1      42.586  28.763  34.216  1.00  0.00     0.049 A 
ATOM     61  H   UNL A   1      41.175  29.283  32.738  1.00  0.00     0.167 HD
ATOM     62  C   UNL A   1      43.269  27.455  32.228  1.00  0.00     0.074 A 
ATOM     63  C   UNL A   1      44.156  26.553  31.523  1.00  0.00     0.031 C 
ATOM     64  C   UNL A   1      43.435  27.831  33.520  1.00  0.00     0.034 A 
BRANCH  51  65
ATOM     65  C   UNL A   1      39.323  32.003  35.462  1.00  0.00     0.023 A 
ATOM     66  C   UNL A   1      38.442  31.534  36.457  1.00  0.00     0.012 A 
ATOM     67  C   UNL A   1      39.848  33.308  35.561  1.00  0.00     0.148 A 
ATOM     68  C   UNL A   1      38.066  32.357  37.517  1.00  0.00     0.002 A 
ATOM     69  C   UNL A   1      39.506  34.105  36.646  1.00  0.00     0.091 A 
ATOM     70  F   UNL A   1      40.668  33.742  34.594  1.00  0.00    -0.205 F 
ATOM     71  C   UNL A   1      38.607  33.636  37.618  1.00  0.00     0.022 A 
BRANCH  69  72
ATOM     72  S   UNL A   1      40.211  35.735  36.913  1.00  0.00     0.127 S 
ATOM     73  O   UNL A   1      39.762  36.030  38.274  1.00  0.00    -0.237 OA
ATOM     74  O   UNL A   1      41.644  35.473  36.788  1.00  0.00    -0.237 OA
ATOM     75  O   UNL A   1      39.654  36.592  35.877  1.00  0.00    -0.744 OA
ENDBRANCH  69  72
ENDBRANCH  51  65
BRANCH  52  76
ATOM     76  C   UNL A   1      42.333  26.484  27.717  1.00  0.00     0.023 A 
ATOM     77  C   UNL A   1      43.175  27.118  26.783  1.00  0.00     0.012 A 
ATOM     78  C   UNL A   1      41.991  25.132  27.525  1.00  0.00     0.148 A 
ATOM     79  C   UNL A   1      43.633  26.432  25.657  1.00  0.00     0.002 A 
ATOM     80  C   UNL A   1      42.500  24.437  26.434  1.00  0.00     0.091 A 
ATOM     81  F   UNL A   1      41.179  24.548  28.419  1.00  0.00    -0.205 F 
ATOM     82  C   UNL A   1      43.303  25.089  25.488  1.00  0.00     0.022 A 
BRANCH  80  83
ATOM     83  S   UNL A   1      42.237  22.674  26.213  1.00  0.00     0.127 S 
ATOM     84  O   UNL A   1      42.824  22.128  27.434  1.00  0.00    -0.237 OA
ATOM     85  O   UNL A   1      40.778  22.591  26.140  1.00  0.00    -0.237 OA
ATOM     86  O   UNL A   1      42.918  22.330  24.972  1.00  0.00    -0.744 OA
ENDBRANCH  80  83
ENDBRANCH  52  76
BRANCH  64  87
ATOM     87  C   UNL A   1      44.599  27.243  34.276  1.00  0.00     0.023 A 
ATOM     88  C   UNL A   1      45.856  27.879  34.236  1.00  0.00     0.012 A 
ATOM     89  C   UNL A   1      44.430  26.097  35.076  1.00  0.00     0.148 A 
ATOM     90  C   UNL A   1      46.935  27.361  34.951  1.00  0.00     0.002 A 
ATOM     91  C   UNL A   1      45.496  25.617  35.828  1.00  0.00     0.091 A 
ATOM     92  F   UNL A   1      43.231  25.495  35.088  1.00  0.00    -0.205 F 
ATOM     93  C   UNL A   1      46.753  26.238  35.755  1.00  0.00     0.022 A 
BRANCH  91  94
ATOM     94  S   UNL A   1      45.327  24.238  36.966  1.00  0.00     0.127 S 
ATOM     95  O   UNL A   1      44.884  23.167  36.074  1.00  0.00    -0.237 OA
ATOM     96  O   UNL A   1      46.691  24.085  37.473  1.00  0.00    -0.237 OA
ATOM     97  O   UNL A   1      44.355  24.659  37.967  1.00  0.00    -0.744 OA
ENDBRANCH  91  94
ENDBRANCH  64  87
ENDBRANCH  38  39
ENDBRANCH  30  33
ENDBRANCH  28  29
ENDBRANCH  27  28
ENDBRANCH   1  27
TORSDOF 20
ENDMDL
MODEL 3
REMARK VINA RESULT:     -10.7      2.415      3.404
REMARK SMILES CCc1ccsc1C(=O)N(CC(=O)NCCCCNC(=O)c1ccc(-c2c3nc(c(-c4cccc(S(=O)(=O)[O-])c4F)c4ccc([nH]4)c(-c4cccc(S(=O)(=O)[O-])c4F)c4nc(c(-c5cccc(S(=O)(=O)[O-])c5F)c5ccc2[nH]5)C=C4)C=C3)cc1)c1ccccc1N
REMARK SMILES IDX 16 1 15 2 14 3 12 4 13 5 11 7 10 8 8 9 9 10 7 11 3 12 4 13
REMARK SMILES IDX 5 14 6 15 2 16 1 17 85 18 86 19 90 20 87 21 89 22 88 23
REMARK SMILES IDX 91 24 17 27 18 28 19 29 20 30 21 32 22 33 23 34 84 35 24 36
REMARK SMILES IDX 83 37 25 38 26 39 27 40 77 41 28 42 82 43 76 44 78 45 29 46
REMARK SMILES IDX 81 47 75 48 74 49 30 51 62 52 42 53 61 54 43 55 46 56 60 57
REMARK SMILES IDX 79 58 44 59 45 60 59 62 80 63 47 64 31 65 32 66 40 67 33 68
REMARK SMILES IDX 35 69 41 70 34 71 36 72 37 73 38 74 39 75 63 76 64 77 72 78
REMARK SMILES IDX 65 79 67 80 73 81 66 82 68 83 69 84 70 85 71 86 48 87 49 88
REMARK SMILES IDX 57 89 50 90 52 91 58 92 51 93 53 94 54 95 55 96 56 97
REMARK H PARENT 14 6 91 25 91 26 19 31 78 50 46 61
REMARK Flexibility Score: inf
ROOT
ATOM      1  C   UNL A   1      33.653  27.569  24.879  1.00  0.00     0.023 C 
ENDROOT
BRANCH   1   2
ATOM      2  C   UNL A   1      33.842  26.303  25.705  1.00  0.00     0.116 C 
BRANCH   2   3
ATOM      3  N   UNL A   1      34.751  25.358  25.102  1.00  0.00    -0.355 N 
ATOM      4  C   UNL A   1      34.792  24.001  25.185  1.00  0.00     0.240 C 
ATOM      5  O   UNL A   1      35.548  23.422  24.396  1.00  0.00    -0.273 OA
ATOM      6  H   UNL A   1      35.454  25.759  24.541  1.00  0.00     0.163 HD
BRANCH   4   7
ATOM      7  C   UNL A   1      33.848  23.173  26.075  1.00  0.00     0.226 C 
BRANCH   7   8
ATOM      8  N   UNL A   1      32.571  22.723  25.567  1.00  0.00    -0.296 N 
BRANCH   8   9
ATOM      9  C   UNL A   1      31.359  23.445  25.633  1.00  0.00     0.269 C 
ATOM     10  O   UNL A   1      30.594  23.078  26.543  1.00  0.00    -0.268 OA
BRANCH   9  11
ATOM     11  C   UNL A   1      30.909  24.622  24.775  1.00  0.00     0.096 A 
ATOM     12  C   UNL A   1      31.021  25.262  23.507  1.00  0.00    -0.025 A 
ATOM     13  C   UNL A   1      30.437  26.616  23.577  1.00  0.00     0.016 A 
ATOM     14  C   UNL A   1      29.866  26.962  24.762  1.00  0.00     0.066 A 
ATOM     15  S   UNL A   1      29.853  25.655  25.808  1.00  0.00    -0.138 S 
BRANCH  12  16
ATOM     16  C   UNL A   1      31.716  25.071  22.153  1.00  0.00     0.034 C 
ATOM     17  C   UNL A   1      33.185  24.825  21.938  1.00  0.00     0.009 C 
ENDBRANCH  12  16
ENDBRANCH   9  11
ENDBRANCH   8   9
BRANCH   8  18
ATOM     18  C   UNL A   1      32.696  21.514  24.749  1.00  0.00     0.068 A 
ATOM     19  C   UNL A   1      32.380  21.594  23.376  1.00  0.00     0.028 A 
ATOM     20  C   UNL A   1      32.936  20.229  25.302  1.00  0.00     0.056 A 
ATOM     21  C   UNL A   1      32.197  20.454  22.592  1.00  0.00     0.002 A 
ATOM     22  C   UNL A   1      32.681  19.092  24.510  1.00  0.00     0.028 A 
ATOM     23  C   UNL A   1      32.315  19.200  23.169  1.00  0.00     0.002 A 
BRANCH  20  24
ATOM     24  N   UNL A   1      33.209  20.014  26.662  1.00  0.00    -0.397 N 
ATOM     25  H   UNL A   1      32.771  20.571  27.346  1.00  0.00     0.156 HD
ATOM     26  H   UNL A   1      33.839  19.307  26.932  1.00  0.00     0.156 HD
ENDBRANCH  20  24
ENDBRANCH   8  18
ENDBRANCH   7   8
ENDBRANCH   4   7
ENDBRANCH   2   3
ENDBRANCH   1   2
BRANCH   1  27
ATOM     27  C   UNL A   1      33.016  28.722  25.653  1.00  0.00     0.023 C 
BRANCH  27  28
ATOM     28  C   UNL A   1      33.589  28.957  27.046  1.00  0.00     0.116 C 
BRANCH  28  29
ATOM     29  N   UNL A   1      33.655  30.367  27.412  1.00  0.00    -0.352 N 
ATOM     30  C   UNL A   1      34.651  31.023  28.095  1.00  0.00     0.251 C 
ATOM     31  H   UNL A   1      32.888  30.918  27.136  1.00  0.00     0.163 HD
ATOM     32  O   UNL A   1      34.506  32.195  28.433  1.00  0.00    -0.269 OA
BRANCH  30  33
ATOM     33  C   UNL A   1      35.885  30.292  28.450  1.00  0.00     0.039 A 
ATOM     34  C   UNL A   1      36.973  30.339  27.576  1.00  0.00     0.014 A 
ATOM     35  C   UNL A   1      35.985  29.614  29.669  1.00  0.00     0.014 A 
ATOM     36  C   UNL A   1      38.187  29.766  27.958  1.00  0.00     0.010 A 
ATOM     37  C   UNL A   1      37.217  29.117  30.081  1.00  0.00     0.010 A 
ATOM     38  C   UNL A   1      38.333  29.187  29.232  1.00  0.00    -0.014 A 
BRANCH  38  39
ATOM     39  C   UNL A   1      39.650  28.682  29.698  1.00  0.00     0.031 A 
ATOM     40  C   UNL A   1      40.401  29.401  30.787  1.00  0.00     0.074 A 
ATOM     41  C   UNL A   1      40.213  27.624  29.080  1.00  0.00     0.049 A 
ATOM     42  N   UNL A   1      41.575  29.127  31.296  1.00  0.00    -0.248 NA
ATOM     43  C   UNL A   1      39.767  30.598  31.362  1.00  0.00     0.031 C 
ATOM     44  C   UNL A   1      39.633  26.898  27.946  1.00  0.00     0.029 A 
ATOM     45  N   UNL A   1      41.413  26.991  29.296  1.00  0.00    -0.354 N 
ATOM     46  C   UNL A   1      41.837  30.133  32.217  1.00  0.00     0.074 A 
ATOM     47  C   UNL A   1      40.713  31.043  32.178  1.00  0.00     0.031 C 
ATOM     48  C   UNL A   1      40.473  25.922  27.570  1.00  0.00     0.029 A 
ATOM     49  C   UNL A   1      41.665  25.967  28.412  1.00  0.00     0.049 A 
ATOM     50  H   UNL A   1      42.033  27.245  30.016  1.00  0.00     0.167 HD
ATOM     51  C   UNL A   1      42.903  30.274  33.039  1.00  0.00     0.034 A 
ATOM     52  C   UNL A   1      42.739  25.163  28.282  1.00  0.00     0.034 A 
ATOM     53  C   UNL A   1      43.997  29.344  33.110  1.00  0.00     0.049 A 
ATOM     54  C   UNL A   1      43.883  25.310  29.249  1.00  0.00     0.074 A 
ATOM     55  C   UNL A   1      45.066  29.341  33.988  1.00  0.00     0.029 A 
ATOM     56  N   UNL A   1      44.172  28.262  32.262  1.00  0.00    -0.354 N 
ATOM     57  N   UNL A   1      44.025  26.158  30.238  1.00  0.00    -0.248 NA
ATOM     58  C   UNL A   1      45.000  24.363  29.107  1.00  0.00     0.031 C 
ATOM     59  C   UNL A   1      45.907  28.277  33.649  1.00  0.00     0.029 A 
ATOM     60  C   UNL A   1      45.342  27.595  32.584  1.00  0.00     0.049 A 
ATOM     61  H   UNL A   1      43.557  28.005  31.538  1.00  0.00     0.167 HD
ATOM     62  C   UNL A   1      45.225  25.828  30.854  1.00  0.00     0.074 A 
ATOM     63  C   UNL A   1      45.758  24.684  30.145  1.00  0.00     0.031 C 
ATOM     64  C   UNL A   1      45.841  26.429  31.902  1.00  0.00     0.034 A 
BRANCH  51  65
ATOM     65  C   UNL A   1      42.923  31.457  33.972  1.00  0.00     0.023 A 
ATOM     66  C   UNL A   1      43.482  32.677  33.542  1.00  0.00     0.012 A 
ATOM     67  C   UNL A   1      42.311  31.385  35.240  1.00  0.00     0.148 A 
ATOM     68  C   UNL A   1      43.459  33.799  34.369  1.00  0.00     0.002 A 
ATOM     69  C   UNL A   1      42.250  32.520  36.039  1.00  0.00     0.091 A 
ATOM     70  F   UNL A   1      41.802  30.211  35.638  1.00  0.00    -0.205 F 
ATOM     71  C   UNL A   1      42.833  33.724  35.610  1.00  0.00     0.022 A 
BRANCH  69  72
ATOM     72  S   UNL A   1      41.394  32.551  37.617  1.00  0.00     0.127 S 
ATOM     73  O   UNL A   1      40.034  32.183  37.222  1.00  0.00    -0.237 OA
ATOM     74  O   UNL A   1      42.108  31.523  38.373  1.00  0.00    -0.237 OA
ATOM     75  O   UNL A   1      41.545  33.904  38.133  1.00  0.00    -0.744 OA
ENDBRANCH  69  72
ENDBRANCH  51  65
BRANCH  52  76
ATOM     76  C   UNL A   1      42.765  24.113  27.224  1.00  0.00     0.023 A 
ATOM     77  C   UNL A   1      43.446  24.356  26.016  1.00  0.00     0.012 A 
ATOM     78  C   UNL A   1      42.129  22.872  27.414  1.00  0.00     0.148 A 
ATOM     79  C   UNL A   1      43.456  23.401  24.999  1.00  0.00     0.002 A 
ATOM     80  C   UNL A   1      42.193  21.901  26.422  1.00  0.00     0.091 A 
ATOM     81  F   UNL A   1      41.475  22.662  28.566  1.00  0.00    -0.205 F 
ATOM     82  C   UNL A   1      42.838  22.170  25.206  1.00  0.00     0.022 A 
BRANCH  80  83
ATOM     83  S   UNL A   1      41.543  20.243  26.658  1.00  0.00     0.127 S 
ATOM     84  O   UNL A   1      40.123  20.506  26.870  1.00  0.00    -0.237 OA
ATOM     85  O   UNL A   1      41.868  19.606  25.381  1.00  0.00    -0.237 OA
ATOM     86  O   UNL A   1      42.267  19.698  27.799  1.00  0.00    -0.744 OA
ENDBRANCH  80  83
ENDBRANCH  52  76
BRANCH  64  87
ATOM     87  C   UNL A   1      47.146  25.844  32.377  1.00  0.00     0.023 A 
ATOM     88  C   UNL A   1      48.360  26.289  31.818  1.00  0.00     0.012 A 
ATOM     89  C   UNL A   1      47.172  24.898  33.421  1.00  0.00     0.148 A 
ATOM     90  C   UNL A   1      49.577  25.775  32.265  1.00  0.00     0.002 A 
ATOM     91  C   UNL A   1      48.390  24.430  33.897  1.00  0.00     0.091 A 
ATOM     92  F   UNL A   1      46.006  24.474  33.928  1.00  0.00    -0.205 F 
ATOM     93  C   UNL A   1      49.593  24.855  33.311  1.00  0.00     0.022 A 
BRANCH  91  94
ATOM     94  S   UNL A   1      48.511  23.322  35.306  1.00  0.00     0.127 S 
ATOM     95  O   UNL A   1      47.843  24.095  36.352  1.00  0.00    -0.237 OA
ATOM     96  O   UNL A   1      47.768  22.150  34.843  1.00  0.00    -0.237 OA
ATOM     97  O   UNL A   1      49.935  23.091  35.514  1.00  0.00    -0.744 OA
ENDBRANCH  91  94
ENDBRANCH  64  87
ENDBRANCH  38  39
ENDBRANCH  30  33
ENDBRANCH  28  29
ENDBRANCH  27  28
ENDBRANCH   1  27
TORSDOF 20
ENDMDL
