MODEL 1
REMARK VINA RESULT:     -11.8      0.000      0.000
REMARK SMILES C[C@H](NC(=O)N1CC[C@H](C(=O)NCCCCNC(=O)c2ccc(-c3c4nc(c(-c5cccc(S(=O)(=O)[O-])c5F)c5ccc([nH]5)c(-c5cccc(S(=O)(=O)[O-])c5F)c5nc(c(-c6cccc(S(=O)(=O)[O-])c6F)c6ccc3[nH]6)C=C5)C=C4)cc2)[C@H]1C)c1ccsc1
REMARK SMILES IDX 14 1 13 2 12 3 10 4 11 5 9 7 6 8 7 9 83 10 8 11 84 12 4 13
REMARK SMILES IDX 3 14 5 16 2 17 1 18 85 19 86 20 89 21 87 22 88 23 15 24
REMARK SMILES IDX 16 25 17 26 18 27 19 29 20 30 21 31 82 32 22 33 81 34 23 35
REMARK SMILES IDX 24 36 25 37 75 38 26 39 80 40 74 41 76 42 27 43 79 44 73 45
REMARK SMILES IDX 72 46 28 48 60 49 40 50 59 51 41 52 44 53 58 54 77 55 42 56
REMARK SMILES IDX 43 57 57 59 78 60 45 61 29 62 30 63 38 64 31 65 33 66 39 67
REMARK SMILES IDX 32 68 34 69 35 70 36 71 37 72 61 73 62 74 70 75 63 76 65 77
REMARK SMILES IDX 71 78 64 79 66 80 67 81 68 82 69 83 46 84 47 85 55 86 48 87
REMARK SMILES IDX 50 88 56 89 49 90 51 91 52 92 53 93 54 94
REMARK H PARENT 12 6 3 15 17 28 76 47 44 58
REMARK Flexibility Score: inf
ROOT
ATOM      1  C   UNL A   1      31.765  30.422  26.854  1.00  0.00     0.023 C 
ENDROOT
BRANCH   1   2
ATOM      2  C   UNL A   1      32.701  29.731  25.872  1.00  0.00     0.116 C 
BRANCH   2   3
ATOM      3  N   UNL A   1      32.175  29.722  24.520  1.00  0.00    -0.356 N 
ATOM      4  C   UNL A   1      31.731  28.672  23.771  1.00  0.00     0.225 C 
ATOM      5  O   UNL A   1      31.355  28.892  22.623  1.00  0.00    -0.275 OA
ATOM      6  H   UNL A   1      32.134  30.600  24.078  1.00  0.00     0.163 HD
BRANCH   4   7
ATOM      7  C   UNL A   1      31.758  27.288  24.390  1.00  0.00     0.102 C 
ATOM      8  N   UNL A   1      32.352  25.329  23.147  1.00  0.00    -0.321 N 
ATOM      9  C   UNL A   1      30.998  25.693  22.795  1.00  0.00     0.122 C 
ATOM     10  C   UNL A   1      32.957  26.439  23.898  1.00  0.00     0.096 C 
ATOM     11  C   UNL A   1      30.522  26.467  23.995  1.00  0.00     0.037 C 
ATOM     12  C   UNL A   1      33.793  25.974  25.090  1.00  0.00     0.032 C 
BRANCH   8  13
ATOM     13  C   UNL A   1      33.034  24.639  22.191  1.00  0.00     0.318 C 
ATOM     14  N   UNL A   1      33.274  23.329  22.420  1.00  0.00    -0.331 N 
ATOM     15  H   UNL A   1      33.472  22.812  21.605  1.00  0.00     0.165 HD
ATOM     16  O   UNL A   1      33.290  25.100  21.081  1.00  0.00    -0.249 OA
BRANCH  14  17
ATOM     17  C   UNL A   1      33.298  22.530  23.642  1.00  0.00     0.112 C 
ATOM     18  C   UNL A   1      32.532  21.200  23.569  1.00  0.00     0.036 C 
BRANCH  17  19
ATOM     19  C   UNL A   1      34.763  22.277  24.034  1.00  0.00    -0.015 A 
ATOM     20  C   UNL A   1      35.894  23.133  23.764  1.00  0.00     0.017 A 
ATOM     21  C   UNL A   1      35.201  21.159  24.734  1.00  0.00     0.070 A 
ATOM     22  C   UNL A   1      37.095  22.591  24.164  1.00  0.00     0.065 A 
ATOM     23  S   UNL A   1      36.893  21.092  24.946  1.00  0.00    -0.152 S 
ENDBRANCH  17  19
ENDBRANCH  14  17
ENDBRANCH   8  13
ENDBRANCH   4   7
ENDBRANCH   2   3
ENDBRANCH   1   2
BRANCH   1  24
ATOM     24  C   UNL A   1      31.738  31.946  26.748  1.00  0.00     0.023 C 
BRANCH  24  25
ATOM     25  C   UNL A   1      32.888  32.661  27.444  1.00  0.00     0.116 C 
BRANCH  25  26
ATOM     26  N   UNL A   1      32.599  34.060  27.718  1.00  0.00    -0.352 N 
ATOM     27  C   UNL A   1      33.150  34.880  28.677  1.00  0.00     0.251 C 
ATOM     28  H   UNL A   1      31.917  34.475  27.141  1.00  0.00     0.163 HD
ATOM     29  O   UNL A   1      32.692  35.994  28.872  1.00  0.00    -0.269 OA
BRANCH  27  30
ATOM     30  C   UNL A   1      34.284  34.378  29.483  1.00  0.00     0.039 A 
ATOM     31  C   UNL A   1      34.019  33.610  30.618  1.00  0.00     0.014 A 
ATOM     32  C   UNL A   1      35.603  34.636  29.097  1.00  0.00     0.014 A 
ATOM     33  C   UNL A   1      35.080  33.052  31.335  1.00  0.00     0.010 A 
ATOM     34  C   UNL A   1      36.650  34.008  29.760  1.00  0.00     0.010 A 
ATOM     35  C   UNL A   1      36.404  33.221  30.895  1.00  0.00    -0.014 A 
BRANCH  35  36
ATOM     36  C   UNL A   1      37.545  32.601  31.616  1.00  0.00     0.031 A 
ATOM     37  C   UNL A   1      38.279  31.438  31.002  1.00  0.00     0.074 A 
ATOM     38  C   UNL A   1      37.870  33.028  32.854  1.00  0.00     0.049 A 
ATOM     39  N   UNL A   1      39.255  30.724  31.499  1.00  0.00    -0.248 NA
ATOM     40  C   UNL A   1      37.838  31.000  29.667  1.00  0.00     0.031 C 
ATOM     41  C   UNL A   1      37.186  34.093  33.590  1.00  0.00     0.029 A 
ATOM     42  N   UNL A   1      38.842  32.597  33.722  1.00  0.00    -0.354 N 
ATOM     43  C   UNL A   1      39.518  29.734  30.559  1.00  0.00     0.074 A 
ATOM     44  C   UNL A   1      38.572  29.914  29.479  1.00  0.00     0.031 C 
ATOM     45  C   UNL A   1      37.764  34.236  34.794  1.00  0.00     0.029 A 
ATOM     46  C   UNL A   1      38.835  33.256  34.930  1.00  0.00     0.049 A 
ATOM     47  H   UNL A   1      39.484  31.884  33.501  1.00  0.00     0.167 HD
ATOM     48  C   UNL A   1      40.480  28.781  30.574  1.00  0.00     0.034 A 
ATOM     49  C   UNL A   1      39.602  33.083  36.025  1.00  0.00     0.034 A 
ATOM     50  C   UNL A   1      41.448  28.635  31.625  1.00  0.00     0.049 A 
ATOM     51  C   UNL A   1      40.690  32.043  35.998  1.00  0.00     0.074 A 
ATOM     52  C   UNL A   1      42.515  27.757  31.695  1.00  0.00     0.029 A 
ATOM     53  N   UNL A   1      41.467  29.382  32.792  1.00  0.00    -0.354 N 
ATOM     54  N   UNL A   1      41.021  31.219  35.034  1.00  0.00    -0.248 NA
ATOM     55  C   UNL A   1      41.538  31.935  37.196  1.00  0.00     0.031 C 
ATOM     56  C   UNL A   1      43.164  27.956  32.917  1.00  0.00     0.029 A 
ATOM     57  C   UNL A   1      42.523  28.982  33.592  1.00  0.00     0.049 A 
ATOM     58  H   UNL A   1      40.823  30.092  33.019  1.00  0.00     0.167 HD
ATOM     59  C   UNL A   1      42.139  30.528  35.490  1.00  0.00     0.074 A 
ATOM     60  C   UNL A   1      42.439  31.044  36.809  1.00  0.00     0.031 C 
ATOM     61  C   UNL A   1      42.846  29.547  34.877  1.00  0.00     0.034 A 
BRANCH  48  62
ATOM     62  C   UNL A   1      40.566  27.853  29.390  1.00  0.00     0.023 A 
ATOM     63  C   UNL A   1      39.701  26.742  29.312  1.00  0.00     0.012 A 
ATOM     64  C   UNL A   1      41.454  28.112  28.328  1.00  0.00     0.148 A 
ATOM     65  C   UNL A   1      39.745  25.881  28.216  1.00  0.00     0.002 A 
ATOM     66  C   UNL A   1      41.458  27.278  27.216  1.00  0.00     0.091 A 
ATOM     67  F   UNL A   1      42.282  29.161  28.428  1.00  0.00    -0.205 F 
ATOM     68  C   UNL A   1      40.615  26.156  27.164  1.00  0.00     0.022 A 
BRANCH  66  69
ATOM     69  S   UNL A   1      42.479  27.591  25.772  1.00  0.00     0.127 S 
ATOM     70  O   UNL A   1      42.118  28.970  25.448  1.00  0.00    -0.237 OA
ATOM     71  O   UNL A   1      43.829  27.426  26.311  1.00  0.00    -0.237 OA
ATOM     72  O   UNL A   1      42.094  26.596  24.782  1.00  0.00    -0.744 OA
ENDBRANCH  66  69
ENDBRANCH  48  62
BRANCH  49  73
ATOM     73  C   UNL A   1      39.414  33.958  37.218  1.00  0.00     0.023 A 
ATOM     74  C   UNL A   1      39.875  35.289  37.180  1.00  0.00     0.012 A 
ATOM     75  C   UNL A   1      38.776  33.487  38.381  1.00  0.00     0.148 A 
ATOM     76  C   UNL A   1      39.742  36.122  38.291  1.00  0.00     0.002 A 
ATOM     77  C   UNL A   1      38.595  34.338  39.465  1.00  0.00     0.091 A 
ATOM     78  F   UNL A   1      38.352  32.215  38.403  1.00  0.00    -0.205 F 
ATOM     79  C   UNL A   1      39.095  35.650  39.430  1.00  0.00     0.022 A 
BRANCH  77  80
ATOM     80  S   UNL A   1      37.660  33.860  40.922  1.00  0.00     0.127 S 
ATOM     81  O   UNL A   1      38.589  32.951  41.588  1.00  0.00    -0.237 OA
ATOM     82  O   UNL A   1      37.465  35.146  41.592  1.00  0.00    -0.237 OA
ATOM     83  O   UNL A   1      36.434  33.255  40.418  1.00  0.00    -0.744 OA
ENDBRANCH  77  80
ENDBRANCH  49  73
BRANCH  61  84
ATOM     84  C   UNL A   1      44.053  28.999  35.593  1.00  0.00     0.023 A 
ATOM     85  C   UNL A   1      45.306  29.626  35.446  1.00  0.00     0.012 A 
ATOM     86  C   UNL A   1      43.924  27.906  36.474  1.00  0.00     0.148 A 
ATOM     87  C   UNL A   1      46.420  29.151  36.139  1.00  0.00     0.002 A 
ATOM     88  C   UNL A   1      45.025  27.473  37.201  1.00  0.00     0.091 A 
ATOM     89  F   UNL A   1      42.726  27.313  36.585  1.00  0.00    -0.205 F 
ATOM     90  C   UNL A   1      46.277  28.084  37.024  1.00  0.00     0.022 A 
BRANCH  88  91
ATOM     91  S   UNL A   1      44.913  26.175  38.437  1.00  0.00     0.127 S 
ATOM     92  O   UNL A   1      46.323  25.899  38.709  1.00  0.00    -0.237 OA
ATOM     93  O   UNL A   1      44.201  26.844  39.526  1.00  0.00    -0.237 OA
ATOM     94  O   UNL A   1      44.173  25.088  37.811  1.00  0.00    -0.744 OA
ENDBRANCH  88  91
ENDBRANCH  61  84
ENDBRANCH  35  36
ENDBRANCH  27  30
ENDBRANCH  25  26
ENDBRANCH  24  25
ENDBRANCH   1  24
TORSDOF 17
ENDMDL
MODEL 2
REMARK VINA RESULT:     -11.6      1.913      2.428
REMARK SMILES C[C@H](NC(=O)N1CC[C@H](C(=O)NCCCCNC(=O)c2ccc(-c3c4nc(c(-c5cccc(S(=O)(=O)[O-])c5F)c5ccc([nH]5)c(-c5cccc(S(=O)(=O)[O-])c5F)c5nc(c(-c6cccc(S(=O)(=O)[O-])c6F)c6ccc3[nH]6)C=C5)C=C4)cc2)[C@H]1C)c1ccsc1
REMARK SMILES IDX 14 1 13 2 12 3 10 4 11 5 9 7 6 8 7 9 83 10 8 11 84 12 4 13
REMARK SMILES IDX 3 14 5 16 2 17 1 18 85 19 86 20 89 21 87 22 88 23 15 24
REMARK SMILES IDX 16 25 17 26 18 27 19 29 20 30 21 31 82 32 22 33 81 34 23 35
REMARK SMILES IDX 24 36 25 37 75 38 26 39 80 40 74 41 76 42 27 43 79 44 73 45
REMARK SMILES IDX 72 46 28 48 60 49 40 50 59 51 41 52 44 53 58 54 77 55 42 56
REMARK SMILES IDX 43 57 57 59 78 60 45 61 29 62 30 63 38 64 31 65 33 66 39 67
REMARK SMILES IDX 32 68 34 69 35 70 36 71 37 72 61 73 62 74 70 75 63 76 65 77
REMARK SMILES IDX 71 78 64 79 66 80 67 81 68 82 69 83 46 84 47 85 55 86 48 87
REMARK SMILES IDX 50 88 56 89 49 90 51 91 52 92 53 93 54 94
REMARK H PARENT 12 6 3 15 17 28 76 47 44 58
REMARK Flexibility Score: inf
ROOT
ATOM      1  C   UNL A   1      31.052  31.127  25.357  1.00  0.00     0.023 C 
ENDROOT
BRANCH   1   2
ATOM      2  C   UNL A   1      32.029  29.971  25.519  1.00  0.00     0.116 C 
BRANCH   2   3
ATOM      3  N   UNL A   1      31.788  29.209  26.730  1.00  0.00    -0.356 N 
ATOM      4  C   UNL A   1      31.635  27.864  26.891  1.00  0.00     0.225 C 
ATOM      5  O   UNL A   1      31.403  27.433  28.017  1.00  0.00    -0.275 OA
ATOM      6  H   UNL A   1      31.724  29.742  27.556  1.00  0.00     0.163 HD
BRANCH   4   7
ATOM      7  C   UNL A   1      31.728  26.980  25.662  1.00  0.00     0.102 C 
ATOM      8  N   UNL A   1      31.475  24.601  25.760  1.00  0.00    -0.321 N 
ATOM      9  C   UNL A   1      32.797  24.933  26.239  1.00  0.00     0.122 C 
ATOM     10  C   UNL A   1      30.683  25.837  25.669  1.00  0.00     0.096 C 
ATOM     11  C   UNL A   1      33.082  26.259  25.585  1.00  0.00     0.037 C 
ATOM     12  C   UNL A   1      29.821  25.909  24.410  1.00  0.00     0.032 C 
BRANCH   8  13
ATOM     13  C   UNL A   1      30.957  23.439  26.246  1.00  0.00     0.318 C 
ATOM     14  N   UNL A   1      31.393  22.284  25.694  1.00  0.00    -0.331 N 
ATOM     15  H   UNL A   1      31.249  21.492  26.262  1.00  0.00     0.165 HD
ATOM     16  O   UNL A   1      30.254  23.382  27.251  1.00  0.00    -0.249 OA
BRANCH  14  17
ATOM     17  C   UNL A   1      32.034  21.982  24.418  1.00  0.00     0.112 C 
ATOM     18  C   UNL A   1      31.648  22.910  23.255  1.00  0.00     0.036 C 
BRANCH  17  19
ATOM     19  C   UNL A   1      33.559  21.993  24.620  1.00  0.00    -0.015 A 
ATOM     20  C   UNL A   1      34.539  22.651  23.788  1.00  0.00     0.017 A 
ATOM     21  C   UNL A   1      34.212  21.360  25.671  1.00  0.00     0.070 A 
ATOM     22  C   UNL A   1      35.837  22.404  24.177  1.00  0.00     0.065 A 
ATOM     23  S   UNL A   1      35.913  21.456  25.589  1.00  0.00    -0.152 S 
ENDBRANCH  17  19
ENDBRANCH  14  17
ENDBRANCH   8  13
ENDBRANCH   4   7
ENDBRANCH   2   3
ENDBRANCH   1   2
BRANCH   1  24
ATOM     24  C   UNL A   1      31.023  32.110  26.525  1.00  0.00     0.023 C 
BRANCH  24  25
ATOM     25  C   UNL A   1      32.383  32.650  26.949  1.00  0.00     0.116 C 
BRANCH  25  26
ATOM     26  N   UNL A   1      32.321  34.024  27.421  1.00  0.00    -0.352 N 
ATOM     27  C   UNL A   1      33.104  34.642  28.371  1.00  0.00     0.251 C 
ATOM     28  H   UNL A   1      31.628  34.586  27.007  1.00  0.00     0.163 HD
ATOM     29  O   UNL A   1      32.828  35.765  28.759  1.00  0.00    -0.269 OA
BRANCH  27  30
ATOM     30  C   UNL A   1      34.262  33.912  28.931  1.00  0.00     0.039 A 
ATOM     31  C   UNL A   1      35.541  34.448  28.770  1.00  0.00     0.014 A 
ATOM     32  C   UNL A   1      34.079  32.723  29.642  1.00  0.00     0.014 A 
ATOM     33  C   UNL A   1      36.632  33.819  29.374  1.00  0.00     0.010 A 
ATOM     34  C   UNL A   1      35.152  32.149  30.313  1.00  0.00     0.010 A 
ATOM     35  C   UNL A   1      36.443  32.680  30.176  1.00  0.00    -0.014 A 
BRANCH  35  36
ATOM     36  C   UNL A   1      37.583  32.020  30.863  1.00  0.00     0.031 A 
ATOM     37  C   UNL A   1      38.383  30.965  30.145  1.00  0.00     0.074 A 
ATOM     38  C   UNL A   1      37.847  32.306  32.154  1.00  0.00     0.049 A 
ATOM     39  N   UNL A   1      39.370  30.232  30.592  1.00  0.00    -0.248 NA
ATOM     40  C   UNL A   1      38.007  30.675  28.751  1.00  0.00     0.031 C 
ATOM     41  C   UNL A   1      37.096  33.251  32.985  1.00  0.00     0.029 A 
ATOM     42  N   UNL A   1      38.805  31.809  33.003  1.00  0.00    -0.354 N 
ATOM     43  C   UNL A   1      39.704  29.371  29.552  1.00  0.00     0.074 A 
ATOM     44  C   UNL A   1      38.790  29.645  28.466  1.00  0.00     0.031 C 
ATOM     45  C   UNL A   1      37.626  33.269  34.218  1.00  0.00     0.029 A 
ATOM     46  C   UNL A   1      38.730  32.319  34.279  1.00  0.00     0.049 A 
ATOM     47  H   UNL A   1      39.482  31.151  32.724  1.00  0.00     0.167 HD
ATOM     48  C   UNL A   1      40.702  28.459  29.492  1.00  0.00     0.034 A 
ATOM     49  C   UNL A   1      39.465  32.043  35.375  1.00  0.00     0.034 A 
ATOM     50  C   UNL A   1      41.638  28.222  30.556  1.00  0.00     0.049 A 
ATOM     51  C   UNL A   1      40.594  31.053  35.268  1.00  0.00     0.074 A 
ATOM     52  C   UNL A   1      42.736  27.380  30.563  1.00  0.00     0.029 A 
ATOM     53  N   UNL A   1      41.587  28.824  31.803  1.00  0.00    -0.354 N 
ATOM     54  N   UNL A   1      40.991  30.363  34.227  1.00  0.00    -0.248 NA
ATOM     55  C   UNL A   1      41.403  30.834  36.477  1.00  0.00     0.031 C 
ATOM     56  C   UNL A   1      43.335  27.455  31.825  1.00  0.00     0.029 A 
ATOM     57  C   UNL A   1      42.630  28.370  32.591  1.00  0.00     0.049 A 
ATOM     58  H   UNL A   1      40.908  29.479  32.087  1.00  0.00     0.167 HD
ATOM     59  C   UNL A   1      42.119  29.663  34.642  1.00  0.00     0.074 A 
ATOM     60  C   UNL A   1      42.352  30.027  36.023  1.00  0.00     0.031 C 
ATOM     61  C   UNL A   1      42.886  28.788  33.945  1.00  0.00     0.034 A 
BRANCH  48  62
ATOM     62  C   UNL A   1      40.866  27.683  28.211  1.00  0.00     0.023 A 
ATOM     63  C   UNL A   1      41.523  28.279  27.115  1.00  0.00     0.012 A 
ATOM     64  C   UNL A   1      40.428  26.348  28.110  1.00  0.00     0.148 A 
ATOM     65  C   UNL A   1      41.708  27.574  25.926  1.00  0.00     0.002 A 
ATOM     66  C   UNL A   1      40.659  25.635  26.939  1.00  0.00     0.091 A 
ATOM     67  F   UNL A   1      39.788  25.804  29.154  1.00  0.00    -0.205 F 
ATOM     68  C   UNL A   1      41.286  26.250  25.843  1.00  0.00     0.022 A 
BRANCH  66  69
ATOM     69  S   UNL A   1      40.231  23.900  26.758  1.00  0.00     0.127 S 
ATOM     70  O   UNL A   1      38.849  23.985  26.286  1.00  0.00    -0.237 OA
ATOM     71  O   UNL A   1      41.192  23.452  25.751  1.00  0.00    -0.237 OA
ATOM     72  O   UNL A   1      40.405  23.303  28.074  1.00  0.00    -0.744 OA
ENDBRANCH  66  69
ENDBRANCH  48  62
BRANCH  49  73
ATOM     73  C   UNL A   1      39.201  32.762  36.655  1.00  0.00     0.023 A 
ATOM     74  C   UNL A   1      39.815  34.009  36.889  1.00  0.00     0.012 A 
ATOM     75  C   UNL A   1      38.342  32.227  37.633  1.00  0.00     0.148 A 
ATOM     76  C   UNL A   1      39.613  34.689  38.089  1.00  0.00     0.002 A 
ATOM     77  C   UNL A   1      38.099  32.937  38.805  1.00  0.00     0.091 A 
ATOM     78  F   UNL A   1      37.774  31.036  37.398  1.00  0.00    -0.205 F 
ATOM     79  C   UNL A   1      38.749  34.159  39.043  1.00  0.00     0.022 A 
BRANCH  77  80
ATOM     80  S   UNL A   1      36.903  32.396  40.029  1.00  0.00     0.127 S 
ATOM     81  O   UNL A   1      35.679  32.315  39.237  1.00  0.00    -0.237 OA
ATOM     82  O   UNL A   1      37.457  31.107  40.444  1.00  0.00    -0.237 OA
ATOM     83  O   UNL A   1      36.918  33.416  41.070  1.00  0.00    -0.744 OA
ENDBRANCH  77  80
ENDBRANCH  49  73
BRANCH  61  84
ATOM     84  C   UNL A   1      44.088  28.201  34.637  1.00  0.00     0.023 A 
ATOM     85  C   UNL A   1      45.321  28.883  34.611  1.00  0.00     0.012 A 
ATOM     86  C   UNL A   1      43.971  27.010  35.382  1.00  0.00     0.148 A 
ATOM     87  C   UNL A   1      46.428  28.369  35.285  1.00  0.00     0.002 A 
ATOM     88  C   UNL A   1      45.063  26.533  36.095  1.00  0.00     0.091 A 
ATOM     89  F   UNL A   1      42.794  26.368  35.380  1.00  0.00    -0.205 F 
ATOM     90  C   UNL A   1      46.296  27.202  36.037  1.00  0.00     0.022 A 
BRANCH  88  91
ATOM     91  S   UNL A   1      44.959  25.097  37.169  1.00  0.00     0.127 S 
ATOM     92  O   UNL A   1      43.935  25.516  38.127  1.00  0.00    -0.237 OA
ATOM     93  O   UNL A   1      44.535  24.046  36.243  1.00  0.00    -0.237 OA
ATOM     94  O   UNL A   1      46.294  24.913  37.722  1.00  0.00    -0.744 OA
ENDBRANCH  88  91
ENDBRANCH  61  84
ENDBRANCH  35  36
ENDBRANCH  27  30
ENDBRANCH  25  26
ENDBRANCH  24  25
ENDBRANCH   1  24
TORSDOF 17
ENDMDL
MODEL 3
REMARK VINA RESULT:     -11.5      6.492     10.103
REMARK SMILES C[C@H](NC(=O)N1CC[C@H](C(=O)NCCCCNC(=O)c2ccc(-c3c4nc(c(-c5cccc(S(=O)(=O)[O-])c5F)c5ccc([nH]5)c(-c5cccc(S(=O)(=O)[O-])c5F)c5nc(c(-c6cccc(S(=O)(=O)[O-])c6F)c6ccc3[nH]6)C=C5)C=C4)cc2)[C@H]1C)c1ccsc1
REMARK SMILES IDX 14 1 13 2 12 3 10 4 11 5 9 7 6 8 7 9 83 10 8 11 84 12 4 13
REMARK SMILES IDX 3 14 5 16 2 17 1 18 85 19 86 20 89 21 87 22 88 23 15 24
REMARK SMILES IDX 16 25 17 26 18 27 19 29 20 30 21 31 82 32 22 33 81 34 23 35
REMARK SMILES IDX 24 36 25 37 75 38 26 39 80 40 74 41 76 42 27 43 79 44 73 45
REMARK SMILES IDX 72 46 28 48 60 49 40 50 59 51 41 52 44 53 58 54 77 55 42 56
REMARK SMILES IDX 43 57 57 59 78 60 45 61 29 62 30 63 38 64 31 65 33 66 39 67
REMARK SMILES IDX 32 68 34 69 35 70 36 71 37 72 61 73 62 74 70 75 63 76 65 77
REMARK SMILES IDX 71 78 64 79 66 80 67 81 68 82 69 83 46 84 47 85 55 86 48 87
REMARK SMILES IDX 50 88 56 89 49 90 51 91 52 92 53 93 54 94
REMARK H PARENT 12 6 3 15 17 28 76 47 44 58
REMARK Flexibility Score: inf
ROOT
ATOM      1  C   UNL A   1      37.433  20.106  24.522  1.00  0.00     0.023 C 
ENDROOT
BRANCH   1   2
ATOM      2  C   UNL A   1      36.435  20.915  25.338  1.00  0.00     0.116 C 
BRANCH   2   3
ATOM      3  N   UNL A   1      35.155  20.245  25.467  1.00  0.00    -0.356 N 
ATOM      4  C   UNL A   1      33.907  20.693  25.148  1.00  0.00     0.225 C 
ATOM      5  O   UNL A   1      32.948  19.961  25.375  1.00  0.00    -0.275 OA
ATOM      6  H   UNL A   1      35.192  19.335  25.839  1.00  0.00     0.163 HD
BRANCH   4   7
ATOM      7  C   UNL A   1      33.773  22.086  24.563  1.00  0.00     0.102 C 
ATOM      8  N   UNL A   1      32.183  23.681  25.374  1.00  0.00    -0.321 N 
ATOM      9  C   UNL A   1      31.480  22.723  24.552  1.00  0.00     0.122 C 
ATOM     10  C   UNL A   1      33.533  23.168  25.646  1.00  0.00     0.096 C 
ATOM     11  C   UNL A   1      32.553  22.196  23.637  1.00  0.00     0.037 C 
ATOM     12  C   UNL A   1      34.615  24.243  25.559  1.00  0.00     0.032 C 
BRANCH   8  13
ATOM     13  C   UNL A   1      31.427  24.286  26.333  1.00  0.00     0.318 C 
ATOM     14  N   UNL A   1      30.818  25.448  26.005  1.00  0.00    -0.331 N 
ATOM     15  H   UNL A   1      30.057  25.676  26.587  1.00  0.00     0.165 HD
ATOM     16  O   UNL A   1      31.145  23.754  27.404  1.00  0.00    -0.249 OA
BRANCH  14  17
ATOM     17  C   UNL A   1      31.070  26.431  24.956  1.00  0.00     0.112 C 
ATOM     18  C   UNL A   1      29.910  26.651  23.973  1.00  0.00     0.036 C 
BRANCH  17  19
ATOM     19  C   UNL A   1      31.464  27.763  25.616  1.00  0.00    -0.015 A 
ATOM     20  C   UNL A   1      31.908  27.959  26.976  1.00  0.00     0.017 A 
ATOM     21  C   UNL A   1      31.456  28.990  24.964  1.00  0.00     0.070 A 
ATOM     22  C   UNL A   1      32.102  29.284  27.300  1.00  0.00     0.065 A 
ATOM     23  S   UNL A   1      31.846  30.313  25.968  1.00  0.00    -0.152 S 
ENDBRANCH  17  19
ENDBRANCH  14  17
ENDBRANCH   8  13
ENDBRANCH   4   7
ENDBRANCH   2   3
ENDBRANCH   1   2
BRANCH   1  24
ATOM     24  C   UNL A   1      38.380  19.237  25.347  1.00  0.00     0.023 C 
BRANCH  24  25
ATOM     25  C   UNL A   1      39.478  19.996  26.080  1.00  0.00     0.116 C 
BRANCH  25  26
ATOM     26  N   UNL A   1      40.754  19.298  26.062  1.00  0.00    -0.352 N 
ATOM     27  C   UNL A   1      42.020  19.818  26.209  1.00  0.00     0.251 C 
ATOM     28  H   UNL A   1      40.705  18.324  25.926  1.00  0.00     0.163 HD
ATOM     29  O   UNL A   1      43.000  19.115  26.022  1.00  0.00    -0.269 OA
BRANCH  27  30
ATOM     30  C   UNL A   1      42.172  21.245  26.566  1.00  0.00     0.039 A 
ATOM     31  C   UNL A   1      42.317  21.594  27.910  1.00  0.00     0.014 A 
ATOM     32  C   UNL A   1      42.206  22.229  25.573  1.00  0.00     0.014 A 
ATOM     33  C   UNL A   1      42.555  22.927  28.254  1.00  0.00     0.010 A 
ATOM     34  C   UNL A   1      42.529  23.538  25.911  1.00  0.00     0.010 A 
ATOM     35  C   UNL A   1      42.693  23.906  27.255  1.00  0.00    -0.014 A 
BRANCH  35  36
ATOM     36  C   UNL A   1      42.989  25.322  27.594  1.00  0.00     0.031 A 
ATOM     37  C   UNL A   1      44.395  25.845  27.470  1.00  0.00     0.074 A 
ATOM     38  C   UNL A   1      42.015  26.112  28.089  1.00  0.00     0.049 A 
ATOM     39  N   UNL A   1      44.865  27.027  27.775  1.00  0.00    -0.248 NA
ATOM     40  C   UNL A   1      45.414  24.910  26.963  1.00  0.00     0.031 C 
ATOM     41  C   UNL A   1      40.630  25.701  28.331  1.00  0.00     0.029 A 
ATOM     42  N   UNL A   1      42.048  27.420  28.504  1.00  0.00    -0.354 N 
ATOM     43  C   UNL A   1      46.234  26.965  27.537  1.00  0.00     0.074 A 
ATOM     44  C   UNL A   1      46.526  25.617  27.099  1.00  0.00     0.031 C 
ATOM     45  C   UNL A   1      39.947  26.737  28.844  1.00  0.00     0.029 A 
ATOM     46  C   UNL A   1      40.847  27.874  28.998  1.00  0.00     0.049 A 
ATOM     47  H   UNL A   1      42.856  27.981  28.451  1.00  0.00     0.167 HD
ATOM     48  C   UNL A   1      47.160  27.946  27.639  1.00  0.00     0.034 A 
ATOM     49  C   UNL A   1      40.513  29.070  29.524  1.00  0.00     0.034 A 
ATOM     50  C   UNL A   1      46.859  29.296  28.030  1.00  0.00     0.049 A 
ATOM     51  C   UNL A   1      41.554  30.156  29.589  1.00  0.00     0.074 A 
ATOM     52  C   UNL A   1      47.710  30.385  28.083  1.00  0.00     0.029 A 
ATOM     53  N   UNL A   1      45.612  29.742  28.435  1.00  0.00    -0.354 N 
ATOM     54  N   UNL A   1      42.809  30.120  29.212  1.00  0.00    -0.248 NA
ATOM     55  C   UNL A   1      41.123  31.460  30.114  1.00  0.00     0.031 C 
ATOM     56  C   UNL A   1      46.981  31.486  28.546  1.00  0.00     0.029 A 
ATOM     57  C   UNL A   1      45.669  31.089  28.748  1.00  0.00     0.049 A 
ATOM     58  H   UNL A   1      44.803  29.183  28.495  1.00  0.00     0.167 HD
ATOM     59  C   UNL A   1      43.303  31.405  29.412  1.00  0.00     0.074 A 
ATOM     60  C   UNL A   1      42.207  32.198  29.927  1.00  0.00     0.031 C 
ATOM     61  C   UNL A   1      44.555  31.882  29.201  1.00  0.00     0.034 A 
BRANCH  48  62
ATOM     62  C   UNL A   1      48.582  27.610  27.273  1.00  0.00     0.023 A 
ATOM     63  C   UNL A   1      49.444  27.070  28.251  1.00  0.00     0.012 A 
ATOM     64  C   UNL A   1      49.049  27.767  25.954  1.00  0.00     0.148 A 
ATOM     65  C   UNL A   1      50.757  26.728  27.932  1.00  0.00     0.002 A 
ATOM     66  C   UNL A   1      50.344  27.379  25.631  1.00  0.00     0.091 A 
ATOM     67  F   UNL A   1      48.223  28.300  25.043  1.00  0.00    -0.205 F 
ATOM     68  C   UNL A   1      51.203  26.872  26.621  1.00  0.00     0.022 A 
BRANCH  66  69
ATOM     69  S   UNL A   1      50.988  27.444  23.956  1.00  0.00     0.127 S 
ATOM     70  O   UNL A   1      51.151  28.884  23.759  1.00  0.00    -0.237 OA
ATOM     71  O   UNL A   1      52.242  26.702  24.082  1.00  0.00    -0.237 OA
ATOM     72  O   UNL A   1      49.986  26.808  23.114  1.00  0.00    -0.744 OA
ENDBRANCH  66  69
ENDBRANCH  48  62
BRANCH  49  73
ATOM     73  C   UNL A   1      39.114  29.328  29.971  1.00  0.00     0.023 A 
ATOM     74  C   UNL A   1      38.684  28.837  31.220  1.00  0.00     0.012 A 
ATOM     75  C   UNL A   1      38.213  30.060  29.175  1.00  0.00     0.148 A 
ATOM     76  C   UNL A   1      37.372  29.034  31.651  1.00  0.00     0.002 A 
ATOM     77  C   UNL A   1      36.922  30.302  29.635  1.00  0.00     0.091 A 
ATOM     78  F   UNL A   1      38.635  30.511  27.986  1.00  0.00    -0.205 F 
ATOM     79  C   UNL A   1      36.494  29.774  30.863  1.00  0.00     0.022 A 
BRANCH  77  80
ATOM     80  S   UNL A   1      35.766  31.353  28.750  1.00  0.00     0.127 S 
ATOM     81  O   UNL A   1      36.636  32.428  28.283  1.00  0.00    -0.237 OA
ATOM     82  O   UNL A   1      35.279  30.453  27.705  1.00  0.00    -0.237 OA
ATOM     83  O   UNL A   1      34.756  31.735  29.729  1.00  0.00    -0.744 OA
ENDBRANCH  77  80
ENDBRANCH  49  73
BRANCH  61  84
ATOM     84  C   UNL A   1      44.805  33.343  29.467  1.00  0.00     0.023 A 
ATOM     85  C   UNL A   1      45.305  33.758  30.717  1.00  0.00     0.012 A 
ATOM     86  C   UNL A   1      44.616  34.296  28.446  1.00  0.00     0.148 A 
ATOM     87  C   UNL A   1      45.580  35.104  30.957  1.00  0.00     0.002 A 
ATOM     88  C   UNL A   1      44.942  35.626  28.675  1.00  0.00     0.091 A 
ATOM     89  F   UNL A   1      44.122  33.883  27.269  1.00  0.00    -0.205 F 
ATOM     90  C   UNL A   1      45.411  36.035  29.934  1.00  0.00     0.022 A 
BRANCH  88  91
ATOM     91  S   UNL A   1      44.854  36.875  27.387  1.00  0.00     0.127 S 
ATOM     92  O   UNL A   1      45.133  38.098  28.139  1.00  0.00    -0.237 OA
ATOM     93  O   UNL A   1      45.923  36.460  26.478  1.00  0.00    -0.237 OA
ATOM     94  O   UNL A   1      43.513  36.778  26.827  1.00  0.00    -0.744 OA
ENDBRANCH  88  91
ENDBRANCH  61  84
ENDBRANCH  35  36
ENDBRANCH  27  30
ENDBRANCH  25  26
ENDBRANCH  24  25
ENDBRANCH   1  24
TORSDOF 17
ENDMDL
