MODEL 1
REMARK VINA RESULT:     -12.2      0.000      0.000
REMARK SMILES O=C(C[C@]1(C(=O)NC2CCCCC2)CC(c2ccc([N+](=O)[O-])cc2)=NO1)NCCCCNC(=O)c1ccc(-c2c3nc(c(-c4cccc(S(=O)(=O)[O-])c4F)c4ccc([nH]4)c(-c4cccc(S(=O)(=O)[O-])c4F)c4nc(c(-c5cccc(S(=O)(=O)[O-])c5F)c5ccc2[nH]5)C=C4)C=C3)cc1
REMARK SMILES IDX 29 1 28 2 27 3 1 4 2 5 3 7 4 8 14 9 26 10 15 11 25 12 5 13
REMARK SMILES IDX 6 14 7 15 8 17 9 18 13 19 10 20 12 21 11 22 16 23 17 24
REMARK SMILES IDX 24 25 18 26 23 27 19 28 20 29 21 30 22 31 30 32 31 33 32 34
REMARK SMILES IDX 33 35 34 37 35 38 36 39 97 40 37 41 96 42 38 43 39 44 40 45
REMARK SMILES IDX 90 46 41 47 95 48 89 49 91 50 42 51 94 52 88 53 87 54 43 56
REMARK SMILES IDX 75 57 55 58 74 59 56 60 59 61 73 62 92 63 57 64 58 65 72 67
REMARK SMILES IDX 93 68 60 69 44 70 45 71 53 72 46 73 48 74 54 75 47 76 49 77
REMARK SMILES IDX 50 78 51 79 52 80 76 81 77 82 85 83 78 84 80 85 86 86 79 87
REMARK SMILES IDX 81 88 82 89 83 90 84 91 61 92 62 93 70 94 63 95 65 96 71 97
REMARK SMILES IDX 64 98 66 99 67 100 68 101 69 102
REMARK H PARENT 27 6 7 16 32 36 91 55 59 66
REMARK Flexibility Score: inf
ROOT
ATOM      1  C   UNL A   1      31.844  27.705  26.518  1.00  0.00     0.023 C 
ENDROOT
BRANCH   1   2
ATOM      2  C   UNL A   1      31.060  27.288  25.279  1.00  0.00     0.116 C 
BRANCH   2   3
ATOM      3  N   UNL A   1      31.619  26.124  24.615  1.00  0.00    -0.356 N 
ATOM      4  O   UNL A   1      30.138  24.611  25.476  1.00  0.00    -0.275 OA
ATOM      5  C   UNL A   1      31.039  24.882  24.682  1.00  0.00     0.224 C 
ATOM      6  H   UNL A   1      32.448  26.230  24.095  1.00  0.00     0.163 HD
BRANCH   5   7
ATOM      7  C   UNL A   1      31.572  23.822  23.727  1.00  0.00     0.162 C 
BRANCH   7   8
ATOM      8  C   UNL A   1      32.999  23.276  23.964  1.00  0.00     0.229 C 
ATOM      9  C   UNL A   1      33.257  21.829  23.589  1.00  0.00     0.123 C 
ATOM     10  O   UNL A   1      33.148  23.264  25.413  1.00  0.00    -0.378 OA
ATOM     11  C   UNL A   1      33.175  21.151  24.898  1.00  0.00     0.092 C 
ATOM     12  N   UNL A   1      33.026  21.933  25.908  1.00  0.00    -0.089 NA
BRANCH   8  13
ATOM     13  C   UNL A   1      34.094  24.196  23.367  1.00  0.00     0.268 C 
ATOM     14  O   UNL A   1      33.808  25.053  22.521  1.00  0.00    -0.270 OA
ATOM     15  N   UNL A   1      35.431  24.043  23.623  1.00  0.00    -0.350 N 
ATOM     16  H   UNL A   1      35.999  24.611  23.053  1.00  0.00     0.163 HD
BRANCH  15  17
ATOM     17  C   UNL A   1      36.201  23.219  24.561  1.00  0.00     0.082 C 
ATOM     18  C   UNL A   1      36.917  22.040  23.900  1.00  0.00     0.025 C 
ATOM     19  C   UNL A   1      37.229  24.071  25.319  1.00  0.00     0.025 C 
ATOM     20  C   UNL A   1      37.637  21.177  24.927  1.00  0.00     0.002 C 
ATOM     21  C   UNL A   1      37.978  23.230  26.355  1.00  0.00     0.002 C 
ATOM     22  C   UNL A   1      38.632  21.998  25.735  1.00  0.00     0.000 C 
ENDBRANCH  15  17
ENDBRANCH   8  13
BRANCH  11  23
ATOM     23  C   UNL A   1      33.353  19.691  24.971  1.00  0.00    -0.000 A 
ATOM     24  C   UNL A   1      32.332  18.858  25.428  1.00  0.00     0.017 A 
ATOM     25  C   UNL A   1      34.587  19.150  24.574  1.00  0.00     0.017 A 
ATOM     26  C   UNL A   1      32.537  17.471  25.464  1.00  0.00     0.086 A 
ATOM     27  C   UNL A   1      34.801  17.772  24.620  1.00  0.00     0.086 A 
ATOM     28  C   UNL A   1      33.771  16.935  25.061  1.00  0.00     0.269 A 
BRANCH  28  29
ATOM     29  N   UNL A   1      33.995  15.482  25.100  1.00  0.00     0.062 N 
ATOM     30  O   UNL A   1      35.166  15.079  25.132  1.00  0.00    -0.258 OA
ATOM     31  O   UNL A   1      32.998  14.747  25.119  1.00  0.00    -0.258 OA
ENDBRANCH  28  29
ENDBRANCH  11  23
ENDBRANCH   7   8
ENDBRANCH   5   7
ENDBRANCH   2   3
ENDBRANCH   1   2
BRANCH   1  32
ATOM     32  C   UNL A   1      33.335  27.365  26.483  1.00  0.00     0.023 C 
BRANCH  32  33
ATOM     33  C   UNL A   1      34.255  28.480  25.994  1.00  0.00     0.116 C 
BRANCH  33  34
ATOM     34  N   UNL A   1      33.856  29.795  26.478  1.00  0.00    -0.352 N 
ATOM     35  C   UNL A   1      34.440  30.587  27.439  1.00  0.00     0.251 C 
ATOM     36  H   UNL A   1      33.051  30.172  26.056  1.00  0.00     0.163 HD
ATOM     37  O   UNL A   1      33.867  31.609  27.815  1.00  0.00    -0.269 OA
BRANCH  35  38
ATOM     38  C   UNL A   1      35.739  30.207  28.040  1.00  0.00     0.039 A 
ATOM     39  C   UNL A   1      35.753  29.623  29.310  1.00  0.00     0.014 A 
ATOM     40  C   UNL A   1      36.942  30.421  27.362  1.00  0.00     0.014 A 
ATOM     41  C   UNL A   1      36.961  29.191  29.867  1.00  0.00     0.010 A 
ATOM     42  C   UNL A   1      38.135  29.919  27.883  1.00  0.00     0.010 A 
ATOM     43  C   UNL A   1      38.158  29.300  29.142  1.00  0.00    -0.014 A 
BRANCH  43  44
ATOM     44  C   UNL A   1      39.436  28.750  29.671  1.00  0.00     0.031 A 
ATOM     45  C   UNL A   1      40.153  29.434  30.806  1.00  0.00     0.074 A 
ATOM     46  C   UNL A   1      40.000  27.680  29.073  1.00  0.00     0.049 A 
ATOM     47  N   UNL A   1      41.298  29.130  31.362  1.00  0.00    -0.248 NA
ATOM     48  C   UNL A   1      39.513  30.631  31.375  1.00  0.00     0.031 C 
ATOM     49  C   UNL A   1      39.448  26.968  27.918  1.00  0.00     0.029 A 
ATOM     50  N   UNL A   1      41.177  27.022  29.336  1.00  0.00    -0.354 N 
ATOM     51  C   UNL A   1      41.535  30.114  32.315  1.00  0.00     0.074 A 
ATOM     52  C   UNL A   1      40.426  31.042  32.243  1.00  0.00     0.031 C 
ATOM     53  C   UNL A   1      40.279  25.969  27.578  1.00  0.00     0.029 A 
ATOM     54  C   UNL A   1      41.440  25.991  28.462  1.00  0.00     0.049 A 
ATOM     55  H   UNL A   1      41.776  27.263  30.078  1.00  0.00     0.167 HD
ATOM     56  C   UNL A   1      42.566  30.225  33.186  1.00  0.00     0.034 A 
ATOM     57  C   UNL A   1      42.500  25.162  28.373  1.00  0.00     0.034 A 
ATOM     58  C   UNL A   1      43.649  29.283  33.280  1.00  0.00     0.049 A 
ATOM     59  C   UNL A   1      43.621  25.294  29.369  1.00  0.00     0.074 A 
ATOM     60  C   UNL A   1      44.688  29.258  34.192  1.00  0.00     0.029 A 
ATOM     61  N   UNL A   1      43.843  28.211  32.423  1.00  0.00    -0.354 N 
ATOM     62  N   UNL A   1      43.743  26.133  30.368  1.00  0.00    -0.248 NA
ATOM     63  C   UNL A   1      44.733  24.341  29.248  1.00  0.00     0.031 C 
ATOM     64  C   UNL A   1      45.534  28.193  33.864  1.00  0.00     0.029 A 
ATOM     65  C   UNL A   1      44.996  27.528  32.774  1.00  0.00     0.049 A 
ATOM     66  H   UNL A   1      43.250  27.970  31.676  1.00  0.00     0.167 HD
ATOM     67  C   UNL A   1      44.922  25.785  31.017  1.00  0.00     0.074 A 
ATOM     68  C   UNL A   1      45.467  24.645  30.309  1.00  0.00     0.031 C 
ATOM     69  C   UNL A   1      45.506  26.364  32.095  1.00  0.00     0.034 A 
BRANCH  56  70
ATOM     70  C   UNL A   1      42.558  31.393  34.140  1.00  0.00     0.023 A 
ATOM     71  C   UNL A   1      43.266  32.568  33.814  1.00  0.00     0.012 A 
ATOM     72  C   UNL A   1      41.798  31.353  35.326  1.00  0.00     0.148 A 
ATOM     73  C   UNL A   1      43.249  33.669  34.669  1.00  0.00     0.002 A 
ATOM     74  C   UNL A   1      41.748  32.471  36.150  1.00  0.00     0.091 A 
ATOM     75  F   UNL A   1      41.145  30.222  35.629  1.00  0.00    -0.205 F 
ATOM     76  C   UNL A   1      42.483  33.624  35.830  1.00  0.00     0.022 A 
BRANCH  74  77
ATOM     77  S   UNL A   1      40.724  32.546  37.624  1.00  0.00     0.127 S 
ATOM     78  O   UNL A   1      41.573  31.871  38.606  1.00  0.00    -0.237 OA
ATOM     79  O   UNL A   1      40.585  33.988  37.829  1.00  0.00    -0.237 OA
ATOM     80  O   UNL A   1      39.486  31.856  37.291  1.00  0.00    -0.744 OA
ENDBRANCH  74  77
ENDBRANCH  56  70
BRANCH  57  81
ATOM     81  C   UNL A   1      42.529  24.092  27.335  1.00  0.00     0.023 A 
ATOM     82  C   UNL A   1      43.025  24.388  26.049  1.00  0.00     0.012 A 
ATOM     83  C   UNL A   1      42.083  22.785  27.614  1.00  0.00     0.148 A 
ATOM     84  C   UNL A   1      43.042  23.414  25.051  1.00  0.00     0.002 A 
ATOM     85  C   UNL A   1      42.156  21.805  26.631  1.00  0.00     0.091 A 
ATOM     86  F   UNL A   1      41.607  22.526  28.839  1.00  0.00    -0.205 F 
ATOM     87  C   UNL A   1      42.617  22.122  25.344  1.00  0.00     0.022 A 
BRANCH  85  88
ATOM     88  S   UNL A   1      41.751  20.084  26.950  1.00  0.00     0.127 S 
ATOM     89  O   UNL A   1      41.691  19.535  25.598  1.00  0.00    -0.237 OA
ATOM     90  O   UNL A   1      42.901  19.648  27.743  1.00  0.00    -0.237 OA
ATOM     91  O   UNL A   1      40.490  20.104  27.679  1.00  0.00    -0.744 OA
ENDBRANCH  85  88
ENDBRANCH  57  81
BRANCH  69  92
ATOM     92  C   UNL A   1      46.781  25.752  32.617  1.00  0.00     0.023 A 
ATOM     93  C   UNL A   1      48.029  26.222  32.165  1.00  0.00     0.012 A 
ATOM     94  C   UNL A   1      46.739  24.754  33.612  1.00  0.00     0.148 A 
ATOM     95  C   UNL A   1      49.214  25.686  32.668  1.00  0.00     0.002 A 
ATOM     96  C   UNL A   1      47.922  24.263  34.148  1.00  0.00     0.091 A 
ATOM     97  F   UNL A   1      45.542  24.306  34.019  1.00  0.00    -0.205 F 
ATOM     98  C   UNL A   1      49.161  24.717  33.667  1.00  0.00     0.022 A 
BRANCH  96  99
ATOM     99  S   UNL A   1      47.953  23.088  35.507  1.00  0.00     0.127 S 
ATOM    100  O   UNL A   1      49.325  23.230  35.992  1.00  0.00    -0.237 OA
ATOM    101  O   UNL A   1      46.930  23.626  36.404  1.00  0.00    -0.237 OA
ATOM    102  O   UNL A   1      47.628  21.792  34.926  1.00  0.00    -0.744 OA
ENDBRANCH  96  99
ENDBRANCH  69  92
ENDBRANCH  43  44
ENDBRANCH  35  38
ENDBRANCH  33  34
ENDBRANCH  32  33
ENDBRANCH   1  32
TORSDOF 19
ENDMDL
MODEL 2
REMARK VINA RESULT:     -12.0      3.786      9.516
REMARK SMILES O=C(C[C@]1(C(=O)NC2CCCCC2)CC(c2ccc([N+](=O)[O-])cc2)=NO1)NCCCCNC(=O)c1ccc(-c2c3nc(c(-c4cccc(S(=O)(=O)[O-])c4F)c4ccc([nH]4)c(-c4cccc(S(=O)(=O)[O-])c4F)c4nc(c(-c5cccc(S(=O)(=O)[O-])c5F)c5ccc2[nH]5)C=C4)C=C3)cc1
REMARK SMILES IDX 29 1 28 2 27 3 1 4 2 5 3 7 4 8 14 9 26 10 15 11 25 12 5 13
REMARK SMILES IDX 6 14 7 15 8 17 9 18 13 19 10 20 12 21 11 22 16 23 17 24
REMARK SMILES IDX 24 25 18 26 23 27 19 28 20 29 21 30 22 31 30 32 31 33 32 34
REMARK SMILES IDX 33 35 34 37 35 38 36 39 97 40 37 41 96 42 38 43 39 44 40 45
REMARK SMILES IDX 90 46 41 47 95 48 89 49 91 50 42 51 94 52 88 53 87 54 43 56
REMARK SMILES IDX 75 57 55 58 74 59 56 60 59 61 73 62 92 63 57 64 58 65 72 67
REMARK SMILES IDX 93 68 60 69 44 70 45 71 53 72 46 73 48 74 54 75 47 76 49 77
REMARK SMILES IDX 50 78 51 79 52 80 76 81 77 82 85 83 78 84 80 85 86 86 79 87
REMARK SMILES IDX 81 88 82 89 83 90 84 91 61 92 62 93 70 94 63 95 65 96 71 97
REMARK SMILES IDX 64 98 66 99 67 100 68 101 69 102
REMARK H PARENT 27 6 7 16 32 36 91 55 59 66
REMARK Flexibility Score: inf
ROOT
ATOM      1  C   UNL A   1      31.729  30.492  26.120  1.00  0.00     0.023 C 
ENDROOT
BRANCH   1   2
ATOM      2  C   UNL A   1      31.852  29.196  26.914  1.00  0.00     0.116 C 
BRANCH   2   3
ATOM      3  N   UNL A   1      32.055  28.030  26.074  1.00  0.00    -0.356 N 
ATOM      4  O   UNL A   1      34.337  28.021  26.207  1.00  0.00    -0.275 OA
ATOM      5  C   UNL A   1      33.290  27.464  25.875  1.00  0.00     0.224 C 
ATOM      6  H   UNL A   1      31.274  27.627  25.629  1.00  0.00     0.163 HD
BRANCH   5   7
ATOM      7  C   UNL A   1      33.320  26.100  25.200  1.00  0.00     0.162 C 
BRANCH   7   8
ATOM      8  C   UNL A   1      32.700  25.968  23.789  1.00  0.00     0.229 C 
ATOM      9  C   UNL A   1      32.294  27.251  23.088  1.00  0.00     0.123 C 
ATOM     10  O   UNL A   1      31.422  25.306  24.015  1.00  0.00    -0.378 OA
ATOM     11  C   UNL A   1      30.838  27.286  23.326  1.00  0.00     0.092 C 
ATOM     12  N   UNL A   1      30.358  26.250  23.919  1.00  0.00    -0.089 NA
BRANCH   8  13
ATOM     13  C   UNL A   1      33.551  25.079  22.847  1.00  0.00     0.268 C 
ATOM     14  O   UNL A   1      33.981  25.524  21.775  1.00  0.00    -0.270 OA
ATOM     15  N   UNL A   1      33.769  23.744  23.061  1.00  0.00    -0.350 N 
ATOM     16  H   UNL A   1      34.202  23.298  22.297  1.00  0.00     0.163 HD
BRANCH  15  17
ATOM     17  C   UNL A   1      33.499  22.833  24.179  1.00  0.00     0.082 C 
ATOM     18  C   UNL A   1      32.390  21.819  23.892  1.00  0.00     0.025 C 
ATOM     19  C   UNL A   1      34.773  22.083  24.592  1.00  0.00     0.025 C 
ATOM     20  C   UNL A   1      32.099  20.951  25.109  1.00  0.00     0.002 C 
ATOM     21  C   UNL A   1      34.513  21.193  25.810  1.00  0.00     0.002 C 
ATOM     22  C   UNL A   1      33.353  20.227  25.580  1.00  0.00     0.000 C 
ENDBRANCH  15  17
ENDBRANCH   8  13
BRANCH  11  23
ATOM     23  C   UNL A   1      30.046  28.415  22.810  1.00  0.00    -0.000 A 
ATOM     24  C   UNL A   1      28.684  28.531  23.085  1.00  0.00     0.017 A 
ATOM     25  C   UNL A   1      30.696  29.379  22.022  1.00  0.00     0.017 A 
ATOM     26  C   UNL A   1      27.971  29.632  22.589  1.00  0.00     0.086 A 
ATOM     27  C   UNL A   1      29.989  30.470  21.516  1.00  0.00     0.086 A 
ATOM     28  C   UNL A   1      28.627  30.596  21.805  1.00  0.00     0.269 A 
BRANCH  28  29
ATOM     29  N   UNL A   1      27.884  31.750  21.278  1.00  0.00     0.062 N 
ATOM     30  O   UNL A   1      27.425  31.666  20.130  1.00  0.00    -0.258 OA
ATOM     31  O   UNL A   1      27.746  32.733  22.020  1.00  0.00    -0.258 OA
ENDBRANCH  28  29
ENDBRANCH  11  23
ENDBRANCH   7   8
ENDBRANCH   5   7
ENDBRANCH   2   3
ENDBRANCH   1   2
BRANCH   1  32
ATOM     32  C   UNL A   1      31.532  31.752  26.965  1.00  0.00     0.023 C 
BRANCH  32  33
ATOM     33  C   UNL A   1      32.796  32.554  27.258  1.00  0.00     0.116 C 
BRANCH  33  34
ATOM     34  N   UNL A   1      32.519  33.948  27.580  1.00  0.00    -0.352 N 
ATOM     35  C   UNL A   1      33.093  34.756  28.534  1.00  0.00     0.251 C 
ATOM     36  H   UNL A   1      31.819  34.374  27.035  1.00  0.00     0.163 HD
ATOM     37  O   UNL A   1      32.619  35.870  28.753  1.00  0.00    -0.269 OA
BRANCH  35  38
ATOM     38  C   UNL A   1      34.260  34.286  29.315  1.00  0.00     0.039 A 
ATOM     39  C   UNL A   1      34.043  33.654  30.543  1.00  0.00     0.014 A 
ATOM     40  C   UNL A   1      35.565  34.463  28.847  1.00  0.00     0.014 A 
ATOM     41  C   UNL A   1      35.126  33.138  31.263  1.00  0.00     0.010 A 
ATOM     42  C   UNL A   1      36.635  33.881  29.526  1.00  0.00     0.010 A 
ATOM     43  C   UNL A   1      36.428  33.213  30.743  1.00  0.00    -0.014 A 
BRANCH  43  44
ATOM     44  C   UNL A   1      37.578  32.578  31.442  1.00  0.00     0.031 A 
ATOM     45  C   UNL A   1      38.322  31.430  30.807  1.00  0.00     0.074 A 
ATOM     46  C   UNL A   1      37.903  32.975  32.689  1.00  0.00     0.049 A 
ATOM     47  N   UNL A   1      39.312  30.723  31.288  1.00  0.00    -0.248 NA
ATOM     48  C   UNL A   1      37.878  31.006  29.469  1.00  0.00     0.031 C 
ATOM     49  C   UNL A   1      37.217  34.024  33.447  1.00  0.00     0.029 A 
ATOM     50  N   UNL A   1      38.874  32.526  33.551  1.00  0.00    -0.354 N 
ATOM     51  C   UNL A   1      39.584  29.749  30.334  1.00  0.00     0.074 A 
ATOM     52  C   UNL A   1      38.636  29.940  29.257  1.00  0.00     0.031 C 
ATOM     53  C   UNL A   1      37.793  34.144  34.655  1.00  0.00     0.029 A 
ATOM     54  C   UNL A   1      38.862  33.157  34.774  1.00  0.00     0.049 A 
ATOM     55  H   UNL A   1      39.518  31.820  33.316  1.00  0.00     0.167 HD
ATOM     56  C   UNL A   1      40.549  28.798  30.339  1.00  0.00     0.034 A 
ATOM     57  C   UNL A   1      39.617  32.959  35.873  1.00  0.00     0.034 A 
ATOM     58  C   UNL A   1      41.513  28.633  31.394  1.00  0.00     0.049 A 
ATOM     59  C   UNL A   1      40.697  31.910  35.843  1.00  0.00     0.074 A 
ATOM     60  C   UNL A   1      42.587  27.761  31.447  1.00  0.00     0.029 A 
ATOM     61  N   UNL A   1      41.513  29.339  32.587  1.00  0.00    -0.354 N 
ATOM     62  N   UNL A   1      41.044  31.111  34.865  1.00  0.00    -0.248 NA
ATOM     63  C   UNL A   1      41.514  31.762  37.056  1.00  0.00     0.031 C 
ATOM     64  C   UNL A   1      43.213  27.912  32.688  1.00  0.00     0.029 A 
ATOM     65  C   UNL A   1      42.556  28.909  33.391  1.00  0.00     0.049 A 
ATOM     66  H   UNL A   1      40.867  30.041  32.827  1.00  0.00     0.167 HD
ATOM     67  C   UNL A   1      42.141  30.394  35.329  1.00  0.00     0.074 A 
ATOM     68  C   UNL A   1      42.413  30.869  36.669  1.00  0.00     0.031 C 
ATOM     69  C   UNL A   1      42.852  29.423  34.704  1.00  0.00     0.034 A 
BRANCH  56  70
ATOM     70  C   UNL A   1      40.637  27.879  29.148  1.00  0.00     0.023 A 
ATOM     71  C   UNL A   1      39.768  26.773  29.051  1.00  0.00     0.012 A 
ATOM     72  C   UNL A   1      41.533  28.144  28.093  1.00  0.00     0.148 A 
ATOM     73  C   UNL A   1      39.814  25.925  27.945  1.00  0.00     0.002 A 
ATOM     74  C   UNL A   1      41.541  27.323  26.972  1.00  0.00     0.091 A 
ATOM     75  F   UNL A   1      42.365  29.190  28.209  1.00  0.00    -0.205 F 
ATOM     76  C   UNL A   1      40.692  26.207  26.902  1.00  0.00     0.022 A 
BRANCH  74  77
ATOM     77  S   UNL A   1      42.574  27.647  25.538  1.00  0.00     0.127 S 
ATOM     78  O   UNL A   1      42.289  26.481  24.702  1.00  0.00    -0.237 OA
ATOM     79  O   UNL A   1      42.020  28.905  25.039  1.00  0.00    -0.237 OA
ATOM     80  O   UNL A   1      43.939  27.738  26.036  1.00  0.00    -0.744 OA
ENDBRANCH  74  77
ENDBRANCH  56  70
BRANCH  57  81
ATOM     81  C   UNL A   1      39.419  33.810  37.082  1.00  0.00     0.023 A 
ATOM     82  C   UNL A   1      39.875  35.143  37.071  1.00  0.00     0.012 A 
ATOM     83  C   UNL A   1      38.773  33.316  38.232  1.00  0.00     0.148 A 
ATOM     84  C   UNL A   1      39.725  35.957  38.194  1.00  0.00     0.002 A 
ATOM     85  C   UNL A   1      38.576  34.149  39.327  1.00  0.00     0.091 A 
ATOM     86  F   UNL A   1      38.354  32.043  38.226  1.00  0.00    -0.205 F 
ATOM     87  C   UNL A   1      39.068  35.463  39.318  1.00  0.00     0.022 A 
BRANCH  85  88
ATOM     88  S   UNL A   1      37.631  33.643  40.768  1.00  0.00     0.127 S 
ATOM     89  O   UNL A   1      36.448  33.044  40.155  1.00  0.00    -0.237 OA
ATOM     90  O   UNL A   1      38.543  32.694  41.406  1.00  0.00    -0.237 OA
ATOM     91  O   UNL A   1      37.397  34.860  41.533  1.00  0.00    -0.744 OA
ENDBRANCH  85  88
ENDBRANCH  57  81
BRANCH  69  92
ATOM     92  C   UNL A   1      44.030  28.833  35.438  1.00  0.00     0.023 A 
ATOM     93  C   UNL A   1      45.313  29.390  35.279  1.00  0.00     0.012 A 
ATOM     94  C   UNL A   1      43.847  27.767  36.342  1.00  0.00     0.148 A 
ATOM     95  C   UNL A   1      46.403  28.873  35.982  1.00  0.00     0.002 A 
ATOM     96  C   UNL A   1      44.925  27.293  37.078  1.00  0.00     0.091 A 
ATOM     97  F   UNL A   1      42.621  27.238  36.468  1.00  0.00    -0.205 F 
ATOM     98  C   UNL A   1      46.206  27.835  36.888  1.00  0.00     0.022 A 
BRANCH  96  99
ATOM     99  S   UNL A   1      44.750  26.027  38.342  1.00  0.00     0.127 S 
ATOM    100  O   UNL A   1      44.094  24.953  37.599  1.00  0.00    -0.237 OA
ATOM    101  O   UNL A   1      46.142  25.758  38.704  1.00  0.00    -0.237 OA
ATOM    102  O   UNL A   1      43.954  26.627  39.405  1.00  0.00    -0.744 OA
ENDBRANCH  96  99
ENDBRANCH  69  92
ENDBRANCH  43  44
ENDBRANCH  35  38
ENDBRANCH  33  34
ENDBRANCH  32  33
ENDBRANCH   1  32
TORSDOF 19
ENDMDL
MODEL 3
REMARK VINA RESULT:     -11.9      4.849      9.552
REMARK SMILES O=C(C[C@]1(C(=O)NC2CCCCC2)CC(c2ccc([N+](=O)[O-])cc2)=NO1)NCCCCNC(=O)c1ccc(-c2c3nc(c(-c4cccc(S(=O)(=O)[O-])c4F)c4ccc([nH]4)c(-c4cccc(S(=O)(=O)[O-])c4F)c4nc(c(-c5cccc(S(=O)(=O)[O-])c5F)c5ccc2[nH]5)C=C4)C=C3)cc1
REMARK SMILES IDX 29 1 28 2 27 3 1 4 2 5 3 7 4 8 14 9 26 10 15 11 25 12 5 13
REMARK SMILES IDX 6 14 7 15 8 17 9 18 13 19 10 20 12 21 11 22 16 23 17 24
REMARK SMILES IDX 24 25 18 26 23 27 19 28 20 29 21 30 22 31 30 32 31 33 32 34
REMARK SMILES IDX 33 35 34 37 35 38 36 39 97 40 37 41 96 42 38 43 39 44 40 45
REMARK SMILES IDX 90 46 41 47 95 48 89 49 91 50 42 51 94 52 88 53 87 54 43 56
REMARK SMILES IDX 75 57 55 58 74 59 56 60 59 61 73 62 92 63 57 64 58 65 72 67
REMARK SMILES IDX 93 68 60 69 44 70 45 71 53 72 46 73 48 74 54 75 47 76 49 77
REMARK SMILES IDX 50 78 51 79 52 80 76 81 77 82 85 83 78 84 80 85 86 86 79 87
REMARK SMILES IDX 81 88 82 89 83 90 84 91 61 92 62 93 70 94 63 95 65 96 71 97
REMARK SMILES IDX 64 98 66 99 67 100 68 101 69 102
REMARK H PARENT 27 6 7 16 32 36 91 55 59 66
REMARK Flexibility Score: inf
ROOT
ATOM      1  C   UNL A   1      36.245  21.266  24.509  1.00  0.00     0.023 C 
ENDROOT
BRANCH   1   2
ATOM      2  C   UNL A   1      36.607  22.743  24.388  1.00  0.00     0.116 C 
BRANCH   2   3
ATOM      3  N   UNL A   1      35.547  23.628  24.837  1.00  0.00    -0.356 N 
ATOM      4  O   UNL A   1      34.725  24.104  22.758  1.00  0.00    -0.275 OA
ATOM      5  C   UNL A   1      34.612  24.157  23.983  1.00  0.00     0.224 C 
ATOM      6  H   UNL A   1      35.496  23.857  25.793  1.00  0.00     0.163 HD
BRANCH   5   7
ATOM      7  C   UNL A   1      33.409  24.840  24.620  1.00  0.00     0.162 C 
BRANCH   7   8
ATOM      8  C   UNL A   1      32.258  23.953  25.147  1.00  0.00     0.229 C 
ATOM      9  C   UNL A   1      32.625  22.567  25.646  1.00  0.00     0.123 C 
ATOM     10  O   UNL A   1      31.451  23.666  23.968  1.00  0.00    -0.378 OA
ATOM     11  C   UNL A   1      32.264  21.718  24.494  1.00  0.00     0.092 C 
ATOM     12  N   UNL A   1      31.692  22.334  23.521  1.00  0.00    -0.089 NA
BRANCH   8  13
ATOM     13  C   UNL A   1      31.368  24.686  26.182  1.00  0.00     0.268 C 
ATOM     14  O   UNL A   1      31.052  24.137  27.246  1.00  0.00    -0.270 OA
ATOM     15  N   UNL A   1      30.777  25.899  25.946  1.00  0.00    -0.350 N 
ATOM     16  H   UNL A   1      30.130  26.154  26.643  1.00  0.00     0.163 HD
BRANCH  15  17
ATOM     17  C   UNL A   1      30.898  26.901  24.882  1.00  0.00     0.082 C 
ATOM     18  C   UNL A   1      29.635  27.053  24.033  1.00  0.00     0.025 C 
ATOM     19  C   UNL A   1      31.281  28.270  25.462  1.00  0.00     0.025 C 
ATOM     20  C   UNL A   1      29.841  28.049  22.899  1.00  0.00     0.002 C 
ATOM     21  C   UNL A   1      31.487  29.298  24.348  1.00  0.00     0.002 C 
ATOM     22  C   UNL A   1      30.270  29.408  23.433  1.00  0.00     0.000 C 
ENDBRANCH  15  17
ENDBRANCH   8  13
BRANCH  11  23
ATOM     23  C   UNL A   1      32.489  20.265  24.567  1.00  0.00    -0.000 A 
ATOM     24  C   UNL A   1      32.694  19.623  25.788  1.00  0.00     0.017 A 
ATOM     25  C   UNL A   1      32.501  19.531  23.369  1.00  0.00     0.017 A 
ATOM     26  C   UNL A   1      32.887  18.234  25.814  1.00  0.00     0.086 A 
ATOM     27  C   UNL A   1      32.704  18.152  23.388  1.00  0.00     0.086 A 
ATOM     28  C   UNL A   1      32.893  17.505  24.614  1.00  0.00     0.269 A 
BRANCH  28  29
ATOM     29  N   UNL A   1      33.098  16.050  24.634  1.00  0.00     0.062 N 
ATOM     30  O   UNL A   1      34.016  15.587  23.940  1.00  0.00    -0.258 OA
ATOM     31  O   UNL A   1      32.355  15.373  25.357  1.00  0.00    -0.258 OA
ENDBRANCH  28  29
ENDBRANCH  11  23
ENDBRANCH   7   8
ENDBRANCH   5   7
ENDBRANCH   2   3
ENDBRANCH   1   2
BRANCH   1  32
ATOM     32  C   UNL A   1      37.375  20.362  25.005  1.00  0.00     0.023 C 
BRANCH  32  33
ATOM     33  C   UNL A   1      38.692  21.066  25.321  1.00  0.00     0.116 C 
BRANCH  33  34
ATOM     34  N   UNL A   1      39.620  20.223  26.063  1.00  0.00    -0.352 N 
ATOM     35  C   UNL A   1      40.687  20.581  26.853  1.00  0.00     0.251 C 
ATOM     36  H   UNL A   1      39.459  19.254  25.988  1.00  0.00     0.163 HD
ATOM     37  O   UNL A   1      41.446  19.712  27.280  1.00  0.00    -0.269 OA
BRANCH  35  38
ATOM     38  C   UNL A   1      40.944  22.005  27.171  1.00  0.00     0.039 A 
ATOM     39  C   UNL A   1      41.598  22.325  28.364  1.00  0.00     0.014 A 
ATOM     40  C   UNL A   1      40.545  23.024  26.303  1.00  0.00     0.014 A 
ATOM     41  C   UNL A   1      41.915  23.656  28.651  1.00  0.00     0.010 A 
ATOM     42  C   UNL A   1      40.929  24.342  26.552  1.00  0.00     0.010 A 
ATOM     43  C   UNL A   1      41.617  24.673  27.729  1.00  0.00    -0.014 A 
BRANCH  43  44
ATOM     44  C   UNL A   1      42.040  26.081  27.967  1.00  0.00     0.031 A 
ATOM     45  C   UNL A   1      43.428  26.537  27.598  1.00  0.00     0.074 A 
ATOM     46  C   UNL A   1      41.202  26.932  28.594  1.00  0.00     0.049 A 
ATOM     47  N   UNL A   1      43.987  27.706  27.777  1.00  0.00    -0.248 NA
ATOM     48  C   UNL A   1      44.313  25.542  26.970  1.00  0.00     0.031 C 
ATOM     49  C   UNL A   1      39.857  26.598  29.070  1.00  0.00     0.029 A 
ATOM     50  N   UNL A   1      41.367  28.244  28.966  1.00  0.00    -0.354 N 
ATOM     51  C   UNL A   1      45.294  27.579  27.323  1.00  0.00     0.074 A 
ATOM     52  C   UNL A   1      45.455  26.209  26.885  1.00  0.00     0.031 C 
ATOM     53  C   UNL A   1      39.318  27.676  29.661  1.00  0.00     0.029 A 
ATOM     54  C   UNL A   1      40.288  28.766  29.643  1.00  0.00     0.049 A 
ATOM     55  H   UNL A   1      42.180  28.762  28.767  1.00  0.00     0.167 HD
ATOM     56  C   UNL A   1      46.267  28.519  27.253  1.00  0.00     0.034 A 
ATOM     57  C   UNL A   1      40.102  29.981  30.197  1.00  0.00     0.034 A 
ATOM     58  C   UNL A   1      46.095  29.889  27.657  1.00  0.00     0.049 A 
ATOM     59  C   UNL A   1      41.192  31.014  30.084  1.00  0.00     0.074 A 
ATOM     60  C   UNL A   1      46.990  30.938  27.537  1.00  0.00     0.029 A 
ATOM     61  N   UNL A   1      44.963  30.399  28.273  1.00  0.00    -0.354 N 
ATOM     62  N   UNL A   1      42.361  30.920  29.501  1.00  0.00    -0.248 NA
ATOM     63  C   UNL A   1      40.920  32.333  30.674  1.00  0.00     0.031 C 
ATOM     64  C   UNL A   1      46.414  32.073  28.116  1.00  0.00     0.029 A 
ATOM     65  C   UNL A   1      45.143  31.742  28.557  1.00  0.00     0.049 A 
ATOM     66  H   UNL A   1      44.151  29.882  28.479  1.00  0.00     0.167 HD
ATOM     67  C   UNL A   1      42.949  32.175  29.620  1.00  0.00     0.074 A 
ATOM     68  C   UNL A   1      41.996  33.018  30.312  1.00  0.00     0.031 C 
ATOM     69  C   UNL A   1      44.170  32.588  29.201  1.00  0.00     0.034 A 
BRANCH  56  70
ATOM     70  C   UNL A   1      47.602  28.110  26.685  1.00  0.00     0.023 A 
ATOM     71  C   UNL A   1      48.674  27.819  27.554  1.00  0.00     0.012 A 
ATOM     72  C   UNL A   1      47.779  27.949  25.296  1.00  0.00     0.148 A 
ATOM     73  C   UNL A   1      49.909  27.412  27.050  1.00  0.00     0.002 A 
ATOM     74  C   UNL A   1      48.998  27.498  24.804  1.00  0.00     0.091 A 
ATOM     75  F   UNL A   1      46.755  28.247  24.483  1.00  0.00    -0.205 F 
ATOM     76  C   UNL A   1      50.067  27.242  25.678  1.00  0.00     0.022 A 
BRANCH  74  77
ATOM     77  S   UNL A   1      49.278  27.165  23.061  1.00  0.00     0.127 S 
ATOM     78  O   UNL A   1      48.472  25.962  22.858  1.00  0.00    -0.237 OA
ATOM     79  O   UNL A   1      48.742  28.370  22.428  1.00  0.00    -0.237 OA
ATOM     80  O   UNL A   1      50.715  26.986  22.910  1.00  0.00    -0.744 OA
ENDBRANCH  74  77
ENDBRANCH  56  70
BRANCH  57  81
ATOM     81  C   UNL A   1      38.808  30.312  30.860  1.00  0.00     0.023 A 
ATOM     82  C   UNL A   1      38.587  29.899  32.190  1.00  0.00     0.012 A 
ATOM     83  C   UNL A   1      37.804  31.040  30.192  1.00  0.00     0.148 A 
ATOM     84  C   UNL A   1      37.378  30.173  32.829  1.00  0.00     0.002 A 
ATOM     85  C   UNL A   1      36.624  31.358  30.854  1.00  0.00     0.091 A 
ATOM     86  F   UNL A   1      38.030  31.415  28.926  1.00  0.00    -0.205 F 
ATOM     87  C   UNL A   1      36.401  30.909  32.165  1.00  0.00     0.022 A 
BRANCH  85  88
ATOM     88  S   UNL A   1      35.361  32.409  30.127  1.00  0.00     0.127 S 
ATOM     89  O   UNL A   1      36.124  33.613  29.806  1.00  0.00    -0.237 OA
ATOM     90  O   UNL A   1      34.943  31.617  28.970  1.00  0.00    -0.237 OA
ATOM     91  O   UNL A   1      34.339  32.565  31.152  1.00  0.00    -0.744 OA
ENDBRANCH  85  88
ENDBRANCH  57  81
BRANCH  69  92
ATOM     92  C   UNL A   1      44.541  34.031  29.432  1.00  0.00     0.023 A 
ATOM     93  C   UNL A   1      45.095  34.431  30.663  1.00  0.00     0.012 A 
ATOM     94  C   UNL A   1      44.404  34.978  28.397  1.00  0.00     0.148 A 
ATOM     95  C   UNL A   1      45.473  35.758  30.874  1.00  0.00     0.002 A 
ATOM     96  C   UNL A   1      44.833  36.284  28.594  1.00  0.00     0.091 A 
ATOM     97  F   UNL A   1      43.860  34.583  27.236  1.00  0.00    -0.205 F 
ATOM     98  C   UNL A   1      45.354  36.679  29.837  1.00  0.00     0.022 A 
BRANCH  96  99
ATOM     99  S   UNL A   1      44.813  37.516  27.286  1.00  0.00     0.127 S 
ATOM    100  O   UNL A   1      43.396  37.544  26.925  1.00  0.00    -0.237 OA
ATOM    101  O   UNL A   1      45.291  38.711  27.980  1.00  0.00    -0.237 OA
ATOM    102  O   UNL A   1      45.710  37.019  26.251  1.00  0.00    -0.744 OA
ENDBRANCH  96  99
ENDBRANCH  69  92
ENDBRANCH  43  44
ENDBRANCH  35  38
ENDBRANCH  33  34
ENDBRANCH  32  33
ENDBRANCH   1  32
TORSDOF 19
ENDMDL
