MODEL 1
REMARK VINA RESULT:     -10.3      0.000      0.000
REMARK SMILES O=C(COc1ccccc1/C=C1/SC(=S)N(c2ccc(F)c(Cl)c2)C1=O)NCCCCNC(=O)c1ccc(-c2c3nc(c(-c4cccc(S(=O)(=O)[O-])c4F)c4ccc([nH]4)c(-c4cccc(S(=O)(=O)[O-])c4F)c4nc(c(-c5cccc(S(=O)(=O)[O-])c5F)c5ccc2[nH]5)C=C4)C=C3)cc1
REMARK SMILES IDX 29 1 28 2 27 3 1 4 2 5 3 7 4 8 5 9 6 10 10 11 7 12 9 13 8 14
REMARK SMILES IDX 11 15 12 16 13 17 25 18 14 19 16 20 26 21 15 22 17 23 18 24
REMARK SMILES IDX 24 25 19 26 22 27 20 28 23 29 21 30 30 31 31 32 32 33 33 34
REMARK SMILES IDX 34 36 35 37 36 38 97 39 37 40 96 41 38 42 39 43 40 44 90 45
REMARK SMILES IDX 41 46 95 47 89 48 91 49 42 50 94 51 88 52 87 53 43 55 75 56
REMARK SMILES IDX 55 57 74 58 56 59 59 60 73 61 92 62 57 63 58 64 72 66 93 67
REMARK SMILES IDX 60 68 44 69 45 70 53 71 46 72 48 73 54 74 47 75 49 76 50 77
REMARK SMILES IDX 51 78 52 79 76 80 77 81 85 82 78 83 80 84 86 85 79 86 81 87
REMARK SMILES IDX 82 88 83 89 84 90 61 91 62 92 70 93 63 94 65 95 71 96 64 97
REMARK SMILES IDX 66 98 67 99 68 100 69 101
REMARK H PARENT 27 6 32 35 91 54 59 65
REMARK Flexibility Score: inf
ROOT
ATOM      1  C   UNL A   1      49.566  33.422  28.447  1.00  0.00     0.023 C 
ENDROOT
BRANCH   1   2
ATOM      2  C   UNL A   1      50.330  32.071  29.132  1.00  0.00     0.116 C 
BRANCH   2   3
ATOM      3  N   UNL A   1      49.747  30.047  29.267  1.00  0.00    -0.353 N 
ATOM      4  O   UNL A   1      50.199  28.352  30.989  1.00  0.00    -0.271 OA
ATOM      5  C   UNL A   1      49.568  28.792  30.035  1.00  0.00     0.257 C 
ATOM      6  H   UNL A   1      49.438  29.823  28.360  1.00  0.00     0.163 HD
BRANCH   5   7
ATOM      7  C   UNL A   1      48.354  28.000  29.530  1.00  0.00     0.329 C 
BRANCH   7   8
ATOM      8  O   UNL A   1      47.510  27.534  30.568  1.00  0.00    -0.483 OA
BRANCH   8   9
ATOM      9  C   UNL A   1      46.724  26.437  30.293  1.00  0.00     0.127 A 
ATOM     10  C   UNL A   1      47.284  25.601  29.320  1.00  0.00     0.047 A 
ATOM     11  C   UNL A   1      45.384  26.237  30.715  1.00  0.00     0.018 A 
ATOM     12  C   UNL A   1      46.538  24.574  28.753  1.00  0.00     0.004 A 
ATOM     13  C   UNL A   1      44.649  25.195  30.127  1.00  0.00     0.012 A 
ATOM     14  C   UNL A   1      45.218  24.378  29.146  1.00  0.00     0.001 A 
BRANCH  11  15
ATOM     15  C   UNL A   1      44.657  27.067  31.691  1.00  0.00     0.033 C 
ATOM     16  C   UNL A   1      44.689  26.759  33.000  1.00  0.00     0.081 C 
ATOM     17  S   UNL A   1      42.773  27.172  34.177  1.00  0.00    -0.054 SA
ATOM     18  C   UNL A   1      45.571  25.122  33.649  1.00  0.00     0.270 C 
ATOM     19  C   UNL A   1      42.917  25.119  35.304  1.00  0.00     0.152 C 
ATOM     20  N   UNL A   1      44.515  24.332  34.917  1.00  0.00    -0.261 N 
ATOM     21  O   UNL A   1      46.691  24.781  33.300  1.00  0.00    -0.268 OA
ATOM     22  S   UNL A   1      41.529  24.579  36.097  1.00  0.00    -0.051 S 
BRANCH  20  23
ATOM     23  C   UNL A   1      44.970  23.072  35.465  1.00  0.00     0.052 A 
ATOM     24  C   UNL A   1      44.925  21.906  34.677  1.00  0.00     0.030 A 
ATOM     25  C   UNL A   1      45.472  22.940  36.762  1.00  0.00     0.050 A 
ATOM     26  C   UNL A   1      45.352  20.663  35.158  1.00  0.00     0.043 A 
ATOM     27  C   UNL A   1      45.902  21.693  37.250  1.00  0.00     0.078 A 
ATOM     28  C   UNL A   1      45.840  20.562  36.448  1.00  0.00     0.141 A 
ATOM     29  Cl  UNL A   1      46.494  21.586  38.859  1.00  0.00    -0.081 Cl
ATOM     30  F   UNL A   1      46.237  19.364  36.894  1.00  0.00    -0.205 F 
ENDBRANCH  20  23
ENDBRANCH  11  15
ENDBRANCH   8   9
ENDBRANCH   7   8
ENDBRANCH   5   7
ENDBRANCH   2   3
ENDBRANCH   1   2
BRANCH   1  31
ATOM     31  C   UNL A   1      49.982  34.814  28.943  1.00  0.00     0.023 C 
BRANCH  31  32
ATOM     32  C   UNL A   1      49.063  35.959  28.544  1.00  0.00     0.116 C 
BRANCH  32  33
ATOM     33  N   UNL A   1      48.437  36.602  29.684  1.00  0.00    -0.352 N 
ATOM     34  C   UNL A   1      47.275  36.205  30.310  1.00  0.00     0.251 C 
ATOM     35  H   UNL A   1      48.886  37.399  30.047  1.00  0.00     0.163 HD
ATOM     36  O   UNL A   1      46.744  36.906  31.162  1.00  0.00    -0.269 OA
BRANCH  34  37
ATOM     37  C   UNL A   1      46.674  34.919  29.898  1.00  0.00     0.039 A 
ATOM     38  C   UNL A   1      46.794  33.810  30.737  1.00  0.00     0.014 A 
ATOM     39  C   UNL A   1      45.905  34.856  28.732  1.00  0.00     0.014 A 
ATOM     40  C   UNL A   1      46.111  32.636  30.414  1.00  0.00     0.010 A 
ATOM     41  C   UNL A   1      45.158  33.716  28.465  1.00  0.00     0.010 A 
ATOM     42  C   UNL A   1      45.276  32.583  29.285  1.00  0.00    -0.014 A 
BRANCH  42  43
ATOM     43  C   UNL A   1      44.566  31.333  28.912  1.00  0.00     0.031 A 
ATOM     44  C   UNL A   1      45.258  30.317  28.041  1.00  0.00     0.074 A 
ATOM     45  C   UNL A   1      43.290  31.134  29.300  1.00  0.00     0.049 A 
ATOM     46  N   UNL A   1      44.809  29.177  27.584  1.00  0.00    -0.248 NA
ATOM     47  C   UNL A   1      46.625  30.641  27.594  1.00  0.00     0.031 C 
ATOM     48  C   UNL A   1      42.481  32.080  30.072  1.00  0.00     0.029 A 
ATOM     49  N   UNL A   1      42.445  30.075  29.085  1.00  0.00    -0.354 N 
ATOM     50  C   UNL A   1      45.814  28.675  26.766  1.00  0.00     0.074 A 
ATOM     51  C   UNL A   1      46.877  29.654  26.749  1.00  0.00     0.031 C 
ATOM     52  C   UNL A   1      41.263  31.552  30.279  1.00  0.00     0.029 A 
ATOM     53  C   UNL A   1      41.196  30.242  29.639  1.00  0.00     0.049 A 
ATOM     54  H   UNL A   1      42.707  29.271  28.581  1.00  0.00     0.167 HD
ATOM     55  C   UNL A   1      45.869  27.489  26.116  1.00  0.00     0.034 A 
ATOM     56  C   UNL A   1      40.123  29.426  29.634  1.00  0.00     0.034 A 
ATOM     57  C   UNL A   1      44.840  26.491  26.191  1.00  0.00     0.049 A 
ATOM     58  C   UNL A   1      40.233  28.082  28.962  1.00  0.00     0.074 A 
ATOM     59  C   UNL A   1      44.839  25.214  25.659  1.00  0.00     0.029 A 
ATOM     60  N   UNL A   1      43.625  26.657  26.840  1.00  0.00    -0.354 N 
ATOM     61  N   UNL A   1      41.257  27.554  28.333  1.00  0.00    -0.248 NA
ATOM     62  C   UNL A   1      39.055  27.204  29.031  1.00  0.00     0.031 C 
ATOM     63  C   UNL A   1      43.612  24.616  25.968  1.00  0.00     0.029 A 
ATOM     64  C   UNL A   1      42.862  25.510  26.715  1.00  0.00     0.049 A 
ATOM     65  H   UNL A   1      43.347  27.472  27.317  1.00  0.00     0.167 HD
ATOM     66  C   UNL A   1      40.859  26.273  27.964  1.00  0.00     0.074 A 
ATOM     67  C   UNL A   1      39.510  26.096  28.459  1.00  0.00     0.031 C 
ATOM     68  C   UNL A   1      41.542  25.333  27.264  1.00  0.00     0.034 A 
BRANCH  55  69
ATOM     69  C   UNL A   1      47.110  27.186  25.317  1.00  0.00     0.023 A 
ATOM     70  C   UNL A   1      48.140  26.414  25.893  1.00  0.00     0.012 A 
ATOM     71  C   UNL A   1      47.242  27.629  23.987  1.00  0.00     0.148 A 
ATOM     72  C   UNL A   1      49.301  26.125  25.176  1.00  0.00     0.002 A 
ATOM     73  C   UNL A   1      48.380  27.296  23.261  1.00  0.00     0.091 A 
ATOM     74  F   UNL A   1      46.264  28.381  23.462  1.00  0.00    -0.205 F 
ATOM     75  C   UNL A   1      49.415  26.556  23.858  1.00  0.00     0.022 A 
BRANCH  73  76
ATOM     76  S   UNL A   1      48.590  27.735  21.532  1.00  0.00     0.127 S 
ATOM     77  O   UNL A   1      49.363  28.971  21.633  1.00  0.00    -0.237 OA
ATOM     78  O   UNL A   1      49.337  26.588  21.013  1.00  0.00    -0.237 OA
ATOM     79  O   UNL A   1      47.247  27.879  20.988  1.00  0.00    -0.744 OA
ENDBRANCH  73  76
ENDBRANCH  55  69
BRANCH  56  80
ATOM     80  C   UNL A   1      38.881  29.818  30.362  1.00  0.00     0.023 A 
ATOM     81  C   UNL A   1      38.629  29.273  31.637  1.00  0.00     0.012 A 
ATOM     82  C   UNL A   1      37.966  30.740  29.818  1.00  0.00     0.148 A 
ATOM     83  C   UNL A   1      37.474  29.612  32.342  1.00  0.00     0.002 A 
ATOM     84  C   UNL A   1      36.843  31.113  30.549  1.00  0.00     0.091 A 
ATOM     85  F   UNL A   1      38.218  31.239  28.601  1.00  0.00    -0.205 F 
ATOM     86  C   UNL A   1      36.586  30.538  31.803  1.00  0.00     0.022 A 
BRANCH  84  87
ATOM     87  S   UNL A   1      35.706  32.388  29.993  1.00  0.00     0.127 S 
ATOM     88  O   UNL A   1      36.530  33.590  30.095  1.00  0.00    -0.237 OA
ATOM     89  O   UNL A   1      35.415  31.955  28.625  1.00  0.00    -0.237 OA
ATOM     90  O   UNL A   1      34.568  32.325  30.900  1.00  0.00    -0.744 OA
ENDBRANCH  84  87
ENDBRANCH  56  80
BRANCH  68  91
ATOM     91  C   UNL A   1      40.864  24.011  27.019  1.00  0.00     0.023 A 
ATOM     92  C   UNL A   1      41.431  22.826  27.526  1.00  0.00     0.012 A 
ATOM     93  C   UNL A   1      39.618  23.958  26.361  1.00  0.00     0.148 A 
ATOM     94  C   UNL A   1      40.785  21.603  27.354  1.00  0.00     0.002 A 
ATOM     95  C   UNL A   1      38.956  22.742  26.239  1.00  0.00     0.091 A 
ATOM     96  F   UNL A   1      39.104  25.094  25.871  1.00  0.00    -0.205 F 
ATOM     97  C   UNL A   1      39.543  21.563  26.724  1.00  0.00     0.022 A 
BRANCH  95  98
ATOM     98  S   UNL A   1      37.309  22.611  25.534  1.00  0.00     0.127 S 
ATOM     99  O   UNL A   1      36.628  23.747  26.151  1.00  0.00    -0.237 OA
ATOM    100  O   UNL A   1      37.572  22.760  24.102  1.00  0.00    -0.237 OA
ATOM    101  O   UNL A   1      36.811  21.298  25.922  1.00  0.00    -0.744 OA
ENDBRANCH  95  98
ENDBRANCH  68  91
ENDBRANCH  42  43
ENDBRANCH  34  37
ENDBRANCH  32  33
ENDBRANCH  31  32
ENDBRANCH   1  31
TORSDOF 18
ENDMDL
MODEL 2
REMARK VINA RESULT:     -10.3      4.821     10.301
REMARK SMILES O=C(COc1ccccc1/C=C1/SC(=S)N(c2ccc(F)c(Cl)c2)C1=O)NCCCCNC(=O)c1ccc(-c2c3nc(c(-c4cccc(S(=O)(=O)[O-])c4F)c4ccc([nH]4)c(-c4cccc(S(=O)(=O)[O-])c4F)c4nc(c(-c5cccc(S(=O)(=O)[O-])c5F)c5ccc2[nH]5)C=C4)C=C3)cc1
REMARK SMILES IDX 29 1 28 2 27 3 1 4 2 5 3 7 4 8 5 9 6 10 10 11 7 12 9 13 8 14
REMARK SMILES IDX 11 15 12 16 13 17 25 18 14 19 16 20 26 21 15 22 17 23 18 24
REMARK SMILES IDX 24 25 19 26 22 27 20 28 23 29 21 30 30 31 31 32 32 33 33 34
REMARK SMILES IDX 34 36 35 37 36 38 97 39 37 40 96 41 38 42 39 43 40 44 90 45
REMARK SMILES IDX 41 46 95 47 89 48 91 49 42 50 94 51 88 52 87 53 43 55 75 56
REMARK SMILES IDX 55 57 74 58 56 59 59 60 73 61 92 62 57 63 58 64 72 66 93 67
REMARK SMILES IDX 60 68 44 69 45 70 53 71 46 72 48 73 54 74 47 75 49 76 50 77
REMARK SMILES IDX 51 78 52 79 76 80 77 81 85 82 78 83 80 84 86 85 79 86 81 87
REMARK SMILES IDX 82 88 83 89 84 90 61 91 62 92 70 93 63 94 65 95 71 96 64 97
REMARK SMILES IDX 66 98 67 99 68 100 69 101
REMARK H PARENT 27 6 32 35 91 54 59 65
REMARK Flexibility Score: inf
ROOT
ATOM      1  C   UNL A   1      47.471  28.443  39.404  1.00  0.00     0.023 C 
ENDROOT
BRANCH   1   2
ATOM      2  C   UNL A   1      46.315  27.220  39.615  1.00  0.00     0.116 C 
BRANCH   2   3
ATOM      3  N   UNL A   1      46.406  25.134  39.311  1.00  0.00    -0.353 N 
ATOM      4  O   UNL A   1      45.162  23.295  40.367  1.00  0.00    -0.271 OA
ATOM      5  C   UNL A   1      45.851  23.769  39.470  1.00  0.00     0.257 C 
ATOM      6  H   UNL A   1      47.241  24.999  38.808  1.00  0.00     0.163 HD
BRANCH   5   7
ATOM      7  C   UNL A   1      46.191  22.885  38.263  1.00  0.00     0.329 C 
BRANCH   7   8
ATOM      8  O   UNL A   1      46.550  23.620  37.106  1.00  0.00    -0.483 OA
BRANCH   8   9
ATOM      9  C   UNL A   1      45.793  23.416  35.973  1.00  0.00     0.127 A 
ATOM     10  C   UNL A   1      44.481  23.886  36.109  1.00  0.00     0.047 A 
ATOM     11  C   UNL A   1      46.148  22.613  34.859  1.00  0.00     0.018 A 
ATOM     12  C   UNL A   1      43.514  23.569  35.161  1.00  0.00     0.004 A 
ATOM     13  C   UNL A   1      45.155  22.304  33.917  1.00  0.00     0.012 A 
ATOM     14  C   UNL A   1      43.846  22.769  34.073  1.00  0.00     0.001 A 
BRANCH  11  15
ATOM     15  C   UNL A   1      47.473  22.014  34.618  1.00  0.00     0.033 C 
ATOM     16  C   UNL A   1      47.800  20.841  35.190  1.00  0.00     0.081 C 
ATOM     17  S   UNL A   1      49.986  20.605  35.819  1.00  0.00    -0.054 SA
ATOM     18  C   UNL A   1      46.602  19.955  36.478  1.00  0.00     0.270 C 
ATOM     19  C   UNL A   1      49.385  19.636  37.869  1.00  0.00     0.152 C 
ATOM     20  N   UNL A   1      47.589  19.322  37.881  1.00  0.00    -0.261 N 
ATOM     21  O   UNL A   1      45.408  19.793  36.279  1.00  0.00    -0.268 OA
ATOM     22  S   UNL A   1      50.575  19.562  39.062  1.00  0.00    -0.051 S 
BRANCH  20  23
ATOM     23  C   UNL A   1      46.868  18.694  38.968  1.00  0.00     0.052 A 
ATOM     24  C   UNL A   1      47.297  18.880  40.296  1.00  0.00     0.030 A 
ATOM     25  C   UNL A   1      45.735  17.900  38.774  1.00  0.00     0.050 A 
ATOM     26  C   UNL A   1      46.636  18.297  41.383  1.00  0.00     0.043 A 
ATOM     27  C   UNL A   1      45.067  17.311  39.863  1.00  0.00     0.078 A 
ATOM     28  C   UNL A   1      45.520  17.512  41.160  1.00  0.00     0.141 A 
ATOM     29  Cl  UNL A   1      43.689  16.329  39.565  1.00  0.00    -0.081 Cl
ATOM     30  F   UNL A   1      44.904  16.955  42.211  1.00  0.00    -0.205 F 
ENDBRANCH  20  23
ENDBRANCH  11  15
ENDBRANCH   8   9
ENDBRANCH   7   8
ENDBRANCH   5   7
ENDBRANCH   2   3
ENDBRANCH   1   2
BRANCH   1  31
ATOM     31  C   UNL A   1      46.998  29.794  38.850  1.00  0.00     0.023 C 
BRANCH  31  32
ATOM     32  C   UNL A   1      47.521  30.162  37.470  1.00  0.00     0.116 C 
BRANCH  32  33
ATOM     33  N   UNL A   1      48.494  29.210  36.965  1.00  0.00    -0.352 N 
ATOM     34  C   UNL A   1      48.309  28.326  35.925  1.00  0.00     0.251 C 
ATOM     35  H   UNL A   1      49.372  29.195  37.409  1.00  0.00     0.163 HD
ATOM     36  O   UNL A   1      49.134  27.455  35.680  1.00  0.00    -0.269 OA
BRANCH  34  37
ATOM     37  C   UNL A   1      47.068  28.445  35.131  1.00  0.00     0.039 A 
ATOM     38  C   UNL A   1      45.995  27.596  35.409  1.00  0.00     0.014 A 
ATOM     39  C   UNL A   1      46.944  29.472  34.190  1.00  0.00     0.014 A 
ATOM     40  C   UNL A   1      44.780  27.798  34.754  1.00  0.00     0.010 A 
ATOM     41  C   UNL A   1      45.707  29.724  33.609  1.00  0.00     0.010 A 
ATOM     42  C   UNL A   1      44.620  28.872  33.861  1.00  0.00    -0.014 A 
BRANCH  42  43
ATOM     43  C   UNL A   1      43.342  29.084  33.134  1.00  0.00     0.031 A 
ATOM     44  C   UNL A   1      42.235  29.867  33.791  1.00  0.00     0.074 A 
ATOM     45  C   UNL A   1      43.150  28.529  31.920  1.00  0.00     0.049 A 
ATOM     46  N   UNL A   1      41.039  30.145  33.340  1.00  0.00    -0.248 NA
ATOM     47  C   UNL A   1      42.492  30.376  35.150  1.00  0.00     0.031 C 
ATOM     48  C   UNL A   1      44.111  27.677  31.216  1.00  0.00     0.029 A 
ATOM     49  N   UNL A   1      42.075  28.588  31.070  1.00  0.00    -0.354 N 
ATOM     50  C   UNL A   1      40.393  30.816  34.372  1.00  0.00     0.074 A 
ATOM     51  C   UNL A   1      41.308  30.863  35.488  1.00  0.00     0.031 C 
ATOM     52  C   UNL A   1      43.588  27.308  30.035  1.00  0.00     0.029 A 
ATOM     53  C   UNL A   1      42.250  27.876  29.906  1.00  0.00     0.049 A 
ATOM     54  H   UNL A   1      41.254  29.092  31.275  1.00  0.00     0.167 HD
ATOM     55  C   UNL A   1      39.162  31.379  34.380  1.00  0.00     0.034 A 
ATOM     56  C   UNL A   1      41.424  27.707  28.853  1.00  0.00     0.034 A 
ATOM     57  C   UNL A   1      38.282  31.389  33.245  1.00  0.00     0.049 A 
ATOM     58  C   UNL A   1      40.087  28.401  28.858  1.00  0.00     0.074 A 
ATOM     59  C   UNL A   1      37.059  32.020  33.110  1.00  0.00     0.029 A 
ATOM     60  N   UNL A   1      38.532  30.735  32.048  1.00  0.00    -0.354 N 
ATOM     61  N   UNL A   1      39.561  29.174  29.778  1.00  0.00    -0.248 NA
ATOM     62  C   UNL A   1      39.246  28.232  27.664  1.00  0.00     0.031 C 
ATOM     63  C   UNL A   1      36.558  31.728  31.836  1.00  0.00     0.029 A 
ATOM     64  C   UNL A   1      37.483  30.940  31.170  1.00  0.00     0.049 A 
ATOM     65  H   UNL A   1      39.337  30.204  31.852  1.00  0.00     0.167 HD
ATOM     66  C   UNL A   1      38.346  29.611  29.261  1.00  0.00     0.074 A 
ATOM     67  C   UNL A   1      38.225  29.035  27.938  1.00  0.00     0.031 C 
ATOM     68  C   UNL A   1      37.406  30.404  29.835  1.00  0.00     0.034 A 
BRANCH  55  69
ATOM     69  C   UNL A   1      38.722  32.082  35.638  1.00  0.00     0.023 A 
ATOM     70  C   UNL A   1      38.899  33.476  35.757  1.00  0.00     0.012 A 
ATOM     71  C   UNL A   1      38.101  31.374  36.685  1.00  0.00     0.148 A 
ATOM     72  C   UNL A   1      38.506  34.148  36.914  1.00  0.00     0.002 A 
ATOM     73  C   UNL A   1      37.667  32.058  37.815  1.00  0.00     0.091 A 
ATOM     74  F   UNL A   1      37.961  30.045  36.565  1.00  0.00    -0.205 F 
ATOM     75  C   UNL A   1      37.881  33.441  37.936  1.00  0.00     0.022 A 
BRANCH  73  76
ATOM     76  S   UNL A   1      36.779  31.253  39.153  1.00  0.00     0.127 S 
ATOM     77  O   UNL A   1      37.718  31.407  40.263  1.00  0.00    -0.237 OA
ATOM     78  O   UNL A   1      35.571  32.073  39.257  1.00  0.00    -0.237 OA
ATOM     79  O   UNL A   1      36.547  29.884  38.715  1.00  0.00    -0.744 OA
ENDBRANCH  73  76
ENDBRANCH  55  69
BRANCH  56  80
ATOM     80  C   UNL A   1      41.874  26.918  27.669  1.00  0.00     0.023 A 
ATOM     81  C   UNL A   1      42.507  27.582  26.600  1.00  0.00     0.012 A 
ATOM     82  C   UNL A   1      41.703  25.522  27.605  1.00  0.00     0.148 A 
ATOM     83  C   UNL A   1      42.932  26.877  25.474  1.00  0.00     0.002 A 
ATOM     84  C   UNL A   1      42.177  24.818  26.502  1.00  0.00     0.091 A 
ATOM     85  F   UNL A   1      41.091  24.910  28.626  1.00  0.00    -0.205 F 
ATOM     86  C   UNL A   1      42.776  25.495  25.428  1.00  0.00     0.022 A 
BRANCH  84  87
ATOM     87  S   UNL A   1      42.132  23.024  26.406  1.00  0.00     0.127 S 
ATOM     88  O   UNL A   1      40.733  22.743  26.716  1.00  0.00    -0.237 OA
ATOM     89  O   UNL A   1      42.514  22.789  25.012  1.00  0.00    -0.237 OA
ATOM     90  O   UNL A   1      43.102  22.552  27.385  1.00  0.00    -0.744 OA
ENDBRANCH  84  87
ENDBRANCH  56  80
BRANCH  68  91
ATOM     91  C   UNL A   1      36.178  30.732  29.028  1.00  0.00     0.023 A 
ATOM     92  C   UNL A   1      35.402  29.693  28.478  1.00  0.00     0.012 A 
ATOM     93  C   UNL A   1      35.747  32.067  28.891  1.00  0.00     0.148 A 
ATOM     94  C   UNL A   1      34.231  29.979  27.777  1.00  0.00     0.002 A 
ATOM     95  C   UNL A   1      34.553  32.340  28.235  1.00  0.00     0.091 A 
ATOM     96  F   UNL A   1      36.508  33.041  29.407  1.00  0.00    -0.205 F 
ATOM     97  C   UNL A   1      33.800  31.300  27.668  1.00  0.00     0.022 A 
BRANCH  95  98
ATOM     98  S   UNL A   1      33.869  33.998  28.134  1.00  0.00     0.127 S 
ATOM     99  O   UNL A   1      34.797  34.648  27.211  1.00  0.00    -0.237 OA
ATOM    100  O   UNL A   1      32.535  33.751  27.585  1.00  0.00    -0.237 OA
ATOM    101  O   UNL A   1      33.875  34.518  29.495  1.00  0.00    -0.744 OA
ENDBRANCH  95  98
ENDBRANCH  68  91
ENDBRANCH  42  43
ENDBRANCH  34  37
ENDBRANCH  32  33
ENDBRANCH  31  32
ENDBRANCH   1  31
TORSDOF 18
ENDMDL
MODEL 3
REMARK VINA RESULT:     -10.2      4.235     10.815
REMARK SMILES O=C(COc1ccccc1/C=C1/SC(=S)N(c2ccc(F)c(Cl)c2)C1=O)NCCCCNC(=O)c1ccc(-c2c3nc(c(-c4cccc(S(=O)(=O)[O-])c4F)c4ccc([nH]4)c(-c4cccc(S(=O)(=O)[O-])c4F)c4nc(c(-c5cccc(S(=O)(=O)[O-])c5F)c5ccc2[nH]5)C=C4)C=C3)cc1
REMARK SMILES IDX 29 1 28 2 27 3 1 4 2 5 3 7 4 8 5 9 6 10 10 11 7 12 9 13 8 14
REMARK SMILES IDX 11 15 12 16 13 17 25 18 14 19 16 20 26 21 15 22 17 23 18 24
REMARK SMILES IDX 24 25 19 26 22 27 20 28 23 29 21 30 30 31 31 32 32 33 33 34
REMARK SMILES IDX 34 36 35 37 36 38 97 39 37 40 96 41 38 42 39 43 40 44 90 45
REMARK SMILES IDX 41 46 95 47 89 48 91 49 42 50 94 51 88 52 87 53 43 55 75 56
REMARK SMILES IDX 55 57 74 58 56 59 59 60 73 61 92 62 57 63 58 64 72 66 93 67
REMARK SMILES IDX 60 68 44 69 45 70 53 71 46 72 48 73 54 74 47 75 49 76 50 77
REMARK SMILES IDX 51 78 52 79 76 80 77 81 85 82 78 83 80 84 86 85 79 86 81 87
REMARK SMILES IDX 82 88 83 89 84 90 61 91 62 92 70 93 63 94 65 95 71 96 64 97
REMARK SMILES IDX 66 98 67 99 68 100 69 101
REMARK H PARENT 27 6 32 35 91 54 59 65
REMARK Flexibility Score: inf
ROOT
ATOM      1  C   UNL A   1      37.739  33.203  28.773  1.00  0.00     0.023 C 
ENDROOT
BRANCH   1   2
ATOM      2  C   UNL A   1      38.811  34.137  29.699  1.00  0.00     0.116 C 
BRANCH   2   3
ATOM      3  N   UNL A   1      40.918  34.253  29.716  1.00  0.00    -0.353 N 
ATOM      4  O   UNL A   1      42.481  34.911  31.495  1.00  0.00    -0.271 OA
ATOM      5  C   UNL A   1      42.210  34.362  30.432  1.00  0.00     0.257 C 
ATOM      6  H   UNL A   1      41.170  34.215  28.765  1.00  0.00     0.163 HD
BRANCH   5   7
ATOM      7  C   UNL A   1      43.322  33.604  29.694  1.00  0.00     0.329 C 
BRANCH   7   8
ATOM      8  O   UNL A   1      43.819  32.488  30.411  1.00  0.00    -0.483 OA
BRANCH   8   9
ATOM      9  C   UNL A   1      43.931  31.300  29.723  1.00  0.00     0.127 A 
ATOM     10  C   UNL A   1      42.889  31.105  28.809  1.00  0.00     0.047 A 
ATOM     11  C   UNL A   1      44.821  30.236  30.023  1.00  0.00     0.018 A 
ATOM     12  C   UNL A   1      42.710  29.871  28.191  1.00  0.00     0.004 A 
ATOM     13  C   UNL A   1      44.620  29.000  29.389  1.00  0.00     0.012 A 
ATOM     14  C   UNL A   1      43.567  28.816  28.489  1.00  0.00     0.001 A 
BRANCH  11  15
ATOM     15  C   UNL A   1      45.927  30.289  30.996  1.00  0.00     0.033 C 
ATOM     16  C   UNL A   1      47.202  30.196  30.578  1.00  0.00     0.081 C 
ATOM     17  S   UNL A   1      48.638  29.090  31.972  1.00  0.00    -0.054 SA
ATOM     18  C   UNL A   1      47.643  29.839  28.692  1.00  0.00     0.270 C 
ATOM     19  C   UNL A   1      49.625  27.934  30.185  1.00  0.00     0.152 C 
ATOM     20  N   UNL A   1      48.993  28.607  28.613  1.00  0.00    -0.261 N 
ATOM     21  O   UNL A   1      47.134  30.442  27.760  1.00  0.00    -0.268 OA
ATOM     22  S   UNL A   1      50.560  26.583  30.566  1.00  0.00    -0.051 S 
BRANCH  20  23
ATOM     23  C   UNL A   1      49.409  28.165  27.298  1.00  0.00     0.052 A 
ATOM     24  C   UNL A   1      48.730  27.106  26.665  1.00  0.00     0.030 A 
ATOM     25  C   UNL A   1      50.467  28.748  26.597  1.00  0.00     0.050 A 
ATOM     26  C   UNL A   1      49.091  26.642  25.396  1.00  0.00     0.043 A 
ATOM     27  C   UNL A   1      50.835  28.283  25.321  1.00  0.00     0.078 A 
ATOM     28  C   UNL A   1      50.147  27.234  24.727  1.00  0.00     0.141 A 
ATOM     29  Cl  UNL A   1      52.156  29.026  24.512  1.00  0.00    -0.081 Cl
ATOM     30  F   UNL A   1      50.484  26.772  23.517  1.00  0.00    -0.205 F 
ENDBRANCH  20  23
ENDBRANCH  11  15
ENDBRANCH   8   9
ENDBRANCH   7   8
ENDBRANCH   5   7
ENDBRANCH   2   3
ENDBRANCH   1   2
BRANCH   1  31
ATOM     31  C   UNL A   1      36.277  33.662  28.682  1.00  0.00     0.023 C 
BRANCH  31  32
ATOM     32  C   UNL A   1      35.251  32.727  29.304  1.00  0.00     0.116 C 
BRANCH  32  33
ATOM     33  N   UNL A   1      34.469  32.011  28.314  1.00  0.00    -0.352 N 
ATOM     34  C   UNL A   1      34.820  30.835  27.689  1.00  0.00     0.251 C 
ATOM     35  H   UNL A   1      33.601  32.403  28.065  1.00  0.00     0.163 HD
ATOM     36  O   UNL A   1      34.165  30.395  26.752  1.00  0.00    -0.269 OA
BRANCH  34  37
ATOM     37  C   UNL A   1      36.032  30.136  28.165  1.00  0.00     0.039 A 
ATOM     38  C   UNL A   1      37.177  30.130  27.367  1.00  0.00     0.014 A 
ATOM     39  C   UNL A   1      36.052  29.584  29.451  1.00  0.00     0.014 A 
ATOM     40  C   UNL A   1      38.358  29.589  27.876  1.00  0.00     0.010 A 
ATOM     41  C   UNL A   1      37.251  29.129  29.983  1.00  0.00     0.010 A 
ATOM     42  C   UNL A   1      38.411  29.098  29.192  1.00  0.00    -0.014 A 
BRANCH  42  43
ATOM     43  C   UNL A   1      39.653  28.493  29.738  1.00  0.00     0.031 A 
ATOM     44  C   UNL A   1      40.391  29.189  30.852  1.00  0.00     0.074 A 
ATOM     45  C   UNL A   1      40.149  27.360  29.202  1.00  0.00     0.049 A 
ATOM     46  N   UNL A   1      41.500  28.843  31.451  1.00  0.00    -0.248 NA
ATOM     47  C   UNL A   1      39.827  30.463  31.334  1.00  0.00     0.031 C 
ATOM     48  C   UNL A   1      39.576  26.638  28.063  1.00  0.00     0.029 A 
ATOM     49  N   UNL A   1      41.259  26.625  29.534  1.00  0.00    -0.354 N 
ATOM     50  C   UNL A   1      41.787  29.871  32.340  1.00  0.00     0.074 A 
ATOM     51  C   UNL A   1      40.764  30.878  32.171  1.00  0.00     0.031 C 
ATOM     52  C   UNL A   1      40.329  25.556  27.804  1.00  0.00     0.029 A 
ATOM     53  C   UNL A   1      41.448  25.517  28.740  1.00  0.00     0.049 A 
ATOM     54  H   UNL A   1      41.864  26.868  30.272  1.00  0.00     0.167 HD
ATOM     55  C   UNL A   1      42.789  29.957  33.247  1.00  0.00     0.034 A 
ATOM     56  C   UNL A   1      42.413  24.576  28.770  1.00  0.00     0.034 A 
ATOM     57  C   UNL A   1      43.763  28.924  33.459  1.00  0.00     0.049 A 
ATOM     58  C   UNL A   1      43.478  24.658  29.832  1.00  0.00     0.074 A 
ATOM     59  C   UNL A   1      44.756  28.862  34.419  1.00  0.00     0.029 A 
ATOM     60  N   UNL A   1      43.868  27.771  32.696  1.00  0.00    -0.354 N 
ATOM     61  N   UNL A   1      43.635  25.555  30.777  1.00  0.00    -0.248 NA
ATOM     62  C   UNL A   1      44.475  23.578  29.860  1.00  0.00     0.031 C 
ATOM     63  C   UNL A   1      45.476  27.679  34.223  1.00  0.00     0.029 A 
ATOM     64  C   UNL A   1      44.914  26.993  33.158  1.00  0.00     0.049 A 
ATOM     65  H   UNL A   1      43.284  27.540  31.938  1.00  0.00     0.167 HD
ATOM     66  C   UNL A   1      44.725  25.131  31.530  1.00  0.00     0.074 A 
ATOM     67  C   UNL A   1      45.174  23.884  30.946  1.00  0.00     0.031 C 
ATOM     68  C   UNL A   1      45.311  25.726  32.598  1.00  0.00     0.034 A 
BRANCH  55  69
ATOM     69  C   UNL A   1      42.841  31.187  34.116  1.00  0.00     0.023 A 
ATOM     70  C   UNL A   1      43.588  32.307  33.696  1.00  0.00     0.012 A 
ATOM     71  C   UNL A   1      42.124  31.251  35.326  1.00  0.00     0.148 A 
ATOM     72  C   UNL A   1      43.657  33.455  34.485  1.00  0.00     0.002 A 
ATOM     73  C   UNL A   1      42.158  32.416  36.085  1.00  0.00     0.091 A 
ATOM     74  F   UNL A   1      41.438  30.169  35.722  1.00  0.00    -0.205 F 
ATOM     75  C   UNL A   1      42.933  33.512  35.672  1.00  0.00     0.022 A 
BRANCH  73  76
ATOM     76  S   UNL A   1      41.198  32.620  37.589  1.00  0.00     0.127 S 
ATOM     77  O   UNL A   1      41.967  31.818  38.540  1.00  0.00    -0.237 OA
ATOM     78  O   UNL A   1      41.275  34.065  37.808  1.00  0.00    -0.237 OA
ATOM     79  O   UNL A   1      39.864  32.123  37.286  1.00  0.00    -0.744 OA
ENDBRANCH  73  76
ENDBRANCH  55  69
BRANCH  56  80
ATOM     80  C   UNL A   1      42.366  23.427  27.820  1.00  0.00     0.023 A 
ATOM     81  C   UNL A   1      41.299  22.510  27.899  1.00  0.00     0.012 A 
ATOM     82  C   UNL A   1      43.350  23.249  26.827  1.00  0.00     0.148 A 
ATOM     83  C   UNL A   1      41.229  21.419  27.032  1.00  0.00     0.002 A 
ATOM     84  C   UNL A   1      43.246  22.190  25.932  1.00  0.00     0.091 A 
ATOM     85  F   UNL A   1      44.361  24.125  26.773  1.00  0.00    -0.205 F 
ATOM     86  C   UNL A   1      42.196  21.264  26.043  1.00  0.00     0.022 A 
BRANCH  84  87
ATOM     87  S   UNL A   1      44.373  21.976  24.550  1.00  0.00     0.127 S 
ATOM     88  O   UNL A   1      45.652  22.351  25.145  1.00  0.00    -0.237 OA
ATOM     89  O   UNL A   1      44.224  20.548  24.260  1.00  0.00    -0.237 OA
ATOM     90  O   UNL A   1      43.882  22.857  23.500  1.00  0.00    -0.744 OA
ENDBRANCH  84  87
ENDBRANCH  56  80
BRANCH  68  91
ATOM     91  C   UNL A   1      46.482  25.026  33.235  1.00  0.00     0.023 A 
ATOM     92  C   UNL A   1      47.795  25.431  32.925  1.00  0.00     0.012 A 
ATOM     93  C   UNL A   1      46.276  24.026  34.208  1.00  0.00     0.148 A 
ATOM     94  C   UNL A   1      48.887  24.829  33.550  1.00  0.00     0.002 A 
ATOM     95  C   UNL A   1      47.367  23.469  34.862  1.00  0.00     0.091 A 
ATOM     96  F   UNL A   1      45.020  23.644  34.476  1.00  0.00    -0.205 F 
ATOM     97  C   UNL A   1      48.672  23.859  34.527  1.00  0.00     0.022 A 
BRANCH  95  98
ATOM     98  S   UNL A   1      47.182  22.288  36.204  1.00  0.00     0.127 S 
ATOM     99  O   UNL A   1      46.350  23.034  37.146  1.00  0.00    -0.237 OA
ATOM    100  O   UNL A   1      46.505  21.171  35.544  1.00  0.00    -0.237 OA
ATOM    101  O   UNL A   1      48.532  21.989  36.663  1.00  0.00    -0.744 OA
ENDBRANCH  95  98
ENDBRANCH  68  91
ENDBRANCH  42  43
ENDBRANCH  34  37
ENDBRANCH  32  33
ENDBRANCH  31  32
ENDBRANCH   1  31
TORSDOF 18
ENDMDL
