MODEL 1
REMARK VINA RESULT:     -13.8      0.000      0.000
REMARK SMILES O=C(Cc1c(C(=O)c2cc3c(cn2)CCCC3)[nH]c2cc(Cl)ccc12)NCCCCNC(=O)c1ccc(-c2c3nc(c(-c4cccc(S(=O)(=O)[O-])c4F)c4ccc([nH]4)c(-c4cccc(S(=O)(=O)[O-])c4F)c4nc(c(-c5cccc(S(=O)(=O)[O-])c5F)c5ccc2[nH]5)C=C4)C=C3)cc1
REMARK SMILES IDX 28 1 27 2 26 3 1 4 2 5 3 7 4 8 5 9 25 10 18 11 19 12 24 13
REMARK SMILES IDX 20 15 23 16 21 17 22 18 6 19 7 20 8 21 9 22 13 23 10 24
REMARK SMILES IDX 12 25 11 26 17 27 14 28 16 29 15 30 29 31 30 32 31 33 32 34
REMARK SMILES IDX 33 36 34 37 35 38 96 39 36 40 95 41 37 42 38 43 39 44 89 45
REMARK SMILES IDX 40 46 94 47 88 48 90 49 41 50 93 51 87 52 86 53 42 55 74 56
REMARK SMILES IDX 54 57 73 58 55 59 58 60 72 61 91 62 56 63 57 64 71 66 92 67
REMARK SMILES IDX 59 68 43 69 44 70 52 71 45 72 47 73 53 74 46 75 48 76 49 77
REMARK SMILES IDX 50 78 51 79 75 80 76 81 84 82 77 83 79 84 85 85 78 86 80 87
REMARK SMILES IDX 81 88 82 89 83 90 60 91 61 92 69 93 62 94 64 95 70 96 63 97
REMARK SMILES IDX 65 98 66 99 67 100 68 101
REMARK H PARENT 26 6 18 14 31 35 90 54 58 65
REMARK Flexibility Score: inf
ROOT
ATOM      1  C   UNL A   1      31.465  28.924  25.771  1.00  0.00     0.023 C 
ENDROOT
BRANCH   1   2
ATOM      2  C   UNL A   1      32.130  28.031  26.818  1.00  0.00     0.116 C 
BRANCH   2   3
ATOM      3  N   UNL A   1      33.121  27.132  26.265  1.00  0.00    -0.356 N 
ATOM      4  O   UNL A   1      31.813  25.272  26.540  1.00  0.00    -0.275 OA
ATOM      5  C   UNL A   1      32.847  25.783  26.116  1.00  0.00     0.224 C 
ATOM      6  H   UNL A   1      33.999  27.483  25.991  1.00  0.00     0.163 HD
BRANCH   5   7
ATOM      7  C   UNL A   1      33.910  25.001  25.349  1.00  0.00     0.138 C 
BRANCH   7   8
ATOM      8  C   UNL A   1      33.310  24.171  24.244  1.00  0.00    -0.002 A 
ATOM      9  C   UNL A   1      32.816  24.623  23.016  1.00  0.00     0.093 A 
ATOM     10  C   UNL A   1      33.092  22.750  24.291  1.00  0.00     0.004 A 
ATOM     11  N   UNL A   1      32.491  23.495  22.290  1.00  0.00    -0.351 N 
ATOM     12  C   UNL A   1      32.594  22.361  23.053  1.00  0.00     0.048 A 
ATOM     13  C   UNL A   1      33.282  21.752  25.272  1.00  0.00     0.012 A 
ATOM     14  H   UNL A   1      32.220  23.504  21.343  1.00  0.00     0.167 HD
ATOM     15  C   UNL A   1      32.294  21.029  22.733  1.00  0.00     0.047 A 
ATOM     16  C   UNL A   1      32.989  20.415  24.978  1.00  0.00     0.021 A 
ATOM     17  C   UNL A   1      32.505  20.066  23.723  1.00  0.00     0.043 A 
ATOM     18  Cl  UNL A   1      32.160  18.415  23.378  1.00  0.00    -0.084 Cl
BRANCH   9  19
ATOM     19  C   UNL A   1      32.680  25.992  22.519  1.00  0.00     0.227 C 
ATOM     20  O   UNL A   1      33.594  26.617  21.983  1.00  0.00    -0.285 OA
BRANCH  19  21
ATOM     21  C   UNL A   1      31.381  26.703  22.720  1.00  0.00     0.113 A 
ATOM     22  C   UNL A   1      31.194  27.983  22.203  1.00  0.00     0.036 A 
ATOM     23  N   UNL A   1      30.433  26.032  23.417  1.00  0.00    -0.252 NA
ATOM     24  C   UNL A   1      29.965  28.618  22.410  1.00  0.00    -0.041 A 
ATOM     25  C   UNL A   1      29.251  26.660  23.592  1.00  0.00     0.115 A 
ATOM     26  C   UNL A   1      28.968  27.942  23.131  1.00  0.00    -0.026 A 
ATOM     27  C   UNL A   1      29.755  30.026  21.911  1.00  0.00     0.036 C 
ATOM     28  C   UNL A   1      27.599  28.531  23.342  1.00  0.00     0.037 C 
ATOM     29  C   UNL A   1      28.280  30.426  21.844  1.00  0.00     0.005 C 
ATOM     30  C   UNL A   1      27.560  30.044  23.132  1.00  0.00     0.005 C 
ENDBRANCH  19  21
ENDBRANCH   9  19
ENDBRANCH   7   8
ENDBRANCH   5   7
ENDBRANCH   2   3
ENDBRANCH   1   2
BRANCH   1  31
ATOM     31  C   UNL A   1      31.739  30.423  25.916  1.00  0.00     0.023 C 
BRANCH  31  32
ATOM     32  C   UNL A   1      32.594  30.825  27.114  1.00  0.00     0.116 C 
BRANCH  32  33
ATOM     33  N   UNL A   1      32.746  32.265  27.251  1.00  0.00    -0.352 N 
ATOM     34  C   UNL A   1      33.794  33.003  27.759  1.00  0.00     0.251 C 
ATOM     35  H   UNL A   1      31.981  32.795  26.930  1.00  0.00     0.163 HD
ATOM     36  O   UNL A   1      33.668  34.212  27.901  1.00  0.00    -0.269 OA
BRANCH  34  37
ATOM     37  C   UNL A   1      35.052  32.333  28.174  1.00  0.00     0.039 A 
ATOM     38  C   UNL A   1      35.074  30.980  28.522  1.00  0.00     0.014 A 
ATOM     39  C   UNL A   1      36.232  33.081  28.225  1.00  0.00     0.014 A 
ATOM     40  C   UNL A   1      36.220  30.431  29.094  1.00  0.00     0.010 A 
ATOM     41  C   UNL A   1      37.405  32.503  28.724  1.00  0.00     0.010 A 
ATOM     42  C   UNL A   1      37.395  31.192  29.222  1.00  0.00    -0.014 A 
BRANCH  42  43
ATOM     43  C   UNL A   1      38.587  30.605  29.893  1.00  0.00     0.031 A 
ATOM     44  C   UNL A   1      38.933  30.974  31.314  1.00  0.00     0.074 A 
ATOM     45  C   UNL A   1      39.344  29.702  29.240  1.00  0.00     0.049 A 
ATOM     46  N   UNL A   1      39.910  30.529  32.063  1.00  0.00    -0.248 NA
ATOM     47  C   UNL A   1      38.077  31.969  31.983  1.00  0.00     0.031 C 
ATOM     48  C   UNL A   1      39.135  29.273  27.855  1.00  0.00     0.029 A 
ATOM     49  N   UNL A   1      40.431  28.973  29.653  1.00  0.00    -0.354 N 
ATOM     50  C   UNL A   1      39.813  31.213  33.269  1.00  0.00     0.074 A 
ATOM     51  C   UNL A   1      38.684  32.111  33.155  1.00  0.00     0.031 C 
ATOM     52  C   UNL A   1      40.037  28.328  27.548  1.00  0.00     0.029 A 
ATOM     53  C   UNL A   1      40.914  28.113  28.696  1.00  0.00     0.049 A 
ATOM     54  H   UNL A   1      40.829  29.059  30.550  1.00  0.00     0.167 HD
ATOM     55  C   UNL A   1      40.577  31.091  34.381  1.00  0.00     0.034 A 
ATOM     56  C   UNL A   1      41.945  27.246  28.729  1.00  0.00     0.034 A 
ATOM     57  C   UNL A   1      41.661  30.158  34.526  1.00  0.00     0.049 A 
ATOM     58  C   UNL A   1      42.762  27.113  29.982  1.00  0.00     0.074 A 
ATOM     59  C   UNL A   1      42.450  29.931  35.640  1.00  0.00     0.029 A 
ATOM     60  N   UNL A   1      42.104  29.299  33.536  1.00  0.00    -0.354 N 
ATOM     61  N   UNL A   1      42.596  27.709  31.137  1.00  0.00    -0.248 NA
ATOM     62  C   UNL A   1      43.899  26.181  29.942  1.00  0.00     0.031 C 
ATOM     63  C   UNL A   1      43.372  28.930  35.324  1.00  0.00     0.029 A 
ATOM     64  C   UNL A   1      43.156  28.536  34.014  1.00  0.00     0.049 A 
ATOM     65  H   UNL A   1      41.728  29.238  32.629  1.00  0.00     0.167 HD
ATOM     66  C   UNL A   1      43.597  27.219  31.965  1.00  0.00     0.074 A 
ATOM     67  C   UNL A   1      44.355  26.259  31.187  1.00  0.00     0.031 C 
ATOM     68  C   UNL A   1      43.874  27.551  33.248  1.00  0.00     0.034 A 
BRANCH  55  69
ATOM     69  C   UNL A   1      40.234  31.943  35.571  1.00  0.00     0.023 A 
ATOM     70  C   UNL A   1      40.958  33.129  35.796  1.00  0.00     0.012 A 
ATOM     71  C   UNL A   1      39.136  31.631  36.397  1.00  0.00     0.148 A 
ATOM     72  C   UNL A   1      40.602  33.992  36.831  1.00  0.00     0.002 A 
ATOM     73  C   UNL A   1      38.770  32.509  37.411  1.00  0.00     0.091 A 
ATOM     74  F   UNL A   1      38.471  30.489  36.170  1.00  0.00    -0.205 F 
ATOM     75  C   UNL A   1      39.503  33.687  37.630  1.00  0.00     0.022 A 
BRANCH  73  76
ATOM     76  S   UNL A   1      37.339  32.240  38.463  1.00  0.00     0.127 S 
ATOM     77  O   UNL A   1      36.303  32.983  37.746  1.00  0.00    -0.237 OA
ATOM     78  O   UNL A   1      37.192  30.786  38.415  1.00  0.00    -0.237 OA
ATOM     79  O   UNL A   1      37.693  32.776  39.770  1.00  0.00    -0.744 OA
ENDBRANCH  73  76
ENDBRANCH  55  69
BRANCH  56  80
ATOM     80  C   UNL A   1      42.211  26.392  27.542  1.00  0.00     0.023 A 
ATOM     81  C   UNL A   1      42.994  26.904  26.490  1.00  0.00     0.012 A 
ATOM     82  C   UNL A   1      41.766  25.057  27.489  1.00  0.00     0.148 A 
ATOM     83  C   UNL A   1      43.331  26.098  25.403  1.00  0.00     0.002 A 
ATOM     84  C   UNL A   1      42.140  24.248  26.424  1.00  0.00     0.091 A 
ATOM     85  F   UNL A   1      41.014  24.601  28.500  1.00  0.00    -0.205 F 
ATOM     86  C   UNL A   1      42.916  24.769  25.374  1.00  0.00     0.022 A 
BRANCH  84  87
ATOM     87  S   UNL A   1      41.751  22.497  26.354  1.00  0.00     0.127 S 
ATOM     88  O   UNL A   1      42.434  22.088  25.128  1.00  0.00    -0.237 OA
ATOM     89  O   UNL A   1      42.358  22.006  27.592  1.00  0.00    -0.237 OA
ATOM     90  O   UNL A   1      40.297  22.414  26.318  1.00  0.00    -0.744 OA
ENDBRANCH  84  87
ENDBRANCH  56  80
BRANCH  68  91
ATOM     91  C   UNL A   1      45.045  26.886  33.915  1.00  0.00     0.023 A 
ATOM     92  C   UNL A   1      46.324  27.461  33.785  1.00  0.00     0.012 A 
ATOM     93  C   UNL A   1      44.860  25.779  34.766  1.00  0.00     0.148 A 
ATOM     94  C   UNL A   1      47.407  26.938  34.490  1.00  0.00     0.002 A 
ATOM     95  C   UNL A   1      45.938  25.283  35.490  1.00  0.00     0.091 A 
ATOM     96  F   UNL A   1      43.633  25.248  34.864  1.00  0.00    -0.205 F 
ATOM     97  C   UNL A   1      47.212  25.858  35.350  1.00  0.00     0.022 A 
BRANCH  95  98
ATOM     98  S   UNL A   1      45.775  23.943  36.676  1.00  0.00     0.127 S 
ATOM     99  O   UNL A   1      45.306  22.849  35.825  1.00  0.00    -0.237 OA
ATOM    100  O   UNL A   1      47.145  23.793  37.163  1.00  0.00    -0.237 OA
ATOM    101  O   UNL A   1      44.820  24.404  37.675  1.00  0.00    -0.744 OA
ENDBRANCH  95  98
ENDBRANCH  68  91
ENDBRANCH  42  43
ENDBRANCH  34  37
ENDBRANCH  32  33
ENDBRANCH  31  32
ENDBRANCH   1  31
TORSDOF 17
ENDMDL
MODEL 2
REMARK VINA RESULT:     -13.6      5.044     10.367
REMARK SMILES O=C(Cc1c(C(=O)c2cc3c(cn2)CCCC3)[nH]c2cc(Cl)ccc12)NCCCCNC(=O)c1ccc(-c2c3nc(c(-c4cccc(S(=O)(=O)[O-])c4F)c4ccc([nH]4)c(-c4cccc(S(=O)(=O)[O-])c4F)c4nc(c(-c5cccc(S(=O)(=O)[O-])c5F)c5ccc2[nH]5)C=C4)C=C3)cc1
REMARK SMILES IDX 28 1 27 2 26 3 1 4 2 5 3 7 4 8 5 9 25 10 18 11 19 12 24 13
REMARK SMILES IDX 20 15 23 16 21 17 22 18 6 19 7 20 8 21 9 22 13 23 10 24
REMARK SMILES IDX 12 25 11 26 17 27 14 28 16 29 15 30 29 31 30 32 31 33 32 34
REMARK SMILES IDX 33 36 34 37 35 38 96 39 36 40 95 41 37 42 38 43 39 44 89 45
REMARK SMILES IDX 40 46 94 47 88 48 90 49 41 50 93 51 87 52 86 53 42 55 74 56
REMARK SMILES IDX 54 57 73 58 55 59 58 60 72 61 91 62 56 63 57 64 71 66 92 67
REMARK SMILES IDX 59 68 43 69 44 70 52 71 45 72 47 73 53 74 46 75 48 76 49 77
REMARK SMILES IDX 50 78 51 79 75 80 76 81 84 82 77 83 79 84 85 85 78 86 80 87
REMARK SMILES IDX 81 88 82 89 83 90 60 91 61 92 69 93 62 94 64 95 70 96 63 97
REMARK SMILES IDX 65 98 66 99 67 100 68 101
REMARK H PARENT 26 6 18 14 31 35 90 54 58 65
REMARK Flexibility Score: inf
ROOT
ATOM      1  C   UNL A   1      35.310  22.314  24.781  1.00  0.00     0.023 C 
ENDROOT
BRANCH   1   2
ATOM      2  C   UNL A   1      35.890  23.725  24.673  1.00  0.00     0.116 C 
BRANCH   2   3
ATOM      3  N   UNL A   1      35.084  24.732  25.331  1.00  0.00    -0.356 N 
ATOM      4  O   UNL A   1      34.069  25.408  23.391  1.00  0.00    -0.275 OA
ATOM      5  C   UNL A   1      34.166  25.480  24.614  1.00  0.00     0.224 C 
ATOM      6  H   UNL A   1      35.190  24.886  26.298  1.00  0.00     0.163 HD
BRANCH   5   7
ATOM      7  C   UNL A   1      33.263  26.364  25.472  1.00  0.00     0.138 C 
BRANCH   7   8
ATOM      8  C   UNL A   1      31.819  26.272  25.046  1.00  0.00    -0.002 A 
ATOM      9  C   UNL A   1      30.923  25.230  25.307  1.00  0.00     0.093 A 
ATOM     10  C   UNL A   1      31.123  27.238  24.239  1.00  0.00     0.004 A 
ATOM     11  N   UNL A   1      29.695  25.647  24.835  1.00  0.00    -0.351 N 
ATOM     12  C   UNL A   1      29.800  26.824  24.139  1.00  0.00     0.048 A 
ATOM     13  C   UNL A   1      31.494  28.436  23.591  1.00  0.00     0.012 A 
ATOM     14  H   UNL A   1      28.851  25.161  24.979  1.00  0.00     0.167 HD
ATOM     15  C   UNL A   1      28.822  27.550  23.444  1.00  0.00     0.047 A 
ATOM     16  C   UNL A   1      30.536  29.178  22.888  1.00  0.00     0.021 A 
ATOM     17  C   UNL A   1      29.221  28.736  22.823  1.00  0.00     0.043 A 
ATOM     18  Cl  UNL A   1      28.057  29.668  21.963  1.00  0.00    -0.084 Cl
BRANCH   9  19
ATOM     19  C   UNL A   1      31.159  23.950  25.975  1.00  0.00     0.227 C 
ATOM     20  O   UNL A   1      31.125  23.801  27.196  1.00  0.00    -0.285 OA
BRANCH  19  21
ATOM     21  C   UNL A   1      31.519  22.761  25.143  1.00  0.00     0.113 A 
ATOM     22  C   UNL A   1      31.873  21.560  25.752  1.00  0.00     0.036 A 
ATOM     23  N   UNL A   1      31.473  22.935  23.800  1.00  0.00    -0.252 NA
ATOM     24  C   UNL A   1      32.203  20.469  24.941  1.00  0.00    -0.041 A 
ATOM     25  C   UNL A   1      31.783  21.864  23.040  1.00  0.00     0.115 A 
ATOM     26  C   UNL A   1      32.166  20.626  23.548  1.00  0.00    -0.026 A 
ATOM     27  C   UNL A   1      32.647  19.172  25.573  1.00  0.00     0.036 C 
ATOM     28  C   UNL A   1      32.446  19.484  22.608  1.00  0.00     0.037 C 
ATOM     29  C   UNL A   1      32.578  17.983  24.615  1.00  0.00     0.005 C 
ATOM     30  C   UNL A   1      33.206  18.337  23.272  1.00  0.00     0.005 C 
ENDBRANCH  19  21
ENDBRANCH   9  19
ENDBRANCH   7   8
ENDBRANCH   5   7
ENDBRANCH   2   3
ENDBRANCH   1   2
BRANCH   1  31
ATOM     31  C   UNL A   1      36.323  21.211  25.099  1.00  0.00     0.023 C 
BRANCH  31  32
ATOM     32  C   UNL A   1      37.791  21.605  24.972  1.00  0.00     0.116 C 
BRANCH  32  33
ATOM     33  N   UNL A   1      38.699  20.613  25.525  1.00  0.00    -0.352 N 
ATOM     34  C   UNL A   1      39.794  20.772  26.350  1.00  0.00     0.251 C 
ATOM     35  H   UNL A   1      38.502  19.682  25.272  1.00  0.00     0.163 HD
ATOM     36  O   UNL A   1      40.506  19.810  26.600  1.00  0.00    -0.269 OA
BRANCH  34  37
ATOM     37  C   UNL A   1      40.135  22.111  26.894  1.00  0.00     0.039 A 
ATOM     38  C   UNL A   1      39.490  23.265  26.442  1.00  0.00     0.014 A 
ATOM     39  C   UNL A   1      41.130  22.210  27.871  1.00  0.00     0.014 A 
ATOM     40  C   UNL A   1      39.965  24.517  26.824  1.00  0.00     0.010 A 
ATOM     41  C   UNL A   1      41.550  23.469  28.315  1.00  0.00     0.010 A 
ATOM     42  C   UNL A   1      41.016  24.636  27.749  1.00  0.00    -0.014 A 
BRANCH  42  43
ATOM     43  C   UNL A   1      41.549  25.983  28.094  1.00  0.00     0.031 A 
ATOM     44  C   UNL A   1      42.953  26.379  27.711  1.00  0.00     0.074 A 
ATOM     45  C   UNL A   1      40.756  26.875  28.720  1.00  0.00     0.049 A 
ATOM     46  N   UNL A   1      43.564  27.522  27.898  1.00  0.00    -0.248 NA
ATOM     47  C   UNL A   1      43.781  25.367  27.032  1.00  0.00     0.031 C 
ATOM     48  C   UNL A   1      39.387  26.614  29.168  1.00  0.00     0.029 A 
ATOM     49  N   UNL A   1      40.981  28.181  29.077  1.00  0.00    -0.354 N 
ATOM     50  C   UNL A   1      44.851  27.356  27.400  1.00  0.00     0.074 A 
ATOM     51  C   UNL A   1      44.941  25.999  26.906  1.00  0.00     0.031 C 
ATOM     52  C   UNL A   1      38.880  27.736  29.701  1.00  0.00     0.029 A 
ATOM     53  C   UNL A   1      39.898  28.782  29.673  1.00  0.00     0.049 A 
ATOM     54  H   UNL A   1      41.835  28.644  28.921  1.00  0.00     0.167 HD
ATOM     55  C   UNL A   1      45.862  28.256  27.336  1.00  0.00     0.034 A 
ATOM     56  C   UNL A   1      39.734  30.033  30.147  1.00  0.00     0.034 A 
ATOM     57  C   UNL A   1      45.762  29.624  27.767  1.00  0.00     0.049 A 
ATOM     58  C   UNL A   1      40.863  31.019  30.043  1.00  0.00     0.074 A 
ATOM     59  C   UNL A   1      46.722  30.618  27.685  1.00  0.00     0.029 A 
ATOM     60  N   UNL A   1      44.643  30.191  28.351  1.00  0.00    -0.354 N 
ATOM     61  N   UNL A   1      42.040  30.863  29.490  1.00  0.00    -0.248 NA
ATOM     62  C   UNL A   1      40.637  32.355  30.615  1.00  0.00     0.031 C 
ATOM     63  C   UNL A   1      46.181  31.791  28.220  1.00  0.00     0.029 A 
ATOM     64  C   UNL A   1      44.886  31.525  28.634  1.00  0.00     0.049 A 
ATOM     65  H   UNL A   1      43.800  29.719  28.537  1.00  0.00     0.167 HD
ATOM     66  C   UNL A   1      42.693  32.080  29.637  1.00  0.00     0.074 A 
ATOM     67  C   UNL A   1      41.773  32.973  30.312  1.00  0.00     0.031 C 
ATOM     68  C   UNL A   1      43.950  32.417  29.263  1.00  0.00     0.034 A 
BRANCH  55  69
ATOM     69  C   UNL A   1      47.160  27.819  26.716  1.00  0.00     0.023 A 
ATOM     70  C   UNL A   1      48.159  27.266  27.540  1.00  0.00     0.012 A 
ATOM     71  C   UNL A   1      47.348  27.853  25.321  1.00  0.00     0.148 A 
ATOM     72  C   UNL A   1      49.333  26.759  26.986  1.00  0.00     0.002 A 
ATOM     73  C   UNL A   1      48.510  27.322  24.773  1.00  0.00     0.091 A 
ATOM     74  F   UNL A   1      46.386  28.396  24.561  1.00  0.00    -0.205 F 
ATOM     75  C   UNL A   1      49.503  26.778  25.604  1.00  0.00     0.022 A 
BRANCH  73  76
ATOM     76  S   UNL A   1      48.806  27.246  23.003  1.00  0.00     0.127 S 
ATOM     77  O   UNL A   1      50.263  27.367  22.944  1.00  0.00    -0.237 OA
ATOM     78  O   UNL A   1      48.290  25.921  22.662  1.00  0.00    -0.237 OA
ATOM     79  O   UNL A   1      48.068  28.359  22.422  1.00  0.00    -0.744 OA
ENDBRANCH  73  76
ENDBRANCH  55  69
BRANCH  56  80
ATOM     80  C   UNL A   1      38.415  30.429  30.705  1.00  0.00     0.023 A 
ATOM     81  C   UNL A   1      38.130  30.152  32.055  1.00  0.00     0.012 A 
ATOM     82  C   UNL A   1      37.482  31.149  29.933  1.00  0.00     0.148 A 
ATOM     83  C   UNL A   1      36.935  30.585  32.629  1.00  0.00     0.002 A 
ATOM     84  C   UNL A   1      36.314  31.614  30.522  1.00  0.00     0.091 A 
ATOM     85  F   UNL A   1      37.777  31.390  28.648  1.00  0.00    -0.205 F 
ATOM     86  C   UNL A   1      36.034  31.326  31.869  1.00  0.00     0.022 A 
BRANCH  84  87
ATOM     87  S   UNL A   1      35.147  32.670  29.658  1.00  0.00     0.127 S 
ATOM     88  O   UNL A   1      34.521  31.729  28.733  1.00  0.00    -0.237 OA
ATOM     89  O   UNL A   1      34.288  33.125  30.752  1.00  0.00    -0.237 OA
ATOM     90  O   UNL A   1      35.945  33.720  29.040  1.00  0.00    -0.744 OA
ENDBRANCH  84  87
ENDBRANCH  56  80
BRANCH  68  91
ATOM     91  C   UNL A   1      44.429  33.809  29.567  1.00  0.00     0.023 A 
ATOM     92  C   UNL A   1      45.057  34.062  30.802  1.00  0.00     0.012 A 
ATOM     93  C   UNL A   1      44.375  34.822  28.591  1.00  0.00     0.148 A 
ATOM     94  C   UNL A   1      45.621  35.309  31.064  1.00  0.00     0.002 A 
ATOM     95  C   UNL A   1      44.966  36.054  28.848  1.00  0.00     0.091 A 
ATOM     96  F   UNL A   1      43.764  34.556  27.428  1.00  0.00    -0.205 F 
ATOM     97  C   UNL A   1      45.586  36.300  30.085  1.00  0.00     0.022 A 
BRANCH  95  98
ATOM     98  S   UNL A   1      45.037  37.369  27.625  1.00  0.00     0.127 S 
ATOM     99  O   UNL A   1      45.749  36.715  26.527  1.00  0.00    -0.237 OA
ATOM    100  O   UNL A   1      43.621  37.626  27.366  1.00  0.00    -0.237 OA
ATOM    101  O   UNL A   1      45.750  38.470  28.257  1.00  0.00    -0.744 OA
ENDBRANCH  95  98
ENDBRANCH  68  91
ENDBRANCH  42  43
ENDBRANCH  34  37
ENDBRANCH  32  33
ENDBRANCH  31  32
ENDBRANCH   1  31
TORSDOF 17
ENDMDL
MODEL 3
REMARK VINA RESULT:     -13.3      5.415     10.721
REMARK SMILES O=C(Cc1c(C(=O)c2cc3c(cn2)CCCC3)[nH]c2cc(Cl)ccc12)NCCCCNC(=O)c1ccc(-c2c3nc(c(-c4cccc(S(=O)(=O)[O-])c4F)c4ccc([nH]4)c(-c4cccc(S(=O)(=O)[O-])c4F)c4nc(c(-c5cccc(S(=O)(=O)[O-])c5F)c5ccc2[nH]5)C=C4)C=C3)cc1
REMARK SMILES IDX 28 1 27 2 26 3 1 4 2 5 3 7 4 8 5 9 25 10 18 11 19 12 24 13
REMARK SMILES IDX 20 15 23 16 21 17 22 18 6 19 7 20 8 21 9 22 13 23 10 24
REMARK SMILES IDX 12 25 11 26 17 27 14 28 16 29 15 30 29 31 30 32 31 33 32 34
REMARK SMILES IDX 33 36 34 37 35 38 96 39 36 40 95 41 37 42 38 43 39 44 89 45
REMARK SMILES IDX 40 46 94 47 88 48 90 49 41 50 93 51 87 52 86 53 42 55 74 56
REMARK SMILES IDX 54 57 73 58 55 59 58 60 72 61 91 62 56 63 57 64 71 66 92 67
REMARK SMILES IDX 59 68 43 69 44 70 52 71 45 72 47 73 53 74 46 75 48 76 49 77
REMARK SMILES IDX 50 78 51 79 75 80 76 81 84 82 77 83 79 84 85 85 78 86 80 87
REMARK SMILES IDX 81 88 82 89 83 90 60 91 61 92 69 93 62 94 64 95 70 96 63 97
REMARK SMILES IDX 65 98 66 99 67 100 68 101
REMARK H PARENT 26 6 18 14 31 35 90 54 58 65
REMARK Flexibility Score: inf
ROOT
ATOM      1  C   UNL A   1      36.430  21.003  24.995  1.00  0.00     0.023 C 
ENDROOT
BRANCH   1   2
ATOM      2  C   UNL A   1      36.255  22.225  24.094  1.00  0.00     0.116 C 
BRANCH   2   3
ATOM      3  N   UNL A   1      35.677  23.366  24.773  1.00  0.00    -0.356 N 
ATOM      4  O   UNL A   1      34.550  24.095  22.917  1.00  0.00    -0.275 OA
ATOM      5  C   UNL A   1      34.795  24.206  24.115  1.00  0.00     0.224 C 
ATOM      6  H   UNL A   1      35.914  23.546  25.711  1.00  0.00     0.163 HD
BRANCH   5   7
ATOM      7  C   UNL A   1      34.127  25.248  25.010  1.00  0.00     0.138 C 
BRANCH   7   8
ATOM      8  C   UNL A   1      32.625  25.127  24.988  1.00  0.00    -0.002 A 
ATOM      9  C   UNL A   1      31.850  24.079  25.495  1.00  0.00     0.093 A 
ATOM     10  C   UNL A   1      31.720  26.067  24.381  1.00  0.00     0.004 A 
ATOM     11  N   UNL A   1      30.533  24.469  25.362  1.00  0.00    -0.351 N 
ATOM     12  C   UNL A   1      30.426  25.633  24.645  1.00  0.00     0.048 A 
ATOM     13  C   UNL A   1      31.882  27.257  23.639  1.00  0.00     0.012 A 
ATOM     14  H   UNL A   1      29.768  23.974  25.734  1.00  0.00     0.167 HD
ATOM     15  C   UNL A   1      29.285  26.331  24.225  1.00  0.00     0.047 A 
ATOM     16  C   UNL A   1      30.758  27.971  23.207  1.00  0.00     0.021 A 
ATOM     17  C   UNL A   1      29.481  27.510  23.502  1.00  0.00     0.043 A 
ATOM     18  Cl  UNL A   1      28.113  28.408  22.970  1.00  0.00    -0.084 Cl
BRANCH   9  19
ATOM     19  C   UNL A   1      32.280  22.816  26.096  1.00  0.00     0.227 C 
ATOM     20  O   UNL A   1      32.616  22.699  27.273  1.00  0.00    -0.285 OA
BRANCH  19  21
ATOM     21  C   UNL A   1      32.377  21.603  25.226  1.00  0.00     0.113 A 
ATOM     22  C   UNL A   1      32.747  20.376  25.772  1.00  0.00     0.036 A 
ATOM     23  N   UNL A   1      32.086  21.783  23.915  1.00  0.00    -0.252 NA
ATOM     24  C   UNL A   1      32.826  19.263  24.928  1.00  0.00    -0.041 A 
ATOM     25  C   UNL A   1      32.156  20.691  23.125  1.00  0.00     0.115 A 
ATOM     26  C   UNL A   1      32.531  19.425  23.566  1.00  0.00    -0.026 A 
ATOM     27  C   UNL A   1      33.279  17.934  25.481  1.00  0.00     0.036 C 
ATOM     28  C   UNL A   1      32.532  18.266  22.606  1.00  0.00     0.037 C 
ATOM     29  C   UNL A   1      32.932  16.756  24.570  1.00  0.00     0.005 C 
ATOM     30  C   UNL A   1      33.314  17.061  23.126  1.00  0.00     0.005 C 
ENDBRANCH  19  21
ENDBRANCH   9  19
ENDBRANCH   7   8
ENDBRANCH   5   7
ENDBRANCH   2   3
ENDBRANCH   1   2
BRANCH   1  31
ATOM     31  C   UNL A   1      37.728  20.217  24.791  1.00  0.00     0.023 C 
BRANCH  31  32
ATOM     32  C   UNL A   1      38.855  20.537  25.769  1.00  0.00     0.116 C 
BRANCH  32  33
ATOM     33  N   UNL A   1      39.870  19.499  25.831  1.00  0.00    -0.352 N 
ATOM     34  C   UNL A   1      41.225  19.594  26.073  1.00  0.00     0.251 C 
ATOM     35  H   UNL A   1      39.539  18.584  25.678  1.00  0.00     0.163 HD
ATOM     36  O   UNL A   1      41.930  18.602  25.955  1.00  0.00    -0.269 OA
BRANCH  34  37
ATOM     37  C   UNL A   1      41.833  20.901  26.429  1.00  0.00     0.039 A 
ATOM     38  C   UNL A   1      42.145  21.221  27.752  1.00  0.00     0.014 A 
ATOM     39  C   UNL A   1      42.085  21.828  25.413  1.00  0.00     0.014 A 
ATOM     40  C   UNL A   1      42.527  22.520  28.078  1.00  0.00     0.010 A 
ATOM     41  C   UNL A   1      42.548  23.109  25.736  1.00  0.00     0.010 A 
ATOM     42  C   UNL A   1      42.714  23.488  27.076  1.00  0.00    -0.014 A 
BRANCH  42  43
ATOM     43  C   UNL A   1      43.060  24.886  27.452  1.00  0.00     0.031 A 
ATOM     44  C   UNL A   1      44.439  25.438  27.191  1.00  0.00     0.074 A 
ATOM     45  C   UNL A   1      42.119  25.683  27.997  1.00  0.00     0.049 A 
ATOM     46  N   UNL A   1      44.899  26.642  27.419  1.00  0.00    -0.248 NA
ATOM     47  C   UNL A   1      45.432  24.525  26.599  1.00  0.00     0.031 C 
ATOM     48  C   UNL A   1      40.753  25.270  28.325  1.00  0.00     0.029 A 
ATOM     49  N   UNL A   1      42.163  27.007  28.358  1.00  0.00    -0.354 N 
ATOM     50  C   UNL A   1      46.235  26.623  27.039  1.00  0.00     0.074 A 
ATOM     51  C   UNL A   1      46.521  25.285  26.569  1.00  0.00     0.031 C 
ATOM     52  C   UNL A   1      40.078  26.327  28.799  1.00  0.00     0.029 A 
ATOM     53  C   UNL A   1      40.970  27.482  28.851  1.00  0.00     0.049 A 
ATOM     54  H   UNL A   1      42.970  27.562  28.274  1.00  0.00     0.167 HD
ATOM     55  C   UNL A   1      47.140  27.630  27.056  1.00  0.00     0.034 A 
ATOM     56  C   UNL A   1      40.626  28.706  29.294  1.00  0.00     0.034 A 
ATOM     57  C   UNL A   1      46.849  28.979  27.461  1.00  0.00     0.049 A 
ATOM     58  C   UNL A   1      41.641  29.813  29.281  1.00  0.00     0.074 A 
ATOM     59  C   UNL A   1      47.695  30.074  27.454  1.00  0.00     0.029 A 
ATOM     60  N   UNL A   1      45.626  29.417  27.939  1.00  0.00    -0.354 N 
ATOM     61  N   UNL A   1      42.873  29.791  28.836  1.00  0.00    -0.248 NA
ATOM     62  C   UNL A   1      41.217  31.116  29.817  1.00  0.00     0.031 C 
ATOM     63  C   UNL A   1      46.980  31.179  27.927  1.00  0.00     0.029 A 
ATOM     64  C   UNL A   1      45.692  30.769  28.228  1.00  0.00     0.049 A 
ATOM     65  H   UNL A   1      44.828  28.852  28.054  1.00  0.00     0.167 HD
ATOM     66  C   UNL A   1      43.370  31.074  29.027  1.00  0.00     0.074 A 
ATOM     67  C   UNL A   1      42.298  31.857  29.609  1.00  0.00     0.031 C 
ATOM     68  C   UNL A   1      44.609  31.551  28.763  1.00  0.00     0.034 A 
BRANCH  55  69
ATOM     69  C   UNL A   1      48.529  27.342  26.558  1.00  0.00     0.023 A 
ATOM     70  C   UNL A   1      49.448  26.712  27.419  1.00  0.00     0.012 A 
ATOM     71  C   UNL A   1      48.888  27.592  25.219  1.00  0.00     0.148 A 
ATOM     72  C   UNL A   1      50.710  26.341  26.959  1.00  0.00     0.002 A 
ATOM     73  C   UNL A   1      50.139  27.195  24.760  1.00  0.00     0.091 A 
ATOM     74  F   UNL A   1      47.999  28.204  24.423  1.00  0.00    -0.205 F 
ATOM     75  C   UNL A   1      51.050  26.573  25.628  1.00  0.00     0.022 A 
BRANCH  73  76
ATOM     76  S   UNL A   1      50.659  27.397  23.052  1.00  0.00     0.127 S 
ATOM     77  O   UNL A   1      51.951  26.711  23.057  1.00  0.00    -0.237 OA
ATOM     78  O   UNL A   1      49.600  26.697  22.324  1.00  0.00    -0.237 OA
ATOM     79  O   UNL A   1      50.720  28.832  22.815  1.00  0.00    -0.744 OA
ENDBRANCH  73  76
ENDBRANCH  55  69
BRANCH  56  80
ATOM     80  C   UNL A   1      39.226  28.951  29.730  1.00  0.00     0.023 A 
ATOM     81  C   UNL A   1      38.850  28.628  31.047  1.00  0.00     0.012 A 
ATOM     82  C   UNL A   1      38.295  29.575  28.877  1.00  0.00     0.148 A 
ATOM     83  C   UNL A   1      37.568  28.923  31.510  1.00  0.00     0.002 A 
ATOM     84  C   UNL A   1      37.034  29.905  29.357  1.00  0.00     0.091 A 
ATOM     85  F   UNL A   1      38.678  29.863  27.626  1.00  0.00    -0.205 F 
ATOM     86  C   UNL A   1      36.665  29.572  30.671  1.00  0.00     0.022 A 
BRANCH  84  87
ATOM     87  S   UNL A   1      35.844  30.841  28.392  1.00  0.00     0.127 S 
ATOM     88  O   UNL A   1      36.660  31.950  27.905  1.00  0.00    -0.237 OA
ATOM     89  O   UNL A   1      35.455  29.866  27.371  1.00  0.00    -0.237 OA
ATOM     90  O   UNL A   1      34.780  31.204  29.318  1.00  0.00    -0.744 OA
ENDBRANCH  84  87
ENDBRANCH  56  80
BRANCH  68  91
ATOM     91  C   UNL A   1      44.900  32.988  29.093  1.00  0.00     0.023 A 
ATOM     92  C   UNL A   1      45.446  33.303  30.352  1.00  0.00     0.012 A 
ATOM     93  C   UNL A   1      44.755  33.997  28.122  1.00  0.00     0.148 A 
ATOM     94  C   UNL A   1      45.840  34.607  30.644  1.00  0.00     0.002 A 
ATOM     95  C   UNL A   1      45.178  35.290  28.409  1.00  0.00     0.091 A 
ATOM     96  F   UNL A   1      44.224  33.669  26.936  1.00  0.00    -0.205 F 
ATOM     97  C   UNL A   1      45.718  35.597  29.670  1.00  0.00     0.022 A 
BRANCH  95  98
ATOM     98  S   UNL A   1      45.129  36.616  27.198  1.00  0.00     0.127 S 
ATOM     99  O   UNL A   1      45.973  36.076  26.132  1.00  0.00    -0.237 OA
ATOM    100  O   UNL A   1      43.705  36.685  26.874  1.00  0.00    -0.237 OA
ATOM    101  O   UNL A   1      45.658  37.796  27.870  1.00  0.00    -0.744 OA
ENDBRANCH  95  98
ENDBRANCH  68  91
ENDBRANCH  42  43
ENDBRANCH  34  37
ENDBRANCH  32  33
ENDBRANCH  31  32
ENDBRANCH   1  31
TORSDOF 17
ENDMDL
