MODEL 1
REMARK VINA RESULT:     -11.2      0.000      0.000
REMARK SMILES O=C(CCCCc1nc(-c2ccccc2)no1)NCCCCNC(=O)c1ccc(-c2c3nc(c(-c4cccc(S(=O)(=O)[O-])c4F)c4ccc([nH]4)c(-c4cccc(S(=O)(=O)[O-])c4F)c4nc(c(-c5cccc(S(=O)(=O)[O-])c5F)c5ccc2[nH]5)C=C4)C=C3)cc1
REMARK SMILES IDX 19 1 18 2 1 3 2 4 3 6 4 7 5 8 6 9 7 10 8 11 17 12 9 13 16 14
REMARK SMILES IDX 10 15 11 16 15 17 12 18 14 19 13 20 20 21 21 22 22 23 23 24
REMARK SMILES IDX 24 25 25 27 26 28 27 29 88 30 28 31 87 32 29 33 30 34 31 35
REMARK SMILES IDX 81 36 32 37 86 38 80 39 82 40 33 41 85 42 79 43 78 44 34 46
REMARK SMILES IDX 66 47 46 48 65 49 47 50 50 51 64 52 83 53 48 54 49 55 63 57
REMARK SMILES IDX 84 58 51 59 35 60 36 61 44 62 37 63 39 64 45 65 38 66 40 67
REMARK SMILES IDX 41 68 42 69 43 70 67 71 68 72 76 73 69 74 71 75 77 76 70 77
REMARK SMILES IDX 72 78 73 79 74 80 75 81 52 82 53 83 61 84 54 85 56 86 62 87
REMARK SMILES IDX 55 88 57 89 58 90 59 91 60 92
REMARK H PARENT 18 5 23 26 82 45 50 56
REMARK Flexibility Score: inf
ROOT
ATOM      1  C   UNL A   1      32.641  30.460  26.996  1.00  0.00     0.116 C 
ENDROOT
BRANCH   1   2
ATOM      2  N   UNL A   1      32.783  29.134  26.438  1.00  0.00    -0.356 N 
ATOM      3  O   UNL A   1      31.260  28.102  27.814  1.00  0.00    -0.275 OA
ATOM      4  C   UNL A   1      32.049  28.057  26.876  1.00  0.00     0.219 C 
ATOM      5  H   UNL A   1      33.433  28.995  25.711  1.00  0.00     0.163 HD
BRANCH   4   6
ATOM      6  C   UNL A   1      32.290  26.789  26.080  1.00  0.00     0.100 C 
BRANCH   6   7
ATOM      7  C   UNL A   1      31.328  25.665  26.468  1.00  0.00     0.010 C 
BRANCH   7   8
ATOM      8  C   UNL A   1      30.468  25.086  25.334  1.00  0.00     0.010 C 
BRANCH   8   9
ATOM      9  C   UNL A   1      30.743  25.652  23.937  1.00  0.00     0.100 C 
BRANCH   9  10
ATOM     10  C   UNL A   1      29.829  26.750  23.541  1.00  0.00     0.226 A 
ATOM     11  N   UNL A   1      30.106  27.918  23.009  1.00  0.00    -0.191 NA
ATOM     12  O   UNL A   1      28.505  26.579  23.812  1.00  0.00    -0.339 OA
ATOM     13  C   UNL A   1      28.877  28.545  23.027  1.00  0.00     0.202 A 
ATOM     14  N   UNL A   1      27.872  27.760  23.450  1.00  0.00    -0.057 NA
BRANCH  13  15
ATOM     15  C   UNL A   1      28.693  29.940  22.655  1.00  0.00     0.023 A 
ATOM     16  C   UNL A   1      28.957  30.954  23.589  1.00  0.00     0.012 A 
ATOM     17  C   UNL A   1      28.273  30.295  21.367  1.00  0.00     0.012 A 
ATOM     18  C   UNL A   1      28.796  32.297  23.246  1.00  0.00     0.001 A 
ATOM     19  C   UNL A   1      28.099  31.641  21.029  1.00  0.00     0.001 A 
ATOM     20  C   UNL A   1      28.360  32.639  21.967  1.00  0.00     0.000 A 
ENDBRANCH  13  15
ENDBRANCH   9  10
ENDBRANCH   8   9
ENDBRANCH   7   8
ENDBRANCH   6   7
ENDBRANCH   4   6
ENDBRANCH   1   2
BRANCH   1  21
ATOM     21  C   UNL A   1      31.455  31.208  26.389  1.00  0.00     0.023 C 
BRANCH  21  22
ATOM     22  C   UNL A   1      31.413  32.713  26.678  1.00  0.00     0.023 C 
BRANCH  22  23
ATOM     23  C   UNL A   1      32.718  33.323  27.184  1.00  0.00     0.116 C 
BRANCH  23  24
ATOM     24  N   UNL A   1      32.508  34.557  27.923  1.00  0.00    -0.352 N 
ATOM     25  C   UNL A   1      33.104  35.001  29.078  1.00  0.00     0.251 C 
ATOM     26  H   UNL A   1      31.838  35.167  27.537  1.00  0.00     0.163 HD
ATOM     27  O   UNL A   1      32.661  36.002  29.642  1.00  0.00    -0.269 OA
BRANCH  25  28
ATOM     28  C   UNL A   1      34.257  34.276  29.661  1.00  0.00     0.039 A 
ATOM     29  C   UNL A   1      35.541  34.562  29.188  1.00  0.00     0.014 A 
ATOM     30  C   UNL A   1      34.082  33.308  30.653  1.00  0.00     0.014 A 
ATOM     31  C   UNL A   1      36.650  33.928  29.756  1.00  0.00     0.010 A 
ATOM     32  C   UNL A   1      35.192  32.734  31.270  1.00  0.00     0.010 A 
ATOM     33  C   UNL A   1      36.490  33.035  30.828  1.00  0.00    -0.014 A 
BRANCH  33  34
ATOM     34  C   UNL A   1      37.666  32.428  31.510  1.00  0.00     0.031 A 
ATOM     35  C   UNL A   1      38.417  31.288  30.875  1.00  0.00     0.074 A 
ATOM     36  C   UNL A   1      38.009  32.850  32.744  1.00  0.00     0.049 A 
ATOM     37  N   UNL A   1      39.424  30.599  31.348  1.00  0.00    -0.248 NA
ATOM     38  C   UNL A   1      37.963  30.848  29.546  1.00  0.00     0.031 C 
ATOM     39  C   UNL A   1      37.319  33.894  33.504  1.00  0.00     0.029 A 
ATOM     40  N   UNL A   1      39.008  32.431  33.590  1.00  0.00    -0.354 N 
ATOM     41  C   UNL A   1      39.703  29.627  30.394  1.00  0.00     0.074 A 
ATOM     42  C   UNL A   1      38.736  29.793  29.332  1.00  0.00     0.031 C 
ATOM     43  C   UNL A   1      37.913  34.035  34.699  1.00  0.00     0.029 A 
ATOM     44  C   UNL A   1      39.002  33.070  34.808  1.00  0.00     0.049 A 
ATOM     45  H   UNL A   1      39.665  31.740  33.347  1.00  0.00     0.167 HD
ATOM     46  C   UNL A   1      40.691  28.699  30.388  1.00  0.00     0.034 A 
ATOM     47  C   UNL A   1      39.774  32.891  35.899  1.00  0.00     0.034 A 
ATOM     48  C   UNL A   1      41.671  28.555  31.432  1.00  0.00     0.049 A 
ATOM     49  C   UNL A   1      40.878  31.870  35.858  1.00  0.00     0.074 A 
ATOM     50  C   UNL A   1      42.757  27.697  31.478  1.00  0.00     0.029 A 
ATOM     51  N   UNL A   1      41.680  29.273  32.617  1.00  0.00    -0.354 N 
ATOM     52  N   UNL A   1      41.219  31.063  34.883  1.00  0.00    -0.248 NA
ATOM     53  C   UNL A   1      41.726  31.759  37.054  1.00  0.00     0.031 C 
ATOM     54  C   UNL A   1      43.402  27.874  32.706  1.00  0.00     0.029 A 
ATOM     55  C   UNL A   1      42.743  28.871  33.407  1.00  0.00     0.049 A 
ATOM     56  H   UNL A   1      41.027  29.969  32.860  1.00  0.00     0.167 HD
ATOM     57  C   UNL A   1      42.342  30.375  35.333  1.00  0.00     0.074 A 
ATOM     58  C   UNL A   1      42.635  30.877  36.659  1.00  0.00     0.031 C 
ATOM     59  C   UNL A   1      43.056  29.408  34.707  1.00  0.00     0.034 A 
BRANCH  46  60
ATOM     60  C   UNL A   1      40.790  27.791  29.188  1.00  0.00     0.023 A 
ATOM     61  C   UNL A   1      39.988  26.632  29.123  1.00  0.00     0.012 A 
ATOM     62  C   UNL A   1      41.630  28.110  28.103  1.00  0.00     0.148 A 
ATOM     63  C   UNL A   1      40.050  25.786  28.016  1.00  0.00     0.002 A 
ATOM     64  C   UNL A   1      41.650  27.287  26.982  1.00  0.00     0.091 A 
ATOM     65  F   UNL A   1      42.398  29.205  28.189  1.00  0.00    -0.205 F 
ATOM     66  C   UNL A   1      40.872  26.119  26.944  1.00  0.00     0.022 A 
BRANCH  64  67
ATOM     67  S   UNL A   1      42.611  27.670  25.515  1.00  0.00     0.127 S 
ATOM     68  O   UNL A   1      42.382  26.481  24.694  1.00  0.00    -0.237 OA
ATOM     69  O   UNL A   1      41.955  28.883  25.026  1.00  0.00    -0.237 OA
ATOM     70  O   UNL A   1      43.981  27.859  25.969  1.00  0.00    -0.744 OA
ENDBRANCH  64  67
ENDBRANCH  46  60
BRANCH  47  71
ATOM     71  C   UNL A   1      39.558  33.734  37.109  1.00  0.00     0.023 A 
ATOM     72  C   UNL A   1      40.052  35.052  37.138  1.00  0.00     0.012 A 
ATOM     73  C   UNL A   1      38.846  33.243  38.221  1.00  0.00     0.148 A 
ATOM     74  C   UNL A   1      39.872  35.855  38.265  1.00  0.00     0.002 A 
ATOM     75  C   UNL A   1      38.619  34.067  39.316  1.00  0.00     0.091 A 
ATOM     76  F   UNL A   1      38.393  31.982  38.178  1.00  0.00    -0.205 F 
ATOM     77  C   UNL A   1      39.147  35.367  39.350  1.00  0.00     0.022 A 
BRANCH  75  78
ATOM     78  S   UNL A   1      37.582  33.571  40.696  1.00  0.00     0.127 S 
ATOM     79  O   UNL A   1      37.239  34.859  41.292  1.00  0.00    -0.237 OA
ATOM     80  O   UNL A   1      36.479  32.892  40.015  1.00  0.00    -0.237 OA
ATOM     81  O   UNL A   1      38.409  32.695  41.516  1.00  0.00    -0.744 OA
ENDBRANCH  75  78
ENDBRANCH  47  71
BRANCH  59  82
ATOM     82  C   UNL A   1      44.260  28.851  35.424  1.00  0.00     0.023 A 
ATOM     83  C   UNL A   1      45.538  29.391  35.182  1.00  0.00     0.012 A 
ATOM     84  C   UNL A   1      44.110  27.837  36.392  1.00  0.00     0.148 A 
ATOM     85  C   UNL A   1      46.653  28.906  35.866  1.00  0.00     0.002 A 
ATOM     86  C   UNL A   1      45.217  27.396  37.106  1.00  0.00     0.091 A 
ATOM     87  F   UNL A   1      42.888  27.324  36.596  1.00  0.00    -0.205 F 
ATOM     88  C   UNL A   1      46.492  27.919  36.835  1.00  0.00     0.022 A 
BRANCH  86  89
ATOM     89  S   UNL A   1      45.090  26.200  38.441  1.00  0.00     0.127 S 
ATOM     90  O   UNL A   1      44.610  25.015  37.733  1.00  0.00    -0.237 OA
ATOM     91  O   UNL A   1      46.473  26.113  38.911  1.00  0.00    -0.237 OA
ATOM     92  O   UNL A   1      44.159  26.770  39.405  1.00  0.00    -0.744 OA
ENDBRANCH  86  89
ENDBRANCH  59  82
ENDBRANCH  33  34
ENDBRANCH  25  28
ENDBRANCH  23  24
ENDBRANCH  22  23
ENDBRANCH  21  22
ENDBRANCH   1  21
TORSDOF 19
ENDMDL
MODEL 2
REMARK VINA RESULT:     -10.8      6.547     12.564
REMARK SMILES O=C(CCCCc1nc(-c2ccccc2)no1)NCCCCNC(=O)c1ccc(-c2c3nc(c(-c4cccc(S(=O)(=O)[O-])c4F)c4ccc([nH]4)c(-c4cccc(S(=O)(=O)[O-])c4F)c4nc(c(-c5cccc(S(=O)(=O)[O-])c5F)c5ccc2[nH]5)C=C4)C=C3)cc1
REMARK SMILES IDX 19 1 18 2 1 3 2 4 3 6 4 7 5 8 6 9 7 10 8 11 17 12 9 13 16 14
REMARK SMILES IDX 10 15 11 16 15 17 12 18 14 19 13 20 20 21 21 22 22 23 23 24
REMARK SMILES IDX 24 25 25 27 26 28 27 29 88 30 28 31 87 32 29 33 30 34 31 35
REMARK SMILES IDX 81 36 32 37 86 38 80 39 82 40 33 41 85 42 79 43 78 44 34 46
REMARK SMILES IDX 66 47 46 48 65 49 47 50 50 51 64 52 83 53 48 54 49 55 63 57
REMARK SMILES IDX 84 58 51 59 35 60 36 61 44 62 37 63 39 64 45 65 38 66 40 67
REMARK SMILES IDX 41 68 42 69 43 70 67 71 68 72 76 73 69 74 71 75 77 76 70 77
REMARK SMILES IDX 72 78 73 79 74 80 75 81 52 82 53 83 61 84 54 85 56 86 62 87
REMARK SMILES IDX 55 88 57 89 58 90 59 91 60 92
REMARK H PARENT 18 5 23 26 82 45 50 56
REMARK Flexibility Score: inf
ROOT
ATOM      1  C   UNL A   1      37.438  22.438  25.071  1.00  0.00     0.116 C 
ENDROOT
BRANCH   1   2
ATOM      2  N   UNL A   1      36.461  23.428  24.674  1.00  0.00    -0.356 N 
ATOM      3  O   UNL A   1      35.257  23.411  26.631  1.00  0.00    -0.275 OA
ATOM      4  C   UNL A   1      35.457  23.862  25.508  1.00  0.00     0.219 C 
ATOM      5  H   UNL A   1      36.517  23.808  23.768  1.00  0.00     0.163 HD
BRANCH   4   6
ATOM      6  C   UNL A   1      34.614  24.975  24.918  1.00  0.00     0.100 C 
BRANCH   6   7
ATOM      7  C   UNL A   1      33.417  24.444  24.127  1.00  0.00     0.010 C 
BRANCH   7   8
ATOM      8  C   UNL A   1      32.049  24.543  24.819  1.00  0.00     0.010 C 
BRANCH   8   9
ATOM      9  C   UNL A   1      31.233  23.246  24.867  1.00  0.00     0.100 C 
BRANCH   9  10
ATOM     10  C   UNL A   1      32.030  22.046  25.217  1.00  0.00     0.226 A 
ATOM     11  N   UNL A   1      32.274  20.968  24.509  1.00  0.00    -0.191 NA
ATOM     12  O   UNL A   1      32.550  21.996  26.476  1.00  0.00    -0.339 OA
ATOM     13  C   UNL A   1      32.921  20.160  25.421  1.00  0.00     0.202 A 
ATOM     14  N   UNL A   1      33.158  20.755  26.602  1.00  0.00    -0.057 NA
BRANCH  13  15
ATOM     15  C   UNL A   1      33.280  18.778  25.142  1.00  0.00     0.023 A 
ATOM     16  C   UNL A   1      32.558  17.732  25.739  1.00  0.00     0.012 A 
ATOM     17  C   UNL A   1      34.328  18.466  24.267  1.00  0.00     0.012 A 
ATOM     18  C   UNL A   1      32.882  16.401  25.474  1.00  0.00     0.001 A 
ATOM     19  C   UNL A   1      34.660  17.132  24.013  1.00  0.00     0.001 A 
ATOM     20  C   UNL A   1      33.938  16.102  24.616  1.00  0.00     0.000 A 
ENDBRANCH  13  15
ENDBRANCH   9  10
ENDBRANCH   8   9
ENDBRANCH   7   8
ENDBRANCH   6   7
ENDBRANCH   4   6
ENDBRANCH   1   2
BRANCH   1  21
ATOM     21  C   UNL A   1      37.024  21.029  24.651  1.00  0.00     0.023 C 
BRANCH  21  22
ATOM     22  C   UNL A   1      38.028  19.922  24.992  1.00  0.00     0.023 C 
BRANCH  22  23
ATOM     23  C   UNL A   1      39.242  20.363  25.805  1.00  0.00     0.116 C 
BRANCH  23  24
ATOM     24  N   UNL A   1      40.235  19.310  25.939  1.00  0.00    -0.352 N 
ATOM     25  C   UNL A   1      41.592  19.402  26.139  1.00  0.00     0.251 C 
ATOM     26  H   UNL A   1      39.883  18.392  25.880  1.00  0.00     0.163 HD
ATOM     27  O   UNL A   1      42.286  18.389  26.053  1.00  0.00    -0.269 OA
BRANCH  25  28
ATOM     28  C   UNL A   1      42.226  20.708  26.432  1.00  0.00     0.039 A 
ATOM     29  C   UNL A   1      42.551  21.553  25.367  1.00  0.00     0.014 A 
ATOM     30  C   UNL A   1      42.516  21.098  27.742  1.00  0.00     0.014 A 
ATOM     31  C   UNL A   1      43.105  22.812  25.620  1.00  0.00     0.010 A 
ATOM     32  C   UNL A   1      42.996  22.382  27.996  1.00  0.00     0.010 A 
ATOM     33  C   UNL A   1      43.298  23.254  26.939  1.00  0.00    -0.014 A 
BRANCH  33  34
ATOM     34  C   UNL A   1      43.792  24.628  27.228  1.00  0.00     0.031 A 
ATOM     35  C   UNL A   1      42.853  25.689  27.738  1.00  0.00     0.074 A 
ATOM     36  C   UNL A   1      45.073  24.946  26.953  1.00  0.00     0.049 A 
ATOM     37  N   UNL A   1      43.092  26.952  27.987  1.00  0.00    -0.248 NA
ATOM     38  C   UNL A   1      41.458  25.287  27.976  1.00  0.00     0.031 C 
ATOM     39  C   UNL A   1      46.069  24.033  26.385  1.00  0.00     0.029 A 
ATOM     40  N   UNL A   1      45.752  26.133  27.085  1.00  0.00    -0.354 N 
ATOM     41  C   UNL A   1      41.877  27.501  28.379  1.00  0.00     0.074 A 
ATOM     42  C   UNL A   1      40.895  26.442  28.299  1.00  0.00     0.031 C 
ATOM     43  C   UNL A   1      47.226  24.691  26.220  1.00  0.00     0.029 A 
ATOM     44  C   UNL A   1      47.050  26.080  26.634  1.00  0.00     0.049 A 
ATOM     45  H   UNL A   1      45.348  26.945  27.467  1.00  0.00     0.167 HD
ATOM     46  C   UNL A   1      41.607  28.762  28.794  1.00  0.00     0.034 A 
ATOM     47  C   UNL A   1      47.992  27.040  26.545  1.00  0.00     0.034 A 
ATOM     48  C   UNL A   1      42.592  29.806  28.901  1.00  0.00     0.049 A 
ATOM     49  C   UNL A   1      47.673  28.428  27.034  1.00  0.00     0.074 A 
ATOM     50  C   UNL A   1      42.430  31.093  29.385  1.00  0.00     0.029 A 
ATOM     51  N   UNL A   1      43.915  29.692  28.507  1.00  0.00    -0.354 N 
ATOM     52  N   UNL A   1      46.556  28.887  27.543  1.00  0.00    -0.248 NA
ATOM     53  C   UNL A   1      48.756  29.420  26.969  1.00  0.00     0.031 C 
ATOM     54  C   UNL A   1      43.649  31.766  29.253  1.00  0.00     0.029 A 
ATOM     55  C   UNL A   1      44.580  30.887  28.724  1.00  0.00     0.049 A 
ATOM     56  H   UNL A   1      44.324  28.880  28.129  1.00  0.00     0.167 HD
ATOM     57  C   UNL A   1      46.811  30.208  27.892  1.00  0.00     0.074 A 
ATOM     58  C   UNL A   1      48.195  30.469  27.557  1.00  0.00     0.031 C 
ATOM     59  C   UNL A   1      45.970  31.125  28.431  1.00  0.00     0.034 A 
BRANCH  46  60
ATOM     60  C   UNL A   1      40.191  29.074  29.209  1.00  0.00     0.023 A 
ATOM     61  C   UNL A   1      39.225  29.368  28.225  1.00  0.00     0.012 A 
ATOM     62  C   UNL A   1      39.803  29.021  30.562  1.00  0.00     0.148 A 
ATOM     63  C   UNL A   1      37.905  29.643  28.583  1.00  0.00     0.002 A 
ATOM     64  C   UNL A   1      38.475  29.248  30.907  1.00  0.00     0.091 A 
ATOM     65  F   UNL A   1      40.738  28.756  31.486  1.00  0.00    -0.205 F 
ATOM     66  C   UNL A   1      37.530  29.573  29.922  1.00  0.00     0.022 A 
BRANCH  64  67
ATOM     67  S   UNL A   1      37.872  29.101  32.592  1.00  0.00     0.127 S 
ATOM     68  O   UNL A   1      38.023  27.666  32.835  1.00  0.00    -0.237 OA
ATOM     69  O   UNL A   1      38.813  29.945  33.329  1.00  0.00    -0.237 OA
ATOM     70  O   UNL A   1      36.501  29.590  32.574  1.00  0.00    -0.744 OA
ENDBRANCH  64  67
ENDBRANCH  46  60
BRANCH  47  71
ATOM     71  C   UNL A   1      49.344  26.710  26.013  1.00  0.00     0.023 A 
ATOM     72  C   UNL A   1      50.224  25.927  26.783  1.00  0.00     0.012 A 
ATOM     73  C   UNL A   1      49.752  27.150  24.738  1.00  0.00     0.148 A 
ATOM     74  C   UNL A   1      51.500  25.615  26.309  1.00  0.00     0.002 A 
ATOM     75  C   UNL A   1      51.001  26.787  24.248  1.00  0.00     0.091 A 
ATOM     76  F   UNL A   1      48.903  27.904  24.025  1.00  0.00    -0.205 F 
ATOM     77  C   UNL A   1      51.884  26.036  25.038  1.00  0.00     0.022 A 
BRANCH  75  78
ATOM     78  S   UNL A   1      51.525  27.168  22.573  1.00  0.00     0.127 S 
ATOM     79  O   UNL A   1      51.700  28.617  22.637  1.00  0.00    -0.237 OA
ATOM     80  O   UNL A   1      52.767  26.401  22.465  1.00  0.00    -0.237 OA
ATOM     81  O   UNL A   1      50.453  26.698  21.706  1.00  0.00    -0.744 OA
ENDBRANCH  75  78
ENDBRANCH  47  71
BRANCH  59  82
ATOM     82  C   UNL A   1      46.528  32.491  28.740  1.00  0.00     0.023 A 
ATOM     83  C   UNL A   1      47.115  32.747  29.994  1.00  0.00     0.012 A 
ATOM     84  C   UNL A   1      46.531  33.501  27.756  1.00  0.00     0.148 A 
ATOM     85  C   UNL A   1      47.665  33.997  30.277  1.00  0.00     0.002 A 
ATOM     86  C   UNL A   1      47.127  34.727  28.028  1.00  0.00     0.091 A 
ATOM     87  F   UNL A   1      45.951  33.244  26.575  1.00  0.00    -0.205 F 
ATOM     88  C   UNL A   1      47.682  34.981  29.292  1.00  0.00     0.022 A 
BRANCH  86  89
ATOM     89  S   UNL A   1      47.284  36.019  26.790  1.00  0.00     0.127 S 
ATOM     90  O   UNL A   1      48.153  35.380  25.802  1.00  0.00    -0.237 OA
ATOM     91  O   UNL A   1      45.898  36.202  26.357  1.00  0.00    -0.237 OA
ATOM     92  O   UNL A   1      47.860  37.167  27.476  1.00  0.00    -0.744 OA
ENDBRANCH  86  89
ENDBRANCH  59  82
ENDBRANCH  33  34
ENDBRANCH  25  28
ENDBRANCH  23  24
ENDBRANCH  22  23
ENDBRANCH  21  22
ENDBRANCH   1  21
TORSDOF 19
ENDMDL
MODEL 3
REMARK VINA RESULT:     -10.7      6.250      9.711
REMARK SMILES O=C(CCCCc1nc(-c2ccccc2)no1)NCCCCNC(=O)c1ccc(-c2c3nc(c(-c4cccc(S(=O)(=O)[O-])c4F)c4ccc([nH]4)c(-c4cccc(S(=O)(=O)[O-])c4F)c4nc(c(-c5cccc(S(=O)(=O)[O-])c5F)c5ccc2[nH]5)C=C4)C=C3)cc1
REMARK SMILES IDX 19 1 18 2 1 3 2 4 3 6 4 7 5 8 6 9 7 10 8 11 17 12 9 13 16 14
REMARK SMILES IDX 10 15 11 16 15 17 12 18 14 19 13 20 20 21 21 22 22 23 23 24
REMARK SMILES IDX 24 25 25 27 26 28 27 29 88 30 28 31 87 32 29 33 30 34 31 35
REMARK SMILES IDX 81 36 32 37 86 38 80 39 82 40 33 41 85 42 79 43 78 44 34 46
REMARK SMILES IDX 66 47 46 48 65 49 47 50 50 51 64 52 83 53 48 54 49 55 63 57
REMARK SMILES IDX 84 58 51 59 35 60 36 61 44 62 37 63 39 64 45 65 38 66 40 67
REMARK SMILES IDX 41 68 42 69 43 70 67 71 68 72 76 73 69 74 71 75 77 76 70 77
REMARK SMILES IDX 72 78 73 79 74 80 75 81 52 82 53 83 61 84 54 85 56 86 62 87
REMARK SMILES IDX 55 88 57 89 58 90 59 91 60 92
REMARK H PARENT 18 5 23 26 82 45 50 56
REMARK Flexibility Score: inf
ROOT
ATOM      1  C   UNL A   1      34.427  22.398  27.195  1.00  0.00     0.116 C 
ENDROOT
BRANCH   1   2
ATOM      2  N   UNL A   1      33.580  23.243  26.381  1.00  0.00    -0.356 N 
ATOM      3  O   UNL A   1      31.657  22.948  27.602  1.00  0.00    -0.275 OA
ATOM      4  C   UNL A   1      32.257  23.476  26.672  1.00  0.00     0.219 C 
ATOM      5  H   UNL A   1      33.968  23.669  25.583  1.00  0.00     0.163 HD
BRANCH   4   6
ATOM      6  C   UNL A   1      31.594  24.472  25.741  1.00  0.00     0.100 C 
BRANCH   6   7
ATOM      7  C   UNL A   1      30.878  23.792  24.573  1.00  0.00     0.010 C 
BRANCH   7   8
ATOM      8  C   UNL A   1      31.565  23.897  23.203  1.00  0.00     0.010 C 
BRANCH   8   9
ATOM      9  C   UNL A   1      32.857  23.088  23.043  1.00  0.00     0.100 C 
BRANCH   9  10
ATOM     10  C   UNL A   1      32.675  21.626  23.201  1.00  0.00     0.226 A 
ATOM     11  N   UNL A   1      33.184  20.811  24.096  1.00  0.00    -0.191 NA
ATOM     12  O   UNL A   1      31.923  20.992  22.258  1.00  0.00    -0.339 OA
ATOM     13  C   UNL A   1      32.785  19.576  23.627  1.00  0.00     0.202 A 
ATOM     14  N   UNL A   1      31.978  19.637  22.554  1.00  0.00    -0.057 NA
BRANCH  13  15
ATOM     15  C   UNL A   1      33.226  18.322  24.219  1.00  0.00     0.023 A 
ATOM     16  C   UNL A   1      34.598  18.067  24.377  1.00  0.00     0.012 A 
ATOM     17  C   UNL A   1      32.302  17.365  24.656  1.00  0.00     0.012 A 
ATOM     18  C   UNL A   1      35.038  16.874  24.952  1.00  0.00     0.001 A 
ATOM     19  C   UNL A   1      32.746  16.164  25.220  1.00  0.00     0.001 A 
ATOM     20  C   UNL A   1      34.111  15.921  25.367  1.00  0.00     0.000 A 
ENDBRANCH  13  15
ENDBRANCH   9  10
ENDBRANCH   8   9
ENDBRANCH   7   8
ENDBRANCH   6   7
ENDBRANCH   4   6
ENDBRANCH   1   2
BRANCH   1  21
ATOM     21  C   UNL A   1      35.570  21.790  26.385  1.00  0.00     0.023 C 
BRANCH  21  22
ATOM     22  C   UNL A   1      35.950  22.555  25.112  1.00  0.00     0.023 C 
BRANCH  22  23
ATOM     23  C   UNL A   1      37.216  22.073  24.408  1.00  0.00     0.116 C 
BRANCH  23  24
ATOM     24  N   UNL A   1      37.883  21.003  25.133  1.00  0.00    -0.352 N 
ATOM     25  C   UNL A   1      38.949  21.060  25.998  1.00  0.00     0.251 C 
ATOM     26  H   UNL A   1      37.515  20.102  24.981  1.00  0.00     0.163 HD
ATOM     27  O   UNL A   1      39.477  20.015  26.377  1.00  0.00    -0.269 OA
BRANCH  25  28
ATOM     28  C   UNL A   1      39.478  22.364  26.460  1.00  0.00     0.039 A 
ATOM     29  C   UNL A   1      40.568  22.376  27.336  1.00  0.00     0.014 A 
ATOM     30  C   UNL A   1      38.902  23.569  26.053  1.00  0.00     0.014 A 
ATOM     31  C   UNL A   1      41.118  23.594  27.748  1.00  0.00     0.010 A 
ATOM     32  C   UNL A   1      39.498  24.780  26.402  1.00  0.00     0.010 A 
ATOM     33  C   UNL A   1      40.612  24.807  27.255  1.00  0.00    -0.014 A 
BRANCH  33  34
ATOM     34  C   UNL A   1      41.248  26.107  27.604  1.00  0.00     0.031 A 
ATOM     35  C   UNL A   1      42.682  26.383  27.235  1.00  0.00     0.074 A 
ATOM     36  C   UNL A   1      40.559  27.012  28.328  1.00  0.00     0.049 A 
ATOM     37  N   UNL A   1      43.417  27.431  27.507  1.00  0.00    -0.248 NA
ATOM     38  C   UNL A   1      43.391  25.335  26.482  1.00  0.00     0.031 C 
ATOM     39  C   UNL A   1      39.189  26.840  28.814  1.00  0.00     0.029 A 
ATOM     40  N   UNL A   1      40.927  28.247  28.806  1.00  0.00    -0.354 N 
ATOM     41  C   UNL A   1      44.678  27.158  26.991  1.00  0.00     0.074 A 
ATOM     42  C   UNL A   1      44.619  25.830  26.421  1.00  0.00     0.031 C 
ATOM     43  C   UNL A   1      38.831  27.924  29.520  1.00  0.00     0.029 A 
ATOM     44  C   UNL A   1      39.955  28.854  29.568  1.00  0.00     0.049 A 
ATOM     45  H   UNL A   1      41.802  28.657  28.622  1.00  0.00     0.167 HD
ATOM     46  C   UNL A   1      45.778  27.949  26.968  1.00  0.00     0.034 A 
ATOM     47  C   UNL A   1      39.968  30.020  30.243  1.00  0.00     0.034 A 
ATOM     48  C   UNL A   1      45.827  29.281  27.509  1.00  0.00     0.049 A 
ATOM     49  C   UNL A   1      41.194  30.891  30.183  1.00  0.00     0.074 A 
ATOM     50  C   UNL A   1      46.872  30.189  27.464  1.00  0.00     0.029 A 
ATOM     51  N   UNL A   1      44.797  29.893  28.206  1.00  0.00    -0.354 N 
ATOM     52  N   UNL A   1      42.327  30.677  29.560  1.00  0.00    -0.248 NA
ATOM     53  C   UNL A   1      41.131  32.178  30.889  1.00  0.00     0.031 C 
ATOM     54  C   UNL A   1      46.484  31.337  28.162  1.00  0.00     0.029 A 
ATOM     55  C   UNL A   1      45.184  31.161  28.607  1.00  0.00     0.049 A 
ATOM     56  H   UNL A   1      43.920  29.486  28.388  1.00  0.00     0.167 HD
ATOM     57  C   UNL A   1      43.097  31.817  29.767  1.00  0.00     0.074 A 
ATOM     58  C   UNL A   1      42.292  32.725  30.556  1.00  0.00     0.031 C 
ATOM     59  C   UNL A   1      44.360  32.079  29.352  1.00  0.00     0.034 A 
BRANCH  46  60
ATOM     60  C   UNL A   1      47.014  27.409  26.292  1.00  0.00     0.023 A 
ATOM     61  C   UNL A   1      47.245  27.693  24.931  1.00  0.00     0.012 A 
ATOM     62  C   UNL A   1      47.973  26.671  27.015  1.00  0.00     0.148 A 
ATOM     63  C   UNL A   1      48.389  27.219  24.288  1.00  0.00     0.002 A 
ATOM     64  C   UNL A   1      49.134  26.244  26.380  1.00  0.00     0.091 A 
ATOM     65  F   UNL A   1      47.730  26.395  28.304  1.00  0.00    -0.205 F 
ATOM     66  C   UNL A   1      49.336  26.504  25.015  1.00  0.00     0.022 A 
BRANCH  64  67
ATOM     67  S   UNL A   1      50.454  25.388  27.247  1.00  0.00     0.127 S 
ATOM     68  O   UNL A   1      50.888  26.407  28.202  1.00  0.00    -0.237 OA
ATOM     69  O   UNL A   1      49.745  24.257  27.844  1.00  0.00    -0.237 OA
ATOM     70  O   UNL A   1      51.433  25.026  26.233  1.00  0.00    -0.744 OA
ENDBRANCH  64  67
ENDBRANCH  46  60
BRANCH  47  71
ATOM     71  C   UNL A   1      38.759  30.456  30.999  1.00  0.00     0.023 A 
ATOM     72  C   UNL A   1      38.671  30.200  32.380  1.00  0.00     0.012 A 
ATOM     73  C   UNL A   1      37.708  31.142  30.359  1.00  0.00     0.148 A 
ATOM     74  C   UNL A   1      37.544  30.588  33.105  1.00  0.00     0.002 A 
ATOM     75  C   UNL A   1      36.616  31.579  31.098  1.00  0.00     0.091 A 
ATOM     76  F   UNL A   1      37.807  31.367  29.041  1.00  0.00    -0.205 F 
ATOM     77  C   UNL A   1      36.521  31.287  32.467  1.00  0.00     0.022 A 
BRANCH  75  78
ATOM     78  S   UNL A   1      35.320  32.600  30.389  1.00  0.00     0.127 S 
ATOM     79  O   UNL A   1      34.375  32.698  31.498  1.00  0.00    -0.237 OA
ATOM     80  O   UNL A   1      36.043  33.835  30.084  1.00  0.00    -0.237 OA
ATOM     81  O   UNL A   1      34.845  31.878  29.216  1.00  0.00    -0.744 OA
ENDBRANCH  75  78
ENDBRANCH  47  71
BRANCH  59  82
ATOM     82  C   UNL A   1      44.947  33.423  29.698  1.00  0.00     0.023 A 
ATOM     83  C   UNL A   1      45.592  33.615  30.936  1.00  0.00     0.012 A 
ATOM     84  C   UNL A   1      44.919  34.478  28.763  1.00  0.00     0.148 A 
ATOM     85  C   UNL A   1      46.169  34.845  31.252  1.00  0.00     0.002 A 
ATOM     86  C   UNL A   1      45.541  35.684  29.065  1.00  0.00     0.091 A 
ATOM     87  F   UNL A   1      44.286  34.283  27.598  1.00  0.00    -0.205 F 
ATOM     88  C   UNL A   1      46.155  35.874  30.314  1.00  0.00     0.022 A 
BRANCH  86  89
ATOM     89  S   UNL A   1      45.659  37.031  27.882  1.00  0.00     0.127 S 
ATOM     90  O   UNL A   1      44.251  37.341  27.642  1.00  0.00    -0.237 OA
ATOM     91  O   UNL A   1      46.389  38.047  28.641  1.00  0.00    -0.237 OA
ATOM     92  O   UNL A   1      46.383  36.498  26.735  1.00  0.00    -0.744 OA
ENDBRANCH  86  89
ENDBRANCH  59  82
ENDBRANCH  33  34
ENDBRANCH  25  28
ENDBRANCH  23  24
ENDBRANCH  22  23
ENDBRANCH  21  22
ENDBRANCH   1  21
TORSDOF 19
ENDMDL
