MODEL 1
REMARK VINA RESULT:     -11.4      0.000      0.000
REMARK SMILES O=C(Cn1cccc1C(=O)NCCCCNC(=O)c1ccc(-c2c3nc(c(-c4cccc(S(=O)(=O)[O-])c4F)c4ccc([nH]4)c(-c4cccc(S(=O)(=O)[O-])c4F)c4nc(c(-c5cccc(S(=O)(=O)[O-])c5F)c5ccc2[nH]5)C=C4)C=C3)cc1)NCC1CCCC1
REMARK SMILES IDX 13 1 12 2 11 3 9 4 10 5 8 7 4 8 5 9 6 10 7 11 3 12 2 13 1 14
REMARK SMILES IDX 82 15 83 17 84 18 85 19 88 20 86 21 87 22 14 23 15 24 16 25
REMARK SMILES IDX 17 26 18 28 19 29 20 30 81 31 21 32 80 33 22 34 23 35 24 36
REMARK SMILES IDX 74 37 25 38 79 39 73 40 75 41 26 42 78 43 72 44 71 45 27 47
REMARK SMILES IDX 59 48 39 49 58 50 40 51 43 52 57 53 76 54 41 55 42 56 56 58
REMARK SMILES IDX 77 59 44 60 28 61 29 62 37 63 30 64 32 65 38 66 31 67 33 68
REMARK SMILES IDX 34 69 35 70 36 71 60 72 61 73 69 74 62 75 64 76 70 77 63 78
REMARK SMILES IDX 65 79 66 80 67 81 68 82 45 83 46 84 54 85 47 86 49 87 55 88
REMARK SMILES IDX 48 89 50 90 51 91 52 92 53 93
REMARK H PARENT 11 6 82 16 16 27 75 46 43 57
REMARK Flexibility Score: inf
ROOT
ATOM      1  C   UNL A   1      33.429  29.246  25.530  1.00  0.00     0.023 C 
ENDROOT
BRANCH   1   2
ATOM      2  C   UNL A   1      33.448  28.488  24.193  1.00  0.00     0.116 C 
BRANCH   2   3
ATOM      3  N   UNL A   1      32.232  28.676  23.423  1.00  0.00    -0.351 N 
ATOM      4  C   UNL A   1      31.449  27.850  22.672  1.00  0.00     0.267 C 
ATOM      5  O   UNL A   1      30.453  28.353  22.148  1.00  0.00    -0.268 OA
ATOM      6  H   UNL A   1      31.901  29.603  23.449  1.00  0.00     0.163 HD
BRANCH   4   7
ATOM      7  C   UNL A   1      31.716  26.437  22.515  1.00  0.00     0.107 A 
ATOM      8  N   UNL A   1      31.350  25.345  23.280  1.00  0.00    -0.334 N 
ATOM      9  C   UNL A   1      31.974  24.210  22.772  1.00  0.00     0.087 A 
ATOM     10  C   UNL A   1      32.835  24.583  21.774  1.00  0.00     0.020 A 
ATOM     11  C   UNL A   1      32.678  25.971  21.617  1.00  0.00     0.033 A 
BRANCH   8  12
ATOM     12  C   UNL A   1      30.510  25.195  24.469  1.00  0.00     0.222 C 
BRANCH  12  13
ATOM     13  C   UNL A   1      31.109  24.945  25.826  1.00  0.00     0.239 C 
ATOM     14  O   UNL A   1      31.088  25.856  26.653  1.00  0.00    -0.273 OA
ATOM     15  N   UNL A   1      31.540  23.674  26.124  1.00  0.00    -0.354 N 
ATOM     16  H   UNL A   1      31.048  22.904  25.758  1.00  0.00     0.163 HD
BRANCH  15  17
ATOM     17  C   UNL A   1      32.700  23.440  26.966  1.00  0.00     0.119 C 
BRANCH  17  18
ATOM     18  C   UNL A   1      34.094  23.274  26.360  1.00  0.00     0.008 C 
ATOM     19  C   UNL A   1      34.024  22.188  25.274  1.00  0.00     0.005 C 
ATOM     20  C   UNL A   1      34.650  24.476  25.597  1.00  0.00     0.005 C 
ATOM     21  C   UNL A   1      35.241  22.426  24.402  1.00  0.00     0.000 C 
ATOM     22  C   UNL A   1      35.478  23.927  24.438  1.00  0.00     0.000 C 
ENDBRANCH  17  18
ENDBRANCH  15  17
ENDBRANCH  12  13
ENDBRANCH   8  12
ENDBRANCH   4   7
ENDBRANCH   2   3
ENDBRANCH   1   2
BRANCH   1  23
ATOM     23  C   UNL A   1      34.655  29.047  26.439  1.00  0.00     0.023 C 
BRANCH  23  24
ATOM     24  C   UNL A   1      34.386  29.329  27.913  1.00  0.00     0.116 C 
BRANCH  24  25
ATOM     25  N   UNL A   1      34.959  30.594  28.368  1.00  0.00    -0.352 N 
ATOM     26  C   UNL A   1      36.237  30.815  28.841  1.00  0.00     0.251 C 
ATOM     27  H   UNL A   1      34.365  31.379  28.333  1.00  0.00     0.163 HD
ATOM     28  O   UNL A   1      36.544  31.854  29.400  1.00  0.00    -0.269 OA
BRANCH  26  29
ATOM     29  C   UNL A   1      37.215  29.716  28.707  1.00  0.00     0.039 A 
ATOM     30  C   UNL A   1      38.081  29.737  27.613  1.00  0.00     0.014 A 
ATOM     31  C   UNL A   1      37.381  28.805  29.756  1.00  0.00     0.014 A 
ATOM     32  C   UNL A   1      39.210  28.929  27.639  1.00  0.00     0.010 A 
ATOM     33  C   UNL A   1      38.533  28.029  29.802  1.00  0.00     0.010 A 
ATOM     34  C   UNL A   1      39.469  28.129  28.765  1.00  0.00    -0.014 A 
BRANCH  34  35
ATOM     35  C   UNL A   1      40.837  27.576  28.927  1.00  0.00     0.031 A 
ATOM     36  C   UNL A   1      40.930  26.128  28.425  1.00  0.00     0.074 A 
ATOM     37  C   UNL A   1      41.781  28.370  29.510  1.00  0.00     0.049 A 
ATOM     38  N   UNL A   1      41.516  25.098  28.962  1.00  0.00    -0.248 NA
ATOM     39  C   UNL A   1      40.130  25.729  27.239  1.00  0.00     0.031 C 
ATOM     40  C   UNL A   1      41.550  29.773  29.901  1.00  0.00     0.029 A 
ATOM     41  N   UNL A   1      43.099  28.186  29.889  1.00  0.00    -0.354 N 
ATOM     42  C   UNL A   1      41.353  24.013  28.064  1.00  0.00     0.074 A 
ATOM     43  C   UNL A   1      40.347  24.416  27.129  1.00  0.00     0.031 C 
ATOM     44  C   UNL A   1      42.639  30.287  30.506  1.00  0.00     0.029 A 
ATOM     45  C   UNL A   1      43.689  29.284  30.559  1.00  0.00     0.049 A 
ATOM     46  H   UNL A   1      43.590  27.353  29.708  1.00  0.00     0.167 HD
ATOM     47  C   UNL A   1      42.204  22.941  28.031  1.00  0.00     0.034 A 
ATOM     48  C   UNL A   1      44.914  29.393  31.158  1.00  0.00     0.034 A 
ATOM     49  C   UNL A   1      43.276  23.180  28.943  1.00  0.00     0.049 A 
ATOM     50  C   UNL A   1      45.643  28.146  30.888  1.00  0.00     0.074 A 
ATOM     51  C   UNL A   1      43.405  23.177  30.305  1.00  0.00     0.029 A 
ATOM     52  N   UNL A   1      44.375  23.783  28.379  1.00  0.00    -0.354 N 
ATOM     53  N   UNL A   1      46.187  27.838  29.749  1.00  0.00    -0.248 NA
ATOM     54  C   UNL A   1      45.703  27.114  31.933  1.00  0.00     0.031 C 
ATOM     55  C   UNL A   1      44.422  24.124  30.549  1.00  0.00     0.029 A 
ATOM     56  C   UNL A   1      44.952  24.571  29.333  1.00  0.00     0.049 A 
ATOM     57  H   UNL A   1      44.688  23.669  27.453  1.00  0.00     0.167 HD
ATOM     58  C   UNL A   1      46.293  26.471  29.850  1.00  0.00     0.074 A 
ATOM     59  C   UNL A   1      46.342  26.163  31.259  1.00  0.00     0.031 C 
ATOM     60  C   UNL A   1      45.734  25.699  28.881  1.00  0.00     0.034 A 
BRANCH  47  61
ATOM     61  C   UNL A   1      42.442  21.789  27.066  1.00  0.00     0.023 A 
ATOM     62  C   UNL A   1      41.743  20.584  27.385  1.00  0.00     0.012 A 
ATOM     63  C   UNL A   1      43.458  21.691  26.103  1.00  0.00     0.148 A 
ATOM     64  C   UNL A   1      42.132  19.333  26.909  1.00  0.00     0.002 A 
ATOM     65  C   UNL A   1      43.805  20.438  25.578  1.00  0.00     0.091 A 
ATOM     66  F   UNL A   1      44.149  22.778  25.751  1.00  0.00    -0.205 F 
ATOM     67  C   UNL A   1      43.180  19.260  26.014  1.00  0.00     0.022 A 
BRANCH  65  68
ATOM     68  S   UNL A   1      45.067  20.241  24.313  1.00  0.00     0.127 S 
ATOM     69  O   UNL A   1      44.622  21.178  23.287  1.00  0.00    -0.237 OA
ATOM     70  O   UNL A   1      46.280  20.653  25.026  1.00  0.00    -0.237 OA
ATOM     71  O   UNL A   1      45.044  18.827  23.964  1.00  0.00    -0.744 OA
ENDBRANCH  65  68
ENDBRANCH  47  61
BRANCH  48  72
ATOM     72  C   UNL A   1      45.580  30.406  32.062  1.00  0.00     0.023 A 
ATOM     73  C   UNL A   1      46.781  31.057  31.750  1.00  0.00     0.012 A 
ATOM     74  C   UNL A   1      44.975  30.784  33.297  1.00  0.00     0.148 A 
ATOM     75  C   UNL A   1      47.283  32.100  32.553  1.00  0.00     0.002 A 
ATOM     76  C   UNL A   1      45.415  31.872  34.041  1.00  0.00     0.091 A 
ATOM     77  F   UNL A   1      43.969  30.062  33.796  1.00  0.00    -0.205 F 
ATOM     78  C   UNL A   1      46.582  32.535  33.674  1.00  0.00     0.022 A 
BRANCH  76  79
ATOM     79  S   UNL A   1      44.452  32.536  35.413  1.00  0.00     0.127 S 
ATOM     80  O   UNL A   1      44.320  31.377  36.292  1.00  0.00    -0.237 OA
ATOM     81  O   UNL A   1      45.341  33.588  35.908  1.00  0.00    -0.237 OA
ATOM     82  O   UNL A   1      43.200  33.021  34.845  1.00  0.00    -0.744 OA
ENDBRANCH  76  79
ENDBRANCH  48  72
BRANCH  60  83
ATOM     83  C   UNL A   1      45.672  26.369  27.508  1.00  0.00     0.023 A 
ATOM     84  C   UNL A   1      44.405  26.775  27.040  1.00  0.00     0.012 A 
ATOM     85  C   UNL A   1      46.760  26.486  26.611  1.00  0.00     0.148 A 
ATOM     86  C   UNL A   1      44.223  27.250  25.737  1.00  0.00     0.002 A 
ATOM     87  C   UNL A   1      46.580  26.948  25.305  1.00  0.00     0.091 A 
ATOM     88  F   UNL A   1      47.970  26.131  27.035  1.00  0.00    -0.205 F 
ATOM     89  C   UNL A   1      45.306  27.332  24.869  1.00  0.00     0.022 A 
BRANCH  87  90
ATOM     90  S   UNL A   1      47.897  27.018  24.069  1.00  0.00     0.127 S 
ATOM     91  O   UNL A   1      48.137  25.602  23.780  1.00  0.00    -0.237 OA
ATOM     92  O   UNL A   1      47.261  27.749  22.977  1.00  0.00    -0.237 OA
ATOM     93  O   UNL A   1      49.031  27.692  24.691  1.00  0.00    -0.744 OA
ENDBRANCH  87  90
ENDBRANCH  60  83
ENDBRANCH  34  35
ENDBRANCH  26  29
ENDBRANCH  24  25
ENDBRANCH  23  24
ENDBRANCH   1  23
TORSDOF 18
ENDMDL
MODEL 2
REMARK VINA RESULT:     -11.4      4.437      9.865
REMARK SMILES O=C(Cn1cccc1C(=O)NCCCCNC(=O)c1ccc(-c2c3nc(c(-c4cccc(S(=O)(=O)[O-])c4F)c4ccc([nH]4)c(-c4cccc(S(=O)(=O)[O-])c4F)c4nc(c(-c5cccc(S(=O)(=O)[O-])c5F)c5ccc2[nH]5)C=C4)C=C3)cc1)NCC1CCCC1
REMARK SMILES IDX 13 1 12 2 11 3 9 4 10 5 8 7 4 8 5 9 6 10 7 11 3 12 2 13 1 14
REMARK SMILES IDX 82 15 83 17 84 18 85 19 88 20 86 21 87 22 14 23 15 24 16 25
REMARK SMILES IDX 17 26 18 28 19 29 20 30 81 31 21 32 80 33 22 34 23 35 24 36
REMARK SMILES IDX 74 37 25 38 79 39 73 40 75 41 26 42 78 43 72 44 71 45 27 47
REMARK SMILES IDX 59 48 39 49 58 50 40 51 43 52 57 53 76 54 41 55 42 56 56 58
REMARK SMILES IDX 77 59 44 60 28 61 29 62 37 63 30 64 32 65 38 66 31 67 33 68
REMARK SMILES IDX 34 69 35 70 36 71 60 72 61 73 69 74 62 75 64 76 70 77 63 78
REMARK SMILES IDX 65 79 66 80 67 81 68 82 45 83 46 84 54 85 47 86 49 87 55 88
REMARK SMILES IDX 48 89 50 90 51 91 52 92 53 93
REMARK H PARENT 11 6 82 16 16 27 75 46 43 57
REMARK Flexibility Score: inf
ROOT
ATOM      1  C   UNL A   1      37.008  22.962  24.256  1.00  0.00     0.023 C 
ENDROOT
BRANCH   1   2
ATOM      2  C   UNL A   1      35.502  23.226  24.412  1.00  0.00     0.116 C 
BRANCH   2   3
ATOM      3  N   UNL A   1      34.783  23.143  23.155  1.00  0.00    -0.351 N 
ATOM      4  C   UNL A   1      33.598  23.648  22.706  1.00  0.00     0.267 C 
ATOM      5  O   UNL A   1      33.286  23.382  21.544  1.00  0.00    -0.268 OA
ATOM      6  H   UNL A   1      35.254  22.605  22.478  1.00  0.00     0.163 HD
BRANCH   4   7
ATOM      7  C   UNL A   1      32.747  24.497  23.510  1.00  0.00     0.107 A 
ATOM      8  N   UNL A   1      31.750  24.197  24.420  1.00  0.00    -0.334 N 
ATOM      9  C   UNL A   1      31.140  25.379  24.825  1.00  0.00     0.087 A 
ATOM     10  C   UNL A   1      31.646  26.418  24.089  1.00  0.00     0.020 A 
ATOM     11  C   UNL A   1      32.644  25.868  23.267  1.00  0.00     0.033 A 
BRANCH   8  12
ATOM     12  C   UNL A   1      31.238  22.937  24.961  1.00  0.00     0.222 C 
BRANCH  12  13
ATOM     13  C   UNL A   1      32.161  21.810  25.333  1.00  0.00     0.239 C 
ATOM     14  O   UNL A   1      32.844  21.922  26.351  1.00  0.00    -0.273 OA
ATOM     15  N   UNL A   1      32.112  20.655  24.589  1.00  0.00    -0.354 N 
ATOM     16  H   UNL A   1      31.247  20.357  24.224  1.00  0.00     0.163 HD
BRANCH  15  17
ATOM     17  C   UNL A   1      33.302  19.862  24.330  1.00  0.00     0.119 C 
BRANCH  17  18
ATOM     18  C   UNL A   1      33.230  18.338  24.242  1.00  0.00     0.008 C 
ATOM     19  C   UNL A   1      34.662  17.781  24.293  1.00  0.00     0.005 C 
ATOM     20  C   UNL A   1      32.550  17.621  25.408  1.00  0.00     0.005 C 
ATOM     21  C   UNL A   1      34.505  16.331  24.708  1.00  0.00     0.000 C 
ATOM     22  C   UNL A   1      33.282  16.298  25.610  1.00  0.00     0.000 C 
ENDBRANCH  17  18
ENDBRANCH  15  17
ENDBRANCH  12  13
ENDBRANCH   8  12
ENDBRANCH   4   7
ENDBRANCH   2   3
ENDBRANCH   1   2
BRANCH   1  23
ATOM     23  C   UNL A   1      37.749  22.492  25.521  1.00  0.00     0.023 C 
BRANCH  23  24
ATOM     24  C   UNL A   1      38.381  23.622  26.324  1.00  0.00     0.116 C 
BRANCH  24  25
ATOM     25  N   UNL A   1      39.805  23.417  26.580  1.00  0.00    -0.352 N 
ATOM     26  C   UNL A   1      40.727  24.353  27.007  1.00  0.00     0.251 C 
ATOM     27  H   UNL A   1      40.146  22.505  26.432  1.00  0.00     0.163 HD
ATOM     28  O   UNL A   1      41.925  24.133  26.977  1.00  0.00    -0.269 OA
BRANCH  26  29
ATOM     29  C   UNL A   1      40.213  25.667  27.443  1.00  0.00     0.039 A 
ATOM     30  C   UNL A   1      39.643  25.761  28.713  1.00  0.00     0.014 A 
ATOM     31  C   UNL A   1      40.477  26.804  26.672  1.00  0.00     0.014 A 
ATOM     32  C   UNL A   1      39.467  27.019  29.275  1.00  0.00     0.010 A 
ATOM     33  C   UNL A   1      40.341  28.061  27.251  1.00  0.00     0.010 A 
ATOM     34  C   UNL A   1      39.882  28.162  28.570  1.00  0.00    -0.014 A 
BRANCH  34  35
ATOM     35  C   UNL A   1      40.028  29.431  29.325  1.00  0.00     0.031 A 
ATOM     36  C   UNL A   1      38.792  30.331  29.172  1.00  0.00     0.074 A 
ATOM     37  C   UNL A   1      41.198  29.646  29.993  1.00  0.00     0.049 A 
ATOM     38  N   UNL A   1      38.718  31.612  28.961  1.00  0.00    -0.248 NA
ATOM     39  C   UNL A   1      37.452  29.697  29.084  1.00  0.00     0.031 C 
ATOM     40  C   UNL A   1      42.285  28.655  30.087  1.00  0.00     0.029 A 
ATOM     41  N   UNL A   1      41.717  30.704  30.717  1.00  0.00    -0.354 N 
ATOM     42  C   UNL A   1      37.342  31.953  28.959  1.00  0.00     0.074 A 
ATOM     43  C   UNL A   1      36.624  30.719  28.855  1.00  0.00     0.031 C 
ATOM     44  C   UNL A   1      43.340  29.164  30.755  1.00  0.00     0.029 A 
ATOM     45  C   UNL A   1      43.044  30.524  31.173  1.00  0.00     0.049 A 
ATOM     46  H   UNL A   1      41.203  31.523  30.901  1.00  0.00     0.167 HD
ATOM     47  C   UNL A   1      36.888  33.212  29.251  1.00  0.00     0.034 A 
ATOM     48  C   UNL A   1      43.883  31.399  31.807  1.00  0.00     0.034 A 
ATOM     49  C   UNL A   1      37.998  34.020  29.640  1.00  0.00     0.049 A 
ATOM     50  C   UNL A   1      43.113  32.621  32.077  1.00  0.00     0.074 A 
ATOM     51  C   UNL A   1      39.046  34.605  28.983  1.00  0.00     0.029 A 
ATOM     52  N   UNL A   1      38.238  34.037  30.994  1.00  0.00    -0.354 N 
ATOM     53  N   UNL A   1      42.219  32.742  33.013  1.00  0.00    -0.248 NA
ATOM     54  C   UNL A   1      43.276  33.779  31.186  1.00  0.00     0.031 C 
ATOM     55  C   UNL A   1      40.077  34.629  29.947  1.00  0.00     0.029 A 
ATOM     56  C   UNL A   1      39.584  34.175  31.177  1.00  0.00     0.049 A 
ATOM     57  H   UNL A   1      37.560  33.962  31.705  1.00  0.00     0.167 HD
ATOM     58  C   UNL A   1      41.486  33.815  32.563  1.00  0.00     0.074 A 
ATOM     59  C   UNL A   1      42.361  34.587  31.714  1.00  0.00     0.031 C 
ATOM     60  C   UNL A   1      40.144  33.671  32.410  1.00  0.00     0.034 A 
BRANCH  47  61
ATOM     61  C   UNL A   1      35.527  33.815  29.567  1.00  0.00     0.023 A 
ATOM     62  C   UNL A   1      34.856  34.401  28.449  1.00  0.00     0.012 A 
ATOM     63  C   UNL A   1      35.009  34.109  30.837  1.00  0.00     0.148 A 
ATOM     64  C   UNL A   1      33.843  35.348  28.584  1.00  0.00     0.002 A 
ATOM     65  C   UNL A   1      33.946  35.015  30.965  1.00  0.00     0.091 A 
ATOM     66  F   UNL A   1      35.581  33.591  31.927  1.00  0.00    -0.205 F 
ATOM     67  C   UNL A   1      33.399  35.669  29.851  1.00  0.00     0.022 A 
BRANCH  65  68
ATOM     68  S   UNL A   1      33.204  35.409  32.555  1.00  0.00     0.127 S 
ATOM     69  O   UNL A   1      32.845  34.089  33.061  1.00  0.00    -0.237 OA
ATOM     70  O   UNL A   1      34.319  36.047  33.262  1.00  0.00    -0.237 OA
ATOM     71  O   UNL A   1      32.106  36.316  32.253  1.00  0.00    -0.744 OA
ENDBRANCH  65  68
ENDBRANCH  47  61
BRANCH  48  72
ATOM     72  C   UNL A   1      45.352  31.412  32.163  1.00  0.00     0.023 A 
ATOM     73  C   UNL A   1      46.383  31.457  31.214  1.00  0.00     0.012 A 
ATOM     74  C   UNL A   1      45.768  31.416  33.527  1.00  0.00     0.148 A 
ATOM     75  C   UNL A   1      47.729  31.617  31.597  1.00  0.00     0.002 A 
ATOM     76  C   UNL A   1      47.081  31.668  33.906  1.00  0.00     0.091 A 
ATOM     77  F   UNL A   1      44.889  31.138  34.493  1.00  0.00    -0.205 F 
ATOM     78  C   UNL A   1      48.075  31.764  32.937  1.00  0.00     0.022 A 
BRANCH  76  79
ATOM     79  S   UNL A   1      47.528  31.995  35.622  1.00  0.00     0.127 S 
ATOM     80  O   UNL A   1      48.953  32.300  35.520  1.00  0.00    -0.237 OA
ATOM     81  O   UNL A   1      46.673  33.142  35.931  1.00  0.00    -0.237 OA
ATOM     82  O   UNL A   1      47.211  30.786  36.372  1.00  0.00    -0.744 OA
ENDBRANCH  76  79
ENDBRANCH  48  72
BRANCH  60  83
ATOM     83  C   UNL A   1      39.513  32.648  33.354  1.00  0.00     0.023 A 
ATOM     84  C   UNL A   1      39.017  31.457  32.785  1.00  0.00     0.012 A 
ATOM     85  C   UNL A   1      39.262  32.860  34.731  1.00  0.00     0.148 A 
ATOM     86  C   UNL A   1      38.284  30.535  33.538  1.00  0.00     0.002 A 
ATOM     87  C   UNL A   1      38.519  31.947  35.483  1.00  0.00     0.091 A 
ATOM     88  F   UNL A   1      39.738  33.965  35.298  1.00  0.00    -0.205 F 
ATOM     89  C   UNL A   1      38.031  30.780  34.883  1.00  0.00     0.022 A 
BRANCH  87  90
ATOM     90  S   UNL A   1      38.060  32.203  37.212  1.00  0.00     0.127 S 
ATOM     91  O   UNL A   1      37.206  33.391  37.142  1.00  0.00    -0.237 OA
ATOM     92  O   UNL A   1      37.343  30.971  37.529  1.00  0.00    -0.237 OA
ATOM     93  O   UNL A   1      39.297  32.411  37.956  1.00  0.00    -0.744 OA
ENDBRANCH  87  90
ENDBRANCH  60  83
ENDBRANCH  34  35
ENDBRANCH  26  29
ENDBRANCH  24  25
ENDBRANCH  23  24
ENDBRANCH   1  23
TORSDOF 18
ENDMDL
MODEL 3
REMARK VINA RESULT:     -11.2      1.244      2.950
REMARK SMILES O=C(Cn1cccc1C(=O)NCCCCNC(=O)c1ccc(-c2c3nc(c(-c4cccc(S(=O)(=O)[O-])c4F)c4ccc([nH]4)c(-c4cccc(S(=O)(=O)[O-])c4F)c4nc(c(-c5cccc(S(=O)(=O)[O-])c5F)c5ccc2[nH]5)C=C4)C=C3)cc1)NCC1CCCC1
REMARK SMILES IDX 13 1 12 2 11 3 9 4 10 5 8 7 4 8 5 9 6 10 7 11 3 12 2 13 1 14
REMARK SMILES IDX 82 15 83 17 84 18 85 19 88 20 86 21 87 22 14 23 15 24 16 25
REMARK SMILES IDX 17 26 18 28 19 29 20 30 81 31 21 32 80 33 22 34 23 35 24 36
REMARK SMILES IDX 74 37 25 38 79 39 73 40 75 41 26 42 78 43 72 44 71 45 27 47
REMARK SMILES IDX 59 48 39 49 58 50 40 51 43 52 57 53 76 54 41 55 42 56 56 58
REMARK SMILES IDX 77 59 44 60 28 61 29 62 37 63 30 64 32 65 38 66 31 67 33 68
REMARK SMILES IDX 34 69 35 70 36 71 60 72 61 73 69 74 62 75 64 76 70 77 63 78
REMARK SMILES IDX 65 79 66 80 67 81 68 82 45 83 46 84 54 85 47 86 49 87 55 88
REMARK SMILES IDX 48 89 50 90 51 91 52 92 53 93
REMARK H PARENT 11 6 82 16 16 27 75 46 43 57
REMARK Flexibility Score: inf
ROOT
ATOM      1  C   UNL A   1      32.578  28.318  26.667  1.00  0.00     0.023 C 
ENDROOT
BRANCH   1   2
ATOM      2  C   UNL A   1      32.845  26.890  26.164  1.00  0.00     0.116 C 
BRANCH   2   3
ATOM      3  N   UNL A   1      31.902  25.922  26.694  1.00  0.00    -0.351 N 
ATOM      4  C   UNL A   1      31.576  24.639  26.365  1.00  0.00     0.267 C 
ATOM      5  O   UNL A   1      30.712  24.092  27.052  1.00  0.00    -0.268 OA
ATOM      6  H   UNL A   1      31.385  26.267  27.457  1.00  0.00     0.163 HD
BRANCH   4   7
ATOM      7  C   UNL A   1      32.227  23.908  25.300  1.00  0.00     0.107 A 
ATOM      8  N   UNL A   1      32.076  23.962  23.927  1.00  0.00    -0.334 N 
ATOM      9  C   UNL A   1      32.843  22.956  23.349  1.00  0.00     0.087 A 
ATOM     10  C   UNL A   1      33.379  22.178  24.342  1.00  0.00     0.020 A 
ATOM     11  C   UNL A   1      32.992  22.769  25.557  1.00  0.00     0.033 A 
BRANCH   8  12
ATOM     12  C   UNL A   1      31.275  24.810  23.042  1.00  0.00     0.222 C 
BRANCH  12  13
ATOM     13  C   UNL A   1      31.669  26.231  22.749  1.00  0.00     0.239 C 
ATOM     14  O   UNL A   1      32.844  26.467  22.467  1.00  0.00    -0.273 OA
ATOM     15  N   UNL A   1      30.679  27.182  22.687  1.00  0.00    -0.354 N 
ATOM     16  H   UNL A   1      29.797  26.933  22.329  1.00  0.00     0.163 HD
BRANCH  15  17
ATOM     17  C   UNL A   1      30.903  28.547  23.134  1.00  0.00     0.119 C 
BRANCH  17  18
ATOM     18  C   UNL A   1      29.802  29.602  23.026  1.00  0.00     0.008 C 
ATOM     19  C   UNL A   1      29.781  30.134  21.583  1.00  0.00     0.005 C 
ATOM     20  C   UNL A   1      28.368  29.112  23.222  1.00  0.00     0.005 C 
ATOM     21  C   UNL A   1      28.409  30.756  21.414  1.00  0.00     0.000 C 
ATOM     22  C   UNL A   1      27.480  29.935  22.294  1.00  0.00     0.000 C 
ENDBRANCH  17  18
ENDBRANCH  15  17
ENDBRANCH  12  13
ENDBRANCH   8  12
ENDBRANCH   4   7
ENDBRANCH   2   3
ENDBRANCH   1   2
BRANCH   1  23
ATOM     23  C   UNL A   1      33.660  28.929  27.577  1.00  0.00     0.023 C 
BRANCH  23  24
ATOM     24  C   UNL A   1      34.867  29.474  26.822  1.00  0.00     0.116 C 
BRANCH  24  25
ATOM     25  N   UNL A   1      35.419  30.686  27.421  1.00  0.00    -0.352 N 
ATOM     26  C   UNL A   1      36.619  30.823  28.090  1.00  0.00     0.251 C 
ATOM     27  H   UNL A   1      34.871  31.501  27.338  1.00  0.00     0.163 HD
ATOM     28  O   UNL A   1      36.882  31.820  28.740  1.00  0.00    -0.269 OA
BRANCH  26  29
ATOM     29  C   UNL A   1      37.558  29.684  28.045  1.00  0.00     0.039 A 
ATOM     30  C   UNL A   1      38.511  29.656  27.026  1.00  0.00     0.014 A 
ATOM     31  C   UNL A   1      37.600  28.779  29.112  1.00  0.00     0.014 A 
ATOM     32  C   UNL A   1      39.599  28.803  27.152  1.00  0.00     0.010 A 
ATOM     33  C   UNL A   1      38.711  27.957  29.259  1.00  0.00     0.010 A 
ATOM     34  C   UNL A   1      39.732  28.006  28.302  1.00  0.00    -0.014 A 
BRANCH  34  35
ATOM     35  C   UNL A   1      41.058  27.401  28.581  1.00  0.00     0.031 A 
ATOM     36  C   UNL A   1      41.129  25.942  28.106  1.00  0.00     0.074 A 
ATOM     37  C   UNL A   1      41.985  28.164  29.228  1.00  0.00     0.049 A 
ATOM     38  N   UNL A   1      41.626  24.897  28.701  1.00  0.00    -0.248 NA
ATOM     39  C   UNL A   1      40.411  25.558  26.864  1.00  0.00     0.031 C 
ATOM     40  C   UNL A   1      41.783  29.581  29.582  1.00  0.00     0.029 A 
ATOM     41  N   UNL A   1      43.259  27.932  29.715  1.00  0.00    -0.354 N 
ATOM     42  C   UNL A   1      41.490  23.807  27.806  1.00  0.00     0.074 A 
ATOM     43  C   UNL A   1      40.580  24.236  26.788  1.00  0.00     0.031 C 
ATOM     44  C   UNL A   1      42.840  30.059  30.267  1.00  0.00     0.029 A 
ATOM     45  C   UNL A   1      43.839  29.014  30.417  1.00  0.00     0.049 A 
ATOM     46  H   UNL A   1      43.727  27.076  29.584  1.00  0.00     0.167 HD
ATOM     47  C   UNL A   1      42.295  22.700  27.855  1.00  0.00     0.034 A 
ATOM     48  C   UNL A   1      45.016  29.083  31.112  1.00  0.00     0.034 A 
ATOM     49  C   UNL A   1      43.299  22.909  28.848  1.00  0.00     0.049 A 
ATOM     50  C   UNL A   1      45.710  27.803  30.917  1.00  0.00     0.074 A 
ATOM     51  C   UNL A   1      43.319  22.921  30.216  1.00  0.00     0.029 A 
ATOM     52  N   UNL A   1      44.465  23.457  28.367  1.00  0.00    -0.354 N 
ATOM     53  N   UNL A   1      46.331  27.454  29.829  1.00  0.00    -0.248 NA
ATOM     54  C   UNL A   1      45.643  26.786  31.976  1.00  0.00     0.031 C 
ATOM     55  C   UNL A   1      44.352  23.829  30.530  1.00  0.00     0.029 A 
ATOM     56  C   UNL A   1      44.997  24.236  29.355  1.00  0.00     0.049 A 
ATOM     57  H   UNL A   1      44.846  23.315  27.471  1.00  0.00     0.167 HD
ATOM     58  C   UNL A   1      46.370  26.086  29.955  1.00  0.00     0.074 A 
ATOM     59  C   UNL A   1      46.293  25.798  31.367  1.00  0.00     0.031 C 
ATOM     60  C   UNL A   1      45.860  25.323  28.953  1.00  0.00     0.034 A 
BRANCH  47  61
ATOM     61  C   UNL A   1      42.561  21.524  26.926  1.00  0.00     0.023 A 
ATOM     62  C   UNL A   1      41.969  20.289  27.336  1.00  0.00     0.012 A 
ATOM     63  C   UNL A   1      43.527  21.453  25.911  1.00  0.00     0.148 A 
ATOM     64  C   UNL A   1      42.419  19.048  26.890  1.00  0.00     0.002 A 
ATOM     65  C   UNL A   1      43.932  20.204  25.419  1.00  0.00     0.091 A 
ATOM     66  F   UNL A   1      44.117  22.568  25.473  1.00  0.00    -0.205 F 
ATOM     67  C   UNL A   1      43.418  19.007  25.939  1.00  0.00     0.022 A 
BRANCH  65  68
ATOM     68  S   UNL A   1      45.133  20.036  24.092  1.00  0.00     0.127 S 
ATOM     69  O   UNL A   1      44.633  20.988  23.105  1.00  0.00    -0.237 OA
ATOM     70  O   UNL A   1      46.377  20.445  24.753  1.00  0.00    -0.237 OA
ATOM     71  O   UNL A   1      45.102  18.629  23.720  1.00  0.00    -0.744 OA
ENDBRANCH  65  68
ENDBRANCH  47  61
BRANCH  48  72
ATOM     72  C   UNL A   1      45.650  30.081  32.053  1.00  0.00     0.023 A 
ATOM     73  C   UNL A   1      46.719  30.916  31.700  1.00  0.00     0.012 A 
ATOM     74  C   UNL A   1      45.146  30.251  33.377  1.00  0.00     0.148 A 
ATOM     75  C   UNL A   1      47.176  31.931  32.562  1.00  0.00     0.002 A 
ATOM     76  C   UNL A   1      45.529  31.308  34.192  1.00  0.00     0.091 A 
ATOM     77  F   UNL A   1      44.298  29.354  33.888  1.00  0.00    -0.205 F 
ATOM     78  C   UNL A   1      46.557  32.156  33.789  1.00  0.00     0.022 A 
BRANCH  76  79
ATOM     79  S   UNL A   1      44.652  31.698  35.719  1.00  0.00     0.127 S 
ATOM     80  O   UNL A   1      43.259  31.729  35.279  1.00  0.00    -0.237 OA
ATOM     81  O   UNL A   1      45.008  30.554  36.558  1.00  0.00    -0.237 OA
ATOM     82  O   UNL A   1      45.177  32.976  36.184  1.00  0.00    -0.744 OA
ENDBRANCH  76  79
ENDBRANCH  48  72
BRANCH  60  83
ATOM     83  C   UNL A   1      45.936  25.973  27.572  1.00  0.00     0.023 A 
ATOM     84  C   UNL A   1      44.718  26.250  26.916  1.00  0.00     0.012 A 
ATOM     85  C   UNL A   1      47.128  26.190  26.841  1.00  0.00     0.148 A 
ATOM     86  C   UNL A   1      44.685  26.695  25.591  1.00  0.00     0.002 A 
ATOM     87  C   UNL A   1      47.098  26.622  25.513  1.00  0.00     0.091 A 
ATOM     88  F   UNL A   1      48.290  25.957  27.444  1.00  0.00    -0.205 F 
ATOM     89  C   UNL A   1      45.871  26.876  24.888  1.00  0.00     0.022 A 
BRANCH  87  90
ATOM     90  S   UNL A   1      48.569  26.811  24.480  1.00  0.00     0.127 S 
ATOM     91  O   UNL A   1      48.036  26.623  23.129  1.00  0.00    -0.237 OA
ATOM     92  O   UNL A   1      48.982  28.180  24.773  1.00  0.00    -0.237 OA
ATOM     93  O   UNL A   1      49.513  25.777  24.889  1.00  0.00    -0.744 OA
ENDBRANCH  87  90
ENDBRANCH  60  83
ENDBRANCH  34  35
ENDBRANCH  26  29
ENDBRANCH  24  25
ENDBRANCH  23  24
ENDBRANCH   1  23
TORSDOF 18
ENDMDL
