MODEL 1
REMARK VINA RESULT:     -12.5      0.000      0.000
REMARK SMILES Cc1ccc(C)c(-n2nc(C)c(/C=C(/C#N)C(=O)NCCCCNC(=O)c3ccc(-c4c5nc(c(-c6cccc(S(=O)(=O)[O-])c6F)c6ccc([nH]6)c(-c6cccc(S(=O)(=O)[O-])c6F)c6nc(c(-c7cccc(S(=O)(=O)[O-])c7F)c7ccc4[nH]7)C=C6)C=C5)cc3)c2Cl)c1
REMARK SMILES IDX 22 1 21 2 20 3 19 4 17 5 18 6 14 8 13 9 12 10 8 11 9 12
REMARK SMILES IDX 90 13 10 14 91 15 11 16 7 17 1 18 2 19 3 20 92 21 4 22 5 23
REMARK SMILES IDX 6 24 15 25 16 26 23 27 24 28 25 29 26 31 27 32 28 33 89 34
REMARK SMILES IDX 29 35 88 36 30 37 31 38 32 39 82 40 33 41 87 42 81 43 83 44
REMARK SMILES IDX 34 45 86 46 80 47 79 48 35 50 67 51 47 52 66 53 48 54 51 55
REMARK SMILES IDX 65 56 84 57 49 58 50 59 64 61 85 62 52 63 36 64 37 65 45 66
REMARK SMILES IDX 38 67 40 68 46 69 39 70 41 71 42 72 43 73 44 74 68 75 69 76
REMARK SMILES IDX 77 77 70 78 72 79 78 80 71 81 73 82 74 83 75 84 76 85 53 86
REMARK SMILES IDX 54 87 62 88 55 89 57 90 63 91 56 92 58 93 59 94 60 95 61 96
REMARK H PARENT 19 7 24 30 83 49 51 60
REMARK Flexibility Score: inf
ROOT
ATOM      1  C   UNL A   1      37.146  20.814  24.855  1.00  0.00     0.023 C 
ENDROOT
BRANCH   1   2
ATOM      2  C   UNL A   1      36.235  21.974  24.407  1.00  0.00     0.023 C 
BRANCH   2   3
ATOM      3  C   UNL A   1      35.495  22.729  25.532  1.00  0.00     0.116 C 
BRANCH   3   4
ATOM      4  N   UNL A   1      35.016  21.827  26.562  1.00  0.00    -0.351 N 
ATOM      5  C   UNL A   1      33.736  21.418  26.813  1.00  0.00     0.261 C 
ATOM      6  O   UNL A   1      33.301  21.590  27.952  1.00  0.00    -0.268 OA
ATOM      7  H   UNL A   1      35.706  21.460  27.160  1.00  0.00     0.163 HD
BRANCH   5   8
ATOM      8  C   UNL A   1      32.864  20.879  25.712  1.00  0.00     0.117 C 
ATOM      9  C   UNL A   1      31.903  21.634  25.154  1.00  0.00     0.038 C 
BRANCH   9  10
ATOM     10  C   UNL A   1      31.403  22.949  25.522  1.00  0.00     0.036 A 
ATOM     11  N   UNL A   1      31.129  25.174  25.412  1.00  0.00    -0.221 N 
ATOM     12  N   UNL A   1      30.458  24.800  26.521  1.00  0.00    -0.171 NA
ATOM     13  C   UNL A   1      31.823  24.102  24.885  1.00  0.00     0.140 A 
ATOM     14  C   UNL A   1      30.438  23.458  26.466  1.00  0.00     0.069 A 
ATOM     15  Cl  UNL A   1      33.070  24.329  23.726  1.00  0.00    -0.061 Cl
ATOM     16  C   UNL A   1      29.426  22.809  27.349  1.00  0.00     0.069 C 
BRANCH  11  17
ATOM     17  C   UNL A   1      31.088  26.531  24.977  1.00  0.00     0.069 A 
ATOM     18  C   UNL A   1      28.766  28.643  22.799  1.00  0.00     0.044 C 
ATOM     19  C   UNL A   1      29.908  28.236  23.680  1.00  0.00    -0.049 A 
ATOM     20  C   UNL A   1      30.878  29.168  24.049  1.00  0.00     0.004 A 
ATOM     21  C   UNL A   1      30.014  26.924  24.154  1.00  0.00     0.032 A 
ATOM     22  C   UNL A   1      31.923  28.800  24.900  1.00  0.00     0.006 A 
ATOM     23  C   UNL A   1      32.050  27.482  25.378  1.00  0.00    -0.025 A 
ATOM     24  C   UNL A   1      33.224  27.202  26.279  1.00  0.00     0.047 C 
ENDBRANCH  11  17
ENDBRANCH   9  10
BRANCH   8  25
ATOM     25  C   UNL A   1      33.581  19.712  25.051  1.00  0.00     0.105 C 
ATOM     26  N   UNL A   1      34.175  18.744  24.502  1.00  0.00    -0.192 NA
ENDBRANCH   8  25
ENDBRANCH   5   8
ENDBRANCH   3   4
ENDBRANCH   2   3
ENDBRANCH   1   2
BRANCH   1  27
ATOM     27  C   UNL A   1      38.548  21.174  25.375  1.00  0.00     0.116 C 
BRANCH  27  28
ATOM     28  N   UNL A   1      39.458  20.020  25.529  1.00  0.00    -0.352 N 
ATOM     29  C   UNL A   1      40.797  19.897  25.892  1.00  0.00     0.251 C 
ATOM     30  H   UNL A   1      39.027  19.155  25.335  1.00  0.00     0.163 HD
ATOM     31  O   UNL A   1      41.391  18.846  25.664  1.00  0.00    -0.269 OA
BRANCH  29  32
ATOM     32  C   UNL A   1      41.507  20.990  26.595  1.00  0.00     0.039 A 
ATOM     33  C   UNL A   1      42.165  20.887  27.824  1.00  0.00     0.014 A 
ATOM     34  C   UNL A   1      41.306  22.250  26.101  1.00  0.00     0.014 A 
ATOM     35  C   UNL A   1      42.480  22.071  28.525  1.00  0.00     0.010 A 
ATOM     36  C   UNL A   1      42.022  23.311  26.544  1.00  0.00     0.010 A 
ATOM     37  C   UNL A   1      42.314  23.301  27.886  1.00  0.00    -0.014 A 
BRANCH  37  38
ATOM     38  C   UNL A   1      42.500  24.631  28.449  1.00  0.00     0.031 A 
ATOM     39  C   UNL A   1      41.331  25.528  28.275  1.00  0.00     0.074 A 
ATOM     40  C   UNL A   1      43.372  24.881  29.453  1.00  0.00     0.049 A 
ATOM     41  N   UNL A   1      41.158  26.434  27.369  1.00  0.00    -0.248 NA
ATOM     42  C   UNL A   1      40.112  25.205  29.040  1.00  0.00     0.031 C 
ATOM     43  C   UNL A   1      44.240  23.940  30.174  1.00  0.00     0.029 A 
ATOM     44  N   UNL A   1      43.551  26.043  30.142  1.00  0.00    -0.354 N 
ATOM     45  C   UNL A   1      39.879  26.930  27.622  1.00  0.00     0.074 A 
ATOM     46  C   UNL A   1      39.210  25.884  28.335  1.00  0.00     0.031 C 
ATOM     47  C   UNL A   1      44.700  24.531  31.305  1.00  0.00     0.029 A 
ATOM     48  C   UNL A   1      44.259  25.918  31.333  1.00  0.00     0.049 A 
ATOM     49  H   UNL A   1      43.205  26.907  29.821  1.00  0.00     0.167 HD
ATOM     50  C   UNL A   1      39.591  28.263  27.575  1.00  0.00     0.034 A 
ATOM     51  C   UNL A   1      44.395  26.874  32.289  1.00  0.00     0.034 A 
ATOM     52  C   UNL A   1      40.711  28.998  27.022  1.00  0.00     0.049 A 
ATOM     53  C   UNL A   1      43.952  28.160  31.717  1.00  0.00     0.074 A 
ATOM     54  C   UNL A   1      41.461  28.929  25.862  1.00  0.00     0.029 A 
ATOM     55  N   UNL A   1      41.472  29.722  27.913  1.00  0.00    -0.354 N 
ATOM     56  N   UNL A   1      44.605  28.802  30.794  1.00  0.00    -0.248 NA
ATOM     57  C   UNL A   1      42.557  28.535  31.886  1.00  0.00     0.031 C 
ATOM     58  C   UNL A   1      42.801  29.202  26.269  1.00  0.00     0.029 A 
ATOM     59  C   UNL A   1      42.789  29.485  27.635  1.00  0.00     0.049 A 
ATOM     60  H   UNL A   1      41.128  30.307  28.626  1.00  0.00     0.167 HD
ATOM     61  C   UNL A   1      43.612  29.319  29.977  1.00  0.00     0.074 A 
ATOM     62  C   UNL A   1      42.383  29.236  30.762  1.00  0.00     0.031 C 
ATOM     63  C   UNL A   1      43.828  29.463  28.638  1.00  0.00     0.034 A 
BRANCH  50  64
ATOM     64  C   UNL A   1      38.518  28.984  28.396  1.00  0.00     0.023 A 
ATOM     65  C   UNL A   1      37.720  29.920  27.693  1.00  0.00     0.012 A 
ATOM     66  C   UNL A   1      38.386  29.000  29.805  1.00  0.00     0.148 A 
ATOM     67  C   UNL A   1      36.953  30.889  28.350  1.00  0.00     0.002 A 
ATOM     68  C   UNL A   1      37.589  29.936  30.457  1.00  0.00     0.091 A 
ATOM     69  F   UNL A   1      39.081  28.169  30.572  1.00  0.00    -0.205 F 
ATOM     70  C   UNL A   1      36.899  30.908  29.735  1.00  0.00     0.022 A 
BRANCH  68  71
ATOM     71  S   UNL A   1      37.465  29.981  32.254  1.00  0.00     0.127 S 
ATOM     72  O   UNL A   1      38.770  30.526  32.618  1.00  0.00    -0.237 OA
ATOM     73  O   UNL A   1      36.334  30.886  32.452  1.00  0.00    -0.237 OA
ATOM     74  O   UNL A   1      37.213  28.608  32.676  1.00  0.00    -0.744 OA
ENDBRANCH  68  71
ENDBRANCH  50  64
BRANCH  51  75
ATOM     75  C   UNL A   1      44.636  26.770  33.740  1.00  0.00     0.023 A 
ATOM     76  C   UNL A   1      45.846  27.209  34.316  1.00  0.00     0.012 A 
ATOM     77  C   UNL A   1      43.563  26.504  34.595  1.00  0.00     0.148 A 
ATOM     78  C   UNL A   1      45.970  27.383  35.704  1.00  0.00     0.002 A 
ATOM     79  C   UNL A   1      43.704  26.648  35.971  1.00  0.00     0.091 A 
ATOM     80  F   UNL A   1      42.370  26.210  34.056  1.00  0.00    -0.205 F 
ATOM     81  C   UNL A   1      44.896  27.098  36.537  1.00  0.00     0.022 A 
BRANCH  79  82
ATOM     82  S   UNL A   1      42.363  26.158  37.027  1.00  0.00     0.127 S 
ATOM     83  O   UNL A   1      42.095  24.785  36.599  1.00  0.00    -0.237 OA
ATOM     84  O   UNL A   1      42.937  26.301  38.360  1.00  0.00    -0.237 OA
ATOM     85  O   UNL A   1      41.324  27.111  36.662  1.00  0.00    -0.744 OA
ENDBRANCH  79  82
ENDBRANCH  51  75
BRANCH  63  86
ATOM     86  C   UNL A   1      45.239  29.311  28.135  1.00  0.00     0.023 A 
ATOM     87  C   UNL A   1      46.183  30.359  28.201  1.00  0.00     0.012 A 
ATOM     88  C   UNL A   1      45.669  28.031  27.758  1.00  0.00     0.148 A 
ATOM     89  C   UNL A   1      47.526  30.133  27.892  1.00  0.00     0.002 A 
ATOM     90  C   UNL A   1      47.013  27.797  27.503  1.00  0.00     0.091 A 
ATOM     91  F   UNL A   1      44.755  27.051  27.689  1.00  0.00    -0.205 F 
ATOM     92  C   UNL A   1      47.945  28.847  27.561  1.00  0.00     0.022 A 
BRANCH  90  93
ATOM     93  S   UNL A   1      47.635  26.141  27.214  1.00  0.00     0.127 S 
ATOM     94  O   UNL A   1      47.325  25.473  28.477  1.00  0.00    -0.237 OA
ATOM     95  O   UNL A   1      46.830  25.700  26.074  1.00  0.00    -0.237 OA
ATOM     96  O   UNL A   1      49.054  26.293  26.917  1.00  0.00    -0.744 OA
ENDBRANCH  90  93
ENDBRANCH  63  86
ENDBRANCH  37  38
ENDBRANCH  29  32
ENDBRANCH  27  28
ENDBRANCH   1  27
TORSDOF 17
ENDMDL
MODEL 2
REMARK VINA RESULT:     -12.5      1.714      2.008
REMARK SMILES Cc1ccc(C)c(-n2nc(C)c(/C=C(/C#N)C(=O)NCCCCNC(=O)c3ccc(-c4c5nc(c(-c6cccc(S(=O)(=O)[O-])c6F)c6ccc([nH]6)c(-c6cccc(S(=O)(=O)[O-])c6F)c6nc(c(-c7cccc(S(=O)(=O)[O-])c7F)c7ccc4[nH]7)C=C6)C=C5)cc3)c2Cl)c1
REMARK SMILES IDX 22 1 21 2 20 3 19 4 17 5 18 6 14 8 13 9 12 10 8 11 9 12
REMARK SMILES IDX 90 13 10 14 91 15 11 16 7 17 1 18 2 19 3 20 92 21 4 22 5 23
REMARK SMILES IDX 6 24 15 25 16 26 23 27 24 28 25 29 26 31 27 32 28 33 89 34
REMARK SMILES IDX 29 35 88 36 30 37 31 38 32 39 82 40 33 41 87 42 81 43 83 44
REMARK SMILES IDX 34 45 86 46 80 47 79 48 35 50 67 51 47 52 66 53 48 54 51 55
REMARK SMILES IDX 65 56 84 57 49 58 50 59 64 61 85 62 52 63 36 64 37 65 45 66
REMARK SMILES IDX 38 67 40 68 46 69 39 70 41 71 42 72 43 73 44 74 68 75 69 76
REMARK SMILES IDX 77 77 70 78 72 79 78 80 71 81 73 82 74 83 75 84 76 85 53 86
REMARK SMILES IDX 54 87 62 88 55 89 57 90 63 91 56 92 58 93 59 94 60 95 61 96
REMARK H PARENT 19 7 24 30 83 49 51 60
REMARK Flexibility Score: inf
ROOT
ATOM      1  C   UNL A   1      38.027  21.023  25.699  1.00  0.00     0.023 C 
ENDROOT
BRANCH   1   2
ATOM      2  C   UNL A   1      37.378  22.117  24.828  1.00  0.00     0.023 C 
BRANCH   2   3
ATOM      3  C   UNL A   1      35.903  22.448  25.141  1.00  0.00     0.116 C 
BRANCH   3   4
ATOM      4  N   UNL A   1      35.418  21.708  26.290  1.00  0.00    -0.351 N 
ATOM      5  C   UNL A   1      34.128  21.419  26.639  1.00  0.00     0.261 C 
ATOM      6  O   UNL A   1      33.758  21.754  27.766  1.00  0.00    -0.268 OA
ATOM      7  H   UNL A   1      36.111  21.369  26.902  1.00  0.00     0.163 HD
BRANCH   5   8
ATOM      8  C   UNL A   1      33.173  20.815  25.647  1.00  0.00     0.117 C 
ATOM      9  C   UNL A   1      32.146  21.523  25.150  1.00  0.00     0.038 C 
BRANCH   9  10
ATOM     10  C   UNL A   1      31.649  22.842  25.507  1.00  0.00     0.036 A 
ATOM     11  N   UNL A   1      31.388  25.068  25.387  1.00  0.00    -0.221 N 
ATOM     12  N   UNL A   1      30.700  24.701  26.488  1.00  0.00    -0.171 NA
ATOM     13  C   UNL A   1      32.083  23.991  24.873  1.00  0.00     0.140 A 
ATOM     14  C   UNL A   1      30.673  23.359  26.436  1.00  0.00     0.069 A 
ATOM     15  Cl  UNL A   1      33.346  24.207  23.729  1.00  0.00    -0.061 Cl
ATOM     16  C   UNL A   1      29.646  22.718  27.308  1.00  0.00     0.069 C 
BRANCH  11  17
ATOM     17  C   UNL A   1      31.359  26.424  24.948  1.00  0.00     0.069 A 
ATOM     18  C   UNL A   1      28.962  28.599  22.918  1.00  0.00     0.044 C 
ATOM     19  C   UNL A   1      30.148  28.160  23.722  1.00  0.00    -0.049 A 
ATOM     20  C   UNL A   1      31.169  29.063  24.019  1.00  0.00     0.004 A 
ATOM     21  C   UNL A   1      30.245  26.846  24.196  1.00  0.00     0.032 A 
ATOM     22  C   UNL A   1      32.257  28.665  24.801  1.00  0.00     0.006 A 
ATOM     23  C   UNL A   1      32.375  27.345  25.277  1.00  0.00    -0.025 A 
ATOM     24  C   UNL A   1      33.598  27.033  26.099  1.00  0.00     0.047 C 
ENDBRANCH  11  17
ENDBRANCH   9  10
BRANCH   8  25
ATOM     25  C   UNL A   1      33.856  19.635  24.972  1.00  0.00     0.105 C 
ATOM     26  N   UNL A   1      34.422  18.658  24.412  1.00  0.00    -0.192 NA
ENDBRANCH   8  25
ENDBRANCH   5   8
ENDBRANCH   3   4
ENDBRANCH   2   3
ENDBRANCH   1   2
BRANCH   1  27
ATOM     27  C   UNL A   1      38.307  19.663  25.036  1.00  0.00     0.116 C 
BRANCH  27  28
ATOM     28  N   UNL A   1      39.489  18.955  25.569  1.00  0.00    -0.352 N 
ATOM     29  C   UNL A   1      40.764  19.368  25.945  1.00  0.00     0.251 C 
ATOM     30  H   UNL A   1      39.346  17.986  25.681  1.00  0.00     0.163 HD
ATOM     31  O   UNL A   1      41.655  18.532  26.084  1.00  0.00    -0.269 OA
BRANCH  29  32
ATOM     32  C   UNL A   1      41.059  20.790  26.232  1.00  0.00     0.039 A 
ATOM     33  C   UNL A   1      41.863  21.637  25.462  1.00  0.00     0.014 A 
ATOM     34  C   UNL A   1      40.694  21.239  27.472  1.00  0.00     0.014 A 
ATOM     35  C   UNL A   1      42.333  22.836  26.039  1.00  0.00     0.010 A 
ATOM     36  C   UNL A   1      40.754  22.552  27.800  1.00  0.00     0.010 A 
ATOM     37  C   UNL A   1      41.822  23.238  27.274  1.00  0.00    -0.014 A 
BRANCH  37  38
ATOM     38  C   UNL A   1      42.225  24.386  28.076  1.00  0.00     0.031 A 
ATOM     39  C   UNL A   1      41.226  25.481  28.106  1.00  0.00     0.074 A 
ATOM     40  C   UNL A   1      43.121  24.288  29.085  1.00  0.00     0.049 A 
ATOM     41  N   UNL A   1      41.213  26.561  27.395  1.00  0.00    -0.248 NA
ATOM     42  C   UNL A   1      39.964  25.224  28.827  1.00  0.00     0.031 C 
ATOM     43  C   UNL A   1      43.812  23.096  29.591  1.00  0.00     0.029 A 
ATOM     44  N   UNL A   1      43.489  25.250  29.979  1.00  0.00    -0.354 N 
ATOM     45  C   UNL A   1      40.035  27.204  27.771  1.00  0.00     0.074 A 
ATOM     46  C   UNL A   1      39.195  26.167  28.289  1.00  0.00     0.031 C 
ATOM     47  C   UNL A   1      44.358  23.372  30.801  1.00  0.00     0.029 A 
ATOM     48  C   UNL A   1      44.157  24.781  31.105  1.00  0.00     0.049 A 
ATOM     49  H   UNL A   1      43.295  26.205  29.837  1.00  0.00     0.167 HD
ATOM     50  C   UNL A   1      39.977  28.551  27.987  1.00  0.00     0.034 A 
ATOM     51  C   UNL A   1      44.446  25.499  32.222  1.00  0.00     0.034 A 
ATOM     52  C   UNL A   1      41.208  29.182  27.555  1.00  0.00     0.049 A 
ATOM     53  C   UNL A   1      44.230  26.927  31.918  1.00  0.00     0.074 A 
ATOM     54  C   UNL A   1      41.942  29.213  26.385  1.00  0.00     0.029 A 
ATOM     55  N   UNL A   1      42.074  29.583  28.548  1.00  0.00    -0.354 N 
ATOM     56  N   UNL A   1      44.988  27.617  31.118  1.00  0.00    -0.248 NA
ATOM     57  C   UNL A   1      42.917  27.490  32.191  1.00  0.00     0.031 C 
ATOM     58  C   UNL A   1      43.307  29.176  26.801  1.00  0.00     0.029 A 
ATOM     59  C   UNL A   1      43.334  29.188  28.195  1.00  0.00     0.049 A 
ATOM     60  H   UNL A   1      41.829  30.069  29.369  1.00  0.00     0.167 HD
ATOM     61  C   UNL A   1      44.102  28.440  30.440  1.00  0.00     0.074 A 
ATOM     62  C   UNL A   1      42.872  28.413  31.227  1.00  0.00     0.031 C 
ATOM     63  C   UNL A   1      44.348  28.801  29.149  1.00  0.00     0.034 A 
BRANCH  50  64
ATOM     64  C   UNL A   1      39.035  29.268  28.958  1.00  0.00     0.023 A 
ATOM     65  C   UNL A   1      38.385  30.423  28.456  1.00  0.00     0.012 A 
ATOM     66  C   UNL A   1      38.919  29.056  30.352  1.00  0.00     0.148 A 
ATOM     67  C   UNL A   1      37.782  31.365  29.298  1.00  0.00     0.002 A 
ATOM     68  C   UNL A   1      38.282  29.971  31.185  1.00  0.00     0.091 A 
ATOM     69  F   UNL A   1      39.485  28.007  30.939  1.00  0.00    -0.205 F 
ATOM     70  C   UNL A   1      37.744  31.147  30.667  1.00  0.00     0.022 A 
BRANCH  68  71
ATOM     71  S   UNL A   1      38.183  29.716  32.966  1.00  0.00     0.127 S 
ATOM     72  O   UNL A   1      37.486  30.927  33.390  1.00  0.00    -0.237 OA
ATOM     73  O   UNL A   1      37.398  28.485  33.047  1.00  0.00    -0.237 OA
ATOM     74  O   UNL A   1      39.558  29.580  33.431  1.00  0.00    -0.744 OA
ENDBRANCH  68  71
ENDBRANCH  50  64
BRANCH  51  75
ATOM     75  C   UNL A   1      44.657  25.080  33.620  1.00  0.00     0.023 A 
ATOM     76  C   UNL A   1      43.570  24.788  34.470  1.00  0.00     0.012 A 
ATOM     77  C   UNL A   1      45.933  24.691  34.033  1.00  0.00     0.148 A 
ATOM     78  C   UNL A   1      43.759  24.119  35.689  1.00  0.00     0.002 A 
ATOM     79  C   UNL A   1      46.116  24.056  35.258  1.00  0.00     0.091 A 
ATOM     80  F   UNL A   1      46.959  24.845  33.183  1.00  0.00    -0.205 F 
ATOM     81  C   UNL A   1      45.038  23.754  36.089  1.00  0.00     0.022 A 
BRANCH  79  82
ATOM     82  S   UNL A   1      47.769  23.713  35.807  1.00  0.00     0.127 S 
ATOM     83  O   UNL A   1      48.252  22.755  34.813  1.00  0.00    -0.237 OA
ATOM     84  O   UNL A   1      48.398  25.029  35.772  1.00  0.00    -0.237 OA
ATOM     85  O   UNL A   1      47.538  23.140  37.127  1.00  0.00    -0.744 OA
ENDBRANCH  79  82
ENDBRANCH  51  75
BRANCH  63  86
ATOM     86  C   UNL A   1      45.717  28.515  28.589  1.00  0.00     0.023 A 
ATOM     87  C   UNL A   1      46.826  29.350  28.844  1.00  0.00     0.012 A 
ATOM     88  C   UNL A   1      45.922  27.285  27.948  1.00  0.00     0.148 A 
ATOM     89  C   UNL A   1      48.113  28.965  28.460  1.00  0.00     0.002 A 
ATOM     90  C   UNL A   1      47.208  26.882  27.617  1.00  0.00     0.091 A 
ATOM     91  F   UNL A   1      44.852  26.512  27.704  1.00  0.00    -0.205 F 
ATOM     92  C   UNL A   1      48.307  27.722  27.863  1.00  0.00     0.022 A 
BRANCH  90  93
ATOM     93  S   UNL A   1      47.536  25.239  26.980  1.00  0.00     0.127 S 
ATOM     94  O   UNL A   1      47.091  25.354  25.592  1.00  0.00    -0.237 OA
ATOM     95  O   UNL A   1      48.984  25.120  27.152  1.00  0.00    -0.237 OA
ATOM     96  O   UNL A   1      46.762  24.326  27.813  1.00  0.00    -0.744 OA
ENDBRANCH  90  93
ENDBRANCH  63  86
ENDBRANCH  37  38
ENDBRANCH  29  32
ENDBRANCH  27  28
ENDBRANCH   1  27
TORSDOF 17
ENDMDL
MODEL 3
REMARK VINA RESULT:     -12.0      2.936      7.959
REMARK SMILES Cc1ccc(C)c(-n2nc(C)c(/C=C(/C#N)C(=O)NCCCCNC(=O)c3ccc(-c4c5nc(c(-c6cccc(S(=O)(=O)[O-])c6F)c6ccc([nH]6)c(-c6cccc(S(=O)(=O)[O-])c6F)c6nc(c(-c7cccc(S(=O)(=O)[O-])c7F)c7ccc4[nH]7)C=C6)C=C5)cc3)c2Cl)c1
REMARK SMILES IDX 22 1 21 2 20 3 19 4 17 5 18 6 14 8 13 9 12 10 8 11 9 12
REMARK SMILES IDX 90 13 10 14 91 15 11 16 7 17 1 18 2 19 3 20 92 21 4 22 5 23
REMARK SMILES IDX 6 24 15 25 16 26 23 27 24 28 25 29 26 31 27 32 28 33 89 34
REMARK SMILES IDX 29 35 88 36 30 37 31 38 32 39 82 40 33 41 87 42 81 43 83 44
REMARK SMILES IDX 34 45 86 46 80 47 79 48 35 50 67 51 47 52 66 53 48 54 51 55
REMARK SMILES IDX 65 56 84 57 49 58 50 59 64 61 85 62 52 63 36 64 37 65 45 66
REMARK SMILES IDX 38 67 40 68 46 69 39 70 41 71 42 72 43 73 44 74 68 75 69 76
REMARK SMILES IDX 77 77 70 78 72 79 78 80 71 81 73 82 74 83 75 84 76 85 53 86
REMARK SMILES IDX 54 87 62 88 55 89 57 90 63 91 56 92 58 93 59 94 60 95 61 96
REMARK H PARENT 19 7 24 30 83 49 51 60
REMARK Flexibility Score: inf
ROOT
ATOM      1  C   UNL A   1      32.468  31.010  26.871  1.00  0.00     0.023 C 
ENDROOT
BRANCH   1   2
ATOM      2  C   UNL A   1      31.795  29.709  26.391  1.00  0.00     0.023 C 
BRANCH   2   3
ATOM      3  C   UNL A   1      32.630  28.820  25.444  1.00  0.00     0.116 C 
BRANCH   3   4
ATOM      4  N   UNL A   1      32.816  29.441  24.147  1.00  0.00    -0.351 N 
ATOM      5  C   UNL A   1      32.483  28.959  22.912  1.00  0.00     0.261 C 
ATOM      6  O   UNL A   1      33.377  28.901  22.067  1.00  0.00    -0.268 OA
ATOM      7  H   UNL A   1      33.240  30.330  24.158  1.00  0.00     0.163 HD
BRANCH   5   8
ATOM      8  C   UNL A   1      31.105  28.423  22.635  1.00  0.00     0.117 C 
ATOM      9  C   UNL A   1      30.887  27.105  22.495  1.00  0.00     0.038 C 
BRANCH   9  10
ATOM     10  C   UNL A   1      31.825  25.996  22.424  1.00  0.00     0.036 A 
ATOM     11  N   UNL A   1      32.979  24.202  23.121  1.00  0.00    -0.221 N 
ATOM     12  N   UNL A   1      33.460  24.461  21.888  1.00  0.00    -0.171 NA
ATOM     13  C   UNL A   1      32.107  25.198  23.517  1.00  0.00     0.140 A 
ATOM     14  C   UNL A   1      32.625  25.387  21.389  1.00  0.00     0.069 A 
ATOM     15  Cl  UNL A   1      31.638  25.373  25.160  1.00  0.00    -0.061 Cl
ATOM     16  C   UNL A   1      32.689  25.557  19.908  1.00  0.00     0.069 C 
BRANCH  11  17
ATOM     17  C   UNL A   1      33.429  23.052  23.835  1.00  0.00     0.069 A 
ATOM     18  C   UNL A   1      32.559  19.332  23.867  1.00  0.00     0.044 C 
ATOM     19  C   UNL A   1      33.208  20.643  24.193  1.00  0.00    -0.049 A 
ATOM     20  C   UNL A   1      34.214  20.708  25.158  1.00  0.00     0.004 A 
ATOM     21  C   UNL A   1      32.828  21.815  23.530  1.00  0.00     0.032 A 
ATOM     22  C   UNL A   1      34.846  21.923  25.436  1.00  0.00     0.006 A 
ATOM     23  C   UNL A   1      34.468  23.113  24.786  1.00  0.00    -0.025 A 
ATOM     24  C   UNL A   1      35.214  24.361  25.178  1.00  0.00     0.047 C 
ENDBRANCH  11  17
ENDBRANCH   9  10
BRANCH   8  25
ATOM     25  C   UNL A   1      30.082  29.456  23.084  1.00  0.00     0.105 C 
ATOM     26  N   UNL A   1      29.234  30.311  23.455  1.00  0.00    -0.192 NA
ENDBRANCH   8  25
ENDBRANCH   5   8
ENDBRANCH   3   4
ENDBRANCH   2   3
ENDBRANCH   1   2
BRANCH   1  27
ATOM     27  C   UNL A   1      33.939  30.925  27.314  1.00  0.00     0.116 C 
BRANCH  27  28
ATOM     28  N   UNL A   1      34.302  31.850  28.407  1.00  0.00    -0.352 N 
ATOM     29  C   UNL A   1      35.212  31.780  29.458  1.00  0.00     0.251 C 
ATOM     30  H   UNL A   1      33.793  32.694  28.389  1.00  0.00     0.163 HD
ATOM     31  O   UNL A   1      35.114  32.567  30.397  1.00  0.00    -0.269 OA
BRANCH  29  32
ATOM     32  C   UNL A   1      36.330  30.810  29.445  1.00  0.00     0.039 A 
ATOM     33  C   UNL A   1      36.327  29.541  30.032  1.00  0.00     0.014 A 
ATOM     34  C   UNL A   1      37.537  31.292  29.016  1.00  0.00     0.014 A 
ATOM     35  C   UNL A   1      37.560  28.888  30.244  1.00  0.00     0.010 A 
ATOM     36  C   UNL A   1      38.594  30.474  28.798  1.00  0.00     0.010 A 
ATOM     37  C   UNL A   1      38.717  29.429  29.682  1.00  0.00    -0.014 A 
BRANCH  37  38
ATOM     38  C   UNL A   1      40.089  28.966  29.844  1.00  0.00     0.031 A 
ATOM     39  C   UNL A   1      40.577  29.005  31.244  1.00  0.00     0.074 A 
ATOM     40  C   UNL A   1      40.679  28.120  28.968  1.00  0.00     0.049 A 
ATOM     41  N   UNL A   1      41.303  29.917  31.804  1.00  0.00    -0.248 NA
ATOM     42  C   UNL A   1      39.978  28.049  32.195  1.00  0.00     0.031 C 
ATOM     43  C   UNL A   1      40.110  27.493  27.768  1.00  0.00     0.029 A 
ATOM     44  N   UNL A   1      41.900  27.523  29.068  1.00  0.00    -0.354 N 
ATOM     45  C   UNL A   1      41.417  29.497  33.129  1.00  0.00     0.074 A 
ATOM     46  C   UNL A   1      40.290  28.641  33.345  1.00  0.00     0.031 C 
ATOM     47  C   UNL A   1      40.912  26.475  27.369  1.00  0.00     0.029 A 
ATOM     48  C   UNL A   1      42.102  26.448  28.208  1.00  0.00     0.049 A 
ATOM     49  H   UNL A   1      42.588  27.830  29.702  1.00  0.00     0.167 HD
ATOM     50  C   UNL A   1      42.594  29.565  33.817  1.00  0.00     0.034 A 
ATOM     51  C   UNL A   1      43.139  25.572  28.250  1.00  0.00     0.034 A 
ATOM     52  C   UNL A   1      43.574  30.316  33.059  1.00  0.00     0.049 A 
ATOM     53  C   UNL A   1      44.176  26.131  29.138  1.00  0.00     0.074 A 
ATOM     54  C   UNL A   1      43.624  31.571  32.482  1.00  0.00     0.029 A 
ATOM     55  N   UNL A   1      44.571  29.587  32.450  1.00  0.00    -0.354 N 
ATOM     56  N   UNL A   1      44.896  27.173  28.840  1.00  0.00    -0.248 NA
ATOM     57  C   UNL A   1      44.133  25.772  30.546  1.00  0.00     0.031 C 
ATOM     58  C   UNL A   1      44.321  31.386  31.250  1.00  0.00     0.029 A 
ATOM     59  C   UNL A   1      44.712  30.050  31.171  1.00  0.00     0.049 A 
ATOM     60  H   UNL A   1      45.090  28.859  32.862  1.00  0.00     0.167 HD
ATOM     61  C   UNL A   1      45.016  27.854  30.041  1.00  0.00     0.074 A 
ATOM     62  C   UNL A   1      44.644  26.888  31.072  1.00  0.00     0.031 C 
ATOM     63  C   UNL A   1      45.093  29.216  30.055  1.00  0.00     0.034 A 
BRANCH  50  64
ATOM     64  C   UNL A   1      43.035  28.626  34.944  1.00  0.00     0.023 A 
ATOM     65  C   UNL A   1      43.532  29.250  36.114  1.00  0.00     0.012 A 
ATOM     66  C   UNL A   1      43.223  27.226  34.867  1.00  0.00     0.148 A 
ATOM     67  C   UNL A   1      44.281  28.554  37.070  1.00  0.00     0.002 A 
ATOM     68  C   UNL A   1      43.930  26.525  35.839  1.00  0.00     0.091 A 
ATOM     69  F   UNL A   1      42.799  26.530  33.818  1.00  0.00    -0.205 F 
ATOM     70  C   UNL A   1      44.494  27.191  36.925  1.00  0.00     0.022 A 
BRANCH  68  71
ATOM     71  S   UNL A   1      44.209  24.750  35.708  1.00  0.00     0.127 S 
ATOM     72  O   UNL A   1      42.843  24.256  35.552  1.00  0.00    -0.237 OA
ATOM     73  O   UNL A   1      45.041  24.668  34.508  1.00  0.00    -0.237 OA
ATOM     74  O   UNL A   1      44.889  24.356  36.936  1.00  0.00    -0.744 OA
ENDBRANCH  68  71
ENDBRANCH  50  64
BRANCH  51  75
ATOM     75  C   UNL A   1      43.247  24.170  27.803  1.00  0.00     0.023 A 
ATOM     76  C   UNL A   1      42.377  23.175  28.295  1.00  0.00     0.012 A 
ATOM     77  C   UNL A   1      44.019  23.868  26.679  1.00  0.00     0.148 A 
ATOM     78  C   UNL A   1      42.281  21.921  27.671  1.00  0.00     0.002 A 
ATOM     79  C   UNL A   1      43.941  22.612  26.086  1.00  0.00     0.091 A 
ATOM     80  F   UNL A   1      44.754  24.842  26.123  1.00  0.00    -0.205 F 
ATOM     81  C   UNL A   1      43.069  21.635  26.564  1.00  0.00     0.022 A 
BRANCH  79  82
ATOM     82  S   UNL A   1      45.046  22.223  24.752  1.00  0.00     0.127 S 
ATOM     83  O   UNL A   1      44.360  21.127  24.067  1.00  0.00    -0.237 OA
ATOM     84  O   UNL A   1      45.116  23.481  24.017  1.00  0.00    -0.237 OA
ATOM     85  O   UNL A   1      46.252  21.821  25.464  1.00  0.00    -0.744 OA
ENDBRANCH  79  82
ENDBRANCH  51  75
BRANCH  63  86
ATOM     86  C   UNL A   1      45.322  29.919  28.743  1.00  0.00     0.023 A 
ATOM     87  C   UNL A   1      44.260  30.292  27.891  1.00  0.00     0.012 A 
ATOM     88  C   UNL A   1      46.617  30.374  28.457  1.00  0.00     0.148 A 
ATOM     89  C   UNL A   1      44.490  31.097  26.772  1.00  0.00     0.002 A 
ATOM     90  C   UNL A   1      46.833  31.217  27.376  1.00  0.00     0.091 A 
ATOM     91  F   UNL A   1      47.614  29.998  29.273  1.00  0.00    -0.205 F 
ATOM     92  C   UNL A   1      45.774  31.575  26.525  1.00  0.00     0.022 A 
BRANCH  90  93
ATOM     93  S   UNL A   1      48.431  31.978  27.091  1.00  0.00     0.127 S 
ATOM     94  O   UNL A   1      48.741  32.539  28.405  1.00  0.00    -0.237 OA
ATOM     95  O   UNL A   1      49.257  30.835  26.702  1.00  0.00    -0.237 OA
ATOM     96  O   UNL A   1      48.224  32.953  26.026  1.00  0.00    -0.744 OA
ENDBRANCH  90  93
ENDBRANCH  63  86
ENDBRANCH  37  38
ENDBRANCH  29  32
ENDBRANCH  27  28
ENDBRANCH   1  27
TORSDOF 17
ENDMDL
