MODEL 1
REMARK VINA RESULT:     -12.2      0.000      0.000
REMARK SMILES O=C(C[C@H]1C(=O)NCC[N@H+]1[C@H]1CCO[C@@]2(CCSC2)C1)NCCCCNC(=O)c1ccc(-c2c3nc(c(-c4cccc(S(=O)(=O)[O-])c4F)c4ccc([nH]4)c(-c4cccc(S(=O)(=O)[O-])c4F)c4nc(c(-c5cccc(S(=O)(=O)[O-])c5F)c5ccc2[nH]5)C=C4)C=C3)cc1
REMARK SMILES IDX 24 1 23 2 22 3 21 4 1 5 2 6 3 8 4 9 5 10 10 11 6 12 7 13
REMARK SMILES IDX 9 14 8 16 11 18 12 19 20 20 13 21 15 22 14 23 16 24 19 25
REMARK SMILES IDX 17 26 18 27 25 28 26 29 27 30 28 32 29 33 30 34 91 35 31 36
REMARK SMILES IDX 90 37 32 38 33 39 34 40 84 41 35 42 89 43 83 44 85 45 36 46
REMARK SMILES IDX 88 47 82 48 81 49 37 51 69 52 49 53 68 54 50 55 53 56 67 57
REMARK SMILES IDX 86 58 51 59 52 60 66 62 87 63 54 64 38 65 39 66 47 67 40 68
REMARK SMILES IDX 42 69 48 70 41 71 43 72 44 73 45 74 46 75 70 76 71 77 79 78
REMARK SMILES IDX 72 79 74 80 80 81 73 82 75 83 76 84 77 85 78 86 55 87 56 88
REMARK SMILES IDX 64 89 57 90 59 91 65 92 58 93 60 94 61 95 62 96 63 97
REMARK H PARENT 21 7 10 15 7 17 26 31 85 50 53 61
REMARK Flexibility Score: inf
ROOT
ATOM      1  C   UNL A   1      37.544  19.798  24.803  1.00  0.00     0.023 C 
ENDROOT
BRANCH   1   2
ATOM      2  C   UNL A   1      36.186  20.466  25.057  1.00  0.00     0.023 C 
BRANCH   2   3
ATOM      3  C   UNL A   1      36.246  21.913  25.557  1.00  0.00     0.116 C 
BRANCH   3   4
ATOM      4  N   UNL A   1      35.356  22.755  24.792  1.00  0.00    -0.356 N 
ATOM      5  O   UNL A   1      33.967  23.397  26.509  1.00  0.00    -0.275 OA
ATOM      6  C   UNL A   1      34.237  23.365  25.314  1.00  0.00     0.226 C 
ATOM      7  H   UNL A   1      35.563  22.904  23.842  1.00  0.00     0.163 HD
BRANCH   6   8
ATOM      8  C   UNL A   1      33.241  23.764  24.243  1.00  0.00     0.175 C 
BRANCH   8   9
ATOM      9  C   UNL A   1      31.780  23.288  24.306  1.00  0.00     0.283 C 
ATOM     10  C   UNL A   1      31.714  21.914  25.016  1.00  0.00     0.279 C 
ATOM     11  N   UNL A   1      30.750  24.248  24.826  1.00  0.00    -0.320 N 
ATOM     12  O   UNL A   1      32.135  20.883  24.492  1.00  0.00    -0.268 OA
ATOM     13  N   UNL A   1      31.314  21.884  26.327  1.00  0.00    -0.345 N 
ATOM     14  C   UNL A   1      30.694  24.289  26.295  1.00  0.00     0.284 C 
ATOM     15  H   UNL A   1      29.921  23.793  24.445  1.00  0.00     0.349 HD
ATOM     16  C   UNL A   1      30.452  22.896  26.887  1.00  0.00     0.177 C 
ATOM     17  H   UNL A   1      31.624  21.150  26.904  1.00  0.00     0.163 HD
BRANCH  11  18
ATOM     18  C   UNL A   1      30.589  25.596  24.226  1.00  0.00     0.189 C 
ATOM     19  C   UNL A   1      29.150  26.106  24.041  1.00  0.00     0.093 C 
ATOM     20  C   UNL A   1      31.434  26.700  24.900  1.00  0.00     0.101 C 
ATOM     21  C   UNL A   1      29.134  27.419  23.290  1.00  0.00     0.167 C 
ATOM     22  C   UNL A   1      31.270  28.073  24.183  1.00  0.00     0.084 C 
ATOM     23  O   UNL A   1      29.871  28.383  24.036  1.00  0.00    -0.374 OA
ATOM     24  C   UNL A   1      31.840  29.224  25.031  1.00  0.00     0.047 C 
ATOM     25  C   UNL A   1      31.981  28.163  22.814  1.00  0.00     0.105 C 
ATOM     26  C   UNL A   1      33.335  29.312  24.812  1.00  0.00     0.072 C 
ATOM     27  S   UNL A   1      33.560  29.028  23.049  1.00  0.00    -0.159 SA
ENDBRANCH  11  18
ENDBRANCH   8   9
ENDBRANCH   6   8
ENDBRANCH   3   4
ENDBRANCH   2   3
ENDBRANCH   1   2
BRANCH   1  28
ATOM     28  C   UNL A   1      38.709  20.333  25.632  1.00  0.00     0.116 C 
BRANCH  28  29
ATOM     29  N   UNL A   1      39.740  19.336  25.855  1.00  0.00    -0.352 N 
ATOM     30  C   UNL A   1      41.069  19.492  26.168  1.00  0.00     0.251 C 
ATOM     31  H   UNL A   1      39.440  18.402  25.769  1.00  0.00     0.163 HD
ATOM     32  O   UNL A   1      41.806  18.511  26.164  1.00  0.00    -0.269 OA
BRANCH  30  33
ATOM     33  C   UNL A   1      41.622  20.830  26.485  1.00  0.00     0.039 A 
ATOM     34  C   UNL A   1      41.921  21.695  25.428  1.00  0.00     0.014 A 
ATOM     35  C   UNL A   1      41.873  21.227  27.800  1.00  0.00     0.014 A 
ATOM     36  C   UNL A   1      42.412  22.977  25.693  1.00  0.00     0.010 A 
ATOM     37  C   UNL A   1      42.295  22.531  28.065  1.00  0.00     0.010 A 
ATOM     38  C   UNL A   1      42.570  23.420  27.015  1.00  0.00    -0.014 A 
BRANCH  38  39
ATOM     39  C   UNL A   1      42.997  24.813  27.313  1.00  0.00     0.031 A 
ATOM     40  C   UNL A   1      42.044  25.792  27.945  1.00  0.00     0.074 A 
ATOM     41  C   UNL A   1      44.226  25.226  26.939  1.00  0.00     0.049 A 
ATOM     42  N   UNL A   1      42.223  27.059  28.218  1.00  0.00    -0.248 NA
ATOM     43  C   UNL A   1      40.705  25.289  28.292  1.00  0.00     0.031 C 
ATOM     44  C   UNL A   1      45.222  24.400  26.254  1.00  0.00     0.029 A 
ATOM     45  N   UNL A   1      44.836  26.451  27.058  1.00  0.00    -0.354 N 
ATOM     46  C   UNL A   1      41.017  27.513  28.738  1.00  0.00     0.074 A 
ATOM     47  C   UNL A   1      40.100  26.393  28.709  1.00  0.00     0.031 C 
ATOM     48  C   UNL A   1      46.315  25.140  26.011  1.00  0.00     0.029 A 
ATOM     49  C   UNL A   1      46.089  26.500  26.491  1.00  0.00     0.049 A 
ATOM     50  H   UNL A   1      44.418  27.221  27.505  1.00  0.00     0.167 HD
ATOM     51  C   UNL A   1      40.705  28.740  29.223  1.00  0.00     0.034 A 
ATOM     52  C   UNL A   1      46.955  27.524  26.358  1.00  0.00     0.034 A 
ATOM     53  C   UNL A   1      41.626  29.844  29.283  1.00  0.00     0.049 A 
ATOM     54  C   UNL A   1      46.597  28.869  26.927  1.00  0.00     0.074 A 
ATOM     55  C   UNL A   1      41.428  31.101  29.828  1.00  0.00     0.029 A 
ATOM     56  N   UNL A   1      42.915  29.831  28.773  1.00  0.00    -0.354 N 
ATOM     57  N   UNL A   1      45.503  29.236  27.550  1.00  0.00    -0.248 NA
ATOM     58  C   UNL A   1      47.606  29.932  26.808  1.00  0.00     0.031 C 
ATOM     59  C   UNL A   1      42.587  31.856  29.621  1.00  0.00     0.029 A 
ATOM     60  C   UNL A   1      43.521  31.059  28.979  1.00  0.00     0.049 A 
ATOM     61  H   UNL A   1      43.339  29.061  28.329  1.00  0.00     0.167 HD
ATOM     62  C   UNL A   1      45.706  30.558  27.929  1.00  0.00     0.074 A 
ATOM     63  C   UNL A   1      47.036  30.921  27.484  1.00  0.00     0.031 C 
ATOM     64  C   UNL A   1      44.861  31.399  28.576  1.00  0.00     0.034 A 
BRANCH  51  65
ATOM     65  C   UNL A   1      39.317  28.943  29.773  1.00  0.00     0.023 A 
ATOM     66  C   UNL A   1      39.016  28.512  31.083  1.00  0.00     0.012 A 
ATOM     67  C   UNL A   1      38.328  29.609  29.023  1.00  0.00     0.148 A 
ATOM     68  C   UNL A   1      37.746  28.705  31.622  1.00  0.00     0.002 A 
ATOM     69  C   UNL A   1      37.078  29.840  29.585  1.00  0.00     0.091 A 
ATOM     70  F   UNL A   1      38.624  29.994  27.774  1.00  0.00    -0.205 F 
ATOM     71  C   UNL A   1      36.781  29.378  30.878  1.00  0.00     0.022 A 
BRANCH  69  72
ATOM     72  S   UNL A   1      35.792  30.767  28.739  1.00  0.00     0.127 S 
ATOM     73  O   UNL A   1      35.073  29.703  28.040  1.00  0.00    -0.237 OA
ATOM     74  O   UNL A   1      35.060  31.366  29.857  1.00  0.00    -0.237 OA
ATOM     75  O   UNL A   1      36.481  31.722  27.884  1.00  0.00    -0.744 OA
ENDBRANCH  69  72
ENDBRANCH  51  65
BRANCH  52  76
ATOM     76  C   UNL A   1      48.271  27.300  25.694  1.00  0.00     0.023 A 
ATOM     77  C   UNL A   1      49.369  26.855  26.455  1.00  0.00     0.012 A 
ATOM     78  C   UNL A   1      48.430  27.498  24.308  1.00  0.00     0.148 A 
ATOM     79  C   UNL A   1      50.610  26.644  25.854  1.00  0.00     0.002 A 
ATOM     80  C   UNL A   1      49.653  27.227  23.706  1.00  0.00     0.091 A 
ATOM     81  F   UNL A   1      47.375  27.931  23.604  1.00  0.00    -0.205 F 
ATOM     82  C   UNL A   1      50.750  26.819  24.480  1.00  0.00     0.022 A 
BRANCH  80  83
ATOM     83  S   UNL A   1      49.883  27.291  21.926  1.00  0.00     0.127 S 
ATOM     84  O   UNL A   1      49.686  28.711  21.649  1.00  0.00    -0.237 OA
ATOM     85  O   UNL A   1      51.260  26.817  21.783  1.00  0.00    -0.237 OA
ATOM     86  O   UNL A   1      48.881  26.392  21.367  1.00  0.00    -0.744 OA
ENDBRANCH  80  83
ENDBRANCH  52  76
BRANCH  64  87
ATOM     87  C   UNL A   1      45.355  32.788  28.884  1.00  0.00     0.023 A 
ATOM     88  C   UNL A   1      46.121  33.026  30.042  1.00  0.00     0.012 A 
ATOM     89  C   UNL A   1      45.118  33.848  27.985  1.00  0.00     0.148 A 
ATOM     90  C   UNL A   1      46.614  34.301  30.319  1.00  0.00     0.002 A 
ATOM     91  C   UNL A   1      45.657  35.104  28.240  1.00  0.00     0.091 A 
ATOM     92  F   UNL A   1      44.372  33.608  26.897  1.00  0.00    -0.205 F 
ATOM     93  C   UNL A   1      46.393  35.335  29.413  1.00  0.00     0.022 A 
BRANCH  91  94
ATOM     94  S   UNL A   1      45.506  36.470  27.084  1.00  0.00     0.127 S 
ATOM     95  O   UNL A   1      46.121  37.565  27.835  1.00  0.00    -0.237 OA
ATOM     96  O   UNL A   1      46.289  35.998  25.942  1.00  0.00    -0.237 OA
ATOM     97  O   UNL A   1      44.081  36.619  26.820  1.00  0.00    -0.744 OA
ENDBRANCH  91  94
ENDBRANCH  64  87
ENDBRANCH  38  39
ENDBRANCH  30  33
ENDBRANCH  28  29
ENDBRANCH   1  28
TORSDOF 16
ENDMDL
MODEL 2
REMARK VINA RESULT:     -12.2      6.456     11.423
REMARK SMILES O=C(C[C@H]1C(=O)NCC[N@H+]1[C@H]1CCO[C@@]2(CCSC2)C1)NCCCCNC(=O)c1ccc(-c2c3nc(c(-c4cccc(S(=O)(=O)[O-])c4F)c4ccc([nH]4)c(-c4cccc(S(=O)(=O)[O-])c4F)c4nc(c(-c5cccc(S(=O)(=O)[O-])c5F)c5ccc2[nH]5)C=C4)C=C3)cc1
REMARK SMILES IDX 24 1 23 2 22 3 21 4 1 5 2 6 3 8 4 9 5 10 10 11 6 12 7 13
REMARK SMILES IDX 9 14 8 16 11 18 12 19 20 20 13 21 15 22 14 23 16 24 19 25
REMARK SMILES IDX 17 26 18 27 25 28 26 29 27 30 28 32 29 33 30 34 91 35 31 36
REMARK SMILES IDX 90 37 32 38 33 39 34 40 84 41 35 42 89 43 83 44 85 45 36 46
REMARK SMILES IDX 88 47 82 48 81 49 37 51 69 52 49 53 68 54 50 55 53 56 67 57
REMARK SMILES IDX 86 58 51 59 52 60 66 62 87 63 54 64 38 65 39 66 47 67 40 68
REMARK SMILES IDX 42 69 48 70 41 71 43 72 44 73 45 74 46 75 70 76 71 77 79 78
REMARK SMILES IDX 72 79 74 80 80 81 73 82 75 83 76 84 77 85 78 86 55 87 56 88
REMARK SMILES IDX 64 89 57 90 59 91 65 92 58 93 60 94 61 95 62 96 63 97
REMARK H PARENT 21 7 10 15 7 17 26 31 85 50 53 61
REMARK Flexibility Score: inf
ROOT
ATOM      1  C   UNL A   1      34.012  32.012  27.337  1.00  0.00     0.023 C 
ENDROOT
BRANCH   1   2
ATOM      2  C   UNL A   1      34.217  30.505  27.131  1.00  0.00     0.023 C 
BRANCH   2   3
ATOM      3  C   UNL A   1      33.056  29.614  27.585  1.00  0.00     0.116 C 
BRANCH   3   4
ATOM      4  N   UNL A   1      32.362  29.060  26.446  1.00  0.00    -0.356 N 
ATOM      5  O   UNL A   1      31.077  27.521  27.572  1.00  0.00    -0.275 OA
ATOM      6  C   UNL A   1      31.487  27.999  26.521  1.00  0.00     0.226 C 
ATOM      7  H   UNL A   1      32.522  29.465  25.564  1.00  0.00     0.163 HD
BRANCH   6   8
ATOM      8  C   UNL A   1      31.288  27.316  25.183  1.00  0.00     0.175 C 
BRANCH   8   9
ATOM      9  C   UNL A   1      31.923  27.886  23.903  1.00  0.00     0.283 C 
ATOM     10  C   UNL A   1      33.331  27.272  23.707  1.00  0.00     0.279 C 
ATOM     11  N   UNL A   1      31.110  27.859  22.642  1.00  0.00    -0.320 N 
ATOM     12  O   UNL A   1      34.282  27.564  24.432  1.00  0.00    -0.268 OA
ATOM     13  N   UNL A   1      33.472  26.260  22.793  1.00  0.00    -0.345 N 
ATOM     14  C   UNL A   1      31.150  26.556  21.961  1.00  0.00     0.284 C 
ATOM     15  H   UNL A   1      31.632  28.559  22.116  1.00  0.00     0.349 HD
ATOM     16  C   UNL A   1      32.590  26.125  21.659  1.00  0.00     0.177 C 
ATOM     17  H   UNL A   1      34.196  25.605  22.914  1.00  0.00     0.163 HD
BRANCH  11  18
ATOM     18  C   UNL A   1      29.758  28.470  22.591  1.00  0.00     0.189 C 
ATOM     19  C   UNL A   1      28.637  27.741  23.349  1.00  0.00     0.093 C 
ATOM     20  C   UNL A   1      29.722  29.972  22.955  1.00  0.00     0.101 C 
ATOM     21  C   UNL A   1      27.296  28.391  23.090  1.00  0.00     0.167 C 
ATOM     22  C   UNL A   1      28.288  30.566  22.818  1.00  0.00     0.084 C 
ATOM     23  O   UNL A   1      27.348  29.743  23.535  1.00  0.00    -0.374 OA
ATOM     24  C   UNL A   1      28.185  31.950  23.482  1.00  0.00     0.047 C 
ATOM     25  C   UNL A   1      27.819  30.760  21.358  1.00  0.00     0.105 C 
ATOM     26  C   UNL A   1      28.691  33.003  22.521  1.00  0.00     0.072 C 
ATOM     27  S   UNL A   1      28.055  32.504  20.913  1.00  0.00    -0.159 SA
ENDBRANCH  11  18
ENDBRANCH   8   9
ENDBRANCH   6   8
ENDBRANCH   3   4
ENDBRANCH   2   3
ENDBRANCH   1   2
BRANCH   1  28
ATOM     28  C   UNL A   1      32.566  32.464  27.519  1.00  0.00     0.116 C 
BRANCH  28  29
ATOM     29  N   UNL A   1      32.450  33.895  27.732  1.00  0.00    -0.352 N 
ATOM     30  C   UNL A   1      33.154  34.724  28.573  1.00  0.00     0.251 C 
ATOM     31  H   UNL A   1      31.761  34.342  27.190  1.00  0.00     0.163 HD
ATOM     32  O   UNL A   1      32.790  35.888  28.711  1.00  0.00    -0.269 OA
BRANCH  30  33
ATOM     33  C   UNL A   1      34.324  34.222  29.330  1.00  0.00     0.039 A 
ATOM     34  C   UNL A   1      34.098  33.473  30.489  1.00  0.00     0.014 A 
ATOM     35  C   UNL A   1      35.632  34.502  28.929  1.00  0.00     0.014 A 
ATOM     36  C   UNL A   1      35.180  32.954  31.207  1.00  0.00     0.010 A 
ATOM     37  C   UNL A   1      36.707  33.925  29.606  1.00  0.00     0.010 A 
ATOM     38  C   UNL A   1      36.494  33.145  30.753  1.00  0.00    -0.014 A 
BRANCH  38  39
ATOM     39  C   UNL A   1      37.648  32.518  31.451  1.00  0.00     0.031 A 
ATOM     40  C   UNL A   1      38.387  31.363  30.831  1.00  0.00     0.074 A 
ATOM     41  C   UNL A   1      37.983  32.937  32.689  1.00  0.00     0.049 A 
ATOM     42  N   UNL A   1      39.372  30.655  31.321  1.00  0.00    -0.248 NA
ATOM     43  C   UNL A   1      37.946  30.928  29.496  1.00  0.00     0.031 C 
ATOM     44  C   UNL A   1      37.303  33.999  33.434  1.00  0.00     0.029 A 
ATOM     45  N   UNL A   1      38.962  32.502  33.549  1.00  0.00    -0.354 N 
ATOM     46  C   UNL A   1      39.649  29.676  30.375  1.00  0.00     0.074 A 
ATOM     47  C   UNL A   1      38.702  29.858  29.295  1.00  0.00     0.031 C 
ATOM     48  C   UNL A   1      37.882  34.131  34.638  1.00  0.00     0.029 A 
ATOM     49  C   UNL A   1      38.951  33.145  34.766  1.00  0.00     0.049 A 
ATOM     50  H   UNL A   1      39.609  31.799  33.318  1.00  0.00     0.167 HD
ATOM     51  C   UNL A   1      40.618  28.729  30.386  1.00  0.00     0.034 A 
ATOM     52  C   UNL A   1      39.704  32.955  35.868  1.00  0.00     0.034 A 
ATOM     53  C   UNL A   1      41.581  28.569  31.444  1.00  0.00     0.049 A 
ATOM     54  C   UNL A   1      40.790  31.916  35.846  1.00  0.00     0.074 A 
ATOM     55  C   UNL A   1      42.649  27.691  31.509  1.00  0.00     0.029 A 
ATOM     56  N   UNL A   1      41.589  29.294  32.625  1.00  0.00    -0.354 N 
ATOM     57  N   UNL A   1      41.131  31.099  34.879  1.00  0.00    -0.248 NA
ATOM     58  C   UNL A   1      41.621  31.796  37.053  1.00  0.00     0.031 C 
ATOM     59  C   UNL A   1      43.285  27.865  32.743  1.00  0.00     0.029 A 
ATOM     60  C   UNL A   1      42.635  28.876  33.431  1.00  0.00     0.049 A 
ATOM     61  H   UNL A   1      40.946  30.002  32.858  1.00  0.00     0.167 HD
ATOM     62  C   UNL A   1      42.235  30.395  35.346  1.00  0.00     0.074 A 
ATOM     63  C   UNL A   1      42.519  30.897  36.674  1.00  0.00     0.031 C 
ATOM     64  C   UNL A   1      42.942  29.413  34.732  1.00  0.00     0.034 A 
BRANCH  51  65
ATOM     65  C   UNL A   1      40.718  27.815  29.192  1.00  0.00     0.023 A 
ATOM     66  C   UNL A   1      39.889  26.677  29.113  1.00  0.00     0.012 A 
ATOM     67  C   UNL A   1      41.587  28.109  28.122  1.00  0.00     0.148 A 
ATOM     68  C   UNL A   1      39.948  25.826  28.011  1.00  0.00     0.002 A 
ATOM     69  C   UNL A   1      41.607  27.282  27.005  1.00  0.00     0.091 A 
ATOM     70  F   UNL A   1      42.382  29.183  28.221  1.00  0.00    -0.205 F 
ATOM     71  C   UNL A   1      40.799  26.134  26.953  1.00  0.00     0.022 A 
BRANCH  69  72
ATOM     72  S   UNL A   1      42.608  27.636  25.556  1.00  0.00     0.127 S 
ATOM     73  O   UNL A   1      42.334  26.470  24.717  1.00  0.00    -0.237 OA
ATOM     74  O   UNL A   1      42.020  28.887  25.074  1.00  0.00    -0.237 OA
ATOM     75  O   UNL A   1      43.978  27.753  26.034  1.00  0.00    -0.744 OA
ENDBRANCH  69  72
ENDBRANCH  51  65
BRANCH  52  76
ATOM     76  C   UNL A   1      39.483  33.806  37.071  1.00  0.00     0.023 A 
ATOM     77  C   UNL A   1      39.920  35.145  37.068  1.00  0.00     0.012 A 
ATOM     78  C   UNL A   1      38.817  33.303  38.206  1.00  0.00     0.148 A 
ATOM     79  C   UNL A   1      39.728  35.958  38.185  1.00  0.00     0.002 A 
ATOM     80  C   UNL A   1      38.576  34.136  39.292  1.00  0.00     0.091 A 
ATOM     81  F   UNL A   1      38.418  32.024  38.193  1.00  0.00    -0.205 F 
ATOM     82  C   UNL A   1      39.047  35.458  39.292  1.00  0.00     0.022 A 
BRANCH  80  83
ATOM     83  S   UNL A   1      37.587  33.618  40.699  1.00  0.00     0.127 S 
ATOM     84  O   UNL A   1      36.407  33.057  40.047  1.00  0.00    -0.237 OA
ATOM     85  O   UNL A   1      38.465  32.638  41.340  1.00  0.00    -0.237 OA
ATOM     86  O   UNL A   1      37.361  34.823  41.488  1.00  0.00    -0.744 OA
ENDBRANCH  80  83
ENDBRANCH  52  76
BRANCH  64  87
ATOM     87  C   UNL A   1      44.122  28.834  35.470  1.00  0.00     0.023 A 
ATOM     88  C   UNL A   1      45.401  29.403  35.311  1.00  0.00     0.012 A 
ATOM     89  C   UNL A   1      43.948  27.769  36.376  1.00  0.00     0.148 A 
ATOM     90  C   UNL A   1      46.494  28.898  36.016  1.00  0.00     0.002 A 
ATOM     91  C   UNL A   1      45.031  27.306  37.114  1.00  0.00     0.091 A 
ATOM     92  F   UNL A   1      42.726  27.228  36.500  1.00  0.00    -0.205 F 
ATOM     93  C   UNL A   1      46.307  27.860  36.925  1.00  0.00     0.022 A 
BRANCH  91  94
ATOM     94  S   UNL A   1      44.866  26.039  38.376  1.00  0.00     0.127 S 
ATOM     95  O   UNL A   1      46.252  25.602  38.543  1.00  0.00    -0.237 OA
ATOM     96  O   UNL A   1      44.325  26.796  39.505  1.00  0.00    -0.237 OA
ATOM     97  O   UNL A   1      43.959  25.039  37.828  1.00  0.00    -0.744 OA
ENDBRANCH  91  94
ENDBRANCH  64  87
ENDBRANCH  38  39
ENDBRANCH  30  33
ENDBRANCH  28  29
ENDBRANCH   1  28
TORSDOF 16
ENDMDL
MODEL 3
REMARK VINA RESULT:     -12.1      6.294     11.496
REMARK SMILES O=C(C[C@H]1C(=O)NCC[N@H+]1[C@H]1CCO[C@@]2(CCSC2)C1)NCCCCNC(=O)c1ccc(-c2c3nc(c(-c4cccc(S(=O)(=O)[O-])c4F)c4ccc([nH]4)c(-c4cccc(S(=O)(=O)[O-])c4F)c4nc(c(-c5cccc(S(=O)(=O)[O-])c5F)c5ccc2[nH]5)C=C4)C=C3)cc1
REMARK SMILES IDX 24 1 23 2 22 3 21 4 1 5 2 6 3 8 4 9 5 10 10 11 6 12 7 13
REMARK SMILES IDX 9 14 8 16 11 18 12 19 20 20 13 21 15 22 14 23 16 24 19 25
REMARK SMILES IDX 17 26 18 27 25 28 26 29 27 30 28 32 29 33 30 34 91 35 31 36
REMARK SMILES IDX 90 37 32 38 33 39 34 40 84 41 35 42 89 43 83 44 85 45 36 46
REMARK SMILES IDX 88 47 82 48 81 49 37 51 69 52 49 53 68 54 50 55 53 56 67 57
REMARK SMILES IDX 86 58 51 59 52 60 66 62 87 63 54 64 38 65 39 66 47 67 40 68
REMARK SMILES IDX 42 69 48 70 41 71 43 72 44 73 45 74 46 75 70 76 71 77 79 78
REMARK SMILES IDX 72 79 74 80 80 81 73 82 75 83 76 84 77 85 78 86 55 87 56 88
REMARK SMILES IDX 64 89 57 90 59 91 65 92 58 93 60 94 61 95 62 96 63 97
REMARK H PARENT 21 7 10 15 7 17 26 31 85 50 53 61
REMARK Flexibility Score: inf
ROOT
ATOM      1  C   UNL A   1      31.353  32.254  26.695  1.00  0.00     0.023 C 
ENDROOT
BRANCH   1   2
ATOM      2  C   UNL A   1      31.464  30.854  26.078  1.00  0.00     0.023 C 
BRANCH   2   3
ATOM      3  C   UNL A   1      31.903  29.743  27.038  1.00  0.00     0.116 C 
BRANCH   3   4
ATOM      4  N   UNL A   1      32.336  28.576  26.306  1.00  0.00    -0.356 N 
ATOM      5  O   UNL A   1      34.603  28.937  26.443  1.00  0.00    -0.275 OA
ATOM      6  C   UNL A   1      33.651  28.310  25.994  1.00  0.00     0.226 C 
ATOM      7  H   UNL A   1      31.652  27.933  26.012  1.00  0.00     0.163 HD
BRANCH   6   8
ATOM      8  C   UNL A   1      33.788  27.334  24.842  1.00  0.00     0.175 C 
BRANCH   8   9
ATOM      9  C   UNL A   1      32.548  26.832  24.081  1.00  0.00     0.283 C 
ATOM     10  C   UNL A   1      32.288  27.743  22.857  1.00  0.00     0.279 C 
ATOM     11  N   UNL A   1      32.482  25.374  23.732  1.00  0.00    -0.320 N 
ATOM     12  O   UNL A   1      31.876  28.897  22.972  1.00  0.00    -0.268 OA
ATOM     13  N   UNL A   1      32.678  27.291  21.623  1.00  0.00    -0.345 N 
ATOM     14  C   UNL A   1      33.238  25.041  22.514  1.00  0.00     0.284 C 
ATOM     15  H   UNL A   1      31.478  25.310  23.563  1.00  0.00     0.349 HD
ATOM     16  C   UNL A   1      32.778  25.884  21.320  1.00  0.00     0.177 C 
ATOM     17  H   UNL A   1      32.896  27.946  20.922  1.00  0.00     0.163 HD
BRANCH  11  18
ATOM     18  C   UNL A   1      32.624  24.329  24.776  1.00  0.00     0.189 C 
ATOM     19  C   UNL A   1      31.785  24.506  26.053  1.00  0.00     0.093 C 
ATOM     20  C   UNL A   1      32.459  22.883  24.259  1.00  0.00     0.101 C 
ATOM     21  C   UNL A   1      32.139  23.455  27.083  1.00  0.00     0.167 C 
ATOM     22  C   UNL A   1      32.685  21.835  25.390  1.00  0.00     0.084 C 
ATOM     23  O   UNL A   1      31.874  22.168  26.533  1.00  0.00    -0.374 OA
ATOM     24  C   UNL A   1      32.208  20.435  24.965  1.00  0.00     0.047 C 
ATOM     25  C   UNL A   1      34.161  21.669  25.816  1.00  0.00     0.105 C 
ATOM     26  C   UNL A   1      33.294  19.763  24.154  1.00  0.00     0.072 C 
ATOM     27  S   UNL A   1      34.829  20.196  24.990  1.00  0.00    -0.159 SA
ENDBRANCH  11  18
ENDBRANCH   8   9
ENDBRANCH   6   8
ENDBRANCH   3   4
ENDBRANCH   2   3
ENDBRANCH   1   2
BRANCH   1  28
ATOM     28  C   UNL A   1      32.678  32.942  27.015  1.00  0.00     0.116 C 
BRANCH  28  29
ATOM     29  N   UNL A   1      32.497  34.211  27.698  1.00  0.00    -0.352 N 
ATOM     30  C   UNL A   1      33.131  34.716  28.808  1.00  0.00     0.251 C 
ATOM     31  H   UNL A   1      31.815  34.801  27.304  1.00  0.00     0.163 HD
ATOM     32  O   UNL A   1      32.717  35.754  29.315  1.00  0.00    -0.269 OA
BRANCH  30  33
ATOM     33  C   UNL A   1      34.286  34.010  29.410  1.00  0.00     0.039 A 
ATOM     34  C   UNL A   1      35.576  34.431  29.071  1.00  0.00     0.014 A 
ATOM     35  C   UNL A   1      34.115  32.929  30.277  1.00  0.00     0.014 A 
ATOM     36  C   UNL A   1      36.687  33.810  29.648  1.00  0.00     0.010 A 
ATOM     37  C   UNL A   1      35.222  32.358  30.906  1.00  0.00     0.010 A 
ATOM     38  C   UNL A   1      36.521  32.791  30.598  1.00  0.00    -0.014 A 
BRANCH  38  39
ATOM     39  C   UNL A   1      37.690  32.188  31.293  1.00  0.00     0.031 A 
ATOM     40  C   UNL A   1      38.448  31.046  30.672  1.00  0.00     0.074 A 
ATOM     41  C   UNL A   1      38.023  32.617  32.527  1.00  0.00     0.049 A 
ATOM     42  N   UNL A   1      39.449  30.358  31.159  1.00  0.00    -0.248 NA
ATOM     43  C   UNL A   1      38.009  30.599  29.340  1.00  0.00     0.031 C 
ATOM     44  C   UNL A   1      37.327  33.667  33.273  1.00  0.00     0.029 A 
ATOM     45  N   UNL A   1      39.015  32.203  33.384  1.00  0.00    -0.354 N 
ATOM     46  C   UNL A   1      39.740  29.382  30.214  1.00  0.00     0.074 A 
ATOM     47  C   UNL A   1      38.784  29.543  29.137  1.00  0.00     0.031 C 
ATOM     48  C   UNL A   1      37.909  33.813  34.473  1.00  0.00     0.029 A 
ATOM     49  C   UNL A   1      38.997  32.848  34.599  1.00  0.00     0.049 A 
ATOM     50  H   UNL A   1      39.674  31.511  33.151  1.00  0.00     0.167 HD
ATOM     51  C   UNL A   1      40.727  28.453  30.222  1.00  0.00     0.034 A 
ATOM     52  C   UNL A   1      39.760  32.676  35.697  1.00  0.00     0.034 A 
ATOM     53  C   UNL A   1      41.698  28.315  31.275  1.00  0.00     0.049 A 
ATOM     54  C   UNL A   1      40.866  31.658  35.673  1.00  0.00     0.074 A 
ATOM     55  C   UNL A   1      42.783  27.457  31.337  1.00  0.00     0.029 A 
ATOM     56  N   UNL A   1      41.698  29.043  32.455  1.00  0.00    -0.354 N 
ATOM     57  N   UNL A   1      41.216  30.845  34.706  1.00  0.00    -0.248 NA
ATOM     58  C   UNL A   1      41.705  31.558  36.876  1.00  0.00     0.031 C 
ATOM     59  C   UNL A   1      43.421  27.647  32.567  1.00  0.00     0.029 A 
ATOM     60  C   UNL A   1      42.756  28.648  33.257  1.00  0.00     0.049 A 
ATOM     61  H   UNL A   1      41.043  29.739  32.689  1.00  0.00     0.167 HD
ATOM     62  C   UNL A   1      42.336  30.164  35.169  1.00  0.00     0.074 A 
ATOM     63  C   UNL A   1      42.618  30.675  36.495  1.00  0.00     0.031 C 
ATOM     64  C   UNL A   1      43.059  29.193  34.555  1.00  0.00     0.034 A 
BRANCH  51  65
ATOM     65  C   UNL A   1      40.838  27.539  29.030  1.00  0.00     0.023 A 
ATOM     66  C   UNL A   1      39.980  26.423  28.924  1.00  0.00     0.012 A 
ATOM     67  C   UNL A   1      41.747  27.809  27.988  1.00  0.00     0.148 A 
ATOM     68  C   UNL A   1      40.050  25.572  27.823  1.00  0.00     0.002 A 
ATOM     69  C   UNL A   1      41.778  26.983  26.870  1.00  0.00     0.091 A 
ATOM     70  F   UNL A   1      42.567  28.861  28.113  1.00  0.00    -0.205 F 
ATOM     71  C   UNL A   1      40.941  25.858  26.792  1.00  0.00     0.022 A 
BRANCH  69  72
ATOM     72  S   UNL A   1      42.833  27.311  25.453  1.00  0.00     0.127 S 
ATOM     73  O   UNL A   1      42.140  28.432  24.822  1.00  0.00    -0.237 OA
ATOM     74  O   UNL A   1      44.104  27.659  26.091  1.00  0.00    -0.237 OA
ATOM     75  O   UNL A   1      42.860  26.078  24.679  1.00  0.00    -0.744 OA
ENDBRANCH  69  72
ENDBRANCH  51  65
BRANCH  52  76
ATOM     76  C   UNL A   1      39.528  33.526  36.900  1.00  0.00     0.023 A 
ATOM     77  C   UNL A   1      39.981  34.860  36.908  1.00  0.00     0.012 A 
ATOM     78  C   UNL A   1      38.838  33.028  38.022  1.00  0.00     0.148 A 
ATOM     79  C   UNL A   1      39.779  35.671  38.024  1.00  0.00     0.002 A 
ATOM     80  C   UNL A   1      38.588  33.860  39.107  1.00  0.00     0.091 A 
ATOM     81  F   UNL A   1      38.425  31.753  37.998  1.00  0.00    -0.205 F 
ATOM     82  C   UNL A   1      39.075  35.176  39.119  1.00  0.00     0.022 A 
BRANCH  80  83
ATOM     83  S   UNL A   1      37.570  33.349  40.495  1.00  0.00     0.127 S 
ATOM     84  O   UNL A   1      38.362  32.263  41.065  1.00  0.00    -0.237 OA
ATOM     85  O   UNL A   1      37.524  34.570  41.300  1.00  0.00    -0.237 OA
ATOM     86  O   UNL A   1      36.286  32.963  39.922  1.00  0.00    -0.744 OA
ENDBRANCH  80  83
ENDBRANCH  52  76
BRANCH  64  87
ATOM     87  C   UNL A   1      44.253  28.639  35.287  1.00  0.00     0.023 A 
ATOM     88  C   UNL A   1      45.538  29.163  35.042  1.00  0.00     0.012 A 
ATOM     89  C   UNL A   1      44.091  27.646  36.273  1.00  0.00     0.148 A 
ATOM     90  C   UNL A   1      46.646  28.683  35.740  1.00  0.00     0.002 A 
ATOM     91  C   UNL A   1      45.191  27.209  37.002  1.00  0.00     0.091 A 
ATOM     92  F   UNL A   1      42.863  27.145  36.481  1.00  0.00    -0.205 F 
ATOM     93  C   UNL A   1      46.471  27.717  36.727  1.00  0.00     0.022 A 
BRANCH  91  94
ATOM     94  S   UNL A   1      45.047  26.039  38.357  1.00  0.00     0.127 S 
ATOM     95  O   UNL A   1      44.385  24.909  37.706  1.00  0.00    -0.237 OA
ATOM     96  O   UNL A   1      46.447  25.803  38.712  1.00  0.00    -0.237 OA
ATOM     97  O   UNL A   1      44.267  26.710  39.388  1.00  0.00    -0.744 OA
ENDBRANCH  91  94
ENDBRANCH  64  87
ENDBRANCH  38  39
ENDBRANCH  30  33
ENDBRANCH  28  29
ENDBRANCH   1  28
TORSDOF 16
ENDMDL
