MODEL 1
REMARK VINA RESULT:     -11.7      0.000      0.000
REMARK SMILES COc1ccc(C)cc1[C@@H](C)NC(=O)CC1(C(=O)NCCCCNC(=O)c2ccc(-c3c4nc(c(-c5cccc(S(=O)(=O)[O-])c5F)c5ccc([nH]5)c(-c5cccc(S(=O)(=O)[O-])c5F)c5nc(c(-c6cccc(S(=O)(=O)[O-])c6F)c6ccc3[nH]6)C=C5)C=C4)cc2)CCCC1
REMARK SMILES IDX 20 1 19 2 17 3 18 4 16 6 90 7 93 8 91 9 92 10 15 11 13 12
REMARK SMILES IDX 12 13 14 15 10 16 11 17 9 18 3 19 4 20 5 21 8 22 6 23 7 24
REMARK SMILES IDX 2 25 1 26 21 27 22 28 23 29 24 30 25 31 26 33 27 34 28 35
REMARK SMILES IDX 89 36 29 37 88 38 30 39 31 40 32 41 82 42 33 43 87 44 81 45
REMARK SMILES IDX 83 46 34 47 86 48 80 49 79 50 35 52 67 53 47 54 66 55 48 56
REMARK SMILES IDX 51 57 65 58 84 59 49 60 50 61 64 63 85 64 52 65 36 66 37 67
REMARK SMILES IDX 45 68 38 69 40 70 46 71 39 72 41 73 42 74 43 75 44 76 68 77
REMARK SMILES IDX 69 78 77 79 70 80 72 81 78 82 71 83 73 84 74 85 75 86 76 87
REMARK SMILES IDX 53 88 54 89 62 90 55 91 57 92 63 93 56 94 58 95 59 96 60 97
REMARK SMILES IDX 61 98
REMARK H PARENT 19 5 12 14 24 32 83 51 51 62
REMARK Flexibility Score: inf
ROOT
ATOM      1  C   UNL A   1      31.562  28.305  24.167  1.00  0.00     0.116 C 
ENDROOT
BRANCH   1   2
ATOM      2  N   UNL A   1      30.634  27.508  24.941  1.00  0.00    -0.356 N 
ATOM      3  C   UNL A   1      30.690  26.285  25.513  1.00  0.00     0.226 C 
ATOM      4  O   UNL A   1      29.586  25.832  25.846  1.00  0.00    -0.274 OA
ATOM      5  H   UNL A   1      29.770  27.957  25.083  1.00  0.00     0.163 HD
BRANCH   3   6
ATOM      6  C   UNL A   1      31.956  25.401  25.651  1.00  0.00     0.058 C 
ATOM      7  C   UNL A   1      33.287  26.088  25.953  1.00  0.00     0.017 C 
ATOM      8  C   UNL A   1      32.226  24.695  24.300  1.00  0.00     0.017 C 
ATOM      9  C   UNL A   1      34.190  26.036  24.729  1.00  0.00     0.001 C 
ATOM     10  C   UNL A   1      33.358  25.450  23.615  1.00  0.00     0.001 C 
BRANCH   6  11
ATOM     11  C   UNL A   1      31.683  24.344  26.773  1.00  0.00     0.117 C 
BRANCH  11  12
ATOM     12  C   UNL A   1      31.355  22.901  26.391  1.00  0.00     0.221 C 
ATOM     13  N   UNL A   1      32.139  21.834  26.670  1.00  0.00    -0.349 N 
ATOM     14  H   UNL A   1      31.667  20.978  26.558  1.00  0.00     0.164 HD
ATOM     15  O   UNL A   1      30.347  22.668  25.710  1.00  0.00    -0.275 OA
BRANCH  13  16
ATOM     16  C   UNL A   1      33.531  21.659  27.101  1.00  0.00     0.113 C 
ATOM     17  C   UNL A   1      33.795  22.519  28.340  1.00  0.00     0.036 C 
BRANCH  16  18
ATOM     18  C   UNL A   1      34.489  22.014  25.974  1.00  0.00     0.016 A 
ATOM     19  C   UNL A   1      34.280  21.578  24.648  1.00  0.00     0.124 A 
ATOM     20  C   UNL A   1      35.049  22.126  23.623  1.00  0.00     0.047 A 
ATOM     21  C   UNL A   1      36.102  22.991  23.915  1.00  0.00     0.007 A 
ATOM     22  C   UNL A   1      35.623  22.808  26.250  1.00  0.00     0.013 A 
ATOM     23  C   UNL A   1      36.456  23.266  25.229  1.00  0.00    -0.051 A 
ATOM     24  C   UNL A   1      37.742  23.977  25.531  1.00  0.00     0.044 C 
BRANCH  19  25
ATOM     25  O   UNL A   1      33.336  20.603  24.451  1.00  0.00    -0.496 OA
ATOM     26  C   UNL A   1      33.771  19.246  24.530  1.00  0.00     0.278 C 
ENDBRANCH  19  25
ENDBRANCH  16  18
ENDBRANCH  13  16
ENDBRANCH  11  12
ENDBRANCH   6  11
ENDBRANCH   3   6
ENDBRANCH   1   2
BRANCH   1  27
ATOM     27  C   UNL A   1      31.969  29.581  24.915  1.00  0.00     0.023 C 
BRANCH  27  28
ATOM     28  C   UNL A   1      33.226  29.467  25.775  1.00  0.00     0.023 C 
BRANCH  28  29
ATOM     29  C   UNL A   1      33.063  30.088  27.149  1.00  0.00     0.116 C 
BRANCH  29  30
ATOM     30  N   UNL A   1      33.810  31.314  27.353  1.00  0.00    -0.352 N 
ATOM     31  C   UNL A   1      35.025  31.530  27.984  1.00  0.00     0.251 C 
ATOM     32  H   UNL A   1      33.386  32.122  26.983  1.00  0.00     0.163 HD
ATOM     33  O   UNL A   1      35.344  32.688  28.212  1.00  0.00    -0.269 OA
BRANCH  31  34
ATOM     34  C   UNL A   1      35.989  30.416  28.233  1.00  0.00     0.039 A 
ATOM     35  C   UNL A   1      36.057  29.865  29.523  1.00  0.00     0.014 A 
ATOM     36  C   UNL A   1      36.961  30.060  27.308  1.00  0.00     0.014 A 
ATOM     37  C   UNL A   1      37.205  29.186  29.935  1.00  0.00     0.010 A 
ATOM     38  C   UNL A   1      38.155  29.549  27.748  1.00  0.00     0.010 A 
ATOM     39  C   UNL A   1      38.291  29.145  29.076  1.00  0.00    -0.014 A 
BRANCH  39  40
ATOM     40  C   UNL A   1      39.619  28.650  29.384  1.00  0.00     0.031 A 
ATOM     41  C   UNL A   1      39.945  27.255  29.029  1.00  0.00     0.074 A 
ATOM     42  C   UNL A   1      40.597  29.561  29.583  1.00  0.00     0.049 A 
ATOM     43  N   UNL A   1      41.106  26.733  29.185  1.00  0.00    -0.248 NA
ATOM     44  C   UNL A   1      38.972  26.338  28.451  1.00  0.00     0.031 C 
ATOM     45  C   UNL A   1      42.023  29.403  29.312  1.00  0.00     0.029 A 
ATOM     46  N   UNL A   1      40.517  30.803  30.220  1.00  0.00    -0.354 N 
ATOM     47  C   UNL A   1      41.132  25.546  28.490  1.00  0.00     0.074 A 
ATOM     48  C   UNL A   1      39.754  25.300  28.140  1.00  0.00     0.031 C 
ATOM     49  C   UNL A   1      42.701  30.373  29.941  1.00  0.00     0.029 A 
ATOM     50  C   UNL A   1      41.760  30.978  30.860  1.00  0.00     0.049 A 
ATOM     51  H   UNL A   1      39.752  31.423  30.221  1.00  0.00     0.167 HD
ATOM     52  C   UNL A   1      42.349  25.006  28.204  1.00  0.00     0.034 A 
ATOM     53  C   UNL A   1      41.907  30.959  32.221  1.00  0.00     0.034 A 
ATOM     54  C   UNL A   1      43.424  25.761  28.881  1.00  0.00     0.049 A 
ATOM     55  C   UNL A   1      42.840  29.856  32.722  1.00  0.00     0.074 A 
ATOM     56  C   UNL A   1      44.411  26.647  28.477  1.00  0.00     0.029 A 
ATOM     57  N   UNL A   1      43.406  25.825  30.266  1.00  0.00    -0.354 N 
ATOM     58  N   UNL A   1      43.432  28.970  31.966  1.00  0.00    -0.248 NA
ATOM     59  C   UNL A   1      43.111  29.624  34.138  1.00  0.00     0.031 C 
ATOM     60  C   UNL A   1      44.986  27.235  29.646  1.00  0.00     0.029 A 
ATOM     61  C   UNL A   1      44.368  26.688  30.756  1.00  0.00     0.049 A 
ATOM     62  H   UNL A   1      42.783  25.316  30.833  1.00  0.00     0.167 HD
ATOM     63  C   UNL A   1      43.991  27.984  32.740  1.00  0.00     0.074 A 
ATOM     64  C   UNL A   1      43.796  28.467  34.099  1.00  0.00     0.031 C 
ATOM     65  C   UNL A   1      44.499  26.827  32.203  1.00  0.00     0.034 A 
BRANCH  52  66
ATOM     66  C   UNL A   1      42.651  23.914  27.184  1.00  0.00     0.023 A 
ATOM     67  C   UNL A   1      43.262  24.325  25.976  1.00  0.00     0.012 A 
ATOM     68  C   UNL A   1      42.331  22.538  27.263  1.00  0.00     0.148 A 
ATOM     69  C   UNL A   1      43.468  23.461  24.895  1.00  0.00     0.002 A 
ATOM     70  C   UNL A   1      42.523  21.671  26.182  1.00  0.00     0.091 A 
ATOM     71  F   UNL A   1      41.847  22.024  28.390  1.00  0.00    -0.205 F 
ATOM     72  C   UNL A   1      43.081  22.134  24.991  1.00  0.00     0.022 A 
BRANCH  70  73
ATOM     73  S   UNL A   1      42.034  19.935  26.225  1.00  0.00     0.127 S 
ATOM     74  O   UNL A   1      40.596  20.021  25.960  1.00  0.00    -0.237 OA
ATOM     75  O   UNL A   1      42.819  19.360  25.134  1.00  0.00    -0.237 OA
ATOM     76  O   UNL A   1      42.371  19.438  27.553  1.00  0.00    -0.744 OA
ENDBRANCH  70  73
ENDBRANCH  52  66
BRANCH  53  77
ATOM     77  C   UNL A   1      40.676  31.424  32.934  1.00  0.00     0.023 A 
ATOM     78  C   UNL A   1      39.800  30.425  33.425  1.00  0.00     0.012 A 
ATOM     79  C   UNL A   1      40.618  32.714  33.493  1.00  0.00     0.148 A 
ATOM     80  C   UNL A   1      38.998  30.666  34.543  1.00  0.00     0.002 A 
ATOM     81  C   UNL A   1      39.811  32.946  34.603  1.00  0.00     0.091 A 
ATOM     82  F   UNL A   1      41.422  33.663  32.999  1.00  0.00    -0.205 F 
ATOM     83  C   UNL A   1      39.033  31.914  35.155  1.00  0.00     0.022 A 
BRANCH  81  84
ATOM     84  S   UNL A   1      39.852  34.521  35.470  1.00  0.00     0.127 S 
ATOM     85  O   UNL A   1      39.284  34.155  36.763  1.00  0.00    -0.237 OA
ATOM     86  O   UNL A   1      41.281  34.834  35.484  1.00  0.00    -0.237 OA
ATOM     87  O   UNL A   1      39.061  35.415  34.638  1.00  0.00    -0.744 OA
ENDBRANCH  81  84
ENDBRANCH  53  77
BRANCH  65  88
ATOM     88  C   UNL A   1      45.114  25.678  33.000  1.00  0.00     0.023 A 
ATOM     89  C   UNL A   1      44.314  24.742  33.681  1.00  0.00     0.012 A 
ATOM     90  C   UNL A   1      46.521  25.545  33.179  1.00  0.00     0.148 A 
ATOM     91  C   UNL A   1      44.870  23.672  34.396  1.00  0.00     0.002 A 
ATOM     92  C   UNL A   1      47.072  24.505  33.922  1.00  0.00     0.091 A 
ATOM     93  F   UNL A   1      47.356  26.444  32.652  1.00  0.00    -0.205 F 
ATOM     94  C   UNL A   1      46.247  23.545  34.508  1.00  0.00     0.022 A 
BRANCH  92  95
ATOM     95  S   UNL A   1      48.845  24.350  34.205  1.00  0.00     0.127 S 
ATOM     96  O   UNL A   1      48.946  22.966  34.668  1.00  0.00    -0.237 OA
ATOM     97  O   UNL A   1      49.383  24.585  32.865  1.00  0.00    -0.237 OA
ATOM     98  O   UNL A   1      49.194  25.362  35.190  1.00  0.00    -0.744 OA
ENDBRANCH  92  95
ENDBRANCH  65  88
ENDBRANCH  39  40
ENDBRANCH  31  34
ENDBRANCH  29  30
ENDBRANCH  28  29
ENDBRANCH  27  28
ENDBRANCH   1  27
TORSDOF 19
ENDMDL
MODEL 2
REMARK VINA RESULT:     -11.5      3.607      9.582
REMARK SMILES COc1ccc(C)cc1[C@@H](C)NC(=O)CC1(C(=O)NCCCCNC(=O)c2ccc(-c3c4nc(c(-c5cccc(S(=O)(=O)[O-])c5F)c5ccc([nH]5)c(-c5cccc(S(=O)(=O)[O-])c5F)c5nc(c(-c6cccc(S(=O)(=O)[O-])c6F)c6ccc3[nH]6)C=C5)C=C4)cc2)CCCC1
REMARK SMILES IDX 20 1 19 2 17 3 18 4 16 6 90 7 93 8 91 9 92 10 15 11 13 12
REMARK SMILES IDX 12 13 14 15 10 16 11 17 9 18 3 19 4 20 5 21 8 22 6 23 7 24
REMARK SMILES IDX 2 25 1 26 21 27 22 28 23 29 24 30 25 31 26 33 27 34 28 35
REMARK SMILES IDX 89 36 29 37 88 38 30 39 31 40 32 41 82 42 33 43 87 44 81 45
REMARK SMILES IDX 83 46 34 47 86 48 80 49 79 50 35 52 67 53 47 54 66 55 48 56
REMARK SMILES IDX 51 57 65 58 84 59 49 60 50 61 64 63 85 64 52 65 36 66 37 67
REMARK SMILES IDX 45 68 38 69 40 70 46 71 39 72 41 73 42 74 43 75 44 76 68 77
REMARK SMILES IDX 69 78 77 79 70 80 72 81 78 82 71 83 73 84 74 85 75 86 76 87
REMARK SMILES IDX 53 88 54 89 62 90 55 91 57 92 63 93 56 94 58 95 59 96 60 97
REMARK SMILES IDX 61 98
REMARK H PARENT 19 5 12 14 24 32 83 51 51 62
REMARK Flexibility Score: inf
ROOT
ATOM      1  C   UNL A   1      35.053  20.473  25.398  1.00  0.00     0.116 C 
ENDROOT
BRANCH   1   2
ATOM      2  N   UNL A   1      34.852  21.129  26.672  1.00  0.00    -0.356 N 
ATOM      3  C   UNL A   1      34.174  22.228  27.071  1.00  0.00     0.226 C 
ATOM      4  O   UNL A   1      34.482  22.628  28.203  1.00  0.00    -0.274 OA
ATOM      5  H   UNL A   1      35.313  20.674  27.413  1.00  0.00     0.163 HD
BRANCH   3   6
ATOM      6  C   UNL A   1      33.190  23.055  26.206  1.00  0.00     0.058 C 
ATOM      7  C   UNL A   1      31.853  23.466  26.822  1.00  0.00     0.017 C 
ATOM      8  C   UNL A   1      32.763  22.208  24.981  1.00  0.00     0.017 C 
ATOM      9  C   UNL A   1      30.720  22.678  26.183  1.00  0.00     0.001 C 
ATOM     10  C   UNL A   1      31.370  21.666  25.272  1.00  0.00     0.001 C 
BRANCH   6  11
ATOM     11  C   UNL A   1      33.934  24.350  25.738  1.00  0.00     0.117 C 
BRANCH  11  12
ATOM     12  C   UNL A   1      33.795  24.824  24.292  1.00  0.00     0.221 C 
ATOM     13  N   UNL A   1      32.696  25.431  23.784  1.00  0.00    -0.349 N 
ATOM     14  H   UNL A   1      32.871  25.866  22.919  1.00  0.00     0.164 HD
ATOM     15  O   UNL A   1      34.701  24.582  23.484  1.00  0.00    -0.275 OA
BRANCH  13  16
ATOM     16  C   UNL A   1      31.306  25.589  24.225  1.00  0.00     0.113 C 
ATOM     17  C   UNL A   1      30.382  24.789  23.303  1.00  0.00     0.036 C 
BRANCH  16  18
ATOM     18  C   UNL A   1      30.916  27.059  24.250  1.00  0.00     0.016 A 
ATOM     19  C   UNL A   1      31.537  27.985  25.114  1.00  0.00     0.124 A 
ATOM     20  C   UNL A   1      31.312  29.347  24.927  1.00  0.00     0.047 A 
ATOM     21  C   UNL A   1      30.381  29.787  23.987  1.00  0.00     0.007 A 
ATOM     22  C   UNL A   1      29.905  27.524  23.380  1.00  0.00     0.013 A 
ATOM     23  C   UNL A   1      29.606  28.882  23.275  1.00  0.00    -0.051 A 
ATOM     24  C   UNL A   1      28.435  29.363  22.471  1.00  0.00     0.044 C 
BRANCH  19  25
ATOM     25  O   UNL A   1      32.316  27.475  26.122  1.00  0.00    -0.496 OA
ATOM     26  C   UNL A   1      32.506  28.291  27.277  1.00  0.00     0.278 C 
ENDBRANCH  19  25
ENDBRANCH  16  18
ENDBRANCH  13  16
ENDBRANCH  11  12
ENDBRANCH   6  11
ENDBRANCH   3   6
ENDBRANCH   1   2
BRANCH   1  27
ATOM     27  C   UNL A   1      36.513  20.572  24.937  1.00  0.00     0.023 C 
BRANCH  27  28
ATOM     28  C   UNL A   1      36.859  21.804  24.104  1.00  0.00     0.023 C 
BRANCH  28  29
ATOM     29  C   UNL A   1      37.625  22.853  24.886  1.00  0.00     0.116 C 
BRANCH  29  30
ATOM     30  N   UNL A   1      38.574  22.322  25.844  1.00  0.00    -0.352 N 
ATOM     31  C   UNL A   1      39.519  22.969  26.627  1.00  0.00     0.251 C 
ATOM     32  H   UNL A   1      38.543  21.344  25.959  1.00  0.00     0.163 HD
ATOM     33  O   UNL A   1      40.346  22.277  27.201  1.00  0.00    -0.269 OA
BRANCH  31  34
ATOM     34  C   UNL A   1      39.440  24.437  26.897  1.00  0.00     0.039 A 
ATOM     35  C   UNL A   1      40.272  25.299  26.163  1.00  0.00     0.014 A 
ATOM     36  C   UNL A   1      38.746  24.951  27.984  1.00  0.00     0.014 A 
ATOM     37  C   UNL A   1      40.588  26.563  26.664  1.00  0.00     0.010 A 
ATOM     38  C   UNL A   1      39.178  26.114  28.569  1.00  0.00     0.010 A 
ATOM     39  C   UNL A   1      40.131  26.904  27.927  1.00  0.00    -0.014 A 
BRANCH  39  40
ATOM     40  C   UNL A   1      40.495  28.084  28.688  1.00  0.00     0.031 A 
ATOM     41  C   UNL A   1      39.594  29.252  28.639  1.00  0.00     0.074 A 
ATOM     42  C   UNL A   1      41.375  27.929  29.701  1.00  0.00     0.049 A 
ATOM     43  N   UNL A   1      39.774  30.320  29.328  1.00  0.00    -0.248 NA
ATOM     44  C   UNL A   1      38.399  29.296  27.807  1.00  0.00     0.031 C 
ATOM     45  C   UNL A   1      41.456  28.711  30.931  1.00  0.00     0.029 A 
ATOM     46  N   UNL A   1      42.498  27.098  29.762  1.00  0.00    -0.354 N 
ATOM     47  C   UNL A   1      38.617  31.060  29.268  1.00  0.00     0.074 A 
ATOM     48  C   UNL A   1      37.836  30.431  28.232  1.00  0.00     0.031 C 
ATOM     49  C   UNL A   1      42.640  28.488  31.517  1.00  0.00     0.029 A 
ATOM     50  C   UNL A   1      43.447  27.804  30.529  1.00  0.00     0.049 A 
ATOM     51  H   UNL A   1      42.603  26.208  29.355  1.00  0.00     0.167 HD
ATOM     52  C   UNL A   1      38.439  32.033  30.206  1.00  0.00     0.034 A 
ATOM     53  C   UNL A   1      44.598  28.320  29.998  1.00  0.00     0.034 A 
ATOM     54  C   UNL A   1      39.662  32.202  31.017  1.00  0.00     0.049 A 
ATOM     55  C   UNL A   1      44.713  29.838  30.139  1.00  0.00     0.074 A 
ATOM     56  C   UNL A   1      40.036  31.884  32.313  1.00  0.00     0.029 A 
ATOM     57  N   UNL A   1      40.831  32.574  30.370  1.00  0.00    -0.354 N 
ATOM     58  N   UNL A   1      43.807  30.615  30.671  1.00  0.00    -0.248 NA
ATOM     59  C   UNL A   1      45.837  30.605  29.609  1.00  0.00     0.031 C 
ATOM     60  C   UNL A   1      41.447  32.079  32.430  1.00  0.00     0.029 A 
ATOM     61  C   UNL A   1      41.924  32.539  31.216  1.00  0.00     0.049 A 
ATOM     62  H   UNL A   1      40.877  32.831  29.421  1.00  0.00     0.167 HD
ATOM     63  C   UNL A   1      44.103  31.931  30.418  1.00  0.00     0.074 A 
ATOM     64  C   UNL A   1      45.412  31.870  29.785  1.00  0.00     0.031 C 
ATOM     65  C   UNL A   1      43.220  32.948  30.686  1.00  0.00     0.034 A 
BRANCH  52  66
ATOM     66  C   UNL A   1      37.135  32.740  30.556  1.00  0.00     0.023 A 
ATOM     67  C   UNL A   1      36.747  32.719  31.916  1.00  0.00     0.012 A 
ATOM     68  C   UNL A   1      36.219  33.361  29.674  1.00  0.00     0.148 A 
ATOM     69  C   UNL A   1      35.512  33.201  32.362  1.00  0.00     0.002 A 
ATOM     70  C   UNL A   1      34.977  33.835  30.113  1.00  0.00     0.091 A 
ATOM     71  F   UNL A   1      36.527  33.528  28.391  1.00  0.00    -0.205 F 
ATOM     72  C   UNL A   1      34.616  33.744  31.457  1.00  0.00     0.022 A 
BRANCH  70  73
ATOM     73  S   UNL A   1      33.753  34.542  28.992  1.00  0.00     0.127 S 
ATOM     74  O   UNL A   1      32.672  34.898  29.913  1.00  0.00    -0.237 OA
ATOM     75  O   UNL A   1      34.469  35.684  28.425  1.00  0.00    -0.237 OA
ATOM     76  O   UNL A   1      33.408  33.498  28.035  1.00  0.00    -0.744 OA
ENDBRANCH  70  73
ENDBRANCH  52  66
BRANCH  53  77
ATOM     77  C   UNL A   1      45.087  27.533  28.822  1.00  0.00     0.023 A 
ATOM     78  C   UNL A   1      44.566  27.882  27.552  1.00  0.00     0.012 A 
ATOM     79  C   UNL A   1      46.304  26.831  28.889  1.00  0.00     0.148 A 
ATOM     80  C   UNL A   1      45.315  27.671  26.392  1.00  0.00     0.002 A 
ATOM     81  C   UNL A   1      47.040  26.619  27.726  1.00  0.00     0.091 A 
ATOM     82  F   UNL A   1      46.773  26.471  30.090  1.00  0.00    -0.205 F 
ATOM     83  C   UNL A   1      46.567  27.074  26.484  1.00  0.00     0.022 A 
BRANCH  81  84
ATOM     84  S   UNL A   1      48.688  25.902  27.785  1.00  0.00     0.127 S 
ATOM     85  O   UNL A   1      48.383  24.477  27.834  1.00  0.00    -0.237 OA
ATOM     86  O   UNL A   1      49.279  26.369  26.530  1.00  0.00    -0.237 OA
ATOM     87  O   UNL A   1      49.295  26.482  28.974  1.00  0.00    -0.744 OA
ENDBRANCH  81  84
ENDBRANCH  53  77
BRANCH  65  88
ATOM     88  C   UNL A   1      43.470  34.430  30.413  1.00  0.00     0.023 A 
ATOM     89  C   UNL A   1      43.639  35.355  31.460  1.00  0.00     0.012 A 
ATOM     90  C   UNL A   1      43.449  34.975  29.096  1.00  0.00     0.148 A 
ATOM     91  C   UNL A   1      43.891  36.712  31.218  1.00  0.00     0.002 A 
ATOM     92  C   UNL A   1      43.659  36.330  28.858  1.00  0.00     0.091 A 
ATOM     93  F   UNL A   1      43.197  34.190  28.047  1.00  0.00    -0.205 F 
ATOM     94  C   UNL A   1      43.912  37.199  29.919  1.00  0.00     0.022 A 
BRANCH  92  95
ATOM     95  S   UNL A   1      43.583  37.046  27.207  1.00  0.00     0.127 S 
ATOM     96  O   UNL A   1      44.720  36.395  26.556  1.00  0.00    -0.237 OA
ATOM     97  O   UNL A   1      42.273  36.592  26.743  1.00  0.00    -0.237 OA
ATOM     98  O   UNL A   1      43.706  38.486  27.377  1.00  0.00    -0.744 OA
ENDBRANCH  92  95
ENDBRANCH  65  88
ENDBRANCH  39  40
ENDBRANCH  31  34
ENDBRANCH  29  30
ENDBRANCH  28  29
ENDBRANCH  27  28
ENDBRANCH   1  27
TORSDOF 19
ENDMDL
MODEL 3
REMARK VINA RESULT:     -11.4      2.078      2.754
REMARK SMILES COc1ccc(C)cc1[C@@H](C)NC(=O)CC1(C(=O)NCCCCNC(=O)c2ccc(-c3c4nc(c(-c5cccc(S(=O)(=O)[O-])c5F)c5ccc([nH]5)c(-c5cccc(S(=O)(=O)[O-])c5F)c5nc(c(-c6cccc(S(=O)(=O)[O-])c6F)c6ccc3[nH]6)C=C5)C=C4)cc2)CCCC1
REMARK SMILES IDX 20 1 19 2 17 3 18 4 16 6 90 7 93 8 91 9 92 10 15 11 13 12
REMARK SMILES IDX 12 13 14 15 10 16 11 17 9 18 3 19 4 20 5 21 8 22 6 23 7 24
REMARK SMILES IDX 2 25 1 26 21 27 22 28 23 29 24 30 25 31 26 33 27 34 28 35
REMARK SMILES IDX 89 36 29 37 88 38 30 39 31 40 32 41 82 42 33 43 87 44 81 45
REMARK SMILES IDX 83 46 34 47 86 48 80 49 79 50 35 52 67 53 47 54 66 55 48 56
REMARK SMILES IDX 51 57 65 58 84 59 49 60 50 61 64 63 85 64 52 65 36 66 37 67
REMARK SMILES IDX 45 68 38 69 40 70 46 71 39 72 41 73 42 74 43 75 44 76 68 77
REMARK SMILES IDX 69 78 77 79 70 80 72 81 78 82 71 83 73 84 74 85 75 86 76 87
REMARK SMILES IDX 53 88 54 89 62 90 55 91 57 92 63 93 56 94 58 95 59 96 60 97
REMARK SMILES IDX 61 98
REMARK H PARENT 19 5 12 14 24 32 83 51 51 62
REMARK Flexibility Score: inf
ROOT
ATOM      1  C   UNL A   1      31.728  29.974  25.698  1.00  0.00     0.116 C 
ENDROOT
BRANCH   1   2
ATOM      2  N   UNL A   1      31.792  29.768  24.267  1.00  0.00    -0.356 N 
ATOM      3  C   UNL A   1      32.014  28.694  23.476  1.00  0.00     0.226 C 
ATOM      4  O   UNL A   1      32.276  28.978  22.299  1.00  0.00    -0.274 OA
ATOM      5  H   UNL A   1      31.639  30.594  23.754  1.00  0.00     0.163 HD
BRANCH   3   6
ATOM      6  C   UNL A   1      32.092  27.219  23.946  1.00  0.00     0.058 C 
ATOM      7  C   UNL A   1      31.288  26.809  25.179  1.00  0.00     0.017 C 
ATOM      8  C   UNL A   1      33.551  26.899  24.358  1.00  0.00     0.017 C 
ATOM      9  C   UNL A   1      32.226  26.540  26.347  1.00  0.00     0.001 C 
ATOM     10  C   UNL A   1      33.606  26.931  25.880  1.00  0.00     0.001 C 
BRANCH   6  11
ATOM     11  C   UNL A   1      31.654  26.311  22.749  1.00  0.00     0.117 C 
BRANCH  11  12
ATOM     12  C   UNL A   1      32.710  25.554  21.945  1.00  0.00     0.221 C 
ATOM     13  N   UNL A   1      32.905  24.216  22.000  1.00  0.00    -0.349 N 
ATOM     14  H   UNL A   1      33.458  23.883  21.256  1.00  0.00     0.164 HD
ATOM     15  O   UNL A   1      33.509  26.189  21.244  1.00  0.00    -0.275 OA
BRANCH  13  16
ATOM     16  C   UNL A   1      32.484  23.147  22.912  1.00  0.00     0.113 C 
ATOM     17  C   UNL A   1      30.991  23.293  23.219  1.00  0.00     0.036 C 
BRANCH  16  18
ATOM     18  C   UNL A   1      33.311  23.175  24.188  1.00  0.00     0.016 A 
ATOM     19  C   UNL A   1      34.687  23.484  24.183  1.00  0.00     0.124 A 
ATOM     20  C   UNL A   1      35.334  23.728  25.392  1.00  0.00     0.047 A 
ATOM     21  C   UNL A   1      34.667  23.538  26.601  1.00  0.00     0.007 A 
ATOM     22  C   UNL A   1      32.691  22.889  25.424  1.00  0.00     0.013 A 
ATOM     23  C   UNL A   1      33.376  23.030  26.631  1.00  0.00    -0.051 A 
ATOM     24  C   UNL A   1      32.771  22.582  27.928  1.00  0.00     0.044 C 
BRANCH  19  25
ATOM     25  O   UNL A   1      35.321  23.496  22.966  1.00  0.00    -0.496 OA
ATOM     26  C   UNL A   1      36.579  22.828  22.878  1.00  0.00     0.278 C 
ENDBRANCH  19  25
ENDBRANCH  16  18
ENDBRANCH  13  16
ENDBRANCH  11  12
ENDBRANCH   6  11
ENDBRANCH   3   6
ENDBRANCH   1   2
BRANCH   1  27
ATOM     27  C   UNL A   1      33.119  30.231  26.293  1.00  0.00     0.023 C 
BRANCH  27  28
ATOM     28  C   UNL A   1      33.141  31.039  27.589  1.00  0.00     0.023 C 
BRANCH  28  29
ATOM     29  C   UNL A   1      33.736  32.422  27.415  1.00  0.00     0.116 C 
BRANCH  29  30
ATOM     30  N   UNL A   1      33.996  33.131  28.652  1.00  0.00    -0.352 N 
ATOM     31  C   UNL A   1      34.768  32.774  29.747  1.00  0.00     0.251 C 
ATOM     32  H   UNL A   1      33.553  34.008  28.727  1.00  0.00     0.163 HD
ATOM     33  O   UNL A   1      34.659  33.449  30.760  1.00  0.00    -0.269 OA
BRANCH  31  34
ATOM     34  C   UNL A   1      35.815  31.711  29.655  1.00  0.00     0.039 A 
ATOM     35  C   UNL A   1      35.894  30.757  30.684  1.00  0.00     0.014 A 
ATOM     36  C   UNL A   1      36.838  31.762  28.718  1.00  0.00     0.014 A 
ATOM     37  C   UNL A   1      37.083  30.060  30.902  1.00  0.00     0.010 A 
ATOM     38  C   UNL A   1      38.058  31.215  29.023  1.00  0.00     0.010 A 
ATOM     39  C   UNL A   1      38.192  30.391  30.141  1.00  0.00    -0.014 A 
BRANCH  39  40
ATOM     40  C   UNL A   1      39.547  29.914  30.334  1.00  0.00     0.031 A 
ATOM     41  C   UNL A   1      39.886  28.559  29.857  1.00  0.00     0.074 A 
ATOM     42  C   UNL A   1      40.512  30.836  30.545  1.00  0.00     0.049 A 
ATOM     43  N   UNL A   1      41.068  28.061  29.906  1.00  0.00    -0.248 NA
ATOM     44  C   UNL A   1      38.904  27.659  29.267  1.00  0.00     0.031 C 
ATOM     45  C   UNL A   1      41.923  30.741  30.182  1.00  0.00     0.029 A 
ATOM     46  N   UNL A   1      40.438  32.024  31.278  1.00  0.00    -0.354 N 
ATOM     47  C   UNL A   1      41.082  26.930  29.123  1.00  0.00     0.074 A 
ATOM     48  C   UNL A   1      39.692  26.671  28.834  1.00  0.00     0.031 C 
ATOM     49  C   UNL A   1      42.612  31.681  30.843  1.00  0.00     0.029 A 
ATOM     50  C   UNL A   1      41.713  32.189  31.857  1.00  0.00     0.049 A 
ATOM     51  H   UNL A   1      39.660  32.620  31.369  1.00  0.00     0.167 HD
ATOM     52  C   UNL A   1      42.294  26.449  28.728  1.00  0.00     0.034 A 
ATOM     53  C   UNL A   1      41.940  32.073  33.202  1.00  0.00     0.034 A 
ATOM     54  C   UNL A   1      43.387  27.184  29.397  1.00  0.00     0.049 A 
ATOM     55  C   UNL A   1      42.929  30.964  33.564  1.00  0.00     0.074 A 
ATOM     56  C   UNL A   1      44.326  28.125  29.006  1.00  0.00     0.029 A 
ATOM     57  N   UNL A   1      43.450  27.144  30.782  1.00  0.00    -0.354 N 
ATOM     58  N   UNL A   1      43.497  30.155  32.711  1.00  0.00    -0.248 NA
ATOM     59  C   UNL A   1      43.289  30.637  34.941  1.00  0.00     0.031 C 
ATOM     60  C   UNL A   1      44.954  28.643  30.181  1.00  0.00     0.029 A 
ATOM     61  C   UNL A   1      44.417  27.997  31.281  1.00  0.00     0.049 A 
ATOM     62  H   UNL A   1      42.874  26.577  31.343  1.00  0.00     0.167 HD
ATOM     63  C   UNL A   1      44.125  29.131  33.375  1.00  0.00     0.074 A 
ATOM     64  C   UNL A   1      43.999  29.506  34.775  1.00  0.00     0.031 C 
ATOM     65  C   UNL A   1      44.630  28.032  32.724  1.00  0.00     0.034 A 
BRANCH  52  66
ATOM     66  C   UNL A   1      42.561  25.446  27.613  1.00  0.00     0.023 A 
ATOM     67  C   UNL A   1      43.102  25.961  26.411  1.00  0.00     0.012 A 
ATOM     68  C   UNL A   1      42.271  24.061  27.602  1.00  0.00     0.148 A 
ATOM     69  C   UNL A   1      43.267  25.186  25.258  1.00  0.00     0.002 A 
ATOM     70  C   UNL A   1      42.423  23.283  26.448  1.00  0.00     0.091 A 
ATOM     71  F   UNL A   1      41.855  23.451  28.708  1.00  0.00    -0.205 F 
ATOM     72  C   UNL A   1      42.910  23.848  25.270  1.00  0.00     0.022 A 
BRANCH  70  73
ATOM     73  S   UNL A   1      41.968  21.538  26.382  1.00  0.00     0.127 S 
ATOM     74  O   UNL A   1      40.530  21.612  26.110  1.00  0.00    -0.237 OA
ATOM     75  O   UNL A   1      42.772  21.046  25.264  1.00  0.00    -0.237 OA
ATOM     76  O   UNL A   1      42.305  20.968  27.680  1.00  0.00    -0.744 OA
ENDBRANCH  70  73
ENDBRANCH  52  66
BRANCH  53  77
ATOM     77  C   UNL A   1      40.742  32.447  34.017  1.00  0.00     0.023 A 
ATOM     78  C   UNL A   1      39.924  31.390  34.484  1.00  0.00     0.012 A 
ATOM     79  C   UNL A   1      40.684  33.692  34.672  1.00  0.00     0.148 A 
ATOM     80  C   UNL A   1      39.185  31.525  35.661  1.00  0.00     0.002 A 
ATOM     81  C   UNL A   1      39.938  33.819  35.841  1.00  0.00     0.091 A 
ATOM     82  F   UNL A   1      41.431  34.698  34.203  1.00  0.00    -0.205 F 
ATOM     83  C   UNL A   1      39.223  32.727  36.359  1.00  0.00     0.022 A 
BRANCH  81  84
ATOM     84  S   UNL A   1      39.990  35.328  36.817  1.00  0.00     0.127 S 
ATOM     85  O   UNL A   1      39.046  35.015  37.884  1.00  0.00    -0.237 OA
ATOM     86  O   UNL A   1      41.393  35.390  37.225  1.00  0.00    -0.237 OA
ATOM     87  O   UNL A   1      39.599  36.377  35.887  1.00  0.00    -0.744 OA
ENDBRANCH  81  84
ENDBRANCH  53  77
BRANCH  65  88
ATOM     88  C   UNL A   1      45.319  26.846  33.395  1.00  0.00     0.023 A 
ATOM     89  C   UNL A   1      46.720  26.709  33.392  1.00  0.00     0.012 A 
ATOM     90  C   UNL A   1      44.588  25.769  33.974  1.00  0.00     0.148 A 
ATOM     91  C   UNL A   1      47.362  25.636  34.026  1.00  0.00     0.002 A 
ATOM     92  C   UNL A   1      45.226  24.683  34.567  1.00  0.00     0.091 A 
ATOM     93  F   UNL A   1      43.254  25.763  33.936  1.00  0.00    -0.205 F 
ATOM     94  C   UNL A   1      46.618  24.629  34.622  1.00  0.00     0.022 A 
BRANCH  92  95
ATOM     95  S   UNL A   1      44.319  23.286  35.256  1.00  0.00     0.127 S 
ATOM     96  O   UNL A   1      43.985  22.532  34.048  1.00  0.00    -0.237 OA
ATOM     97  O   UNL A   1      45.332  22.661  36.105  1.00  0.00    -0.237 OA
ATOM     98  O   UNL A   1      43.183  23.848  35.972  1.00  0.00    -0.744 OA
ENDBRANCH  92  95
ENDBRANCH  65  88
ENDBRANCH  39  40
ENDBRANCH  31  34
ENDBRANCH  29  30
ENDBRANCH  28  29
ENDBRANCH  27  28
ENDBRANCH   1  27
TORSDOF 19
ENDMDL
