MODEL 1
REMARK VINA RESULT:     -12.4      0.000      0.000
REMARK SMILES Cc1ccc(-c2cc3cccnc3n2CCC(=O)NCCCCNC(=O)c2ccc(-c3c4nc(c(-c5cccc(S(=O)(=O)[O-])c5F)c5ccc([nH]5)c(-c5cccc(S(=O)(=O)[O-])c5F)c5nc(c(-c6cccc(S(=O)(=O)[O-])c6F)c6ccc3[nH]6)C=C5)C=C4)cc2)cn1
REMARK SMILES IDX 21 1 20 2 19 3 17 4 18 5 16 7 15 8 14 9 6 10 7 11 8 12 13 13
REMARK SMILES IDX 9 14 12 15 10 16 11 17 5 18 1 19 2 20 3 21 91 22 4 23 90 24
REMARK SMILES IDX 22 25 23 26 24 27 25 28 26 30 27 31 28 32 89 33 29 34 88 35
REMARK SMILES IDX 30 36 31 37 32 38 82 39 33 40 87 41 81 42 83 43 34 44 86 45
REMARK SMILES IDX 80 46 79 47 35 49 67 50 47 51 66 52 48 53 51 54 65 55 84 56
REMARK SMILES IDX 49 57 50 58 64 60 85 61 52 62 36 63 37 64 45 65 38 66 40 67
REMARK SMILES IDX 46 68 39 69 41 70 42 71 43 72 44 73 68 74 69 75 77 76 70 77
REMARK SMILES IDX 72 78 78 79 71 80 73 81 74 82 75 83 76 84 53 85 54 86 62 87
REMARK SMILES IDX 55 88 57 89 63 90 56 91 58 92 59 93 60 94 61 95
REMARK H PARENT 19 6 24 29 83 48 51 59
REMARK Flexibility Score: inf
ROOT
ATOM      1  C   UNL A   1      37.818  21.708  25.409  1.00  0.00     0.023 C 
ENDROOT
BRANCH   1   2
ATOM      2  C   UNL A   1      36.767  22.129  24.393  1.00  0.00     0.116 C 
BRANCH   2   3
ATOM      3  N   UNL A   1      35.842  23.130  24.913  1.00  0.00    -0.356 N 
ATOM      4  C   UNL A   1      34.730  23.020  25.698  1.00  0.00     0.221 C 
ATOM      5  O   UNL A   1      34.130  24.055  26.002  1.00  0.00    -0.275 OA
ATOM      6  H   UNL A   1      36.060  24.054  24.651  1.00  0.00     0.163 HD
BRANCH   4   7
ATOM      7  C   UNL A   1      34.194  21.687  26.187  1.00  0.00     0.122 C 
BRANCH   7   8
ATOM      8  C   UNL A   1      32.694  21.419  25.933  1.00  0.00     0.134 C 
BRANCH   8   9
ATOM      9  N   UNL A   1      32.387  20.770  24.663  1.00  0.00    -0.325 N 
ATOM     10  C   UNL A   1      32.154  21.326  23.392  1.00  0.00     0.052 A 
ATOM     11  C   UNL A   1      32.071  20.212  22.533  1.00  0.00     0.039 A 
ATOM     12  C   UNL A   1      32.427  19.033  23.243  1.00  0.00     0.020 A 
ATOM     13  C   UNL A   1      32.490  19.389  24.578  1.00  0.00     0.140 A 
ATOM     14  C   UNL A   1      32.814  17.721  22.904  1.00  0.00     0.013 A 
ATOM     15  N   UNL A   1      32.776  18.573  25.618  1.00  0.00    -0.238 NA
ATOM     16  C   UNL A   1      33.188  16.863  23.941  1.00  0.00     0.021 A 
ATOM     17  C   UNL A   1      33.121  17.322  25.246  1.00  0.00     0.113 A 
BRANCH  10  18
ATOM     18  C   UNL A   1      32.386  22.742  22.941  1.00  0.00     0.017 A 
ATOM     19  C   UNL A   1      33.638  26.844  22.477  1.00  0.00     0.066 C 
ATOM     20  C   UNL A   1      33.187  25.420  22.607  1.00  0.00     0.037 A 
ATOM     21  C   UNL A   1      31.944  25.141  23.136  1.00  0.00     0.024 A 
ATOM     22  N   UNL A   1      34.009  24.433  22.180  1.00  0.00    -0.261 NA
ATOM     23  C   UNL A   1      31.552  23.808  23.271  1.00  0.00     0.014 A 
ATOM     24  C   UNL A   1      33.595  23.142  22.365  1.00  0.00     0.121 A 
ENDBRANCH  10  18
ENDBRANCH   8   9
ENDBRANCH   7   8
ENDBRANCH   4   7
ENDBRANCH   2   3
ENDBRANCH   1   2
BRANCH   1  25
ATOM     25  C   UNL A   1      38.646  20.429  25.266  1.00  0.00     0.023 C 
BRANCH  25  26
ATOM     26  C   UNL A   1      39.729  20.277  26.308  1.00  0.00     0.116 C 
BRANCH  26  27
ATOM     27  N   UNL A   1      40.848  19.422  25.871  1.00  0.00    -0.352 N 
ATOM     28  C   UNL A   1      42.172  19.785  25.643  1.00  0.00     0.251 C 
ATOM     29  H   UNL A   1      40.631  18.472  25.721  1.00  0.00     0.163 HD
ATOM     30  O   UNL A   1      42.937  19.088  25.011  1.00  0.00    -0.269 OA
BRANCH  28  31
ATOM     31  C   UNL A   1      42.610  21.054  26.247  1.00  0.00     0.039 A 
ATOM     32  C   UNL A   1      42.704  22.245  25.525  1.00  0.00     0.014 A 
ATOM     33  C   UNL A   1      42.707  21.028  27.631  1.00  0.00     0.014 A 
ATOM     34  C   UNL A   1      42.789  23.433  26.244  1.00  0.00     0.010 A 
ATOM     35  C   UNL A   1      42.472  22.188  28.304  1.00  0.00     0.010 A 
ATOM     36  C   UNL A   1      42.627  23.389  27.639  1.00  0.00    -0.014 A 
BRANCH  36  37
ATOM     37  C   UNL A   1      42.516  24.581  28.459  1.00  0.00     0.031 A 
ATOM     38  C   UNL A   1      41.253  25.322  28.257  1.00  0.00     0.074 A 
ATOM     39  C   UNL A   1      43.411  24.871  29.430  1.00  0.00     0.049 A 
ATOM     40  N   UNL A   1      41.059  26.274  27.405  1.00  0.00    -0.248 NA
ATOM     41  C   UNL A   1      40.016  24.831  28.886  1.00  0.00     0.031 C 
ATOM     42  C   UNL A   1      44.510  24.035  29.948  1.00  0.00     0.029 A 
ATOM     43  N   UNL A   1      43.480  25.965  30.228  1.00  0.00    -0.354 N 
ATOM     44  C   UNL A   1      39.769  26.720  27.659  1.00  0.00     0.074 A 
ATOM     45  C   UNL A   1      39.102  25.647  28.347  1.00  0.00     0.031 C 
ATOM     46  C   UNL A   1      44.984  24.557  31.100  1.00  0.00     0.029 A 
ATOM     47  C   UNL A   1      44.378  25.858  31.285  1.00  0.00     0.049 A 
ATOM     48  H   UNL A   1      42.938  26.771  30.071  1.00  0.00     0.167 HD
ATOM     49  C   UNL A   1      39.492  28.053  27.620  1.00  0.00     0.034 A 
ATOM     50  C   UNL A   1      44.627  26.807  32.216  1.00  0.00     0.034 A 
ATOM     51  C   UNL A   1      40.624  28.792  27.124  1.00  0.00     0.049 A 
ATOM     52  C   UNL A   1      44.294  28.093  31.567  1.00  0.00     0.074 A 
ATOM     53  C   UNL A   1      41.245  28.983  25.909  1.00  0.00     0.029 A 
ATOM     54  N   UNL A   1      41.537  29.089  28.107  1.00  0.00    -0.354 N 
ATOM     55  N   UNL A   1      44.934  28.555  30.528  1.00  0.00    -0.248 NA
ATOM     56  C   UNL A   1      43.006  28.716  31.845  1.00  0.00     0.031 C 
ATOM     57  C   UNL A   1      42.621  29.223  26.203  1.00  0.00     0.029 A 
ATOM     58  C   UNL A   1      42.793  29.235  27.585  1.00  0.00     0.049 A 
ATOM     59  H   UNL A   1      41.316  29.185  29.061  1.00  0.00     0.167 HD
ATOM     60  C   UNL A   1      43.947  29.176  29.787  1.00  0.00     0.074 A 
ATOM     61  C   UNL A   1      42.849  29.408  30.715  1.00  0.00     0.031 C 
ATOM     62  C   UNL A   1      43.968  29.147  28.426  1.00  0.00     0.034 A 
BRANCH  49  63
ATOM     63  C   UNL A   1      38.446  28.751  28.455  1.00  0.00     0.023 A 
ATOM     64  C   UNL A   1      37.540  29.604  27.791  1.00  0.00     0.012 A 
ATOM     65  C   UNL A   1      38.480  28.821  29.866  1.00  0.00     0.148 A 
ATOM     66  C   UNL A   1      36.700  30.473  28.498  1.00  0.00     0.002 A 
ATOM     67  C   UNL A   1      37.591  29.627  30.567  1.00  0.00     0.091 A 
ATOM     68  F   UNL A   1      39.468  28.221  30.536  1.00  0.00    -0.205 F 
ATOM     69  C   UNL A   1      36.711  30.471  29.887  1.00  0.00     0.022 A 
BRANCH  67  70
ATOM     70  S   UNL A   1      37.551  29.641  32.364  1.00  0.00     0.127 S 
ATOM     71  O   UNL A   1      36.343  30.420  32.621  1.00  0.00    -0.237 OA
ATOM     72  O   UNL A   1      37.447  28.215  32.669  1.00  0.00    -0.237 OA
ATOM     73  O   UNL A   1      38.809  30.250  32.773  1.00  0.00    -0.744 OA
ENDBRANCH  67  70
ENDBRANCH  49  63
BRANCH  50  74
ATOM     74  C   UNL A   1      44.814  26.700  33.683  1.00  0.00     0.023 A 
ATOM     75  C   UNL A   1      45.916  27.366  34.264  1.00  0.00     0.012 A 
ATOM     76  C   UNL A   1      43.762  26.291  34.529  1.00  0.00     0.148 A 
ATOM     77  C   UNL A   1      45.916  27.723  35.616  1.00  0.00     0.002 A 
ATOM     78  C   UNL A   1      43.771  26.644  35.877  1.00  0.00     0.091 A 
ATOM     79  F   UNL A   1      42.715  25.647  33.996  1.00  0.00    -0.205 F 
ATOM     80  C   UNL A   1      44.832  27.385  36.416  1.00  0.00     0.022 A 
BRANCH  78  81
ATOM     81  S   UNL A   1      42.405  26.252  36.978  1.00  0.00     0.127 S 
ATOM     82  O   UNL A   1      42.984  26.533  38.293  1.00  0.00    -0.237 OA
ATOM     83  O   UNL A   1      41.384  27.201  36.544  1.00  0.00    -0.237 OA
ATOM     84  O   UNL A   1      42.105  24.845  36.746  1.00  0.00    -0.744 OA
ENDBRANCH  78  81
ENDBRANCH  50  74
BRANCH  62  85
ATOM     85  C   UNL A   1      45.281  28.884  27.754  1.00  0.00     0.023 A 
ATOM     86  C   UNL A   1      46.342  29.810  27.727  1.00  0.00     0.012 A 
ATOM     87  C   UNL A   1      45.484  27.589  27.254  1.00  0.00     0.148 A 
ATOM     88  C   UNL A   1      47.591  29.438  27.216  1.00  0.00     0.002 A 
ATOM     89  C   UNL A   1      46.730  27.213  26.781  1.00  0.00     0.091 A 
ATOM     90  F   UNL A   1      44.450  26.734  27.291  1.00  0.00    -0.205 F 
ATOM     91  C   UNL A   1      47.788  28.136  26.757  1.00  0.00     0.022 A 
BRANCH  89  92
ATOM     92  S   UNL A   1      47.069  25.529  26.269  1.00  0.00     0.127 S 
ATOM     93  O   UNL A   1      48.451  25.624  25.800  1.00  0.00    -0.237 OA
ATOM     94  O   UNL A   1      46.896  24.788  27.519  1.00  0.00    -0.237 OA
ATOM     95  O   UNL A   1      46.088  25.210  25.241  1.00  0.00    -0.744 OA
ENDBRANCH  89  92
ENDBRANCH  62  85
ENDBRANCH  36  37
ENDBRANCH  28  31
ENDBRANCH  26  27
ENDBRANCH  25  26
ENDBRANCH   1  25
TORSDOF 17
ENDMDL
MODEL 2
REMARK VINA RESULT:     -12.1      2.553      6.853
REMARK SMILES Cc1ccc(-c2cc3cccnc3n2CCC(=O)NCCCCNC(=O)c2ccc(-c3c4nc(c(-c5cccc(S(=O)(=O)[O-])c5F)c5ccc([nH]5)c(-c5cccc(S(=O)(=O)[O-])c5F)c5nc(c(-c6cccc(S(=O)(=O)[O-])c6F)c6ccc3[nH]6)C=C5)C=C4)cc2)cn1
REMARK SMILES IDX 21 1 20 2 19 3 17 4 18 5 16 7 15 8 14 9 6 10 7 11 8 12 13 13
REMARK SMILES IDX 9 14 12 15 10 16 11 17 5 18 1 19 2 20 3 21 91 22 4 23 90 24
REMARK SMILES IDX 22 25 23 26 24 27 25 28 26 30 27 31 28 32 89 33 29 34 88 35
REMARK SMILES IDX 30 36 31 37 32 38 82 39 33 40 87 41 81 42 83 43 34 44 86 45
REMARK SMILES IDX 80 46 79 47 35 49 67 50 47 51 66 52 48 53 51 54 65 55 84 56
REMARK SMILES IDX 49 57 50 58 64 60 85 61 52 62 36 63 37 64 45 65 38 66 40 67
REMARK SMILES IDX 46 68 39 69 41 70 42 71 43 72 44 73 68 74 69 75 77 76 70 77
REMARK SMILES IDX 72 78 78 79 71 80 73 81 74 82 75 83 76 84 53 85 54 86 62 87
REMARK SMILES IDX 55 88 57 89 63 90 56 91 58 92 59 93 60 94 61 95
REMARK H PARENT 19 6 24 29 83 48 51 59
REMARK Flexibility Score: inf
ROOT
ATOM      1  C   UNL A   1      40.375  21.424  26.149  1.00  0.00     0.023 C 
ENDROOT
BRANCH   1   2
ATOM      2  C   UNL A   1      38.900  21.763  26.297  1.00  0.00     0.116 C 
BRANCH   2   3
ATOM      3  N   UNL A   1      38.300  22.241  25.056  1.00  0.00    -0.356 N 
ATOM      4  C   UNL A   1      37.126  21.927  24.434  1.00  0.00     0.221 C 
ATOM      5  O   UNL A   1      36.858  22.504  23.375  1.00  0.00    -0.275 OA
ATOM      6  H   UNL A   1      38.839  22.914  24.581  1.00  0.00     0.163 HD
BRANCH   4   7
ATOM      7  C   UNL A   1      36.159  20.889  24.972  1.00  0.00     0.122 C 
BRANCH   7   8
ATOM      8  C   UNL A   1      34.789  21.416  25.453  1.00  0.00     0.134 C 
BRANCH   8   9
ATOM      9  N   UNL A   1      33.808  21.645  24.398  1.00  0.00    -0.325 N 
ATOM     10  C   UNL A   1      32.996  20.733  23.700  1.00  0.00     0.052 A 
ATOM     11  C   UNL A   1      32.146  21.545  22.924  1.00  0.00     0.039 A 
ATOM     12  C   UNL A   1      32.323  22.908  23.288  1.00  0.00     0.020 A 
ATOM     13  C   UNL A   1      33.441  22.949  24.101  1.00  0.00     0.140 A 
ATOM     14  C   UNL A   1      31.604  24.107  23.114  1.00  0.00     0.013 A 
ATOM     15  N   UNL A   1      33.989  24.051  24.662  1.00  0.00    -0.238 NA
ATOM     16  C   UNL A   1      32.094  25.258  23.737  1.00  0.00     0.021 A 
ATOM     17  C   UNL A   1      33.277  25.178  24.453  1.00  0.00     0.113 A 
BRANCH  10  18
ATOM     18  C   UNL A   1      32.748  19.283  24.012  1.00  0.00     0.017 A 
ATOM     19  C   UNL A   1      32.942  15.191  25.364  1.00  0.00     0.066 C 
ATOM     20  C   UNL A   1      32.842  16.607  24.883  1.00  0.00     0.037 A 
ATOM     21  C   UNL A   1      33.146  16.908  23.572  1.00  0.00     0.024 A 
ATOM     22  N   UNL A   1      32.431  17.563  25.749  1.00  0.00    -0.261 NA
ATOM     23  C   UNL A   1      33.070  18.237  23.150  1.00  0.00     0.014 A 
ATOM     24  C   UNL A   1      32.406  18.855  25.299  1.00  0.00     0.121 A 
ENDBRANCH  10  18
ENDBRANCH   8   9
ENDBRANCH   7   8
ENDBRANCH   4   7
ENDBRANCH   2   3
ENDBRANCH   1   2
BRANCH   1  25
ATOM     25  C   UNL A   1      40.908  19.991  26.214  1.00  0.00     0.023 C 
BRANCH  25  26
ATOM     26  C   UNL A   1      42.298  19.876  26.794  1.00  0.00     0.116 C 
BRANCH  26  27
ATOM     27  N   UNL A   1      43.276  19.287  25.861  1.00  0.00    -0.352 N 
ATOM     28  C   UNL A   1      44.064  19.937  24.916  1.00  0.00     0.251 C 
ATOM     29  H   UNL A   1      43.386  18.309  25.913  1.00  0.00     0.163 HD
ATOM     30  O   UNL A   1      44.610  19.346  24.008  1.00  0.00    -0.269 OA
BRANCH  28  31
ATOM     31  C   UNL A   1      44.234  21.388  25.099  1.00  0.00     0.039 A 
ATOM     32  C   UNL A   1      43.381  22.330  24.522  1.00  0.00     0.014 A 
ATOM     33  C   UNL A   1      45.167  21.740  26.065  1.00  0.00     0.014 A 
ATOM     34  C   UNL A   1      43.413  23.627  25.025  1.00  0.00     0.010 A 
ATOM     35  C   UNL A   1      44.965  22.901  26.745  1.00  0.00     0.010 A 
ATOM     36  C   UNL A   1      44.183  23.885  26.172  1.00  0.00    -0.014 A 
BRANCH  36  37
ATOM     37  C   UNL A   1      44.144  25.150  26.880  1.00  0.00     0.031 A 
ATOM     38  C   UNL A   1      45.272  26.048  26.550  1.00  0.00     0.074 A 
ATOM     39  C   UNL A   1      43.082  25.522  27.628  1.00  0.00     0.049 A 
ATOM     40  N   UNL A   1      46.406  26.100  27.166  1.00  0.00    -0.248 NA
ATOM     41  C   UNL A   1      45.249  26.806  25.289  1.00  0.00     0.031 C 
ATOM     42  C   UNL A   1      41.767  24.865  27.751  1.00  0.00     0.029 A 
ATOM     43  N   UNL A   1      42.922  26.631  28.392  1.00  0.00    -0.354 N 
ATOM     44  C   UNL A   1      47.087  27.153  26.569  1.00  0.00     0.074 A 
ATOM     45  C   UNL A   1      46.473  27.347  25.282  1.00  0.00     0.031 C 
ATOM     46  C   UNL A   1      40.890  25.695  28.358  1.00  0.00     0.029 A 
ATOM     47  C   UNL A   1      41.625  26.839  28.853  1.00  0.00     0.049 A 
ATOM     48  H   UNL A   1      43.665  27.240  28.606  1.00  0.00     0.167 HD
ATOM     49  C   UNL A   1      47.827  28.003  27.333  1.00  0.00     0.034 A 
ATOM     50  C   UNL A   1      41.211  27.867  29.628  1.00  0.00     0.034 A 
ATOM     51  C   UNL A   1      47.912  27.523  28.689  1.00  0.00     0.049 A 
ATOM     52  C   UNL A   1      42.412  28.310  30.370  1.00  0.00     0.074 A 
ATOM     53  C   UNL A   1      48.562  26.508  29.356  1.00  0.00     0.029 A 
ATOM     54  N   UNL A   1      46.834  27.898  29.454  1.00  0.00    -0.354 N 
ATOM     55  N   UNL A   1      43.037  27.554  31.230  1.00  0.00    -0.248 NA
ATOM     56  C   UNL A   1      43.148  29.476  29.898  1.00  0.00     0.031 C 
ATOM     57  C   UNL A   1      47.725  26.162  30.458  1.00  0.00     0.029 A 
ATOM     58  C   UNL A   1      46.620  27.011  30.472  1.00  0.00     0.049 A 
ATOM     59  H   UNL A   1      46.288  28.700  29.290  1.00  0.00     0.167 HD
ATOM     60  C   UNL A   1      44.366  27.887  31.050  1.00  0.00     0.074 A 
ATOM     61  C   UNL A   1      44.358  29.179  30.377  1.00  0.00     0.031 C 
ATOM     62  C   UNL A   1      45.346  26.948  31.156  1.00  0.00     0.034 A 
BRANCH  49  63
ATOM     63  C   UNL A   1      48.058  29.465  27.038  1.00  0.00     0.023 A 
ATOM     64  C   UNL A   1      49.364  29.970  27.208  1.00  0.00     0.012 A 
ATOM     65  C   UNL A   1      47.021  30.409  26.866  1.00  0.00     0.148 A 
ATOM     66  C   UNL A   1      49.626  31.345  27.195  1.00  0.00     0.002 A 
ATOM     67  C   UNL A   1      47.294  31.768  26.776  1.00  0.00     0.091 A 
ATOM     68  F   UNL A   1      45.746  30.013  26.936  1.00  0.00    -0.205 F 
ATOM     69  C   UNL A   1      48.593  32.245  26.959  1.00  0.00     0.022 A 
BRANCH  67  70
ATOM     70  S   UNL A   1      45.997  32.969  26.448  1.00  0.00     0.127 S 
ATOM     71  O   UNL A   1      46.734  34.002  25.727  1.00  0.00    -0.237 OA
ATOM     72  O   UNL A   1      45.067  32.186  25.635  1.00  0.00    -0.237 OA
ATOM     73  O   UNL A   1      45.478  33.343  27.757  1.00  0.00    -0.744 OA
ENDBRANCH  67  70
ENDBRANCH  49  63
BRANCH  50  74
ATOM     74  C   UNL A   1      39.987  28.700  29.560  1.00  0.00     0.023 A 
ATOM     75  C   UNL A   1      39.258  28.714  28.350  1.00  0.00     0.012 A 
ATOM     76  C   UNL A   1      39.346  29.159  30.729  1.00  0.00     0.148 A 
ATOM     77  C   UNL A   1      37.901  29.053  28.326  1.00  0.00     0.002 A 
ATOM     78  C   UNL A   1      37.995  29.502  30.698  1.00  0.00     0.091 A 
ATOM     79  F   UNL A   1      40.027  29.164  31.883  1.00  0.00    -0.205 F 
ATOM     80  C   UNL A   1      37.264  29.422  29.504  1.00  0.00     0.022 A 
BRANCH  78  81
ATOM     81  S   UNL A   1      37.094  29.982  32.178  1.00  0.00     0.127 S 
ATOM     82  O   UNL A   1      35.813  30.422  31.624  1.00  0.00    -0.237 OA
ATOM     83  O   UNL A   1      37.041  28.726  32.920  1.00  0.00    -0.237 OA
ATOM     84  O   UNL A   1      37.880  31.048  32.786  1.00  0.00    -0.744 OA
ENDBRANCH  78  81
ENDBRANCH  50  74
BRANCH  62  85
ATOM     85  C   UNL A   1      45.039  25.704  31.934  1.00  0.00     0.023 A 
ATOM     86  C   UNL A   1      44.511  24.533  31.356  1.00  0.00     0.012 A 
ATOM     87  C   UNL A   1      45.438  25.690  33.279  1.00  0.00     0.148 A 
ATOM     88  C   UNL A   1      44.395  23.363  32.115  1.00  0.00     0.002 A 
ATOM     89  C   UNL A   1      45.355  24.521  34.017  1.00  0.00     0.091 A 
ATOM     90  F   UNL A   1      45.933  26.824  33.798  1.00  0.00    -0.205 F 
ATOM     91  C   UNL A   1      44.831  23.353  33.440  1.00  0.00     0.022 A 
BRANCH  89  92
ATOM     92  S   UNL A   1      45.987  24.423  35.691  1.00  0.00     0.127 S 
ATOM     93  O   UNL A   1      45.531  25.688  36.265  1.00  0.00    -0.237 OA
ATOM     94  O   UNL A   1      45.306  23.234  36.206  1.00  0.00    -0.237 OA
ATOM     95  O   UNL A   1      47.432  24.282  35.574  1.00  0.00    -0.744 OA
ENDBRANCH  89  92
ENDBRANCH  62  85
ENDBRANCH  36  37
ENDBRANCH  28  31
ENDBRANCH  26  27
ENDBRANCH  25  26
ENDBRANCH   1  25
TORSDOF 17
ENDMDL
MODEL 3
REMARK VINA RESULT:     -12.1      2.568      6.308
REMARK SMILES Cc1ccc(-c2cc3cccnc3n2CCC(=O)NCCCCNC(=O)c2ccc(-c3c4nc(c(-c5cccc(S(=O)(=O)[O-])c5F)c5ccc([nH]5)c(-c5cccc(S(=O)(=O)[O-])c5F)c5nc(c(-c6cccc(S(=O)(=O)[O-])c6F)c6ccc3[nH]6)C=C5)C=C4)cc2)cn1
REMARK SMILES IDX 21 1 20 2 19 3 17 4 18 5 16 7 15 8 14 9 6 10 7 11 8 12 13 13
REMARK SMILES IDX 9 14 12 15 10 16 11 17 5 18 1 19 2 20 3 21 91 22 4 23 90 24
REMARK SMILES IDX 22 25 23 26 24 27 25 28 26 30 27 31 28 32 89 33 29 34 88 35
REMARK SMILES IDX 30 36 31 37 32 38 82 39 33 40 87 41 81 42 83 43 34 44 86 45
REMARK SMILES IDX 80 46 79 47 35 49 67 50 47 51 66 52 48 53 51 54 65 55 84 56
REMARK SMILES IDX 49 57 50 58 64 60 85 61 52 62 36 63 37 64 45 65 38 66 40 67
REMARK SMILES IDX 46 68 39 69 41 70 42 71 43 72 44 73 68 74 69 75 77 76 70 77
REMARK SMILES IDX 72 78 78 79 71 80 73 81 74 82 75 83 76 84 53 85 54 86 62 87
REMARK SMILES IDX 55 88 57 89 63 90 56 91 58 92 59 93 60 94 61 95
REMARK H PARENT 19 6 24 29 83 48 51 59
REMARK Flexibility Score: inf
ROOT
ATOM      1  C   UNL A   1      40.321  21.702  26.144  1.00  0.00     0.023 C 
ENDROOT
BRANCH   1   2
ATOM      2  C   UNL A   1      38.868  22.107  26.335  1.00  0.00     0.116 C 
BRANCH   2   3
ATOM      3  N   UNL A   1      38.205  22.453  25.082  1.00  0.00    -0.356 N 
ATOM      4  C   UNL A   1      37.116  21.920  24.453  1.00  0.00     0.221 C 
ATOM      5  O   UNL A   1      36.759  22.426  23.384  1.00  0.00    -0.275 OA
ATOM      6  H   UNL A   1      38.616  23.208  24.604  1.00  0.00     0.163 HD
BRANCH   4   7
ATOM      7  C   UNL A   1      36.351  20.728  24.995  1.00  0.00     0.122 C 
BRANCH   7   8
ATOM      8  C   UNL A   1      34.923  21.010  25.511  1.00  0.00     0.134 C 
BRANCH   8   9
ATOM      9  N   UNL A   1      33.847  20.462  24.692  1.00  0.00    -0.325 N 
ATOM     10  C   UNL A   1      32.866  21.116  23.926  1.00  0.00     0.052 A 
ATOM     11  C   UNL A   1      32.212  20.078  23.234  1.00  0.00     0.039 A 
ATOM     12  C   UNL A   1      32.906  18.854  23.442  1.00  0.00     0.020 A 
ATOM     13  C   UNL A   1      33.827  19.097  24.444  1.00  0.00     0.140 A 
ATOM     14  C   UNL A   1      32.940  17.589  22.823  1.00  0.00     0.013 A 
ATOM     15  N   UNL A   1      34.691  18.204  24.978  1.00  0.00    -0.238 NA
ATOM     16  C   UNL A   1      33.868  16.657  23.295  1.00  0.00     0.021 A 
ATOM     17  C   UNL A   1      34.675  17.001  24.367  1.00  0.00     0.113 A 
BRANCH  10  18
ATOM     18  C   UNL A   1      32.796  22.572  23.555  1.00  0.00     0.017 A 
ATOM     19  C   UNL A   1      31.732  26.466  22.032  1.00  0.00     0.066 C 
ATOM     20  C   UNL A   1      32.129  25.127  22.579  1.00  0.00     0.037 A 
ATOM     21  C   UNL A   1      33.074  24.371  21.918  1.00  0.00     0.024 A 
ATOM     22  N   UNL A   1      31.559  24.697  23.729  1.00  0.00    -0.261 NA
ATOM     23  C   UNL A   1      33.413  23.117  22.430  1.00  0.00     0.014 A 
ATOM     24  C   UNL A   1      31.897  23.447  24.172  1.00  0.00     0.121 A 
ENDBRANCH  10  18
ENDBRANCH   8   9
ENDBRANCH   7   8
ENDBRANCH   4   7
ENDBRANCH   2   3
ENDBRANCH   1   2
BRANCH   1  25
ATOM     25  C   UNL A   1      40.783  20.243  26.152  1.00  0.00     0.023 C 
BRANCH  25  26
ATOM     26  C   UNL A   1      42.137  20.029  26.788  1.00  0.00     0.116 C 
BRANCH  26  27
ATOM     27  N   UNL A   1      43.120  19.410  25.881  1.00  0.00    -0.352 N 
ATOM     28  C   UNL A   1      43.955  20.036  24.959  1.00  0.00     0.251 C 
ATOM     29  H   UNL A   1      43.197  18.429  25.933  1.00  0.00     0.163 HD
ATOM     30  O   UNL A   1      44.505  19.428  24.065  1.00  0.00    -0.269 OA
BRANCH  28  31
ATOM     31  C   UNL A   1      44.166  21.480  25.151  1.00  0.00     0.039 A 
ATOM     32  C   UNL A   1      43.396  22.451  24.509  1.00  0.00     0.014 A 
ATOM     33  C   UNL A   1      45.037  21.801  26.183  1.00  0.00     0.014 A 
ATOM     34  C   UNL A   1      43.442  23.748  25.009  1.00  0.00     0.010 A 
ATOM     35  C   UNL A   1      44.830  22.972  26.844  1.00  0.00     0.010 A 
ATOM     36  C   UNL A   1      44.133  23.983  26.210  1.00  0.00    -0.014 A 
BRANCH  36  37
ATOM     37  C   UNL A   1      44.090  25.253  26.910  1.00  0.00     0.031 A 
ATOM     38  C   UNL A   1      45.213  26.153  26.571  1.00  0.00     0.074 A 
ATOM     39  C   UNL A   1      43.027  25.625  27.657  1.00  0.00     0.049 A 
ATOM     40  N   UNL A   1      46.348  26.214  27.186  1.00  0.00    -0.248 NA
ATOM     41  C   UNL A   1      45.185  26.902  25.305  1.00  0.00     0.031 C 
ATOM     42  C   UNL A   1      41.715  24.964  27.787  1.00  0.00     0.029 A 
ATOM     43  N   UNL A   1      42.865  26.738  28.415  1.00  0.00    -0.354 N 
ATOM     44  C   UNL A   1      47.024  27.265  26.580  1.00  0.00     0.074 A 
ATOM     45  C   UNL A   1      46.407  27.448  25.293  1.00  0.00     0.031 C 
ATOM     46  C   UNL A   1      40.836  25.794  28.390  1.00  0.00     0.029 A 
ATOM     47  C   UNL A   1      41.568  26.944  28.876  1.00  0.00     0.049 A 
ATOM     48  H   UNL A   1      43.606  27.352  28.623  1.00  0.00     0.167 HD
ATOM     49  C   UNL A   1      47.762  28.123  27.337  1.00  0.00     0.034 A 
ATOM     50  C   UNL A   1      41.151  27.976  29.645  1.00  0.00     0.034 A 
ATOM     51  C   UNL A   1      47.851  27.653  28.696  1.00  0.00     0.049 A 
ATOM     52  C   UNL A   1      42.351  28.428  30.382  1.00  0.00     0.074 A 
ATOM     53  C   UNL A   1      48.507  26.645  29.368  1.00  0.00     0.029 A 
ATOM     54  N   UNL A   1      46.773  28.028  29.460  1.00  0.00    -0.354 N 
ATOM     55  N   UNL A   1      42.981  27.681  31.245  1.00  0.00    -0.248 NA
ATOM     56  C   UNL A   1      43.082  29.594  29.901  1.00  0.00     0.031 C 
ATOM     57  C   UNL A   1      47.673  26.303  30.475  1.00  0.00     0.029 A 
ATOM     58  C   UNL A   1      46.565  27.147  30.485  1.00  0.00     0.049 A 
ATOM     59  H   UNL A   1      46.223  28.827  29.292  1.00  0.00     0.167 HD
ATOM     60  C   UNL A   1      44.309  28.018  31.061  1.00  0.00     0.074 A 
ATOM     61  C   UNL A   1      44.294  29.306  30.380  1.00  0.00     0.031 C 
ATOM     62  C   UNL A   1      45.292  27.083  31.171  1.00  0.00     0.034 A 
BRANCH  49  63
ATOM     63  C   UNL A   1      47.986  29.584  27.031  1.00  0.00     0.023 A 
ATOM     64  C   UNL A   1      49.302  30.082  27.139  1.00  0.00     0.012 A 
ATOM     65  C   UNL A   1      46.947  30.534  26.910  1.00  0.00     0.148 A 
ATOM     66  C   UNL A   1      49.570  31.455  27.114  1.00  0.00     0.002 A 
ATOM     67  C   UNL A   1      47.223  31.891  26.807  1.00  0.00     0.091 A 
ATOM     68  F   UNL A   1      45.676  30.145  27.041  1.00  0.00    -0.205 F 
ATOM     69  C   UNL A   1      48.532  32.361  26.928  1.00  0.00     0.022 A 
BRANCH  67  70
ATOM     70  S   UNL A   1      45.919  33.099  26.542  1.00  0.00     0.127 S 
ATOM     71  O   UNL A   1      46.691  34.290  26.199  1.00  0.00    -0.237 OA
ATOM     72  O   UNL A   1      45.178  32.497  25.434  1.00  0.00    -0.237 OA
ATOM     73  O   UNL A   1      45.180  33.151  27.797  1.00  0.00    -0.744 OA
ENDBRANCH  67  70
ENDBRANCH  49  63
BRANCH  50  74
ATOM     74  C   UNL A   1      39.923  28.804  29.574  1.00  0.00     0.023 A 
ATOM     75  C   UNL A   1      39.198  28.815  28.361  1.00  0.00     0.012 A 
ATOM     76  C   UNL A   1      39.276  29.258  30.741  1.00  0.00     0.148 A 
ATOM     77  C   UNL A   1      37.840  29.149  28.333  1.00  0.00     0.002 A 
ATOM     78  C   UNL A   1      37.924  29.595  30.706  1.00  0.00     0.091 A 
ATOM     79  F   UNL A   1      39.953  29.266  31.897  1.00  0.00    -0.205 F 
ATOM     80  C   UNL A   1      37.198  29.514  29.510  1.00  0.00     0.022 A 
BRANCH  78  81
ATOM     81  S   UNL A   1      37.016  30.070  32.183  1.00  0.00     0.127 S 
ATOM     82  O   UNL A   1      35.723  30.471  31.629  1.00  0.00    -0.237 OA
ATOM     83  O   UNL A   1      36.998  28.822  32.940  1.00  0.00    -0.237 OA
ATOM     84  O   UNL A   1      37.777  31.162  32.777  1.00  0.00    -0.744 OA
ENDBRANCH  78  81
ENDBRANCH  50  74
BRANCH  62  85
ATOM     85  C   UNL A   1      44.992  25.844  31.959  1.00  0.00     0.023 A 
ATOM     86  C   UNL A   1      44.502  24.655  31.384  1.00  0.00     0.012 A 
ATOM     87  C   UNL A   1      45.358  25.856  33.313  1.00  0.00     0.148 A 
ATOM     88  C   UNL A   1      44.392  23.492  32.154  1.00  0.00     0.002 A 
ATOM     89  C   UNL A   1      45.281  24.694  34.064  1.00  0.00     0.091 A 
ATOM     90  F   UNL A   1      45.816  27.006  33.828  1.00  0.00    -0.205 F 
ATOM     91  C   UNL A   1      44.795  23.509  33.490  1.00  0.00     0.022 A 
BRANCH  89  92
ATOM     92  S   UNL A   1      45.873  24.631  35.755  1.00  0.00     0.127 S 
ATOM     93  O   UNL A   1      47.278  25.004  35.600  1.00  0.00    -0.237 OA
ATOM     94  O   UNL A   1      45.039  25.639  36.409  1.00  0.00    -0.237 OA
ATOM     95  O   UNL A   1      45.642  23.268  36.216  1.00  0.00    -0.744 OA
ENDBRANCH  89  92
ENDBRANCH  62  85
ENDBRANCH  36  37
ENDBRANCH  28  31
ENDBRANCH  26  27
ENDBRANCH  25  26
ENDBRANCH   1  25
TORSDOF 17
ENDMDL
