MODEL 1
REMARK VINA RESULT:     -11.9      0.000      0.000
REMARK SMILES O=C(NCCCCNC(=O)[C@H]1CCCN(C(=O)c2ccc(NC(=O)c3ccccc3)cc2)C1)c1ccc(-c2c3nc(c(-c4cccc(S(=O)(=O)[O-])c4F)c4ccc([nH]4)c(-c4cccc(S(=O)(=O)[O-])c4F)c4nc(c(-c5cccc(S(=O)(=O)[O-])c5F)c5ccc2[nH]5)C=C4)C=C3)cc1
REMARK SMILES IDX 6 1 5 2 4 3 3 4 1 5 2 6 34 8 35 9 96 10 36 11 95 12 37 13
REMARK SMILES IDX 38 14 39 15 89 16 40 17 94 18 88 19 90 20 41 21 93 22 87 23
REMARK SMILES IDX 86 24 42 26 74 27 54 28 73 29 55 30 58 31 72 32 91 33 56 34
REMARK SMILES IDX 57 35 71 37 92 38 59 39 43 40 44 41 52 42 45 43 47 44 53 45
REMARK SMILES IDX 46 46 48 47 49 48 50 49 51 50 75 51 76 52 84 53 77 54 79 55
REMARK SMILES IDX 85 56 78 57 80 58 81 59 82 60 83 61 60 62 61 63 69 64 62 65
REMARK SMILES IDX 64 66 70 67 63 68 65 69 66 70 67 71 68 72 7 73 8 74 9 75
REMARK SMILES IDX 10 77 11 78 12 79 33 80 13 81 15 82 14 83 16 84 17 85 18 86
REMARK SMILES IDX 19 87 32 88 20 89 31 90 21 91 22 92 23 93 24 95 25 96 26 97
REMARK SMILES IDX 30 98 27 99 29 100 28 101
REMARK H PARENT 3 7 90 25 58 36 8 76 22 94
REMARK Flexibility Score: inf
ROOT
ATOM      1  C   UNL A   1      38.738  22.453  25.829  1.00  0.00     0.023 C 
ENDROOT
BRANCH   1   2
ATOM      2  C   UNL A   1      38.961  20.974  25.494  1.00  0.00     0.023 C 
BRANCH   2   3
ATOM      3  C   UNL A   1      39.590  20.136  26.603  1.00  0.00     0.116 C 
BRANCH   3   4
ATOM      4  N   UNL A   1      40.652  19.267  26.127  1.00  0.00    -0.352 N 
ATOM      5  O   UNL A   1      42.692  18.735  25.336  1.00  0.00    -0.269 OA
ATOM      6  C   UNL A   1      41.966  19.576  25.861  1.00  0.00     0.251 C 
ATOM      7  H   UNL A   1      40.396  18.329  25.972  1.00  0.00     0.163 HD
BRANCH   6   8
ATOM      8  C   UNL A   1      42.488  20.924  26.180  1.00  0.00     0.039 A 
ATOM      9  C   UNL A   1      42.783  21.286  27.497  1.00  0.00     0.014 A 
ATOM     10  C   UNL A   1      42.684  21.840  25.142  1.00  0.00     0.014 A 
ATOM     11  C   UNL A   1      43.148  22.596  27.790  1.00  0.00     0.010 A 
ATOM     12  C   UNL A   1      43.121  23.137  25.431  1.00  0.00     0.010 A 
ATOM     13  C   UNL A   1      43.327  23.536  26.761  1.00  0.00    -0.014 A 
BRANCH  13  14
ATOM     14  C   UNL A   1      43.795  24.906  27.093  1.00  0.00     0.031 A 
ATOM     15  C   UNL A   1      45.217  25.329  26.846  1.00  0.00     0.074 A 
ATOM     16  C   UNL A   1      42.914  25.778  27.622  1.00  0.00     0.049 A 
ATOM     17  N   UNL A   1      45.773  26.497  27.051  1.00  0.00    -0.248 NA
ATOM     18  C   UNL A   1      46.139  24.315  26.309  1.00  0.00     0.031 C 
ATOM     19  C   UNL A   1      41.520  25.469  27.947  1.00  0.00     0.029 A 
ATOM     20  N   UNL A   1      43.054  27.094  27.980  1.00  0.00    -0.354 N 
ATOM     21  C   UNL A   1      47.110  26.354  26.699  1.00  0.00     0.074 A 
ATOM     22  C   UNL A   1      47.287  24.979  26.277  1.00  0.00     0.031 C 
ATOM     23  C   UNL A   1      40.926  26.570  28.430  1.00  0.00     0.029 A 
ATOM     24  C   UNL A   1      41.905  27.650  28.492  1.00  0.00     0.049 A 
ATOM     25  H   UNL A   1      43.897  27.595  27.880  1.00  0.00     0.167 HD
ATOM     26  C   UNL A   1      48.094  27.285  26.709  1.00  0.00     0.034 A 
ATOM     27  C   UNL A   1      41.665  28.886  28.967  1.00  0.00     0.034 A 
ATOM     28  C   UNL A   1      47.905  28.659  27.094  1.00  0.00     0.049 A 
ATOM     29  C   UNL A   1      42.769  29.902  28.945  1.00  0.00     0.074 A 
ATOM     30  C   UNL A   1      48.827  29.692  27.080  1.00  0.00     0.029 A 
ATOM     31  N   UNL A   1      46.716  29.195  27.567  1.00  0.00    -0.354 N 
ATOM     32  N   UNL A   1      43.991  29.780  28.488  1.00  0.00    -0.248 NA
ATOM     33  C   UNL A   1      42.456  31.235  29.478  1.00  0.00     0.031 C 
ATOM     34  C   UNL A   1      48.200  30.847  27.557  1.00  0.00     0.029 A 
ATOM     35  C   UNL A   1      46.882  30.539  27.854  1.00  0.00     0.049 A 
ATOM     36  H   UNL A   1      45.877  28.693  27.681  1.00  0.00     0.167 HD
ATOM     37  C   UNL A   1      44.587  31.024  28.656  1.00  0.00     0.074 A 
ATOM     38  C   UNL A   1      43.580  31.894  29.231  1.00  0.00     0.031 C 
ATOM     39  C   UNL A   1      45.858  31.405  28.380  1.00  0.00     0.034 A 
BRANCH  26  40
ATOM     40  C   UNL A   1      49.464  26.868  26.238  1.00  0.00     0.023 A 
ATOM     41  C   UNL A   1      50.255  26.043  27.062  1.00  0.00     0.012 A 
ATOM     42  C   UNL A   1      49.935  27.221  24.959  1.00  0.00     0.148 A 
ATOM     43  C   UNL A   1      51.503  25.594  26.631  1.00  0.00     0.002 A 
ATOM     44  C   UNL A   1      51.165  26.742  24.520  1.00  0.00     0.091 A 
ATOM     45  F   UNL A   1      49.178  28.025  24.197  1.00  0.00    -0.205 F 
ATOM     46  C   UNL A   1      51.952  25.933  25.357  1.00  0.00     0.022 A 
BRANCH  44  47
ATOM     47  S   UNL A   1      51.797  27.065  22.869  1.00  0.00     0.127 S 
ATOM     48  O   UNL A   1      52.109  28.491  22.947  1.00  0.00    -0.237 OA
ATOM     49  O   UNL A   1      52.967  26.188  22.806  1.00  0.00    -0.237 OA
ATOM     50  O   UNL A   1      50.723  26.705  21.954  1.00  0.00    -0.744 OA
ENDBRANCH  44  47
ENDBRANCH  26  40
BRANCH  27  51
ATOM     51  C   UNL A   1      40.298  29.238  29.445  1.00  0.00     0.023 A 
ATOM     52  C   UNL A   1      39.342  29.699  28.521  1.00  0.00     0.012 A 
ATOM     53  C   UNL A   1      39.925  29.061  30.792  1.00  0.00     0.148 A 
ATOM     54  C   UNL A   1      38.042  29.997  28.933  1.00  0.00     0.002 A 
ATOM     55  C   UNL A   1      38.615  29.304  31.184  1.00  0.00     0.091 A 
ATOM     56  F   UNL A   1      40.856  28.640  31.660  1.00  0.00    -0.205 F 
ATOM     57  C   UNL A   1      37.675  29.787  30.259  1.00  0.00     0.022 A 
BRANCH  55  58
ATOM     58  S   UNL A   1      38.026  28.917  32.837  1.00  0.00     0.127 S 
ATOM     59  O   UNL A   1      36.653  29.414  32.789  1.00  0.00    -0.237 OA
ATOM     60  O   UNL A   1      38.154  27.460  32.874  1.00  0.00    -0.237 OA
ATOM     61  O   UNL A   1      38.928  29.617  33.742  1.00  0.00    -0.744 OA
ENDBRANCH  55  58
ENDBRANCH  27  51
BRANCH  39  62
ATOM     62  C   UNL A   1      46.232  32.831  28.681  1.00  0.00     0.023 A 
ATOM     63  C   UNL A   1      46.875  33.140  29.896  1.00  0.00     0.012 A 
ATOM     64  C   UNL A   1      46.007  33.853  27.738  1.00  0.00     0.148 A 
ATOM     65  C   UNL A   1      47.262  34.447  30.182  1.00  0.00     0.002 A 
ATOM     66  C   UNL A   1      46.434  35.148  28.012  1.00  0.00     0.091 A 
ATOM     67  F   UNL A   1      45.374  33.545  26.597  1.00  0.00    -0.205 F 
ATOM     68  C   UNL A   1      47.052  35.449  29.236  1.00  0.00     0.022 A 
BRANCH  66  69
ATOM     69  S   UNL A   1      46.281  36.480  26.815  1.00  0.00     0.127 S 
ATOM     70  O   UNL A   1      47.128  36.000  25.726  1.00  0.00    -0.237 OA
ATOM     71  O   UNL A   1      44.847  36.473  26.520  1.00  0.00    -0.237 OA
ATOM     72  O   UNL A   1      46.748  37.681  27.494  1.00  0.00    -0.744 OA
ENDBRANCH  66  69
ENDBRANCH  39  62
ENDBRANCH  13  14
ENDBRANCH   6   8
ENDBRANCH   3   4
ENDBRANCH   2   3
ENDBRANCH   1   2
BRANCH   1  73
ATOM     73  C   UNL A   1      37.414  23.029  25.326  1.00  0.00     0.116 C 
BRANCH  73  74
ATOM     74  N   UNL A   1      36.430  23.123  26.391  1.00  0.00    -0.356 N 
ATOM     75  C   UNL A   1      35.143  22.675  26.430  1.00  0.00     0.224 C 
ATOM     76  H   UNL A   1      36.740  23.577  27.208  1.00  0.00     0.163 HD
ATOM     77  O   UNL A   1      34.451  22.954  27.409  1.00  0.00    -0.275 OA
BRANCH  75  78
ATOM     78  C   UNL A   1      34.632  21.777  25.323  1.00  0.00     0.098 C 
ATOM     79  C   UNL A   1      34.981  20.320  25.662  1.00  0.00     0.017 C 
ATOM     80  C   UNL A   1      33.116  21.922  25.175  1.00  0.00     0.133 C 
ATOM     81  C   UNL A   1      34.405  19.359  24.624  1.00  0.00     0.022 C 
ATOM     82  N   UNL A   1      32.636  21.013  24.127  1.00  0.00    -0.338 N 
ATOM     83  C   UNL A   1      32.913  19.598  24.384  1.00  0.00     0.120 C 
BRANCH  82  84
ATOM     84  C   UNL A   1      32.144  21.572  22.947  1.00  0.00     0.253 C 
ATOM     85  O   UNL A   1      31.780  20.892  21.988  1.00  0.00    -0.269 OA
BRANCH  84  86
ATOM     86  C   UNL A   1      31.981  23.039  22.822  1.00  0.00     0.040 A 
ATOM     87  C   UNL A   1      33.005  23.758  22.204  1.00  0.00     0.016 A 
ATOM     88  C   UNL A   1      30.887  23.727  23.350  1.00  0.00     0.016 A 
ATOM     89  C   UNL A   1      32.885  25.138  22.018  1.00  0.00     0.027 A 
ATOM     90  C   UNL A   1      30.753  25.102  23.123  1.00  0.00     0.027 A 
ATOM     91  C   UNL A   1      31.724  25.809  22.401  1.00  0.00     0.041 A 
BRANCH  91  92
ATOM     92  N   UNL A   1      31.457  27.164  22.129  1.00  0.00    -0.322 N 
ATOM     93  C   UNL A   1      31.499  28.300  22.907  1.00  0.00     0.255 C 
ATOM     94  H   UNL A   1      31.185  27.334  21.198  1.00  0.00     0.170 HD
ATOM     95  O   UNL A   1      31.061  29.361  22.464  1.00  0.00    -0.269 OA
BRANCH  93  96
ATOM     96  C   UNL A   1      32.096  28.299  24.255  1.00  0.00     0.040 A 
ATOM     97  C   UNL A   1      31.249  28.159  25.359  1.00  0.00     0.014 A 
ATOM     98  C   UNL A   1      33.480  28.424  24.433  1.00  0.00     0.014 A 
ATOM     99  C   UNL A   1      31.795  28.065  26.639  1.00  0.00     0.001 A 
ATOM    100  C   UNL A   1      34.020  28.320  25.716  1.00  0.00     0.001 A 
ATOM    101  C   UNL A   1      33.178  28.129  26.814  1.00  0.00     0.000 A 
ENDBRANCH  93  96
ENDBRANCH  91  92
ENDBRANCH  84  86
ENDBRANCH  82  84
ENDBRANCH  75  78
ENDBRANCH  73  74
ENDBRANCH   1  73
TORSDOF 18
ENDMDL
MODEL 2
REMARK VINA RESULT:     -11.6      1.929      2.316
REMARK SMILES O=C(NCCCCNC(=O)[C@H]1CCCN(C(=O)c2ccc(NC(=O)c3ccccc3)cc2)C1)c1ccc(-c2c3nc(c(-c4cccc(S(=O)(=O)[O-])c4F)c4ccc([nH]4)c(-c4cccc(S(=O)(=O)[O-])c4F)c4nc(c(-c5cccc(S(=O)(=O)[O-])c5F)c5ccc2[nH]5)C=C4)C=C3)cc1
REMARK SMILES IDX 6 1 5 2 4 3 3 4 1 5 2 6 34 8 35 9 96 10 36 11 95 12 37 13
REMARK SMILES IDX 38 14 39 15 89 16 40 17 94 18 88 19 90 20 41 21 93 22 87 23
REMARK SMILES IDX 86 24 42 26 74 27 54 28 73 29 55 30 58 31 72 32 91 33 56 34
REMARK SMILES IDX 57 35 71 37 92 38 59 39 43 40 44 41 52 42 45 43 47 44 53 45
REMARK SMILES IDX 46 46 48 47 49 48 50 49 51 50 75 51 76 52 84 53 77 54 79 55
REMARK SMILES IDX 85 56 78 57 80 58 81 59 82 60 83 61 60 62 61 63 69 64 62 65
REMARK SMILES IDX 64 66 70 67 63 68 65 69 66 70 67 71 68 72 7 73 8 74 9 75
REMARK SMILES IDX 10 77 11 78 12 79 33 80 13 81 15 82 14 83 16 84 17 85 18 86
REMARK SMILES IDX 19 87 32 88 20 89 31 90 21 91 22 92 23 93 24 95 25 96 26 97
REMARK SMILES IDX 30 98 27 99 29 100 28 101
REMARK H PARENT 3 7 90 25 58 36 8 76 22 94
REMARK Flexibility Score: inf
ROOT
ATOM      1  C   UNL A   1      38.641  22.417  26.010  1.00  0.00     0.023 C 
ENDROOT
BRANCH   1   2
ATOM      2  C   UNL A   1      38.987  21.045  25.420  1.00  0.00     0.023 C 
BRANCH   2   3
ATOM      3  C   UNL A   1      39.420  19.986  26.429  1.00  0.00     0.116 C 
BRANCH   3   4
ATOM      4  N   UNL A   1      40.639  19.296  26.041  1.00  0.00    -0.352 N 
ATOM      5  O   UNL A   1      42.801  19.091  25.448  1.00  0.00    -0.269 OA
ATOM      6  C   UNL A   1      41.914  19.798  25.918  1.00  0.00     0.251 C 
ATOM      7  H   UNL A   1      40.538  18.338  25.836  1.00  0.00     0.163 HD
BRANCH   6   8
ATOM      8  C   UNL A   1      42.201  21.193  26.324  1.00  0.00     0.039 A 
ATOM      9  C   UNL A   1      42.334  22.204  25.370  1.00  0.00     0.014 A 
ATOM     10  C   UNL A   1      42.340  21.491  27.683  1.00  0.00     0.014 A 
ATOM     11  C   UNL A   1      42.730  23.480  25.762  1.00  0.00     0.010 A 
ATOM     12  C   UNL A   1      42.667  22.790  28.082  1.00  0.00     0.010 A 
ATOM     13  C   UNL A   1      42.896  23.790  27.123  1.00  0.00    -0.014 A 
BRANCH  13  14
ATOM     14  C   UNL A   1      43.242  25.179  27.521  1.00  0.00     0.031 A 
ATOM     15  C   UNL A   1      44.635  25.719  27.349  1.00  0.00     0.074 A 
ATOM     16  C   UNL A   1      42.275  25.958  28.043  1.00  0.00     0.049 A 
ATOM     17  N   UNL A   1      45.088  26.918  27.617  1.00  0.00    -0.248 NA
ATOM     18  C   UNL A   1      45.653  24.800  26.816  1.00  0.00     0.031 C 
ATOM     19  C   UNL A   1      40.897  25.530  28.298  1.00  0.00     0.029 A 
ATOM     20  N   UNL A   1      42.296  27.267  28.452  1.00  0.00    -0.354 N 
ATOM     21  C   UNL A   1      46.445  26.892  27.317  1.00  0.00     0.074 A 
ATOM     22  C   UNL A   1      46.746  25.552  26.856  1.00  0.00     0.031 C 
ATOM     23  C   UNL A   1      40.200  26.563  28.794  1.00  0.00     0.029 A 
ATOM     24  C   UNL A   1      41.088  27.712  28.934  1.00  0.00     0.049 A 
ATOM     25  H   UNL A   1      43.100  27.835  28.405  1.00  0.00     0.167 HD
ATOM     26  C   UNL A   1      47.351  27.896  27.400  1.00  0.00     0.034 A 
ATOM     27  C   UNL A   1      40.732  28.907  29.442  1.00  0.00     0.034 A 
ATOM     28  C   UNL A   1      47.039  29.236  27.824  1.00  0.00     0.049 A 
ATOM     29  C   UNL A   1      41.753  30.007  29.500  1.00  0.00     0.074 A 
ATOM     30  C   UNL A   1      47.877  30.336  27.884  1.00  0.00     0.029 A 
ATOM     31  N   UNL A   1      45.795  29.659  28.265  1.00  0.00    -0.354 N 
ATOM     32  N   UNL A   1      42.998  29.997  29.091  1.00  0.00    -0.248 NA
ATOM     33  C   UNL A   1      41.315  31.290  30.065  1.00  0.00     0.031 C 
ATOM     34  C   UNL A   1      47.142  31.421  28.374  1.00  0.00     0.029 A 
ATOM     35  C   UNL A   1      45.842  31.001  28.605  1.00  0.00     0.049 A 
ATOM     36  H   UNL A   1      44.994  29.090  28.327  1.00  0.00     0.167 HD
ATOM     37  C   UNL A   1      43.487  31.276  29.327  1.00  0.00     0.074 A 
ATOM     38  C   UNL A   1      42.393  32.043  29.889  1.00  0.00     0.031 C 
ATOM     39  C   UNL A   1      44.733  31.764  29.117  1.00  0.00     0.034 A 
BRANCH  26  40
ATOM     40  C   UNL A   1      48.767  27.604  26.973  1.00  0.00     0.023 A 
ATOM     41  C   UNL A   1      49.084  27.587  25.600  1.00  0.00     0.012 A 
ATOM     42  C   UNL A   1      49.794  27.429  27.921  1.00  0.00     0.148 A 
ATOM     43  C   UNL A   1      50.396  27.377  25.176  1.00  0.00     0.002 A 
ATOM     44  C   UNL A   1      51.106  27.255  27.492  1.00  0.00     0.091 A 
ATOM     45  F   UNL A   1      49.470  27.427  29.223  1.00  0.00    -0.205 F 
ATOM     46  C   UNL A   1      51.407  27.223  26.121  1.00  0.00     0.022 A 
BRANCH  44  47
ATOM     47  S   UNL A   1      52.487  27.119  28.634  1.00  0.00     0.127 S 
ATOM     48  O   UNL A   1      53.591  26.815  27.725  1.00  0.00    -0.237 OA
ATOM     49  O   UNL A   1      52.536  28.458  29.224  1.00  0.00    -0.237 OA
ATOM     50  O   UNL A   1      52.130  26.060  29.567  1.00  0.00    -0.744 OA
ENDBRANCH  44  47
ENDBRANCH  26  40
BRANCH  27  51
ATOM     51  C   UNL A   1      39.325  29.134  29.874  1.00  0.00     0.023 A 
ATOM     52  C   UNL A   1      38.891  28.619  31.110  1.00  0.00     0.012 A 
ATOM     53  C   UNL A   1      38.436  29.906  29.100  1.00  0.00     0.148 A 
ATOM     54  C   UNL A   1      37.590  28.850  31.559  1.00  0.00     0.002 A 
ATOM     55  C   UNL A   1      37.162  30.181  29.580  1.00  0.00     0.091 A 
ATOM     56  F   UNL A   1      38.862  30.371  27.917  1.00  0.00    -0.205 F 
ATOM     57  C   UNL A   1      36.731  29.642  30.802  1.00  0.00     0.022 A 
BRANCH  55  58
ATOM     58  S   UNL A   1      36.049  31.313  28.737  1.00  0.00     0.127 S 
ATOM     59  O   UNL A   1      36.922  32.457  28.485  1.00  0.00    -0.237 OA
ATOM     60  O   UNL A   1      35.676  30.547  27.548  1.00  0.00    -0.237 OA
ATOM     61  O   UNL A   1      34.952  31.540  29.668  1.00  0.00    -0.744 OA
ENDBRANCH  55  58
ENDBRANCH  27  51
BRANCH  39  62
ATOM     62  C   UNL A   1      44.982  33.203  29.483  1.00  0.00     0.023 A 
ATOM     63  C   UNL A   1      45.410  33.525  30.786  1.00  0.00     0.012 A 
ATOM     64  C   UNL A   1      44.855  34.226  28.523  1.00  0.00     0.148 A 
ATOM     65  C   UNL A   1      45.680  34.846  31.137  1.00  0.00     0.002 A 
ATOM     66  C   UNL A   1      45.166  35.536  28.870  1.00  0.00     0.091 A 
ATOM     67  F   UNL A   1      44.425  33.903  27.295  1.00  0.00    -0.205 F 
ATOM     68  C   UNL A   1      45.568  35.849  30.177  1.00  0.00     0.022 A 
BRANCH  66  69
ATOM     69  S   UNL A   1      45.133  36.876  27.672  1.00  0.00     0.127 S 
ATOM     70  O   UNL A   1      45.677  37.986  28.452  1.00  0.00    -0.237 OA
ATOM     71  O   UNL A   1      46.021  36.378  26.620  1.00  0.00    -0.237 OA
ATOM     72  O   UNL A   1      43.741  37.015  27.267  1.00  0.00    -0.744 OA
ENDBRANCH  66  69
ENDBRANCH  39  62
ENDBRANCH  13  14
ENDBRANCH   6   8
ENDBRANCH   3   4
ENDBRANCH   2   3
ENDBRANCH   1   2
BRANCH   1  73
ATOM     73  C   UNL A   1      37.365  23.048  25.454  1.00  0.00     0.116 C 
BRANCH  73  74
ATOM     74  N   UNL A   1      36.329  23.151  26.468  1.00  0.00    -0.356 N 
ATOM     75  C   UNL A   1      35.041  22.707  26.444  1.00  0.00     0.224 C 
ATOM     76  H   UNL A   1      36.600  23.608  27.296  1.00  0.00     0.163 HD
ATOM     77  O   UNL A   1      34.302  22.993  27.386  1.00  0.00    -0.275 OA
BRANCH  75  78
ATOM     78  C   UNL A   1      34.583  21.804  25.318  1.00  0.00     0.098 C 
ATOM     79  C   UNL A   1      34.950  20.353  25.662  1.00  0.00     0.017 C 
ATOM     80  C   UNL A   1      33.070  21.921  25.122  1.00  0.00     0.133 C 
ATOM     81  C   UNL A   1      34.426  19.386  24.602  1.00  0.00     0.022 C 
ATOM     82  N   UNL A   1      32.642  21.008  24.055  1.00  0.00    -0.338 N 
ATOM     83  C   UNL A   1      32.938  19.597  24.315  1.00  0.00     0.120 C 
BRANCH  82  84
ATOM     84  C   UNL A   1      32.176  21.562  22.863  1.00  0.00     0.253 C 
ATOM     85  O   UNL A   1      31.846  20.880  21.894  1.00  0.00    -0.269 OA
BRANCH  84  86
ATOM     86  C   UNL A   1      32.003  23.028  22.734  1.00  0.00     0.040 A 
ATOM     87  C   UNL A   1      33.020  23.752  22.111  1.00  0.00     0.016 A 
ATOM     88  C   UNL A   1      30.905  23.709  23.263  1.00  0.00     0.016 A 
ATOM     89  C   UNL A   1      32.890  25.130  21.921  1.00  0.00     0.027 A 
ATOM     90  C   UNL A   1      30.761  25.082  23.031  1.00  0.00     0.027 A 
ATOM     91  C   UNL A   1      31.725  25.795  22.306  1.00  0.00     0.041 A 
BRANCH  91  92
ATOM     92  N   UNL A   1      31.448  27.147  22.030  1.00  0.00    -0.322 N 
ATOM     93  C   UNL A   1      31.463  28.282  22.810  1.00  0.00     0.255 C 
ATOM     94  H   UNL A   1      31.193  27.315  21.094  1.00  0.00     0.170 HD
ATOM     95  O   UNL A   1      31.021  29.339  22.360  1.00  0.00    -0.269 OA
BRANCH  93  96
ATOM     96  C   UNL A   1      32.034  28.286  24.169  1.00  0.00     0.040 A 
ATOM     97  C   UNL A   1      31.169  28.118  25.256  1.00  0.00     0.014 A 
ATOM     98  C   UNL A   1      33.411  28.442  24.375  1.00  0.00     0.014 A 
ATOM     99  C   UNL A   1      31.693  28.028  26.545  1.00  0.00     0.001 A 
ATOM    100  C   UNL A   1      33.929  28.342  25.667  1.00  0.00     0.001 A 
ATOM    101  C   UNL A   1      33.071  28.123  26.747  1.00  0.00     0.000 A 
ENDBRANCH  93  96
ENDBRANCH  91  92
ENDBRANCH  84  86
ENDBRANCH  82  84
ENDBRANCH  75  78
ENDBRANCH  73  74
ENDBRANCH   1  73
TORSDOF 18
ENDMDL
MODEL 3
REMARK VINA RESULT:     -11.5      2.183      8.142
REMARK SMILES O=C(NCCCCNC(=O)[C@H]1CCCN(C(=O)c2ccc(NC(=O)c3ccccc3)cc2)C1)c1ccc(-c2c3nc(c(-c4cccc(S(=O)(=O)[O-])c4F)c4ccc([nH]4)c(-c4cccc(S(=O)(=O)[O-])c4F)c4nc(c(-c5cccc(S(=O)(=O)[O-])c5F)c5ccc2[nH]5)C=C4)C=C3)cc1
REMARK SMILES IDX 6 1 5 2 4 3 3 4 1 5 2 6 34 8 35 9 96 10 36 11 95 12 37 13
REMARK SMILES IDX 38 14 39 15 89 16 40 17 94 18 88 19 90 20 41 21 93 22 87 23
REMARK SMILES IDX 86 24 42 26 74 27 54 28 73 29 55 30 58 31 72 32 91 33 56 34
REMARK SMILES IDX 57 35 71 37 92 38 59 39 43 40 44 41 52 42 45 43 47 44 53 45
REMARK SMILES IDX 46 46 48 47 49 48 50 49 51 50 75 51 76 52 84 53 77 54 79 55
REMARK SMILES IDX 85 56 78 57 80 58 81 59 82 60 83 61 60 62 61 63 69 64 62 65
REMARK SMILES IDX 64 66 70 67 63 68 65 69 66 70 67 71 68 72 7 73 8 74 9 75
REMARK SMILES IDX 10 77 11 78 12 79 33 80 13 81 15 82 14 83 16 84 17 85 18 86
REMARK SMILES IDX 19 87 32 88 20 89 31 90 21 91 22 92 23 93 24 95 25 96 26 97
REMARK SMILES IDX 30 98 27 99 29 100 28 101
REMARK H PARENT 3 7 90 25 58 36 8 76 22 94
REMARK Flexibility Score: inf
ROOT
ATOM      1  C   UNL A   1      37.620  22.869  25.626  1.00  0.00     0.023 C 
ENDROOT
BRANCH   1   2
ATOM      2  C   UNL A   1      38.493  21.614  25.515  1.00  0.00     0.023 C 
BRANCH   2   3
ATOM      3  C   UNL A   1      39.663  21.538  26.490  1.00  0.00     0.116 C 
BRANCH   3   4
ATOM      4  N   UNL A   1      40.652  20.541  26.116  1.00  0.00    -0.352 N 
ATOM      5  O   UNL A   1      42.668  19.762  25.487  1.00  0.00    -0.269 OA
ATOM      6  C   UNL A   1      42.007  20.696  25.933  1.00  0.00     0.251 C 
ATOM      7  H   UNL A   1      40.305  19.631  25.974  1.00  0.00     0.163 HD
BRANCH   6   8
ATOM      8  C   UNL A   1      42.652  21.991  26.245  1.00  0.00     0.039 A 
ATOM      9  C   UNL A   1      42.691  23.019  25.301  1.00  0.00     0.014 A 
ATOM     10  C   UNL A   1      43.228  22.178  27.506  1.00  0.00     0.014 A 
ATOM     11  C   UNL A   1      43.413  24.179  25.567  1.00  0.00     0.010 A 
ATOM     12  C   UNL A   1      43.891  23.373  27.799  1.00  0.00     0.010 A 
ATOM     13  C   UNL A   1      44.017  24.372  26.821  1.00  0.00    -0.014 A 
BRANCH  13  14
ATOM     14  C   UNL A   1      44.714  25.652  27.110  1.00  0.00     0.031 A 
ATOM     15  C   UNL A   1      44.082  26.710  27.972  1.00  0.00     0.074 A 
ATOM     16  C   UNL A   1      45.937  25.853  26.582  1.00  0.00     0.049 A 
ATOM     17  N   UNL A   1      44.573  27.866  28.344  1.00  0.00    -0.248 NA
ATOM     18  C   UNL A   1      42.726  26.447  28.478  1.00  0.00     0.031 C 
ATOM     19  C   UNL A   1      46.633  24.918  25.695  1.00  0.00     0.029 A 
ATOM     20  N   UNL A   1      46.813  26.900  26.712  1.00  0.00    -0.354 N 
ATOM     21  C   UNL A   1      43.581  28.481  29.098  1.00  0.00     0.074 A 
ATOM     22  C   UNL A   1      42.452  27.574  29.123  1.00  0.00     0.031 C 
ATOM     23  C   UNL A   1      47.836  25.420  25.382  1.00  0.00     0.029 A 
ATOM     24  C   UNL A   1      47.982  26.730  26.008  1.00  0.00     0.049 A 
ATOM     25  H   UNL A   1      46.623  27.699  27.257  1.00  0.00     0.167 HD
ATOM     26  C   UNL A   1      43.614  29.680  29.728  1.00  0.00     0.034 A 
ATOM     27  C   UNL A   1      49.049  27.538  25.871  1.00  0.00     0.034 A 
ATOM     28  C   UNL A   1      44.752  30.562  29.730  1.00  0.00     0.049 A 
ATOM     29  C   UNL A   1      49.066  28.852  26.598  1.00  0.00     0.074 A 
ATOM     30  C   UNL A   1      44.902  31.771  30.387  1.00  0.00     0.029 A 
ATOM     31  N   UNL A   1      45.934  30.336  29.040  1.00  0.00    -0.354 N 
ATOM     32  N   UNL A   1      48.169  29.355  27.409  1.00  0.00    -0.248 NA
ATOM     33  C   UNL A   1      50.253  29.698  26.412  1.00  0.00     0.031 C 
ATOM     34  C   UNL A   1      46.169  32.281  30.084  1.00  0.00     0.029 A 
ATOM     35  C   UNL A   1      46.814  31.383  29.249  1.00  0.00     0.049 A 
ATOM     36  H   UNL A   1      46.120  29.545  28.483  1.00  0.00     0.167 HD
ATOM     37  C   UNL A   1      48.690  30.565  27.851  1.00  0.00     0.074 A 
ATOM     38  C   UNL A   1      49.996  30.705  27.237  1.00  0.00     0.031 C 
ATOM     39  C   UNL A   1      48.130  31.486  28.672  1.00  0.00     0.034 A 
BRANCH  26  40
ATOM     40  C   UNL A   1      42.400  30.097  30.517  1.00  0.00     0.023 A 
ATOM     41  C   UNL A   1      41.436  30.928  29.913  1.00  0.00     0.012 A 
ATOM     42  C   UNL A   1      42.171  29.605  31.817  1.00  0.00     0.148 A 
ATOM     43  C   UNL A   1      40.274  31.284  30.598  1.00  0.00     0.002 A 
ATOM     44  C   UNL A   1      40.994  29.935  32.481  1.00  0.00     0.091 A 
ATOM     45  F   UNL A   1      43.109  28.832  32.384  1.00  0.00    -0.205 F 
ATOM     46  C   UNL A   1      40.048  30.779  31.875  1.00  0.00     0.022 A 
BRANCH  44  47
ATOM     47  S   UNL A   1      40.579  29.276  34.101  1.00  0.00     0.127 S 
ATOM     48  O   UNL A   1      39.276  29.892  34.345  1.00  0.00    -0.237 OA
ATOM     49  O   UNL A   1      40.534  27.834  33.849  1.00  0.00    -0.237 OA
ATOM     50  O   UNL A   1      41.652  29.699  34.990  1.00  0.00    -0.744 OA
ENDBRANCH  44  47
ENDBRANCH  26  40
BRANCH  27  51
ATOM     51  C   UNL A   1      50.213  27.089  25.057  1.00  0.00     0.023 A 
ATOM     52  C   UNL A   1      50.338  27.536  23.727  1.00  0.00     0.012 A 
ATOM     53  C   UNL A   1      51.223  26.277  25.608  1.00  0.00     0.148 A 
ATOM     54  C   UNL A   1      51.439  27.164  22.954  1.00  0.00     0.002 A 
ATOM     55  C   UNL A   1      52.344  25.958  24.851  1.00  0.00     0.091 A 
ATOM     56  F   UNL A   1      51.076  25.846  26.869  1.00  0.00    -0.205 F 
ATOM     57  C   UNL A   1      52.447  26.389  23.519  1.00  0.00     0.022 A 
BRANCH  55  58
ATOM     58  S   UNL A   1      53.753  25.091  25.553  1.00  0.00     0.127 S 
ATOM     59  O   UNL A   1      53.343  23.696  25.415  1.00  0.00    -0.237 OA
ATOM     60  O   UNL A   1      54.841  25.506  24.666  1.00  0.00    -0.237 OA
ATOM     61  O   UNL A   1      53.873  25.589  26.917  1.00  0.00    -0.744 OA
ENDBRANCH  55  58
ENDBRANCH  27  51
BRANCH  39  62
ATOM     62  C   UNL A   1      48.932  32.724  28.970  1.00  0.00     0.023 A 
ATOM     63  C   UNL A   1      49.797  32.741  30.082  1.00  0.00     0.012 A 
ATOM     64  C   UNL A   1      48.878  33.845  28.118  1.00  0.00     0.148 A 
ATOM     65  C   UNL A   1      50.574  33.864  30.358  1.00  0.00     0.002 A 
ATOM     66  C   UNL A   1      49.687  34.945  28.377  1.00  0.00     0.091 A 
ATOM     67  F   UNL A   1      48.032  33.819  27.078  1.00  0.00    -0.205 F 
ATOM     68  C   UNL A   1      50.528  34.961  29.500  1.00  0.00     0.022 A 
BRANCH  66  69
ATOM     69  S   UNL A   1      49.754  36.364  27.276  1.00  0.00     0.127 S 
ATOM     70  O   UNL A   1      50.718  37.225  27.957  1.00  0.00    -0.237 OA
ATOM     71  O   UNL A   1      50.242  35.771  26.029  1.00  0.00    -0.237 OA
ATOM     72  O   UNL A   1      48.393  36.877  27.204  1.00  0.00    -0.744 OA
ENDBRANCH  66  69
ENDBRANCH  39  62
ENDBRANCH  13  14
ENDBRANCH   6   8
ENDBRANCH   3   4
ENDBRANCH   2   3
ENDBRANCH   1   2
BRANCH   1  73
ATOM     73  C   UNL A   1      36.783  23.177  24.385  1.00  0.00     0.116 C 
BRANCH  73  74
ATOM     74  N   UNL A   1      35.649  22.277  24.265  1.00  0.00    -0.356 N 
ATOM     75  C   UNL A   1      34.314  22.544  24.338  1.00  0.00     0.224 C 
ATOM     76  H   UNL A   1      35.879  21.333  24.105  1.00  0.00     0.163 HD
ATOM     77  O   UNL A   1      33.522  21.602  24.306  1.00  0.00    -0.275 OA
BRANCH  75  78
ATOM     78  C   UNL A   1      33.841  23.983  24.362  1.00  0.00     0.098 C 
ATOM     79  C   UNL A   1      33.932  24.560  22.941  1.00  0.00     0.017 C 
ATOM     80  C   UNL A   1      32.396  24.061  24.858  1.00  0.00     0.133 C 
ATOM     81  C   UNL A   1      33.377  25.982  22.888  1.00  0.00     0.022 C 
ATOM     82  N   UNL A   1      31.944  25.458  24.833  1.00  0.00    -0.338 N 
ATOM     83  C   UNL A   1      31.981  26.079  23.507  1.00  0.00     0.120 C 
BRANCH  82  84
ATOM     84  C   UNL A   1      31.703  26.092  26.052  1.00  0.00     0.253 C 
ATOM     85  O   UNL A   1      30.902  25.662  26.881  1.00  0.00    -0.269 OA
BRANCH  84  86
ATOM     86  C   UNL A   1      32.463  27.307  26.429  1.00  0.00     0.040 A 
ATOM     87  C   UNL A   1      33.842  27.305  26.217  1.00  0.00     0.016 A 
ATOM     88  C   UNL A   1      31.867  28.412  27.041  1.00  0.00     0.016 A 
ATOM     89  C   UNL A   1      34.602  28.440  26.512  1.00  0.00     0.027 A 
ATOM     90  C   UNL A   1      32.627  29.560  27.294  1.00  0.00     0.027 A 
ATOM     91  C   UNL A   1      33.991  29.605  26.976  1.00  0.00     0.041 A 
BRANCH  91  92
ATOM     92  N   UNL A   1      34.652  30.833  27.165  1.00  0.00    -0.322 N 
ATOM     93  C   UNL A   1      35.775  31.191  27.879  1.00  0.00     0.255 C 
ATOM     94  H   UNL A   1      34.227  31.587  26.695  1.00  0.00     0.170 HD
ATOM     95  O   UNL A   1      36.061  32.380  28.013  1.00  0.00    -0.269 OA
BRANCH  93  96
ATOM     96  C   UNL A   1      36.680  30.183  28.461  1.00  0.00     0.040 A 
ATOM     97  C   UNL A   1      37.748  29.720  27.685  1.00  0.00     0.014 A 
ATOM     98  C   UNL A   1      36.489  29.704  29.764  1.00  0.00     0.014 A 
ATOM     99  C   UNL A   1      38.671  28.835  28.241  1.00  0.00     0.001 A 
ATOM    100  C   UNL A   1      37.422  28.825  30.316  1.00  0.00     0.001 A 
ATOM    101  C   UNL A   1      38.516  28.402  29.559  1.00  0.00     0.000 A 
ENDBRANCH  93  96
ENDBRANCH  91  92
ENDBRANCH  84  86
ENDBRANCH  82  84
ENDBRANCH  75  78
ENDBRANCH  73  74
ENDBRANCH   1  73
TORSDOF 18
ENDMDL
