MODEL 1
REMARK VINA RESULT:     -11.4      0.000      0.000
REMARK SMILES O=C(NCCCCNC(=O)c1cccc(OCC(F)F)c1)c1ccc(-c2c3nc(c(-c4cccc(S(=O)(=O)[O-])c4F)c4ccc([nH]4)c(-c4cccc(S(=O)(=O)[O-])c4F)c4nc(c(-c5cccc(S(=O)(=O)[O-])c5F)c5ccc2[nH]5)C=C4)C=C3)cc1
REMARK SMILES IDX 5 1 4 2 3 3 1 4 2 5 22 7 23 8 84 9 24 10 83 11 25 12 26 13
REMARK SMILES IDX 27 14 77 15 28 16 82 17 76 18 78 19 29 20 81 21 75 22 74 23
REMARK SMILES IDX 30 25 62 26 42 27 61 28 43 29 46 30 60 31 79 32 44 33 45 34
REMARK SMILES IDX 59 36 80 37 47 38 31 39 32 40 40 41 33 42 35 43 41 44 34 45
REMARK SMILES IDX 36 46 37 47 38 48 39 49 63 50 64 51 72 52 65 53 67 54 73 55
REMARK SMILES IDX 66 56 68 57 69 58 70 59 71 60 48 61 49 62 57 63 50 64 52 65
REMARK SMILES IDX 58 66 51 67 53 68 54 69 55 70 56 71 6 72 7 73 8 74 9 75
REMARK SMILES IDX 10 77 11 78 12 79 21 80 13 81 15 82 14 83 16 84 17 85 18 86
REMARK SMILES IDX 19 87 20 88
REMARK H PARENT 3 6 78 24 46 35 8 76
REMARK Flexibility Score: inf
ROOT
ATOM      1  C   UNL A   1      38.079  19.348  24.925  1.00  0.00     0.023 C 
ENDROOT
BRANCH   1   2
ATOM      2  C   UNL A   1      39.135  20.059  25.759  1.00  0.00     0.116 C 
BRANCH   2   3
ATOM      3  N   UNL A   1      40.284  19.215  26.043  1.00  0.00    -0.352 N 
ATOM      4  O   UNL A   1      42.457  18.733  26.383  1.00  0.00    -0.269 OA
ATOM      5  C   UNL A   1      41.570  19.581  26.366  1.00  0.00     0.251 C 
ATOM      6  H   UNL A   1      40.119  18.246  25.997  1.00  0.00     0.163 HD
BRANCH   5   7
ATOM      7  C   UNL A   1      41.881  20.997  26.669  1.00  0.00     0.039 A 
ATOM      8  C   UNL A   1      42.140  21.404  27.981  1.00  0.00     0.014 A 
ATOM      9  C   UNL A   1      41.933  21.925  25.626  1.00  0.00     0.014 A 
ATOM     10  C   UNL A   1      42.323  22.752  28.266  1.00  0.00     0.010 A 
ATOM     11  C   UNL A   1      42.203  23.269  25.905  1.00  0.00     0.010 A 
ATOM     12  C   UNL A   1      42.381  23.697  27.230  1.00  0.00    -0.014 A 
BRANCH  12  13
ATOM     13  C   UNL A   1      42.764  25.097  27.542  1.00  0.00     0.031 A 
ATOM     14  C   UNL A   1      41.792  26.066  28.153  1.00  0.00     0.074 A 
ATOM     15  C   UNL A   1      44.013  25.495  27.226  1.00  0.00     0.049 A 
ATOM     16  N   UNL A   1      41.984  27.319  28.479  1.00  0.00    -0.248 NA
ATOM     17  C   UNL A   1      40.432  25.578  28.433  1.00  0.00     0.031 C 
ATOM     18  C   UNL A   1      45.021  24.656  26.572  1.00  0.00     0.029 A 
ATOM     19  N   UNL A   1      44.644  26.701  27.390  1.00  0.00    -0.354 N 
ATOM     20  C   UNL A   1      40.766  27.784  28.957  1.00  0.00     0.074 A 
ATOM     21  C   UNL A   1      39.837  26.675  28.889  1.00  0.00     0.031 C 
ATOM     22  C   UNL A   1      46.141  25.368  26.392  1.00  0.00     0.029 A 
ATOM     23  C   UNL A   1      45.917  26.727  26.869  1.00  0.00     0.049 A 
ATOM     24  H   UNL A   1      44.227  27.473  27.838  1.00  0.00     0.167 HD
ATOM     25  C   UNL A   1      40.457  29.019  29.421  1.00  0.00     0.034 A 
ATOM     26  C   UNL A   1      46.798  27.738  26.753  1.00  0.00     0.034 A 
ATOM     27  C   UNL A   1      41.402  30.100  29.529  1.00  0.00     0.049 A 
ATOM     28  C   UNL A   1      46.427  29.089  27.292  1.00  0.00     0.074 A 
ATOM     29  C   UNL A   1      41.216  31.347  30.104  1.00  0.00     0.029 A 
ATOM     30  N   UNL A   1      42.696  30.078  29.035  1.00  0.00    -0.354 N 
ATOM     31  N   UNL A   1      45.333  29.453  27.916  1.00  0.00    -0.248 NA
ATOM     32  C   UNL A   1      47.417  30.162  27.134  1.00  0.00     0.031 C 
ATOM     33  C   UNL A   1      42.388  32.089  29.927  1.00  0.00     0.029 A 
ATOM     34  C   UNL A   1      43.309  31.299  29.259  1.00  0.00     0.049 A 
ATOM     35  H   UNL A   1      43.118  29.307  28.591  1.00  0.00     0.167 HD
ATOM     36  C   UNL A   1      45.505  30.793  28.230  1.00  0.00     0.074 A 
ATOM     37  C   UNL A   1      46.826  31.166  27.766  1.00  0.00     0.031 C 
ATOM     38  C   UNL A   1      44.637  31.647  28.825  1.00  0.00     0.034 A 
BRANCH  25  39
ATOM     39  C   UNL A   1      39.052  29.281  29.892  1.00  0.00     0.023 A 
ATOM     40  C   UNL A   1      38.699  28.980  31.222  1.00  0.00     0.012 A 
ATOM     41  C   UNL A   1      38.127  29.947  29.062  1.00  0.00     0.148 A 
ATOM     42  C   UNL A   1      37.442  29.329  31.717  1.00  0.00     0.002 A 
ATOM     43  C   UNL A   1      36.890  30.321  29.573  1.00  0.00     0.091 A 
ATOM     44  F   UNL A   1      38.481  30.210  27.796  1.00  0.00    -0.205 F 
ATOM     45  C   UNL A   1      36.544  30.009  30.898  1.00  0.00     0.022 A 
BRANCH  43  46
ATOM     46  S   UNL A   1      35.690  31.264  28.623  1.00  0.00     0.127 S 
ATOM     47  O   UNL A   1      35.193  30.253  27.691  1.00  0.00    -0.237 OA
ATOM     48  O   UNL A   1      34.731  31.665  29.653  1.00  0.00    -0.237 OA
ATOM     49  O   UNL A   1      36.429  32.361  28.014  1.00  0.00    -0.744 OA
ENDBRANCH  43  46
ENDBRANCH  25  39
BRANCH  26  50
ATOM     50  C   UNL A   1      48.117  27.499  26.106  1.00  0.00     0.023 A 
ATOM     51  C   UNL A   1      49.222  27.126  26.893  1.00  0.00     0.012 A 
ATOM     52  C   UNL A   1      48.272  27.600  24.709  1.00  0.00     0.148 A 
ATOM     53  C   UNL A   1      50.464  26.883  26.303  1.00  0.00     0.002 A 
ATOM     54  C   UNL A   1      49.494  27.297  24.123  1.00  0.00     0.091 A 
ATOM     55  F   UNL A   1      47.215  27.979  23.975  1.00  0.00    -0.205 F 
ATOM     56  C   UNL A   1      50.596  26.954  24.918  1.00  0.00     0.022 A 
BRANCH  54  57
ATOM     57  S   UNL A   1      49.687  27.221  22.338  1.00  0.00     0.127 S 
ATOM     58  O   UNL A   1      51.066  26.764  22.204  1.00  0.00    -0.237 OA
ATOM     59  O   UNL A   1      48.671  26.239  21.956  1.00  0.00    -0.237 OA
ATOM     60  O   UNL A   1      49.408  28.573  21.870  1.00  0.00    -0.744 OA
ENDBRANCH  54  57
ENDBRANCH  26  50
BRANCH  38  61
ATOM     61  C   UNL A   1      45.082  33.073  29.001  1.00  0.00     0.023 A 
ATOM     62  C   UNL A   1      45.760  33.442  30.180  1.00  0.00     0.012 A 
ATOM     63  C   UNL A   1      44.891  34.027  27.983  1.00  0.00     0.148 A 
ATOM     64  C   UNL A   1      46.216  34.747  30.356  1.00  0.00     0.002 A 
ATOM     65  C   UNL A   1      45.387  35.315  28.148  1.00  0.00     0.091 A 
ATOM     66  F   UNL A   1      44.227  33.659  26.878  1.00  0.00    -0.205 F 
ATOM     67  C   UNL A   1      46.040  35.679  29.336  1.00  0.00     0.022 A 
BRANCH  65  68
ATOM     68  S   UNL A   1      45.285  36.558  26.856  1.00  0.00     0.127 S 
ATOM     69  O   UNL A   1      45.993  35.905  25.756  1.00  0.00    -0.237 OA
ATOM     70  O   UNL A   1      43.840  36.685  26.660  1.00  0.00    -0.237 OA
ATOM     71  O   UNL A   1      45.928  37.750  27.392  1.00  0.00    -0.744 OA
ENDBRANCH  65  68
ENDBRANCH  38  61
ENDBRANCH  12  13
ENDBRANCH   5   7
ENDBRANCH   2   3
ENDBRANCH   1   2
BRANCH   1  72
ATOM     72  C   UNL A   1      36.680  19.952  25.001  1.00  0.00     0.023 C 
BRANCH  72  73
ATOM     73  C   UNL A   1      36.631  21.468  25.156  1.00  0.00     0.116 C 
BRANCH  73  74
ATOM     74  N   UNL A   1      35.865  21.907  26.312  1.00  0.00    -0.352 N 
ATOM     75  C   UNL A   1      34.512  21.811  26.529  1.00  0.00     0.251 C 
ATOM     76  H   UNL A   1      36.384  22.330  27.034  1.00  0.00     0.163 HD
ATOM     77  O   UNL A   1      33.997  22.316  27.521  1.00  0.00    -0.269 OA
BRANCH  75  78
ATOM     78  C   UNL A   1      33.664  21.120  25.537  1.00  0.00     0.043 A 
ATOM     79  C   UNL A   1      33.294  21.808  24.382  1.00  0.00     0.014 A 
ATOM     80  C   UNL A   1      33.253  19.796  25.747  1.00  0.00     0.060 A 
ATOM     81  C   UNL A   1      32.557  21.150  23.402  1.00  0.00     0.005 A 
ATOM     82  C   UNL A   1      32.548  19.124  24.753  1.00  0.00     0.120 A 
ATOM     83  C   UNL A   1      32.199  19.811  23.585  1.00  0.00     0.046 A 
BRANCH  82  84
ATOM     84  O   UNL A   1      32.153  17.815  24.787  1.00  0.00    -0.488 OA
BRANCH  84  85
ATOM     85  C   UNL A   1      33.083  16.826  25.247  1.00  0.00     0.302 C 
BRANCH  85  86
ATOM     86  C   UNL A   1      34.332  16.748  24.379  1.00  0.00     0.379 C 
ATOM     87  F   UNL A   1      35.217  15.858  24.897  1.00  0.00    -0.207 F 
ATOM     88  F   UNL A   1      33.999  16.273  23.151  1.00  0.00    -0.207 F 
ENDBRANCH  85  86
ENDBRANCH  84  85
ENDBRANCH  82  84
ENDBRANCH  75  78
ENDBRANCH  73  74
ENDBRANCH  72  73
ENDBRANCH   1  72
TORSDOF 17
ENDMDL
MODEL 2
REMARK VINA RESULT:     -11.1      6.911     12.137
REMARK SMILES O=C(NCCCCNC(=O)c1cccc(OCC(F)F)c1)c1ccc(-c2c3nc(c(-c4cccc(S(=O)(=O)[O-])c4F)c4ccc([nH]4)c(-c4cccc(S(=O)(=O)[O-])c4F)c4nc(c(-c5cccc(S(=O)(=O)[O-])c5F)c5ccc2[nH]5)C=C4)C=C3)cc1
REMARK SMILES IDX 5 1 4 2 3 3 1 4 2 5 22 7 23 8 84 9 24 10 83 11 25 12 26 13
REMARK SMILES IDX 27 14 77 15 28 16 82 17 76 18 78 19 29 20 81 21 75 22 74 23
REMARK SMILES IDX 30 25 62 26 42 27 61 28 43 29 46 30 60 31 79 32 44 33 45 34
REMARK SMILES IDX 59 36 80 37 47 38 31 39 32 40 40 41 33 42 35 43 41 44 34 45
REMARK SMILES IDX 36 46 37 47 38 48 39 49 63 50 64 51 72 52 65 53 67 54 73 55
REMARK SMILES IDX 66 56 68 57 69 58 70 59 71 60 48 61 49 62 57 63 50 64 52 65
REMARK SMILES IDX 58 66 51 67 53 68 54 69 55 70 56 71 6 72 7 73 8 74 9 75
REMARK SMILES IDX 10 77 11 78 12 79 21 80 13 81 15 82 14 83 16 84 17 85 18 86
REMARK SMILES IDX 19 87 20 88
REMARK H PARENT 3 6 78 24 46 35 8 76
REMARK Flexibility Score: inf
ROOT
ATOM      1  C   UNL A   1      31.320  31.929  26.745  1.00  0.00     0.023 C 
ENDROOT
BRANCH   1   2
ATOM      2  C   UNL A   1      32.658  32.602  27.021  1.00  0.00     0.116 C 
BRANCH   2   3
ATOM      3  N   UNL A   1      32.508  33.947  27.551  1.00  0.00    -0.352 N 
ATOM      4  O   UNL A   1      32.789  35.630  29.021  1.00  0.00    -0.269 OA
ATOM      5  C   UNL A   1      33.183  34.551  28.587  1.00  0.00     0.251 C 
ATOM      6  H   UNL A   1      31.828  34.504  27.107  1.00  0.00     0.163 HD
BRANCH   5   7
ATOM      7  C   UNL A   1      34.364  33.888  29.185  1.00  0.00     0.039 A 
ATOM      8  C   UNL A   1      34.204  32.855  30.114  1.00  0.00     0.014 A 
ATOM      9  C   UNL A   1      35.645  34.287  28.798  1.00  0.00     0.014 A 
ATOM     10  C   UNL A   1      35.317  32.315  30.750  1.00  0.00     0.010 A 
ATOM     11  C   UNL A   1      36.766  33.683  29.375  1.00  0.00     0.010 A 
ATOM     12  C   UNL A   1      36.611  32.704  30.370  1.00  0.00    -0.014 A 
BRANCH  12  13
ATOM     13  C   UNL A   1      37.781  31.980  30.926  1.00  0.00     0.031 A 
ATOM     14  C   UNL A   1      38.503  30.920  30.142  1.00  0.00     0.074 A 
ATOM     15  C   UNL A   1      38.166  32.274  32.185  1.00  0.00     0.049 A 
ATOM     16  N   UNL A   1      39.538  30.204  30.499  1.00  0.00    -0.248 NA
ATOM     17  C   UNL A   1      38.004  30.619  28.791  1.00  0.00     0.031 C 
ATOM     18  C   UNL A   1      37.500  33.242  33.062  1.00  0.00     0.029 A 
ATOM     19  N   UNL A   1      39.190  31.783  32.954  1.00  0.00    -0.354 N 
ATOM     20  C   UNL A   1      39.788  29.337  29.442  1.00  0.00     0.074 A 
ATOM     21  C   UNL A   1      38.801  29.622  28.422  1.00  0.00     0.031 C 
ATOM     22  C   UNL A   1      38.130  33.275  34.243  1.00  0.00     0.029 A 
ATOM     23  C   UNL A   1      39.211  32.297  34.229  1.00  0.00     0.049 A 
ATOM     24  H   UNL A   1      39.846  31.127  32.625  1.00  0.00     0.167 HD
ATOM     25  C   UNL A   1      40.760  28.400  29.333  1.00  0.00     0.034 A 
ATOM     26  C   UNL A   1      39.988  31.996  35.286  1.00  0.00     0.034 A 
ATOM     27  C   UNL A   1      41.767  28.159  30.333  1.00  0.00     0.049 A 
ATOM     28  C   UNL A   1      41.065  30.963  35.122  1.00  0.00     0.074 A 
ATOM     29  C   UNL A   1      42.868  27.321  30.259  1.00  0.00     0.029 A 
ATOM     30  N   UNL A   1      41.788  28.732  31.595  1.00  0.00    -0.354 N 
ATOM     31  N   UNL A   1      41.404  30.292  34.048  1.00  0.00    -0.248 NA
ATOM     32  C   UNL A   1      41.881  30.660  36.304  1.00  0.00     0.031 C 
ATOM     33  C   UNL A   1      43.534  27.363  31.488  1.00  0.00     0.029 A 
ATOM     34  C   UNL A   1      42.859  28.240  32.321  1.00  0.00     0.049 A 
ATOM     35  H   UNL A   1      41.136  29.391  31.927  1.00  0.00     0.167 HD
ATOM     36  C   UNL A   1      42.476  29.495  34.422  1.00  0.00     0.074 A 
ATOM     37  C   UNL A   1      42.758  29.797  35.812  1.00  0.00     0.031 C 
ATOM     38  C   UNL A   1      43.151  28.575  33.691  1.00  0.00     0.034 A 
BRANCH  25  39
ATOM     39  C   UNL A   1      40.830  27.577  28.074  1.00  0.00     0.023 A 
ATOM     40  C   UNL A   1      41.476  28.101  26.937  1.00  0.00     0.012 A 
ATOM     41  C   UNL A   1      40.376  26.243  28.061  1.00  0.00     0.148 A 
ATOM     42  C   UNL A   1      41.662  27.311  25.802  1.00  0.00     0.002 A 
ATOM     43  C   UNL A   1      40.595  25.452  26.939  1.00  0.00     0.091 A 
ATOM     44  F   UNL A   1      39.751  25.772  29.149  1.00  0.00    -0.205 F 
ATOM     45  C   UNL A   1      41.234  25.987  25.807  1.00  0.00     0.022 A 
BRANCH  43  46
ATOM     46  S   UNL A   1      40.147  23.713  26.870  1.00  0.00     0.127 S 
ATOM     47  O   UNL A   1      40.445  23.279  28.235  1.00  0.00    -0.237 OA
ATOM     48  O   UNL A   1      38.721  23.776  26.549  1.00  0.00    -0.237 OA
ATOM     49  O   UNL A   1      40.982  23.122  25.834  1.00  0.00    -0.744 OA
ENDBRANCH  43  46
ENDBRANCH  25  39
BRANCH  26  50
ATOM     50  C   UNL A   1      39.774  32.690  36.584  1.00  0.00     0.023 A 
ATOM     51  C   UNL A   1      40.526  33.841  36.891  1.00  0.00     0.012 A 
ATOM     52  C   UNL A   1      38.802  32.241  37.500  1.00  0.00     0.148 A 
ATOM     53  C   UNL A   1      40.329  34.515  38.098  1.00  0.00     0.002 A 
ATOM     54  C   UNL A   1      38.569  32.953  38.669  1.00  0.00     0.091 A 
ATOM     55  F   UNL A   1      38.111  31.131  37.203  1.00  0.00    -0.205 F 
ATOM     56  C   UNL A   1      39.342  34.080  38.979  1.00  0.00     0.022 A 
BRANCH  54  57
ATOM     57  S   UNL A   1      37.212  32.534  39.769  1.00  0.00     0.127 S 
ATOM     58  O   UNL A   1      37.272  33.616  40.747  1.00  0.00    -0.237 OA
ATOM     59  O   UNL A   1      36.057  32.578  38.871  1.00  0.00    -0.237 OA
ATOM     60  O   UNL A   1      37.525  31.199  40.265  1.00  0.00    -0.744 OA
ENDBRANCH  54  57
ENDBRANCH  26  50
BRANCH  38  61
ATOM     61  C   UNL A   1      44.253  27.818  34.379  1.00  0.00     0.023 A 
ATOM     62  C   UNL A   1      45.562  28.339  34.358  1.00  0.00     0.012 A 
ATOM     63  C   UNL A   1      43.988  26.636  35.096  1.00  0.00     0.148 A 
ATOM     64  C   UNL A   1      46.598  27.679  35.018  1.00  0.00     0.002 A 
ATOM     65  C   UNL A   1      45.017  26.008  35.788  1.00  0.00     0.091 A 
ATOM     66  F   UNL A   1      42.739  26.149  35.087  1.00  0.00    -0.205 F 
ATOM     67  C   UNL A   1      46.323  26.521  35.741  1.00  0.00     0.022 A 
BRANCH  65  68
ATOM     68  S   UNL A   1      44.743  24.561  36.817  1.00  0.00     0.127 S 
ATOM     69  O   UNL A   1      43.794  25.073  37.804  1.00  0.00    -0.237 OA
ATOM     70  O   UNL A   1      44.176  23.605  35.865  1.00  0.00    -0.237 OA
ATOM     71  O   UNL A   1      46.049  24.187  37.342  1.00  0.00    -0.744 OA
ENDBRANCH  65  68
ENDBRANCH  38  61
ENDBRANCH  12  13
ENDBRANCH   5   7
ENDBRANCH   2   3
ENDBRANCH   1   2
BRANCH   1  72
ATOM     72  C   UNL A   1      31.367  30.787  25.735  1.00  0.00     0.023 C 
BRANCH  72  73
ATOM     73  C   UNL A   1      32.553  29.840  25.874  1.00  0.00     0.116 C 
BRANCH  73  74
ATOM     74  N   UNL A   1      33.287  29.645  24.633  1.00  0.00    -0.352 N 
ATOM     75  C   UNL A   1      32.901  28.955  23.510  1.00  0.00     0.251 C 
ATOM     76  H   UNL A   1      34.178  30.061  24.593  1.00  0.00     0.163 HD
ATOM     77  O   UNL A   1      33.674  28.798  22.571  1.00  0.00    -0.269 OA
BRANCH  75  78
ATOM     78  C   UNL A   1      31.548  28.364  23.450  1.00  0.00     0.043 A 
ATOM     79  C   UNL A   1      31.341  27.112  24.028  1.00  0.00     0.014 A 
ATOM     80  C   UNL A   1      30.494  29.056  22.836  1.00  0.00     0.060 A 
ATOM     81  C   UNL A   1      30.058  26.572  24.045  1.00  0.00     0.005 A 
ATOM     82  C   UNL A   1      29.204  28.535  22.884  1.00  0.00     0.120 A 
ATOM     83  C   UNL A   1      28.996  27.289  23.487  1.00  0.00     0.046 A 
BRANCH  82  84
ATOM     84  O   UNL A   1      28.073  29.133  22.401  1.00  0.00    -0.488 OA
BRANCH  84  85
ATOM     85  C   UNL A   1      27.749  30.456  22.846  1.00  0.00     0.302 C 
BRANCH  85  86
ATOM     86  C   UNL A   1      27.829  31.487  21.727  1.00  0.00     0.379 C 
ATOM     87  F   UNL A   1      28.126  32.712  22.228  1.00  0.00    -0.207 F 
ATOM     88  F   UNL A   1      28.851  31.165  20.892  1.00  0.00    -0.207 F 
ENDBRANCH  85  86
ENDBRANCH  84  85
ENDBRANCH  82  84
ENDBRANCH  75  78
ENDBRANCH  73  74
ENDBRANCH  72  73
ENDBRANCH   1  72
TORSDOF 17
ENDMDL
MODEL 3
REMARK VINA RESULT:     -11.0      6.215     11.561
REMARK SMILES O=C(NCCCCNC(=O)c1cccc(OCC(F)F)c1)c1ccc(-c2c3nc(c(-c4cccc(S(=O)(=O)[O-])c4F)c4ccc([nH]4)c(-c4cccc(S(=O)(=O)[O-])c4F)c4nc(c(-c5cccc(S(=O)(=O)[O-])c5F)c5ccc2[nH]5)C=C4)C=C3)cc1
REMARK SMILES IDX 5 1 4 2 3 3 1 4 2 5 22 7 23 8 84 9 24 10 83 11 25 12 26 13
REMARK SMILES IDX 27 14 77 15 28 16 82 17 76 18 78 19 29 20 81 21 75 22 74 23
REMARK SMILES IDX 30 25 62 26 42 27 61 28 43 29 46 30 60 31 79 32 44 33 45 34
REMARK SMILES IDX 59 36 80 37 47 38 31 39 32 40 40 41 33 42 35 43 41 44 34 45
REMARK SMILES IDX 36 46 37 47 38 48 39 49 63 50 64 51 72 52 65 53 67 54 73 55
REMARK SMILES IDX 66 56 68 57 69 58 70 59 71 60 48 61 49 62 57 63 50 64 52 65
REMARK SMILES IDX 58 66 51 67 53 68 54 69 55 70 56 71 6 72 7 73 8 74 9 75
REMARK SMILES IDX 10 77 11 78 12 79 21 80 13 81 15 82 14 83 16 84 17 85 18 86
REMARK SMILES IDX 19 87 20 88
REMARK H PARENT 3 6 78 24 46 35 8 76
REMARK Flexibility Score: inf
ROOT
ATOM      1  C   UNL A   1      31.317  32.114  26.660  1.00  0.00     0.023 C 
ENDROOT
BRANCH   1   2
ATOM      2  C   UNL A   1      32.663  32.782  26.903  1.00  0.00     0.116 C 
BRANCH   2   3
ATOM      3  N   UNL A   1      32.535  34.081  27.544  1.00  0.00    -0.352 N 
ATOM      4  O   UNL A   1      32.843  35.631  29.148  1.00  0.00    -0.269 OA
ATOM      5  C   UNL A   1      33.219  34.586  28.625  1.00  0.00     0.251 C 
ATOM      6  H   UNL A   1      31.864  34.683  27.148  1.00  0.00     0.163 HD
BRANCH   5   7
ATOM      7  C   UNL A   1      34.389  33.856  29.165  1.00  0.00     0.039 A 
ATOM      8  C   UNL A   1      35.687  34.309  28.914  1.00  0.00     0.014 A 
ATOM      9  C   UNL A   1      34.185  32.717  29.948  1.00  0.00     0.014 A 
ATOM     10  C   UNL A   1      36.778  33.557  29.333  1.00  0.00     0.010 A 
ATOM     11  C   UNL A   1      35.285  32.008  30.442  1.00  0.00     0.010 A 
ATOM     12  C   UNL A   1      36.591  32.411  30.123  1.00  0.00    -0.014 A 
BRANCH  12  13
ATOM     13  C   UNL A   1      37.772  31.734  30.715  1.00  0.00     0.031 A 
ATOM     14  C   UNL A   1      38.546  30.689  29.962  1.00  0.00     0.074 A 
ATOM     15  C   UNL A   1      38.118  32.057  31.977  1.00  0.00     0.049 A 
ATOM     16  N   UNL A   1      39.596  30.012  30.351  1.00  0.00    -0.248 NA
ATOM     17  C   UNL A   1      38.087  30.353  28.604  1.00  0.00     0.031 C 
ATOM     18  C   UNL A   1      37.401  33.013  32.826  1.00  0.00     0.029 A 
ATOM     19  N   UNL A   1      39.140  31.611  32.776  1.00  0.00    -0.354 N 
ATOM     20  C   UNL A   1      39.899  29.141  29.312  1.00  0.00     0.074 A 
ATOM     21  C   UNL A   1      38.925  29.379  28.267  1.00  0.00     0.031 C 
ATOM     22  C   UNL A   1      38.002  33.083  34.020  1.00  0.00     0.029 A 
ATOM     23  C   UNL A   1      39.115  32.142  34.044  1.00  0.00     0.049 A 
ATOM     24  H   UNL A   1      39.825  30.972  32.470  1.00  0.00     0.167 HD
ATOM     25  C   UNL A   1      40.904  28.235  29.237  1.00  0.00     0.034 A 
ATOM     26  C   UNL A   1      39.878  31.880  35.122  1.00  0.00     0.034 A 
ATOM     27  C   UNL A   1      41.895  28.041  30.263  1.00  0.00     0.049 A 
ATOM     28  C   UNL A   1      40.993  30.883  34.995  1.00  0.00     0.074 A 
ATOM     29  C   UNL A   1      43.024  27.240  30.224  1.00  0.00     0.029 A 
ATOM     30  N   UNL A   1      41.868  28.631  31.517  1.00  0.00    -0.354 N 
ATOM     31  N   UNL A   1      41.378  30.210  33.938  1.00  0.00    -0.248 NA
ATOM     32  C   UNL A   1      41.791  30.623  36.200  1.00  0.00     0.031 C 
ATOM     33  C   UNL A   1      43.661  27.320  31.467  1.00  0.00     0.029 A 
ATOM     34  C   UNL A   1      42.939  28.185  32.273  1.00  0.00     0.049 A 
ATOM     35  H   UNL A   1      41.187  29.273  31.825  1.00  0.00     0.167 HD
ATOM     36  C   UNL A   1      42.467  29.454  34.348  1.00  0.00     0.074 A 
ATOM     37  C   UNL A   1      42.707  29.783  35.739  1.00  0.00     0.031 C 
ATOM     38  C   UNL A   1      43.188  28.547  33.644  1.00  0.00     0.034 A 
BRANCH  25  39
ATOM     39  C   UNL A   1      41.029  27.399  27.992  1.00  0.00     0.023 A 
ATOM     40  C   UNL A   1      41.649  27.943  26.850  1.00  0.00     0.012 A 
ATOM     41  C   UNL A   1      40.654  26.040  27.997  1.00  0.00     0.148 A 
ATOM     42  C   UNL A   1      41.888  27.148  25.728  1.00  0.00     0.002 A 
ATOM     43  C   UNL A   1      40.926  25.247  26.889  1.00  0.00     0.091 A 
ATOM     44  F   UNL A   1      40.052  25.549  29.090  1.00  0.00    -0.205 F 
ATOM     45  C   UNL A   1      41.539  25.801  25.752  1.00  0.00     0.022 A 
BRANCH  43  46
ATOM     46  S   UNL A   1      40.582  23.484  26.845  1.00  0.00     0.127 S 
ATOM     47  O   UNL A   1      39.154  23.471  26.528  1.00  0.00    -0.237 OA
ATOM     48  O   UNL A   1      41.450  23.028  25.759  1.00  0.00    -0.237 OA
ATOM     49  O   UNL A   1      40.931  22.971  28.163  1.00  0.00    -0.744 OA
ENDBRANCH  43  46
ENDBRANCH  25  39
BRANCH  26  50
ATOM     50  C   UNL A   1      39.612  32.585  36.405  1.00  0.00     0.023 A 
ATOM     51  C   UNL A   1      40.324  33.759  36.717  1.00  0.00     0.012 A 
ATOM     52  C   UNL A   1      38.629  32.120  37.301  1.00  0.00     0.148 A 
ATOM     53  C   UNL A   1      40.078  34.442  37.909  1.00  0.00     0.002 A 
ATOM     54  C   UNL A   1      38.347  32.839  38.455  1.00  0.00     0.091 A 
ATOM     55  F   UNL A   1      37.976  30.987  37.001  1.00  0.00    -0.205 F 
ATOM     56  C   UNL A   1      39.081  33.991  38.771  1.00  0.00     0.022 A 
BRANCH  54  57
ATOM     57  S   UNL A   1      36.974  32.396  39.526  1.00  0.00     0.127 S 
ATOM     58  O   UNL A   1      37.320  31.031  39.910  1.00  0.00    -0.237 OA
ATOM     59  O   UNL A   1      37.082  33.385  40.599  1.00  0.00    -0.237 OA
ATOM     60  O   UNL A   1      35.784  32.550  38.698  1.00  0.00    -0.744 OA
ENDBRANCH  54  57
ENDBRANCH  26  50
BRANCH  38  61
ATOM     61  C   UNL A   1      44.299  27.837  34.367  1.00  0.00     0.023 A 
ATOM     62  C   UNL A   1      45.575  28.433  34.424  1.00  0.00     0.012 A 
ATOM     63  C   UNL A   1      44.071  26.622  35.040  1.00  0.00     0.148 A 
ATOM     64  C   UNL A   1      46.615  27.817  35.117  1.00  0.00     0.002 A 
ATOM     65  C   UNL A   1      45.101  26.036  35.766  1.00  0.00     0.091 A 
ATOM     66  F   UNL A   1      42.855  26.063  34.958  1.00  0.00    -0.205 F 
ATOM     67  C   UNL A   1      46.375  26.625  35.797  1.00  0.00     0.022 A 
BRANCH  65  68
ATOM     68  S   UNL A   1      44.864  24.547  36.744  1.00  0.00     0.127 S 
ATOM     69  O   UNL A   1      46.226  24.272  37.202  1.00  0.00    -0.237 OA
ATOM     70  O   UNL A   1      43.950  25.005  37.790  1.00  0.00    -0.237 OA
ATOM     71  O   UNL A   1      44.298  23.557  35.839  1.00  0.00    -0.744 OA
ENDBRANCH  65  68
ENDBRANCH  38  61
ENDBRANCH  12  13
ENDBRANCH   5   7
ENDBRANCH   2   3
ENDBRANCH   1   2
BRANCH   1  72
ATOM     72  C   UNL A   1      31.388  30.727  26.028  1.00  0.00     0.023 C 
BRANCH  72  73
ATOM     73  C   UNL A   1      31.712  29.588  26.989  1.00  0.00     0.116 C 
BRANCH  73  74
ATOM     74  N   UNL A   1      33.107  29.558  27.402  1.00  0.00    -0.352 N 
ATOM     75  C   UNL A   1      34.144  28.838  26.860  1.00  0.00     0.251 C 
ATOM     76  H   UNL A   1      33.338  30.127  28.171  1.00  0.00     0.163 HD
ATOM     77  O   UNL A   1      35.254  28.846  27.381  1.00  0.00    -0.269 OA
BRANCH  75  78
ATOM     78  C   UNL A   1      33.908  28.019  25.655  1.00  0.00     0.043 A 
ATOM     79  C   UNL A   1      33.842  28.657  24.416  1.00  0.00     0.014 A 
ATOM     80  C   UNL A   1      33.766  26.627  25.754  1.00  0.00     0.060 A 
ATOM     81  C   UNL A   1      33.693  27.894  23.263  1.00  0.00     0.005 A 
ATOM     82  C   UNL A   1      33.654  25.859  24.599  1.00  0.00     0.120 A 
ATOM     83  C   UNL A   1      33.613  26.502  23.356  1.00  0.00     0.046 A 
BRANCH  82  84
ATOM     84  O   UNL A   1      33.588  24.494  24.539  1.00  0.00    -0.488 OA
BRANCH  84  85
ATOM     85  C   UNL A   1      32.699  23.887  23.593  1.00  0.00     0.302 C 
BRANCH  85  86
ATOM     86  C   UNL A   1      33.391  22.846  22.723  1.00  0.00     0.379 C 
ATOM     87  F   UNL A   1      33.140  23.080  21.410  1.00  0.00    -0.207 F 
ATOM     88  F   UNL A   1      34.736  22.957  22.872  1.00  0.00    -0.207 F 
ENDBRANCH  85  86
ENDBRANCH  84  85
ENDBRANCH  82  84
ENDBRANCH  75  78
ENDBRANCH  73  74
ENDBRANCH  72  73
ENDBRANCH   1  72
TORSDOF 17
ENDMDL
