MODEL 1
REMARK VINA RESULT:     -12.2      0.000      0.000
REMARK SMILES CCOc1ccc(NC(=O)CC2(CC(=O)NCCCCNC(=O)c3ccc(-c4c5nc(c(-c6cccc(S(=O)(=O)[O-])c6F)c6ccc([nH]6)c(-c6cccc(S(=O)(=O)[O-])c6F)c6nc(c(-c7cccc(S(=O)(=O)[O-])c7F)c7ccc4[nH]7)C=C6)C=C5)cc3)CCCCC2)cc1
REMARK SMILES IDX 17 1 16 2 14 3 15 4 13 6 12 7 87 8 91 9 88 10 90 11 89 12
REMARK SMILES IDX 11 13 9 14 8 15 10 17 7 18 4 19 5 20 93 21 6 22 92 23 3 24
REMARK SMILES IDX 2 25 1 26 18 27 19 28 20 29 21 30 22 31 23 33 24 34 25 35
REMARK SMILES IDX 86 36 26 37 85 38 27 39 28 40 29 41 79 42 30 43 84 44 78 45
REMARK SMILES IDX 80 46 31 47 83 48 77 49 76 50 32 52 64 53 44 54 63 55 45 56
REMARK SMILES IDX 48 57 62 58 81 59 46 60 47 61 61 63 82 64 49 65 33 66 34 67
REMARK SMILES IDX 42 68 35 69 37 70 43 71 36 72 38 73 39 74 40 75 41 76 65 77
REMARK SMILES IDX 66 78 74 79 67 80 69 81 75 82 68 83 70 84 71 85 72 86 73 87
REMARK SMILES IDX 50 88 51 89 59 90 52 91 54 92 60 93 53 94 55 95 56 96 57 97
REMARK SMILES IDX 58 98
REMARK H PARENT 16 5 8 16 21 32 80 51 48 62
REMARK Flexibility Score: inf
ROOT
ATOM      1  C   UNL A   1      33.029  27.073  25.269  1.00  0.00     0.116 C 
ENDROOT
BRANCH   1   2
ATOM      2  N   UNL A   1      32.602  26.813  23.911  1.00  0.00    -0.356 N 
ATOM      3  C   UNL A   1      32.940  25.825  23.043  1.00  0.00     0.220 C 
ATOM      4  O   UNL A   1      32.170  25.569  22.111  1.00  0.00    -0.275 OA
ATOM      5  H   UNL A   1      31.955  27.464  23.556  1.00  0.00     0.163 HD
BRANCH   3   6
ATOM      6  C   UNL A   1      34.165  24.953  23.206  1.00  0.00     0.107 C 
BRANCH   6   7
ATOM      7  C   UNL A   1      34.078  23.475  23.715  1.00  0.00    -0.012 C 
ATOM      8  C   UNL A   1      34.319  23.527  25.269  1.00  0.00     0.008 C 
ATOM      9  C   UNL A   1      35.238  22.579  23.228  1.00  0.00     0.008 C 
ATOM     10  C   UNL A   1      35.691  24.102  25.659  1.00  0.00     0.001 C 
ATOM     11  C   UNL A   1      36.625  23.176  23.476  1.00  0.00     0.001 C 
ATOM     12  C   UNL A   1      36.864  23.417  24.958  1.00  0.00     0.000 C 
BRANCH   7  13
ATOM     13  C   UNL A   1      32.637  22.874  23.466  1.00  0.00     0.108 C 
BRANCH  13  14
ATOM     14  C   UNL A   1      31.963  22.058  24.570  1.00  0.00     0.224 C 
ATOM     15  N   UNL A   1      32.129  20.720  24.791  1.00  0.00    -0.326 N 
ATOM     16  H   UNL A   1      31.564  20.379  25.520  1.00  0.00     0.169 HD
ATOM     17  O   UNL A   1      31.218  22.651  25.364  1.00  0.00    -0.275 OA
BRANCH  15  18
ATOM     18  C   UNL A   1      32.929  19.720  24.208  1.00  0.00     0.041 A 
ATOM     19  C   UNL A   1      33.952  17.215  23.549  1.00  0.00     0.119 A 
ATOM     20  C   UNL A   1      34.713  18.104  24.301  1.00  0.00     0.048 A 
ATOM     21  C   UNL A   1      32.826  17.678  22.886  1.00  0.00     0.048 A 
ATOM     22  C   UNL A   1      34.198  19.362  24.634  1.00  0.00     0.030 A 
ATOM     23  C   UNL A   1      32.337  18.958  23.190  1.00  0.00     0.030 A 
BRANCH  19  24
ATOM     24  O   UNL A   1      34.083  15.891  23.882  1.00  0.00    -0.494 OA
BRANCH  24  25
ATOM     25  C   UNL A   1      33.967  15.562  25.260  1.00  0.00     0.226 C 
ATOM     26  C   UNL A   1      32.528  15.215  25.606  1.00  0.00     0.049 C 
ENDBRANCH  24  25
ENDBRANCH  19  24
ENDBRANCH  15  18
ENDBRANCH  13  14
ENDBRANCH   7  13
ENDBRANCH   6   7
ENDBRANCH   3   6
ENDBRANCH   1   2
BRANCH   1  27
ATOM     27  C   UNL A   1      33.640  28.458  25.488  1.00  0.00     0.023 C 
BRANCH  27  28
ATOM     28  C   UNL A   1      32.738  29.677  25.453  1.00  0.00     0.023 C 
BRANCH  28  29
ATOM     29  C   UNL A   1      32.223  30.187  26.775  1.00  0.00     0.116 C 
BRANCH  29  30
ATOM     30  N   UNL A   1      32.213  31.637  26.870  1.00  0.00    -0.352 N 
ATOM     31  C   UNL A   1      33.168  32.456  27.430  1.00  0.00     0.251 C 
ATOM     32  H   UNL A   1      31.427  32.089  26.487  1.00  0.00     0.163 HD
ATOM     33  O   UNL A   1      32.963  33.663  27.544  1.00  0.00    -0.269 OA
BRANCH  31  34
ATOM     34  C   UNL A   1      34.426  31.859  27.933  1.00  0.00     0.039 A 
ATOM     35  C   UNL A   1      35.572  32.652  28.022  1.00  0.00     0.014 A 
ATOM     36  C   UNL A   1      34.448  30.540  28.395  1.00  0.00     0.014 A 
ATOM     37  C   UNL A   1      36.715  32.142  28.643  1.00  0.00     0.010 A 
ATOM     38  C   UNL A   1      35.539  30.083  29.123  1.00  0.00     0.010 A 
ATOM     39  C   UNL A   1      36.696  30.869  29.236  1.00  0.00    -0.014 A 
BRANCH  39  40
ATOM     40  C   UNL A   1      37.878  30.320  29.950  1.00  0.00     0.031 A 
ATOM     41  C   UNL A   1      38.171  30.762  31.360  1.00  0.00     0.074 A 
ATOM     42  C   UNL A   1      38.733  29.494  29.312  1.00  0.00     0.049 A 
ATOM     43  N   UNL A   1      39.180  30.450  32.131  1.00  0.00    -0.248 NA
ATOM     44  C   UNL A   1      37.226  31.711  31.974  1.00  0.00     0.031 C 
ATOM     45  C   UNL A   1      38.615  29.060  27.918  1.00  0.00     0.029 A 
ATOM     46  N   UNL A   1      39.886  28.889  29.749  1.00  0.00    -0.354 N 
ATOM     47  C   UNL A   1      39.013  31.192  33.294  1.00  0.00     0.074 A 
ATOM     48  C   UNL A   1      37.837  32.010  33.110  1.00  0.00     0.031 C 
ATOM     49  C   UNL A   1      39.642  28.248  27.620  1.00  0.00     0.029 A 
ATOM     50  C   UNL A   1      40.509  28.126  28.788  1.00  0.00     0.049 A 
ATOM     51  H   UNL A   1      40.235  28.993  30.664  1.00  0.00     0.167 HD
ATOM     52  C   UNL A   1      39.744  31.167  34.432  1.00  0.00     0.034 A 
ATOM     53  C   UNL A   1      41.650  27.410  28.843  1.00  0.00     0.034 A 
ATOM     54  C   UNL A   1      40.874  30.306  34.639  1.00  0.00     0.049 A 
ATOM     55  C   UNL A   1      42.420  27.360  30.135  1.00  0.00     0.074 A 
ATOM     56  C   UNL A   1      41.619  30.126  35.790  1.00  0.00     0.029 A 
ATOM     57  N   UNL A   1      41.425  29.481  33.671  1.00  0.00    -0.354 N 
ATOM     58  N   UNL A   1      42.149  27.939  31.280  1.00  0.00    -0.248 NA
ATOM     59  C   UNL A   1      43.634  26.530  30.156  1.00  0.00     0.031 C 
ATOM     60  C   UNL A   1      42.638  29.209  35.510  1.00  0.00     0.029 A 
ATOM     61  C   UNL A   1      42.511  28.799  34.193  1.00  0.00     0.049 A 
ATOM     62  H   UNL A   1      41.093  29.393  32.749  1.00  0.00     0.167 HD
ATOM     63  C   UNL A   1      43.139  27.523  32.163  1.00  0.00     0.074 A 
ATOM     64  C   UNL A   1      44.001  26.621  31.427  1.00  0.00     0.031 C 
ATOM     65  C   UNL A   1      43.329  27.869  33.461  1.00  0.00     0.034 A 
BRANCH  52  66
ATOM     66  C   UNL A   1      39.301  32.056  35.565  1.00  0.00     0.023 A 
ATOM     67  C   UNL A   1      38.416  31.552  36.541  1.00  0.00     0.012 A 
ATOM     68  C   UNL A   1      39.789  33.370  35.689  1.00  0.00     0.148 A 
ATOM     69  C   UNL A   1      37.991  32.355  37.599  1.00  0.00     0.002 A 
ATOM     70  C   UNL A   1      39.398  34.149  36.773  1.00  0.00     0.091 A 
ATOM     71  F   UNL A   1      40.610  33.842  34.739  1.00  0.00    -0.205 F 
ATOM     72  C   UNL A   1      38.490  33.648  37.720  1.00  0.00     0.022 A 
BRANCH  70  73
ATOM     73  S   UNL A   1      40.045  35.799  37.062  1.00  0.00     0.127 S 
ATOM     74  O   UNL A   1      39.388  36.156  38.319  1.00  0.00    -0.237 OA
ATOM     75  O   UNL A   1      41.482  35.551  37.175  1.00  0.00    -0.237 OA
ATOM     76  O   UNL A   1      39.654  36.592  35.906  1.00  0.00    -0.744 OA
ENDBRANCH  70  73
ENDBRANCH  52  66
BRANCH  53  77
ATOM     77  C   UNL A   1      42.099  26.627  27.655  1.00  0.00     0.023 A 
ATOM     78  C   UNL A   1      42.864  27.263  26.658  1.00  0.00     0.012 A 
ATOM     79  C   UNL A   1      41.797  25.259  27.520  1.00  0.00     0.148 A 
ATOM     80  C   UNL A   1      43.294  26.559  25.532  1.00  0.00     0.002 A 
ATOM     81  C   UNL A   1      42.274  24.549  26.424  1.00  0.00     0.091 A 
ATOM     82  F   UNL A   1      41.057  24.676  28.473  1.00  0.00    -0.205 F 
ATOM     83  C   UNL A   1      43.008  25.201  25.420  1.00  0.00     0.022 A 
BRANCH  81  84
ATOM     84  S   UNL A   1      42.068  22.772  26.265  1.00  0.00     0.127 S 
ATOM     85  O   UNL A   1      40.615  22.642  26.216  1.00  0.00    -0.237 OA
ATOM     86  O   UNL A   1      42.756  22.500  25.002  1.00  0.00    -0.237 OA
ATOM     87  O   UNL A   1      42.718  22.196  27.435  1.00  0.00    -0.744 OA
ENDBRANCH  81  84
ENDBRANCH  53  77
BRANCH  65  88
ATOM     88  C   UNL A   1      44.502  27.257  34.182  1.00  0.00     0.023 A 
ATOM     89  C   UNL A   1      45.751  27.909  34.161  1.00  0.00     0.012 A 
ATOM     90  C   UNL A   1      44.345  26.084  34.946  1.00  0.00     0.148 A 
ATOM     91  C   UNL A   1      46.834  27.384  34.864  1.00  0.00     0.002 A 
ATOM     92  C   UNL A   1      45.415  25.595  35.685  1.00  0.00     0.091 A 
ATOM     93  F   UNL A   1      43.151  25.472  34.939  1.00  0.00    -0.205 F 
ATOM     94  C   UNL A   1      46.664  26.236  35.634  1.00  0.00     0.022 A 
BRANCH  92  95
ATOM     95  S   UNL A   1      45.263  24.181  36.781  1.00  0.00     0.127 S 
ATOM     96  O   UNL A   1      44.290  24.665  37.759  1.00  0.00    -0.237 OA
ATOM     97  O   UNL A   1      44.760  23.143  35.882  1.00  0.00    -0.237 OA
ATOM     98  O   UNL A   1      46.602  23.931  37.301  1.00  0.00    -0.744 OA
ENDBRANCH  92  95
ENDBRANCH  65  88
ENDBRANCH  39  40
ENDBRANCH  31  34
ENDBRANCH  29  30
ENDBRANCH  28  29
ENDBRANCH  27  28
ENDBRANCH   1  27
TORSDOF 20
ENDMDL
MODEL 2
REMARK VINA RESULT:     -12.1      2.085      4.467
REMARK SMILES CCOc1ccc(NC(=O)CC2(CC(=O)NCCCCNC(=O)c3ccc(-c4c5nc(c(-c6cccc(S(=O)(=O)[O-])c6F)c6ccc([nH]6)c(-c6cccc(S(=O)(=O)[O-])c6F)c6nc(c(-c7cccc(S(=O)(=O)[O-])c7F)c7ccc4[nH]7)C=C6)C=C5)cc3)CCCCC2)cc1
REMARK SMILES IDX 17 1 16 2 14 3 15 4 13 6 12 7 87 8 91 9 88 10 90 11 89 12
REMARK SMILES IDX 11 13 9 14 8 15 10 17 7 18 4 19 5 20 93 21 6 22 92 23 3 24
REMARK SMILES IDX 2 25 1 26 18 27 19 28 20 29 21 30 22 31 23 33 24 34 25 35
REMARK SMILES IDX 86 36 26 37 85 38 27 39 28 40 29 41 79 42 30 43 84 44 78 45
REMARK SMILES IDX 80 46 31 47 83 48 77 49 76 50 32 52 64 53 44 54 63 55 45 56
REMARK SMILES IDX 48 57 62 58 81 59 46 60 47 61 61 63 82 64 49 65 33 66 34 67
REMARK SMILES IDX 42 68 35 69 37 70 43 71 36 72 38 73 39 74 40 75 41 76 65 77
REMARK SMILES IDX 66 78 74 79 67 80 69 81 75 82 68 83 70 84 71 85 72 86 73 87
REMARK SMILES IDX 50 88 51 89 59 90 52 91 54 92 60 93 53 94 55 95 56 96 57 97
REMARK SMILES IDX 58 98
REMARK H PARENT 16 5 8 16 21 32 80 51 48 62
REMARK Flexibility Score: inf
ROOT
ATOM      1  C   UNL A   1      32.163  26.959  26.465  1.00  0.00     0.116 C 
ENDROOT
BRANCH   1   2
ATOM      2  N   UNL A   1      31.429  25.735  26.708  1.00  0.00    -0.356 N 
ATOM      3  C   UNL A   1      31.838  24.440  26.740  1.00  0.00     0.220 C 
ATOM      4  O   UNL A   1      31.148  23.618  27.352  1.00  0.00    -0.275 OA
ATOM      5  H   UNL A   1      30.469  25.863  26.881  1.00  0.00     0.163 HD
BRANCH   3   6
ATOM      6  C   UNL A   1      33.144  23.962  26.145  1.00  0.00     0.107 C 
BRANCH   6   7
ATOM      7  C   UNL A   1      33.357  23.814  24.601  1.00  0.00    -0.012 C 
ATOM      8  C   UNL A   1      32.083  23.075  24.048  1.00  0.00     0.008 C 
ATOM      9  C   UNL A   1      34.496  22.844  24.220  1.00  0.00     0.008 C 
ATOM     10  C   UNL A   1      31.872  21.677  24.651  1.00  0.00     0.001 C 
ATOM     11  C   UNL A   1      34.400  21.480  24.905  1.00  0.00     0.001 C 
ATOM     12  C   UNL A   1      33.102  20.774  24.549  1.00  0.00     0.000 C 
BRANCH   7  13
ATOM     13  C   UNL A   1      33.440  25.230  23.903  1.00  0.00     0.108 C 
BRANCH  13  14
ATOM     14  C   UNL A   1      32.989  25.378  22.448  1.00  0.00     0.224 C 
ATOM     15  N   UNL A   1      31.970  26.173  22.004  1.00  0.00    -0.326 N 
ATOM     16  H   UNL A   1      31.810  26.084  21.038  1.00  0.00     0.169 HD
ATOM     17  O   UNL A   1      33.611  24.753  21.577  1.00  0.00    -0.275 OA
BRANCH  15  18
ATOM     18  C   UNL A   1      31.099  27.090  22.620  1.00  0.00     0.041 A 
ATOM     19  C   UNL A   1      28.832  28.612  23.166  1.00  0.00     0.119 A 
ATOM     20  C   UNL A   1      29.999  29.230  22.729  1.00  0.00     0.048 A 
ATOM     21  C   UNL A   1      28.883  27.299  23.608  1.00  0.00     0.048 A 
ATOM     22  C   UNL A   1      31.138  28.465  22.453  1.00  0.00     0.030 A 
ATOM     23  C   UNL A   1      30.044  26.547  23.368  1.00  0.00     0.030 A 
BRANCH  19  24
ATOM     24  O   UNL A   1      27.662  29.157  22.703  1.00  0.00    -0.494 OA
BRANCH  24  25
ATOM     25  C   UNL A   1      27.681  30.543  22.387  1.00  0.00     0.226 C 
ATOM     26  C   UNL A   1      27.537  31.379  23.647  1.00  0.00     0.049 C 
ENDBRANCH  24  25
ENDBRANCH  19  24
ENDBRANCH  15  18
ENDBRANCH  13  14
ENDBRANCH   7  13
ENDBRANCH   6   7
ENDBRANCH   3   6
ENDBRANCH   1   2
BRANCH   1  27
ATOM     27  C   UNL A   1      31.443  28.230  26.916  1.00  0.00     0.023 C 
BRANCH  27  28
ATOM     28  C   UNL A   1      31.707  29.529  26.177  1.00  0.00     0.023 C 
BRANCH  28  29
ATOM     29  C   UNL A   1      33.034  30.201  26.423  1.00  0.00     0.116 C 
BRANCH  29  30
ATOM     30  N   UNL A   1      32.911  31.590  26.829  1.00  0.00    -0.352 N 
ATOM     31  C   UNL A   1      33.768  32.321  27.623  1.00  0.00     0.251 C 
ATOM     32  H   UNL A   1      32.117  32.068  26.497  1.00  0.00     0.163 HD
ATOM     33  O   UNL A   1      33.467  33.458  27.980  1.00  0.00    -0.269 OA
BRANCH  31  34
ATOM     34  C   UNL A   1      35.036  31.703  28.075  1.00  0.00     0.039 A 
ATOM     35  C   UNL A   1      36.190  32.485  28.144  1.00  0.00     0.014 A 
ATOM     36  C   UNL A   1      35.060  30.375  28.508  1.00  0.00     0.014 A 
ATOM     37  C   UNL A   1      37.348  31.954  28.720  1.00  0.00     0.010 A 
ATOM     38  C   UNL A   1      36.169  29.895  29.192  1.00  0.00     0.010 A 
ATOM     39  C   UNL A   1      37.336  30.669  29.286  1.00  0.00    -0.014 A 
BRANCH  39  40
ATOM     40  C   UNL A   1      38.534  30.095  29.952  1.00  0.00     0.031 A 
ATOM     41  C   UNL A   1      38.909  30.552  31.339  1.00  0.00     0.074 A 
ATOM     42  C   UNL A   1      39.332  29.234  29.290  1.00  0.00     0.049 A 
ATOM     43  N   UNL A   1      39.944  30.222  32.065  1.00  0.00    -0.248 NA
ATOM     44  C   UNL A   1      38.024  31.540  31.980  1.00  0.00     0.031 C 
ATOM     45  C   UNL A   1      39.133  28.780  27.911  1.00  0.00     0.029 A 
ATOM     46  N   UNL A   1      40.486  28.600  29.681  1.00  0.00    -0.354 N 
ATOM     47  C   UNL A   1      39.857  30.988  33.222  1.00  0.00     0.074 A 
ATOM     48  C   UNL A   1      38.698  31.839  33.079  1.00  0.00     0.031 C 
ATOM     49  C   UNL A   1      40.120  27.931  27.578  1.00  0.00     0.029 A 
ATOM     50  C   UNL A   1      41.039  27.802  28.705  1.00  0.00     0.049 A 
ATOM     51  H   UNL A   1      40.882  28.708  30.576  1.00  0.00     0.167 HD
ATOM     52  C   UNL A   1      40.641  30.960  34.323  1.00  0.00     0.034 A 
ATOM     53  C   UNL A   1      42.159  27.053  28.718  1.00  0.00     0.034 A 
ATOM     54  C   UNL A   1      41.754  30.068  34.490  1.00  0.00     0.049 A 
ATOM     55  C   UNL A   1      42.989  27.001  29.972  1.00  0.00     0.074 A 
ATOM     56  C   UNL A   1      42.549  29.885  35.608  1.00  0.00     0.029 A 
ATOM     57  N   UNL A   1      42.232  29.210  33.513  1.00  0.00    -0.354 N 
ATOM     58  N   UNL A   1      42.792  27.607  31.118  1.00  0.00    -0.248 NA
ATOM     59  C   UNL A   1      44.177  26.134  29.949  1.00  0.00     0.031 C 
ATOM     60  C   UNL A   1      43.525  28.932  35.295  1.00  0.00     0.029 A 
ATOM     61  C   UNL A   1      43.321  28.504  33.993  1.00  0.00     0.049 A 
ATOM     62  H   UNL A   1      41.853  29.117  32.609  1.00  0.00     0.167 HD
ATOM     63  C   UNL A   1      43.811  27.176  31.960  1.00  0.00     0.074 A 
ATOM     64  C   UNL A   1      44.608  26.235  31.199  1.00  0.00     0.031 C 
ATOM     65  C   UNL A   1      44.074  27.537  33.240  1.00  0.00     0.034 A 
BRANCH  52  66
ATOM     66  C   UNL A   1      40.281  31.881  35.459  1.00  0.00     0.023 A 
ATOM     67  C   UNL A   1      41.007  33.075  35.646  1.00  0.00     0.012 A 
ATOM     68  C   UNL A   1      39.202  31.589  36.315  1.00  0.00     0.148 A 
ATOM     69  C   UNL A   1      40.694  33.944  36.690  1.00  0.00     0.002 A 
ATOM     70  C   UNL A   1      38.864  32.484  37.325  1.00  0.00     0.091 A 
ATOM     71  F   UNL A   1      38.537  30.438  36.139  1.00  0.00    -0.205 F 
ATOM     72  C   UNL A   1      39.616  33.654  37.521  1.00  0.00     0.022 A 
BRANCH  70  73
ATOM     73  S   UNL A   1      37.446  32.240  38.399  1.00  0.00     0.127 S 
ATOM     74  O   UNL A   1      37.922  32.827  39.652  1.00  0.00    -0.237 OA
ATOM     75  O   UNL A   1      36.408  33.016  37.720  1.00  0.00    -0.237 OA
ATOM     76  O   UNL A   1      37.208  30.805  38.432  1.00  0.00    -0.744 OA
ENDBRANCH  70  73
ENDBRANCH  52  66
BRANCH  53  77
ATOM     77  C   UNL A   1      42.526  26.237  27.524  1.00  0.00     0.023 A 
ATOM     78  C   UNL A   1      43.319  26.811  26.512  1.00  0.00     0.012 A 
ATOM     79  C   UNL A   1      42.117  24.895  27.397  1.00  0.00     0.148 A 
ATOM     80  C   UNL A   1      43.673  26.075  25.380  1.00  0.00     0.002 A 
ATOM     81  C   UNL A   1      42.520  24.150  26.295  1.00  0.00     0.091 A 
ATOM     82  F   UNL A   1      41.352  24.371  28.365  1.00  0.00    -0.205 F 
ATOM     83  C   UNL A   1      43.283  24.742  25.277  1.00  0.00     0.022 A 
BRANCH  81  84
ATOM     84  S   UNL A   1      42.176  22.393  26.144  1.00  0.00     0.127 S 
ATOM     85  O   UNL A   1      42.891  22.052  24.919  1.00  0.00    -0.237 OA
ATOM     86  O   UNL A   1      42.768  21.863  27.374  1.00  0.00    -0.237 OA
ATOM     87  O   UNL A   1      40.724  22.282  26.084  1.00  0.00    -0.744 OA
ENDBRANCH  81  84
ENDBRANCH  53  77
BRANCH  65  88
ATOM     88  C   UNL A   1      45.262  26.902  33.915  1.00  0.00     0.023 A 
ATOM     89  C   UNL A   1      46.518  27.538  33.860  1.00  0.00     0.012 A 
ATOM     90  C   UNL A   1      45.115  25.722  34.670  1.00  0.00     0.148 A 
ATOM     91  C   UNL A   1      47.617  26.991  34.521  1.00  0.00     0.002 A 
ATOM     92  C   UNL A   1      46.202  25.210  35.367  1.00  0.00     0.091 A 
ATOM     93  F   UNL A   1      43.914  25.125  34.695  1.00  0.00    -0.205 F 
ATOM     94  C   UNL A   1      47.457  25.836  35.283  1.00  0.00     0.022 A 
BRANCH  92  95
ATOM     95  S   UNL A   1      46.068  23.784  36.451  1.00  0.00     0.127 S 
ATOM     96  O   UNL A   1      45.091  24.249  37.434  1.00  0.00    -0.237 OA
ATOM     97  O   UNL A   1      45.576  22.749  35.543  1.00  0.00    -0.237 OA
ATOM     98  O   UNL A   1      47.410  23.546  36.967  1.00  0.00    -0.744 OA
ENDBRANCH  92  95
ENDBRANCH  65  88
ENDBRANCH  39  40
ENDBRANCH  31  34
ENDBRANCH  29  30
ENDBRANCH  28  29
ENDBRANCH  27  28
ENDBRANCH   1  27
TORSDOF 20
ENDMDL
MODEL 3
REMARK VINA RESULT:     -11.5      2.471      3.675
REMARK SMILES CCOc1ccc(NC(=O)CC2(CC(=O)NCCCCNC(=O)c3ccc(-c4c5nc(c(-c6cccc(S(=O)(=O)[O-])c6F)c6ccc([nH]6)c(-c6cccc(S(=O)(=O)[O-])c6F)c6nc(c(-c7cccc(S(=O)(=O)[O-])c7F)c7ccc4[nH]7)C=C6)C=C5)cc3)CCCCC2)cc1
REMARK SMILES IDX 17 1 16 2 14 3 15 4 13 6 12 7 87 8 91 9 88 10 90 11 89 12
REMARK SMILES IDX 11 13 9 14 8 15 10 17 7 18 4 19 5 20 93 21 6 22 92 23 3 24
REMARK SMILES IDX 2 25 1 26 18 27 19 28 20 29 21 30 22 31 23 33 24 34 25 35
REMARK SMILES IDX 86 36 26 37 85 38 27 39 28 40 29 41 79 42 30 43 84 44 78 45
REMARK SMILES IDX 80 46 31 47 83 48 77 49 76 50 32 52 64 53 44 54 63 55 45 56
REMARK SMILES IDX 48 57 62 58 81 59 46 60 47 61 61 63 82 64 49 65 33 66 34 67
REMARK SMILES IDX 42 68 35 69 37 70 43 71 36 72 38 73 39 74 40 75 41 76 65 77
REMARK SMILES IDX 66 78 74 79 67 80 69 81 75 82 68 83 70 84 71 85 72 86 73 87
REMARK SMILES IDX 50 88 51 89 59 90 52 91 54 92 60 93 53 94 55 95 56 96 57 97
REMARK SMILES IDX 58 98
REMARK H PARENT 16 5 8 16 21 32 80 51 48 62
REMARK Flexibility Score: inf
ROOT
ATOM      1  C   UNL A   1      33.262  29.713  26.598  1.00  0.00     0.116 C 
ENDROOT
BRANCH   1   2
ATOM      2  N   UNL A   1      33.680  29.568  25.219  1.00  0.00    -0.356 N 
ATOM      3  C   UNL A   1      33.175  28.814  24.209  1.00  0.00     0.220 C 
ATOM      4  O   UNL A   1      33.427  29.143  23.044  1.00  0.00    -0.275 OA
ATOM      5  H   UNL A   1      34.465  30.108  24.973  1.00  0.00     0.163 HD
BRANCH   3   6
ATOM      6  C   UNL A   1      32.242  27.644  24.425  1.00  0.00     0.107 C 
BRANCH   6   7
ATOM      7  C   UNL A   1      31.859  26.654  23.274  1.00  0.00    -0.012 C 
ATOM      8  C   UNL A   1      30.837  27.418  22.354  1.00  0.00     0.008 C 
ATOM      9  C   UNL A   1      31.035  25.437  23.748  1.00  0.00     0.008 C 
ATOM     10  C   UNL A   1      29.552  27.844  23.083  1.00  0.00     0.001 C 
ATOM     11  C   UNL A   1      29.816  25.809  24.594  1.00  0.00     0.001 C 
ATOM     12  C   UNL A   1      28.857  26.698  23.819  1.00  0.00     0.000 C 
BRANCH   7  13
ATOM     13  C   UNL A   1      33.124  26.289  22.398  1.00  0.00     0.108 C 
BRANCH  13  14
ATOM     14  C   UNL A   1      32.959  25.368  21.188  1.00  0.00     0.224 C 
ATOM     15  N   UNL A   1      33.088  24.008  21.193  1.00  0.00    -0.326 N 
ATOM     16  H   UNL A   1      32.993  23.611  20.299  1.00  0.00     0.169 HD
ATOM     17  O   UNL A   1      32.651  25.881  20.101  1.00  0.00    -0.275 OA
BRANCH  15  18
ATOM     18  C   UNL A   1      33.325  23.048  22.194  1.00  0.00     0.041 A 
ATOM     19  C   UNL A   1      33.116  21.614  24.572  1.00  0.00     0.119 A 
ATOM     20  C   UNL A   1      34.252  22.373  24.313  1.00  0.00     0.048 A 
ATOM     21  C   UNL A   1      32.234  21.335  23.538  1.00  0.00     0.048 A 
ATOM     22  C   UNL A   1      34.357  23.096  23.118  1.00  0.00     0.030 A 
ATOM     23  C   UNL A   1      32.369  22.031  22.326  1.00  0.00     0.030 A 
BRANCH  19  24
ATOM     24  O   UNL A   1      32.703  21.589  25.879  1.00  0.00    -0.494 OA
BRANCH  24  25
ATOM     25  C   UNL A   1      32.707  22.827  26.576  1.00  0.00     0.226 C 
ATOM     26  C   UNL A   1      31.323  23.137  27.122  1.00  0.00     0.049 C 
ENDBRANCH  24  25
ENDBRANCH  19  24
ENDBRANCH  15  18
ENDBRANCH  13  14
ENDBRANCH   7  13
ENDBRANCH   6   7
ENDBRANCH   3   6
ENDBRANCH   1   2
BRANCH   1  27
ATOM     27  C   UNL A   1      31.861  30.299  26.777  1.00  0.00     0.023 C 
BRANCH  27  28
ATOM     28  C   UNL A   1      31.695  31.805  26.857  1.00  0.00     0.023 C 
BRANCH  28  29
ATOM     29  C   UNL A   1      32.882  32.601  27.337  1.00  0.00     0.116 C 
BRANCH  29  30
ATOM     30  N   UNL A   1      32.554  33.972  27.687  1.00  0.00    -0.352 N 
ATOM     31  C   UNL A   1      33.124  34.758  28.665  1.00  0.00     0.251 C 
ATOM     32  H   UNL A   1      31.836  34.392  27.161  1.00  0.00     0.163 HD
ATOM     33  O   UNL A   1      32.657  35.864  28.925  1.00  0.00    -0.269 OA
BRANCH  31  34
ATOM     34  C   UNL A   1      34.280  34.233  29.429  1.00  0.00     0.039 A 
ATOM     35  C   UNL A   1      34.053  33.404  30.528  1.00  0.00     0.014 A 
ATOM     36  C   UNL A   1      35.585  34.495  29.004  1.00  0.00     0.014 A 
ATOM     37  C   UNL A   1      35.135  32.778  31.153  1.00  0.00     0.010 A 
ATOM     38  C   UNL A   1      36.642  33.774  29.544  1.00  0.00     0.010 A 
ATOM     39  C   UNL A   1      36.435  32.924  30.641  1.00  0.00    -0.014 A 
BRANCH  39  40
ATOM     40  C   UNL A   1      37.599  32.230  31.251  1.00  0.00     0.031 A 
ATOM     41  C   UNL A   1      38.176  32.737  32.548  1.00  0.00     0.074 A 
ATOM     42  C   UNL A   1      38.190  31.204  30.608  1.00  0.00     0.049 A 
ATOM     43  N   UNL A   1      39.221  32.313  33.208  1.00  0.00    -0.248 NA
ATOM     44  C   UNL A   1      37.514  33.899  33.166  1.00  0.00     0.031 C 
ATOM     45  C   UNL A   1      37.788  30.673  29.303  1.00  0.00     0.029 A 
ATOM     46  N   UNL A   1      39.274  30.434  30.955  1.00  0.00    -0.354 N 
ATOM     47  C   UNL A   1      39.365  33.177  34.288  1.00  0.00     0.074 A 
ATOM     48  C   UNL A   1      38.334  34.181  34.166  1.00  0.00     0.031 C 
ATOM     49  C   UNL A   1      38.601  29.657  28.968  1.00  0.00     0.029 A 
ATOM     50  C   UNL A   1      39.602  29.482  30.017  1.00  0.00     0.049 A 
ATOM     51  H   UNL A   1      39.771  30.554  31.796  1.00  0.00     0.167 HD
ATOM     52  C   UNL A   1      40.245  33.120  35.313  1.00  0.00     0.034 A 
ATOM     53  C   UNL A   1      40.596  28.573  30.003  1.00  0.00     0.034 A 
ATOM     54  C   UNL A   1      41.228  32.084  35.467  1.00  0.00     0.049 A 
ATOM     55  C   UNL A   1      41.534  28.498  31.178  1.00  0.00     0.074 A 
ATOM     56  C   UNL A   1      42.098  31.874  36.522  1.00  0.00     0.029 A 
ATOM     57  N   UNL A   1      41.474  31.084  34.539  1.00  0.00    -0.354 N 
ATOM     58  N   UNL A   1      41.546  29.220  32.272  1.00  0.00    -0.248 NA
ATOM     59  C   UNL A   1      42.575  27.460  31.134  1.00  0.00     0.031 C 
ATOM     60  C   UNL A   1      42.888  30.760  36.218  1.00  0.00     0.029 A 
ATOM     61  C   UNL A   1      42.491  30.261  34.988  1.00  0.00     0.049 A 
ATOM     62  H   UNL A   1      40.994  30.976  33.686  1.00  0.00     0.167 HD
ATOM     63  C   UNL A   1      42.572  28.708  33.058  1.00  0.00     0.074 A 
ATOM     64  C   UNL A   1      43.142  27.596  32.325  1.00  0.00     0.031 C 
ATOM     65  C   UNL A   1      43.015  29.130  34.268  1.00  0.00     0.034 A 
BRANCH  52  66
ATOM     66  C   UNL A   1      40.141  34.176  36.381  1.00  0.00     0.023 A 
ATOM     67  C   UNL A   1      40.515  35.504  36.087  1.00  0.00     0.012 A 
ATOM     68  C   UNL A   1      39.636  33.869  37.659  1.00  0.00     0.148 A 
ATOM     69  C   UNL A   1      40.429  36.500  37.058  1.00  0.00     0.002 A 
ATOM     70  C   UNL A   1      39.507  34.877  38.608  1.00  0.00     0.091 A 
ATOM     71  F   UNL A   1      39.309  32.597  37.929  1.00  0.00    -0.205 F 
ATOM     72  C   UNL A   1      39.914  36.189  38.313  1.00  0.00     0.022 A 
BRANCH  70  73
ATOM     73  S   UNL A   1      38.785  34.595  40.227  1.00  0.00     0.127 S 
ATOM     74  O   UNL A   1      39.878  33.917  40.923  1.00  0.00    -0.237 OA
ATOM     75  O   UNL A   1      38.523  35.959  40.688  1.00  0.00    -0.237 OA
ATOM     76  O   UNL A   1      37.593  33.790  40.001  1.00  0.00    -0.744 OA
ENDBRANCH  70  73
ENDBRANCH  52  66
BRANCH  53  77
ATOM     77  C   UNL A   1      40.717  27.613  28.867  1.00  0.00     0.023 A 
ATOM     78  C   UNL A   1      39.824  26.528  28.781  1.00  0.00     0.012 A 
ATOM     79  C   UNL A   1      41.689  27.783  27.862  1.00  0.00     0.148 A 
ATOM     80  C   UNL A   1      39.915  25.610  27.733  1.00  0.00     0.002 A 
ATOM     81  C   UNL A   1      41.739  26.898  26.791  1.00  0.00     0.091 A 
ATOM     82  F   UNL A   1      42.538  28.815  27.969  1.00  0.00    -0.205 F 
ATOM     83  C   UNL A   1      40.865  25.801  26.733  1.00  0.00     0.022 A 
BRANCH  81  84
ATOM     84  S   UNL A   1      42.841  27.143  25.393  1.00  0.00     0.127 S 
ATOM     85  O   UNL A   1      44.129  27.324  26.055  1.00  0.00    -0.237 OA
ATOM     86  O   UNL A   1      42.691  25.881  24.667  1.00  0.00    -0.237 OA
ATOM     87  O   UNL A   1      42.322  28.305  24.684  1.00  0.00    -0.744 OA
ENDBRANCH  81  84
ENDBRANCH  53  77
BRANCH  65  88
ATOM     88  C   UNL A   1      44.160  28.378  34.894  1.00  0.00     0.023 A 
ATOM     89  C   UNL A   1      45.485  28.718  34.557  1.00  0.00     0.012 A 
ATOM     90  C   UNL A   1      43.925  27.393  35.874  1.00  0.00     0.148 A 
ATOM     91  C   UNL A   1      46.558  28.067  35.164  1.00  0.00     0.002 A 
ATOM     92  C   UNL A   1      44.999  26.784  36.510  1.00  0.00     0.091 A 
ATOM     93  F   UNL A   1      42.656  27.074  36.167  1.00  0.00    -0.205 F 
ATOM     94  C   UNL A   1      46.317  27.111  36.147  1.00  0.00     0.022 A 
BRANCH  92  95
ATOM     95  S   UNL A   1      44.786  25.614  37.856  1.00  0.00     0.127 S 
ATOM     96  O   UNL A   1      44.006  26.398  38.811  1.00  0.00    -0.237 OA
ATOM     97  O   UNL A   1      44.047  24.530  37.209  1.00  0.00    -0.237 OA
ATOM     98  O   UNL A   1      46.129  25.254  38.291  1.00  0.00    -0.744 OA
ENDBRANCH  92  95
ENDBRANCH  65  88
ENDBRANCH  39  40
ENDBRANCH  31  34
ENDBRANCH  29  30
ENDBRANCH  28  29
ENDBRANCH  27  28
ENDBRANCH   1  27
TORSDOF 20
ENDMDL
