MODEL 1
REMARK VINA RESULT:     -11.3      0.000      0.000
REMARK SMILES O=C(NCCCCNC(=O)[C@H](CO)NC(=O)[C@H](CS)NC(=O)c1ccc(F)cc1)c1ccc(-c2c3nc(c(-c4cccc(S(=O)(=O)[O-])c4F)c4ccc([nH]4)c(-c4cccc(S(=O)(=O)[O-])c4F)c4nc(c(-c5cccc(S(=O)(=O)[O-])c5F)c5ccc2[nH]5)C=C4)C=C3)cc1
REMARK SMILES IDX 6 1 5 2 4 3 3 4 1 5 2 6 30 8 31 9 92 10 32 11 91 12 33 13
REMARK SMILES IDX 34 14 35 15 85 16 36 17 90 18 84 19 86 20 37 21 89 22 83 23
REMARK SMILES IDX 82 24 38 26 70 27 50 28 69 29 51 30 54 31 68 32 87 33 52 34
REMARK SMILES IDX 53 35 67 37 88 38 55 39 39 40 40 41 48 42 41 43 43 44 49 45
REMARK SMILES IDX 42 46 44 47 45 48 46 49 47 50 71 51 72 52 80 53 73 54 75 55
REMARK SMILES IDX 81 56 74 57 76 58 77 59 78 60 79 61 56 62 57 63 65 64 58 65
REMARK SMILES IDX 60 66 66 67 59 68 61 69 62 70 63 71 64 72 7 73 8 74 9 75
REMARK SMILES IDX 10 77 11 78 14 79 15 80 16 82 17 83 20 84 21 85 22 87 23 88
REMARK SMILES IDX 24 89 29 90 25 91 28 92 26 93 27 94 18 95 19 96 12 98 13 99
REMARK H PARENT 3 7 86 25 54 36 8 76 14 81 20 86 19 97 13 100
REMARK Flexibility Score: inf
ROOT
ATOM      1  C   UNL A   1      35.167  22.675  23.156  1.00  0.00     0.023 C 
ENDROOT
BRANCH   1   2
ATOM      2  C   UNL A   1      35.943  23.558  24.119  1.00  0.00     0.023 C 
BRANCH   2   3
ATOM      3  C   UNL A   1      36.281  22.900  25.444  1.00  0.00     0.116 C 
BRANCH   3   4
ATOM      4  N   UNL A   1      37.115  21.709  25.341  1.00  0.00    -0.352 N 
ATOM      5  O   UNL A   1      39.017  20.500  25.602  1.00  0.00    -0.269 OA
ATOM      6  C   UNL A   1      38.406  21.545  25.798  1.00  0.00     0.251 C 
ATOM      7  H   UNL A   1      36.710  20.931  24.893  1.00  0.00     0.163 HD
BRANCH   6   8
ATOM      8  C   UNL A   1      39.052  22.689  26.477  1.00  0.00     0.039 A 
ATOM      9  C   UNL A   1      38.650  23.985  26.163  1.00  0.00     0.014 A 
ATOM     10  C   UNL A   1      40.150  22.467  27.311  1.00  0.00     0.014 A 
ATOM     11  C   UNL A   1      39.475  25.045  26.494  1.00  0.00     0.010 A 
ATOM     12  C   UNL A   1      40.905  23.556  27.757  1.00  0.00     0.010 A 
ATOM     13  C   UNL A   1      40.606  24.850  27.307  1.00  0.00    -0.014 A 
BRANCH  13  14
ATOM     14  C   UNL A   1      41.396  26.044  27.705  1.00  0.00     0.031 A 
ATOM     15  C   UNL A   1      42.791  26.287  27.203  1.00  0.00     0.074 A 
ATOM     16  C   UNL A   1      40.788  26.962  28.484  1.00  0.00     0.049 A 
ATOM     17  N   UNL A   1      43.542  27.345  27.369  1.00  0.00    -0.248 NA
ATOM     18  C   UNL A   1      43.438  25.214  26.432  1.00  0.00     0.031 C 
ATOM     19  C   UNL A   1      39.453  26.801  29.069  1.00  0.00     0.029 A 
ATOM     20  N   UNL A   1      41.174  28.216  28.880  1.00  0.00    -0.354 N 
ATOM     21  C   UNL A   1      44.764  27.047  26.777  1.00  0.00     0.074 A 
ATOM     22  C   UNL A   1      44.655  25.709  26.239  1.00  0.00     0.031 C 
ATOM     23  C   UNL A   1      39.092  27.945  29.660  1.00  0.00     0.029 A 
ATOM     24  C   UNL A   1      40.195  28.893  29.571  1.00  0.00     0.049 A 
ATOM     25  H   UNL A   1      42.063  28.594  28.690  1.00  0.00     0.167 HD
ATOM     26  C   UNL A   1      45.868  27.827  26.684  1.00  0.00     0.034 A 
ATOM     27  C   UNL A   1      40.178  30.141  30.076  1.00  0.00     0.034 A 
ATOM     28  C   UNL A   1      45.941  29.181  27.167  1.00  0.00     0.049 A 
ATOM     29  C   UNL A   1      41.385  31.009  29.892  1.00  0.00     0.074 A 
ATOM     30  C   UNL A   1      46.990  30.076  27.054  1.00  0.00     0.029 A 
ATOM     31  N   UNL A   1      44.928  29.838  27.851  1.00  0.00    -0.354 N 
ATOM     32  N   UNL A   1      42.489  30.745  29.237  1.00  0.00    -0.248 NA
ATOM     33  C   UNL A   1      41.348  32.343  30.504  1.00  0.00     0.031 C 
ATOM     34  C   UNL A   1      46.617  31.269  27.680  1.00  0.00     0.029 A 
ATOM     35  C   UNL A   1      45.330  31.123  28.172  1.00  0.00     0.049 A 
ATOM     36  H   UNL A   1      44.053  29.447  28.074  1.00  0.00     0.167 HD
ATOM     37  C   UNL A   1      43.282  31.877  29.356  1.00  0.00     0.074 A 
ATOM     38  C   UNL A   1      42.516  32.844  30.118  1.00  0.00     0.031 C 
ATOM     39  C   UNL A   1      44.541  32.085  28.899  1.00  0.00     0.034 A 
BRANCH  26  40
ATOM     40  C   UNL A   1      47.084  27.262  25.996  1.00  0.00     0.023 A 
ATOM     41  C   UNL A   1      47.274  27.493  24.620  1.00  0.00     0.012 A 
ATOM     42  C   UNL A   1      48.089  26.598  26.729  1.00  0.00     0.148 A 
ATOM     43  C   UNL A   1      48.434  27.055  23.979  1.00  0.00     0.002 A 
ATOM     44  C   UNL A   1      49.258  26.198  26.092  1.00  0.00     0.091 A 
ATOM     45  F   UNL A   1      47.882  26.366  28.034  1.00  0.00    -0.205 F 
ATOM     46  C   UNL A   1      49.430  26.420  24.716  1.00  0.00     0.022 A 
BRANCH  44  47
ATOM     47  S   UNL A   1      50.628  25.446  26.981  1.00  0.00     0.127 S 
ATOM     48  O   UNL A   1      51.562  25.155  25.896  1.00  0.00    -0.237 OA
ATOM     49  O   UNL A   1      51.051  26.524  27.877  1.00  0.00    -0.237 OA
ATOM     50  O   UNL A   1      50.067  24.287  27.662  1.00  0.00    -0.744 OA
ENDBRANCH  44  47
ENDBRANCH  26  40
BRANCH  27  51
ATOM     51  C   UNL A   1      38.932  30.630  30.730  1.00  0.00     0.023 A 
ATOM     52  C   UNL A   1      38.816  30.560  32.131  1.00  0.00     0.012 A 
ATOM     53  C   UNL A   1      37.941  31.305  29.991  1.00  0.00     0.148 A 
ATOM     54  C   UNL A   1      37.742  31.165  32.784  1.00  0.00     0.002 A 
ATOM     55  C   UNL A   1      36.915  31.967  30.653  1.00  0.00     0.091 A 
ATOM     56  F   UNL A   1      38.061  31.342  28.656  1.00  0.00    -0.205 F 
ATOM     57  C   UNL A   1      36.805  31.887  32.049  1.00  0.00     0.022 A 
BRANCH  55  58
ATOM     58  S   UNL A   1      35.790  33.080  29.800  1.00  0.00     0.127 S 
ATOM     59  O   UNL A   1      35.034  32.156  28.961  1.00  0.00    -0.237 OA
ATOM     60  O   UNL A   1      35.039  33.663  30.912  1.00  0.00    -0.237 OA
ATOM     61  O   UNL A   1      36.641  34.029  29.094  1.00  0.00    -0.744 OA
ENDBRANCH  55  58
ENDBRANCH  27  51
BRANCH  39  62
ATOM     62  C   UNL A   1      45.190  33.403  29.215  1.00  0.00     0.023 A 
ATOM     63  C   UNL A   1      45.975  33.519  30.378  1.00  0.00     0.012 A 
ATOM     64  C   UNL A   1      45.123  34.479  28.310  1.00  0.00     0.148 A 
ATOM     65  C   UNL A   1      46.677  34.695  30.643  1.00  0.00     0.002 A 
ATOM     66  C   UNL A   1      45.857  35.632  28.559  1.00  0.00     0.091 A 
ATOM     67  F   UNL A   1      44.355  34.349  27.218  1.00  0.00    -0.205 F 
ATOM     68  C   UNL A   1      46.629  35.743  29.728  1.00  0.00     0.022 A 
BRANCH  66  69
ATOM     69  S   UNL A   1      45.930  36.999  27.396  1.00  0.00     0.127 S 
ATOM     70  O   UNL A   1      46.788  37.947  28.105  1.00  0.00    -0.237 OA
ATOM     71  O   UNL A   1      46.543  36.378  26.223  1.00  0.00    -0.237 OA
ATOM     72  O   UNL A   1      44.552  37.434  27.201  1.00  0.00    -0.744 OA
ENDBRANCH  66  69
ENDBRANCH  39  62
ENDBRANCH  13  14
ENDBRANCH   6   8
ENDBRANCH   3   4
ENDBRANCH   2   3
ENDBRANCH   1   2
BRANCH   1  73
ATOM     73  C   UNL A   1      33.651  22.840  23.165  1.00  0.00     0.116 C 
BRANCH  73  74
ATOM     74  N   UNL A   1      32.961  21.633  23.583  1.00  0.00    -0.354 N 
ATOM     75  C   UNL A   1      32.434  21.245  24.779  1.00  0.00     0.244 C 
ATOM     76  H   UNL A   1      32.852  20.966  22.866  1.00  0.00     0.163 HD
ATOM     77  O   UNL A   1      31.899  20.130  24.806  1.00  0.00    -0.273 OA
BRANCH  75  78
ATOM     78  C   UNL A   1      32.656  22.031  26.099  1.00  0.00     0.197 C 
BRANCH  78  79
ATOM     79  N   UNL A   1      31.449  22.469  26.790  1.00  0.00    -0.340 N 
ATOM     80  C   UNL A   1      30.721  23.614  26.646  1.00  0.00     0.244 C 
ATOM     81  H   UNL A   1      31.105  21.841  27.467  1.00  0.00     0.164 HD
ATOM     82  O   UNL A   1      29.648  23.682  27.251  1.00  0.00    -0.273 OA
BRANCH  80  83
ATOM     83  C   UNL A   1      31.157  24.726  25.658  1.00  0.00     0.181 C 
BRANCH  83  84
ATOM     84  N   UNL A   1      29.987  25.134  24.864  1.00  0.00    -0.339 N 
ATOM     85  C   UNL A   1      29.817  26.186  23.999  1.00  0.00     0.251 C 
ATOM     86  H   UNL A   1      29.196  24.557  24.971  1.00  0.00     0.164 HD
ATOM     87  O   UNL A   1      28.684  26.583  23.742  1.00  0.00    -0.269 OA
BRANCH  85  88
ATOM     88  C   UNL A   1      30.964  26.815  23.308  1.00  0.00     0.040 A 
ATOM     89  C   UNL A   1      31.278  28.161  23.523  1.00  0.00     0.017 A 
ATOM     90  C   UNL A   1      31.846  26.014  22.577  1.00  0.00     0.017 A 
ATOM     91  C   UNL A   1      32.402  28.736  22.932  1.00  0.00     0.040 A 
ATOM     92  C   UNL A   1      32.987  26.581  22.001  1.00  0.00     0.040 A 
ATOM     93  C   UNL A   1      33.244  27.939  22.168  1.00  0.00     0.123 A 
ATOM     94  F   UNL A   1      34.333  28.483  21.611  1.00  0.00    -0.207 F 
ENDBRANCH  85  88
ENDBRANCH  83  84
BRANCH  83  95
ATOM     95  C   UNL A   1      31.644  25.909  26.524  1.00  0.00     0.101 C 
BRANCH  95  96
ATOM     96  S   UNL A   1      33.339  26.454  26.129  1.00  0.00    -0.177 SA
ATOM     97  H   UNL A   1      33.288  27.612  25.416  1.00  0.00     0.102 HD
ENDBRANCH  95  96
ENDBRANCH  83  95
ENDBRANCH  80  83
ENDBRANCH  78  79
BRANCH  78  98
ATOM     98  C   UNL A   1      33.555  21.214  27.047  1.00  0.00     0.191 C 
BRANCH  98  99
ATOM     99  O   UNL A   1      34.402  20.319  26.329  1.00  0.00    -0.394 OA
ATOM    100  H   UNL A   1      35.268  20.277  26.763  1.00  0.00     0.210 HD
ENDBRANCH  98  99
ENDBRANCH  78  98
ENDBRANCH  75  78
ENDBRANCH  73  74
ENDBRANCH   1  73
TORSDOF 22
ENDMDL
MODEL 2
REMARK VINA RESULT:     -11.2      5.327     10.149
REMARK SMILES O=C(NCCCCNC(=O)[C@H](CO)NC(=O)[C@H](CS)NC(=O)c1ccc(F)cc1)c1ccc(-c2c3nc(c(-c4cccc(S(=O)(=O)[O-])c4F)c4ccc([nH]4)c(-c4cccc(S(=O)(=O)[O-])c4F)c4nc(c(-c5cccc(S(=O)(=O)[O-])c5F)c5ccc2[nH]5)C=C4)C=C3)cc1
REMARK SMILES IDX 6 1 5 2 4 3 3 4 1 5 2 6 30 8 31 9 92 10 32 11 91 12 33 13
REMARK SMILES IDX 34 14 35 15 85 16 36 17 90 18 84 19 86 20 37 21 89 22 83 23
REMARK SMILES IDX 82 24 38 26 70 27 50 28 69 29 51 30 54 31 68 32 87 33 52 34
REMARK SMILES IDX 53 35 67 37 88 38 55 39 39 40 40 41 48 42 41 43 43 44 49 45
REMARK SMILES IDX 42 46 44 47 45 48 46 49 47 50 71 51 72 52 80 53 73 54 75 55
REMARK SMILES IDX 81 56 74 57 76 58 77 59 78 60 79 61 56 62 57 63 65 64 58 65
REMARK SMILES IDX 60 66 66 67 59 68 61 69 62 70 63 71 64 72 7 73 8 74 9 75
REMARK SMILES IDX 10 77 11 78 14 79 15 80 16 82 17 83 20 84 21 85 22 87 23 88
REMARK SMILES IDX 24 89 29 90 25 91 28 92 26 93 27 94 18 95 19 96 12 98 13 99
REMARK H PARENT 3 7 86 25 54 36 8 76 14 81 20 86 19 97 13 100
REMARK Flexibility Score: inf
ROOT
ATOM      1  C   UNL A   1      31.368  28.089  26.713  1.00  0.00     0.023 C 
ENDROOT
BRANCH   1   2
ATOM      2  C   UNL A   1      31.798  29.396  26.068  1.00  0.00     0.023 C 
BRANCH   2   3
ATOM      3  C   UNL A   1      32.964  30.084  26.753  1.00  0.00     0.116 C 
BRANCH   3   4
ATOM      4  N   UNL A   1      32.742  31.488  27.077  1.00  0.00    -0.352 N 
ATOM      5  O   UNL A   1      33.296  33.512  27.940  1.00  0.00    -0.269 OA
ATOM      6  C   UNL A   1      33.627  32.361  27.676  1.00  0.00     0.251 C 
ATOM      7  H   UNL A   1      31.860  31.855  26.842  1.00  0.00     0.163 HD
BRANCH   6   8
ATOM      8  C   UNL A   1      34.964  31.850  28.045  1.00  0.00     0.039 A 
ATOM      9  C   UNL A   1      35.092  30.540  28.501  1.00  0.00     0.014 A 
ATOM     10  C   UNL A   1      36.054  32.722  28.072  1.00  0.00     0.014 A 
ATOM     11  C   UNL A   1      36.236  30.175  29.189  1.00  0.00     0.010 A 
ATOM     12  C   UNL A   1      37.257  32.302  28.647  1.00  0.00     0.010 A 
ATOM     13  C   UNL A   1      37.341  31.043  29.260  1.00  0.00    -0.014 A 
BRANCH  13  14
ATOM     14  C   UNL A   1      38.573  30.553  29.931  1.00  0.00     0.031 A 
ATOM     15  C   UNL A   1      38.905  30.902  31.354  1.00  0.00     0.074 A 
ATOM     16  C   UNL A   1      39.364  29.708  29.240  1.00  0.00     0.049 A 
ATOM     17  N   UNL A   1      39.877  30.442  32.099  1.00  0.00    -0.248 NA
ATOM     18  C   UNL A   1      38.058  31.897  32.031  1.00  0.00     0.031 C 
ATOM     19  C   UNL A   1      39.162  29.343  27.834  1.00  0.00     0.029 A 
ATOM     20  N   UNL A   1      40.455  28.970  29.619  1.00  0.00    -0.354 N 
ATOM     21  C   UNL A   1      39.798  31.128  33.305  1.00  0.00     0.074 A 
ATOM     22  C   UNL A   1      38.675  32.035  33.199  1.00  0.00     0.031 C 
ATOM     23  C   UNL A   1      40.029  28.382  27.500  1.00  0.00     0.029 A 
ATOM     24  C   UNL A   1      40.903  28.117  28.636  1.00  0.00     0.049 A 
ATOM     25  H   UNL A   1      40.876  29.043  30.506  1.00  0.00     0.167 HD
ATOM     26  C   UNL A   1      40.584  31.002  34.401  1.00  0.00     0.034 A 
ATOM     27  C   UNL A   1      41.902  27.215  28.642  1.00  0.00     0.034 A 
ATOM     28  C   UNL A   1      41.658  30.050  34.515  1.00  0.00     0.049 A 
ATOM     29  C   UNL A   1      42.708  27.040  29.893  1.00  0.00     0.074 A 
ATOM     30  C   UNL A   1      42.464  29.796  35.611  1.00  0.00     0.029 A 
ATOM     31  N   UNL A   1      42.076  29.196  33.506  1.00  0.00    -0.354 N 
ATOM     32  N   UNL A   1      42.546  27.623  31.056  1.00  0.00    -0.248 NA
ATOM     33  C   UNL A   1      43.822  26.087  29.843  1.00  0.00     0.031 C 
ATOM     34  C   UNL A   1      43.377  28.797  35.260  1.00  0.00     0.029 A 
ATOM     35  C   UNL A   1      43.132  28.419  33.950  1.00  0.00     0.049 A 
ATOM     36  H   UNL A   1      41.679  29.148  32.606  1.00  0.00     0.167 HD
ATOM     37  C   UNL A   1      43.539  27.110  31.879  1.00  0.00     0.074 A 
ATOM     38  C   UNL A   1      44.276  26.142  31.091  1.00  0.00     0.031 C 
ATOM     39  C   UNL A   1      43.829  27.433  33.163  1.00  0.00     0.034 A 
BRANCH  26  40
ATOM     40  C   UNL A   1      40.295  31.879  35.591  1.00  0.00     0.023 A 
ATOM     41  C   UNL A   1      41.085  33.022  35.821  1.00  0.00     0.012 A 
ATOM     42  C   UNL A   1      39.180  31.633  36.419  1.00  0.00     0.148 A 
ATOM     43  C   UNL A   1      40.783  33.897  36.866  1.00  0.00     0.002 A 
ATOM     44  C   UNL A   1      38.864  32.529  37.435  1.00  0.00     0.091 A 
ATOM     45  F   UNL A   1      38.452  30.528  36.202  1.00  0.00    -0.205 F 
ATOM     46  C   UNL A   1      39.668  33.657  37.663  1.00  0.00     0.022 A 
BRANCH  44  47
ATOM     47  S   UNL A   1      37.398  32.341  38.458  1.00  0.00     0.127 S 
ATOM     48  O   UNL A   1      37.230  30.890  38.472  1.00  0.00    -0.237 OA
ATOM     49  O   UNL A   1      37.828  32.918  39.733  1.00  0.00    -0.237 OA
ATOM     50  O   UNL A   1      36.348  33.093  37.784  1.00  0.00    -0.744 OA
ENDBRANCH  44  47
ENDBRANCH  26  40
BRANCH  27  51
ATOM     51  C   UNL A   1      42.115  26.376  27.430  1.00  0.00     0.023 A 
ATOM     52  C   UNL A   1      42.964  26.843  26.409  1.00  0.00     0.012 A 
ATOM     53  C   UNL A   1      41.612  25.061  27.359  1.00  0.00     0.148 A 
ATOM     54  C   UNL A   1      43.319  26.011  25.347  1.00  0.00     0.002 A 
ATOM     55  C   UNL A   1      42.029  24.216  26.338  1.00  0.00     0.091 A 
ATOM     56  F   UNL A   1      40.789  24.644  28.331  1.00  0.00    -0.205 F 
ATOM     57  C   UNL A   1      42.872  24.692  25.324  1.00  0.00     0.022 A 
BRANCH  55  58
ATOM     58  S   UNL A   1      41.660  22.456  26.347  1.00  0.00     0.127 S 
ATOM     59  O   UNL A   1      42.434  21.983  25.204  1.00  0.00    -0.237 OA
ATOM     60  O   UNL A   1      42.174  22.046  27.655  1.00  0.00    -0.237 OA
ATOM     61  O   UNL A   1      40.212  22.360  26.219  1.00  0.00    -0.744 OA
ENDBRANCH  55  58
ENDBRANCH  27  51
BRANCH  39  62
ATOM     62  C   UNL A   1      45.003  26.749  33.807  1.00  0.00     0.023 A 
ATOM     63  C   UNL A   1      46.260  27.383  33.789  1.00  0.00     0.012 A 
ATOM     64  C   UNL A   1      44.837  25.551  34.526  1.00  0.00     0.148 A 
ATOM     65  C   UNL A   1      47.342  26.826  34.470  1.00  0.00     0.002 A 
ATOM     66  C   UNL A   1      45.908  25.023  35.235  1.00  0.00     0.091 A 
ATOM     67  F   UNL A   1      43.634  24.959  34.512  1.00  0.00    -0.205 F 
ATOM     68  C   UNL A   1      47.162  25.656  35.204  1.00  0.00     0.022 A 
BRANCH  66  69
ATOM     69  S   UNL A   1      45.751  23.570  36.280  1.00  0.00     0.127 S 
ATOM     70  O   UNL A   1      45.232  24.148  37.518  1.00  0.00    -0.237 OA
ATOM     71  O   UNL A   1      44.791  22.754  35.537  1.00  0.00    -0.237 OA
ATOM     72  O   UNL A   1      47.088  22.996  36.373  1.00  0.00    -0.744 OA
ENDBRANCH  66  69
ENDBRANCH  39  62
ENDBRANCH  13  14
ENDBRANCH   6   8
ENDBRANCH   3   4
ENDBRANCH   2   3
ENDBRANCH   1   2
BRANCH   1  73
ATOM     73  C   UNL A   1      31.268  26.883  25.786  1.00  0.00     0.116 C 
BRANCH  73  74
ATOM     74  N   UNL A   1      30.449  27.145  24.615  1.00  0.00    -0.354 N 
ATOM     75  C   UNL A   1      30.760  27.321  23.299  1.00  0.00     0.244 C 
ATOM     76  H   UNL A   1      29.486  27.209  24.808  1.00  0.00     0.163 HD
ATOM     77  O   UNL A   1      29.810  27.532  22.536  1.00  0.00    -0.273 OA
BRANCH  75  78
ATOM     78  C   UNL A   1      32.217  27.466  22.783  1.00  0.00     0.197 C 
BRANCH  78  79
ATOM     79  N   UNL A   1      32.505  26.830  21.503  1.00  0.00    -0.340 N 
ATOM     80  C   UNL A   1      32.959  25.573  21.229  1.00  0.00     0.244 C 
ATOM     81  H   UNL A   1      32.348  27.397  20.712  1.00  0.00     0.164 HD
ATOM     82  O   UNL A   1      32.983  25.226  20.045  1.00  0.00    -0.273 OA
BRANCH  80  83
ATOM     83  C   UNL A   1      33.301  24.576  22.364  1.00  0.00     0.181 C 
BRANCH  83  84
ATOM     84  N   UNL A   1      33.862  25.329  23.498  1.00  0.00    -0.339 N 
ATOM     85  C   UNL A   1      34.490  24.892  24.637  1.00  0.00     0.251 C 
ATOM     86  H   UNL A   1      33.770  26.307  23.428  1.00  0.00     0.164 HD
ATOM     87  O   UNL A   1      34.533  25.621  25.624  1.00  0.00    -0.269 OA
BRANCH  85  88
ATOM     88  C   UNL A   1      35.184  23.586  24.689  1.00  0.00     0.040 A 
ATOM     89  C   UNL A   1      36.301  23.337  23.885  1.00  0.00     0.017 A 
ATOM     90  C   UNL A   1      34.832  22.663  25.678  1.00  0.00     0.017 A 
ATOM     91  C   UNL A   1      37.001  22.136  23.987  1.00  0.00     0.040 A 
ATOM     92  C   UNL A   1      35.546  21.467  25.799  1.00  0.00     0.040 A 
ATOM     93  C   UNL A   1      36.611  21.207  24.941  1.00  0.00     0.123 A 
ATOM     94  F   UNL A   1      37.290  20.059  25.054  1.00  0.00    -0.207 F 
ENDBRANCH  85  88
ENDBRANCH  83  84
BRANCH  83  95
ATOM     95  C   UNL A   1      31.967  23.916  22.779  1.00  0.00     0.101 C 
BRANCH  95  96
ATOM     96  S   UNL A   1      32.093  22.115  23.037  1.00  0.00    -0.177 SA
ATOM     97  H   UNL A   1      31.920  21.834  24.357  1.00  0.00     0.102 HD
ENDBRANCH  95  96
ENDBRANCH  83  95
ENDBRANCH  80  83
ENDBRANCH  78  79
BRANCH  78  98
ATOM     98  C   UNL A   1      32.613  28.955  22.749  1.00  0.00     0.191 C 
BRANCH  98  99
ATOM     99  O   UNL A   1      31.704  29.724  21.963  1.00  0.00    -0.394 OA
ATOM    100  H   UNL A   1      32.063  30.616  21.838  1.00  0.00     0.210 HD
ENDBRANCH  98  99
ENDBRANCH  78  98
ENDBRANCH  75  78
ENDBRANCH  73  74
ENDBRANCH   1  73
TORSDOF 22
ENDMDL
MODEL 3
REMARK VINA RESULT:     -10.9      2.249      2.727
REMARK SMILES O=C(NCCCCNC(=O)[C@H](CO)NC(=O)[C@H](CS)NC(=O)c1ccc(F)cc1)c1ccc(-c2c3nc(c(-c4cccc(S(=O)(=O)[O-])c4F)c4ccc([nH]4)c(-c4cccc(S(=O)(=O)[O-])c4F)c4nc(c(-c5cccc(S(=O)(=O)[O-])c5F)c5ccc2[nH]5)C=C4)C=C3)cc1
REMARK SMILES IDX 6 1 5 2 4 3 3 4 1 5 2 6 30 8 31 9 92 10 32 11 91 12 33 13
REMARK SMILES IDX 34 14 35 15 85 16 36 17 90 18 84 19 86 20 37 21 89 22 83 23
REMARK SMILES IDX 82 24 38 26 70 27 50 28 69 29 51 30 54 31 68 32 87 33 52 34
REMARK SMILES IDX 53 35 67 37 88 38 55 39 39 40 40 41 48 42 41 43 43 44 49 45
REMARK SMILES IDX 42 46 44 47 45 48 46 49 47 50 71 51 72 52 80 53 73 54 75 55
REMARK SMILES IDX 81 56 74 57 76 58 77 59 78 60 79 61 56 62 57 63 65 64 58 65
REMARK SMILES IDX 60 66 66 67 59 68 61 69 62 70 63 71 64 72 7 73 8 74 9 75
REMARK SMILES IDX 10 77 11 78 14 79 15 80 16 82 17 83 20 84 21 85 22 87 23 88
REMARK SMILES IDX 24 89 29 90 25 91 28 92 26 93 27 94 18 95 19 96 12 98 13 99
REMARK H PARENT 3 7 86 25 54 36 8 76 14 81 20 86 19 97 13 100
REMARK Flexibility Score: inf
ROOT
ATOM      1  C   UNL A   1      35.614  22.376  23.408  1.00  0.00     0.023 C 
ENDROOT
BRANCH   1   2
ATOM      2  C   UNL A   1      36.568  23.302  24.144  1.00  0.00     0.023 C 
BRANCH   2   3
ATOM      3  C   UNL A   1      36.972  22.821  25.526  1.00  0.00     0.116 C 
BRANCH   3   4
ATOM      4  N   UNL A   1      37.930  21.722  25.535  1.00  0.00    -0.352 N 
ATOM      5  O   UNL A   1      39.908  20.721  26.016  1.00  0.00    -0.269 OA
ATOM      6  C   UNL A   1      39.177  21.699  26.126  1.00  0.00     0.251 C 
ATOM      7  H   UNL A   1      37.656  20.901  25.065  1.00  0.00     0.163 HD
BRANCH   6   8
ATOM      8  C   UNL A   1      39.627  22.911  26.841  1.00  0.00     0.039 A 
ATOM      9  C   UNL A   1      39.122  24.153  26.466  1.00  0.00     0.014 A 
ATOM     10  C   UNL A   1      40.656  22.816  27.781  1.00  0.00     0.014 A 
ATOM     11  C   UNL A   1      39.793  25.299  26.854  1.00  0.00     0.010 A 
ATOM     12  C   UNL A   1      41.243  23.984  28.278  1.00  0.00     0.010 A 
ATOM     13  C   UNL A   1      40.854  25.234  27.776  1.00  0.00    -0.014 A 
BRANCH  13  14
ATOM     14  C   UNL A   1      41.469  26.510  28.226  1.00  0.00     0.031 A 
ATOM     15  C   UNL A   1      42.871  26.901  27.850  1.00  0.00     0.074 A 
ATOM     16  C   UNL A   1      40.696  27.361  28.930  1.00  0.00     0.049 A 
ATOM     17  N   UNL A   1      43.484  28.036  28.067  1.00  0.00    -0.248 NA
ATOM     18  C   UNL A   1      43.699  25.900  27.159  1.00  0.00     0.031 C 
ATOM     19  C   UNL A   1      39.337  27.059  29.392  1.00  0.00     0.029 A 
ATOM     20  N   UNL A   1      40.905  28.652  29.340  1.00  0.00    -0.354 N 
ATOM     21  C   UNL A   1      44.781  27.870  27.596  1.00  0.00     0.074 A 
ATOM     22  C   UNL A   1      44.868  26.524  27.072  1.00  0.00     0.031 C 
ATOM     23  C   UNL A   1      38.801  28.160  29.929  1.00  0.00     0.029 A 
ATOM     24  C   UNL A   1      39.798  29.222  29.927  1.00  0.00     0.049 A 
ATOM     25  H   UNL A   1      41.761  29.124  29.226  1.00  0.00     0.167 HD
ATOM     26  C   UNL A   1      45.798  28.765  27.592  1.00  0.00     0.034 A 
ATOM     27  C   UNL A   1      39.600  30.464  30.408  1.00  0.00     0.034 A 
ATOM     28  C   UNL A   1      45.678  30.122  28.057  1.00  0.00     0.049 A 
ATOM     29  C   UNL A   1      40.717  31.458  30.321  1.00  0.00     0.074 A 
ATOM     30  C   UNL A   1      46.630  31.125  28.026  1.00  0.00     0.029 A 
ATOM     31  N   UNL A   1      44.541  30.668  28.634  1.00  0.00    -0.354 N 
ATOM     32  N   UNL A   1      41.899  31.312  29.774  1.00  0.00    -0.248 NA
ATOM     33  C   UNL A   1      40.479  32.783  30.905  1.00  0.00     0.031 C 
ATOM     34  C   UNL A   1      46.074  32.274  28.596  1.00  0.00     0.029 A 
ATOM     35  C   UNL A   1      44.770  31.991  28.970  1.00  0.00     0.049 A 
ATOM     36  H   UNL A   1      43.696  30.186  28.782  1.00  0.00     0.167 HD
ATOM     37  C   UNL A   1      42.551  32.525  29.948  1.00  0.00     0.074 A 
ATOM     38  C   UNL A   1      41.617  33.407  30.621  1.00  0.00     0.031 C 
ATOM     39  C   UNL A   1      43.817  32.866  29.605  1.00  0.00     0.034 A 
BRANCH  26  40
ATOM     40  C   UNL A   1      47.127  28.332  27.028  1.00  0.00     0.023 A 
ATOM     41  C   UNL A   1      48.188  28.030  27.903  1.00  0.00     0.012 A 
ATOM     42  C   UNL A   1      47.293  28.123  25.643  1.00  0.00     0.148 A 
ATOM     43  C   UNL A   1      49.400  27.545  27.409  1.00  0.00     0.002 A 
ATOM     44  C   UNL A   1      48.490  27.604  25.162  1.00  0.00     0.091 A 
ATOM     45  F   UNL A   1      46.280  28.439  24.821  1.00  0.00    -0.205 F 
ATOM     46  C   UNL A   1      49.546  27.321  26.043  1.00  0.00     0.022 A 
BRANCH  44  47
ATOM     47  S   UNL A   1      48.736  27.208  23.426  1.00  0.00     0.127 S 
ATOM     48  O   UNL A   1      48.030  25.933  23.310  1.00  0.00    -0.237 OA
ATOM     49  O   UNL A   1      48.082  28.330  22.752  1.00  0.00    -0.237 OA
ATOM     50  O   UNL A   1      50.179  27.151  23.235  1.00  0.00    -0.744 OA
ENDBRANCH  44  47
ENDBRANCH  26  40
BRANCH  27  51
ATOM     51  C   UNL A   1      38.252  30.818  30.936  1.00  0.00     0.023 A 
ATOM     52  C   UNL A   1      38.004  30.709  32.318  1.00  0.00     0.012 A 
ATOM     53  C   UNL A   1      37.279  31.409  30.107  1.00  0.00     0.148 A 
ATOM     54  C   UNL A   1      36.815  31.195  32.864  1.00  0.00     0.002 A 
ATOM     55  C   UNL A   1      36.132  31.956  30.668  1.00  0.00     0.091 A 
ATOM     56  F   UNL A   1      37.528  31.485  28.791  1.00  0.00    -0.205 F 
ATOM     57  C   UNL A   1      35.891  31.839  32.044  1.00  0.00     0.022 A 
BRANCH  55  58
ATOM     58  S   UNL A   1      34.995  32.973  29.715  1.00  0.00     0.127 S 
ATOM     59  O   UNL A   1      34.081  33.447  30.748  1.00  0.00    -0.237 OA
ATOM     60  O   UNL A   1      35.890  33.993  29.165  1.00  0.00    -0.237 OA
ATOM     61  O   UNL A   1      34.420  32.083  28.715  1.00  0.00    -0.744 OA
ENDBRANCH  55  58
ENDBRANCH  27  51
BRANCH  39  62
ATOM     62  C   UNL A   1      44.287  34.249  29.958  1.00  0.00     0.023 A 
ATOM     63  C   UNL A   1      44.067  35.301  29.049  1.00  0.00     0.012 A 
ATOM     64  C   UNL A   1      44.831  34.527  31.227  1.00  0.00     0.148 A 
ATOM     65  C   UNL A   1      44.393  36.613  29.393  1.00  0.00     0.002 A 
ATOM     66  C   UNL A   1      45.115  35.840  31.578  1.00  0.00     0.091 A 
ATOM     67  F   UNL A   1      45.046  33.504  32.067  1.00  0.00    -0.205 F 
ATOM     68  C   UNL A   1      44.903  36.883  30.661  1.00  0.00     0.022 A 
BRANCH  66  69
ATOM     69  S   UNL A   1      45.691  36.297  33.217  1.00  0.00     0.127 S 
ATOM     70  O   UNL A   1      45.814  37.749  33.095  1.00  0.00    -0.237 OA
ATOM     71  O   UNL A   1      44.591  35.847  34.070  1.00  0.00    -0.237 OA
ATOM     72  O   UNL A   1      46.944  35.580  33.417  1.00  0.00    -0.744 OA
ENDBRANCH  66  69
ENDBRANCH  39  62
ENDBRANCH  13  14
ENDBRANCH   6   8
ENDBRANCH   3   4
ENDBRANCH   2   3
ENDBRANCH   1   2
BRANCH   1  73
ATOM     73  C   UNL A   1      34.138  22.757  23.452  1.00  0.00     0.116 C 
BRANCH  73  74
ATOM     74  N   UNL A   1      33.280  21.635  23.789  1.00  0.00    -0.354 N 
ATOM     75  C   UNL A   1      32.543  21.346  24.899  1.00  0.00     0.244 C 
ATOM     76  H   UNL A   1      33.220  20.952  23.082  1.00  0.00     0.163 HD
ATOM     77  O   UNL A   1      31.907  20.285  24.872  1.00  0.00    -0.273 OA
BRANCH  75  78
ATOM     78  C   UNL A   1      32.634  22.162  26.215  1.00  0.00     0.197 C 
BRANCH  78  79
ATOM     79  N   UNL A   1      31.367  22.448  26.877  1.00  0.00    -0.340 N 
ATOM     80  C   UNL A   1      30.606  23.581  26.867  1.00  0.00     0.244 C 
ATOM     81  H   UNL A   1      31.002  21.708  27.416  1.00  0.00     0.164 HD
ATOM     82  O   UNL A   1      29.492  23.519  27.394  1.00  0.00    -0.273 OA
BRANCH  80  83
ATOM     83  C   UNL A   1      31.065  24.851  26.107  1.00  0.00     0.181 C 
BRANCH  83  84
ATOM     84  N   UNL A   1      32.535  24.919  26.150  1.00  0.00    -0.339 N 
ATOM     85  C   UNL A   1      33.389  25.957  25.873  1.00  0.00     0.251 C 
ATOM     86  H   UNL A   1      32.977  24.083  26.421  1.00  0.00     0.164 HD
ATOM     87  O   UNL A   1      34.560  25.720  25.589  1.00  0.00    -0.269 OA
BRANCH  85  88
ATOM     88  C   UNL A   1      32.957  27.368  25.978  1.00  0.00     0.040 A 
ATOM     89  C   UNL A   1      33.044  28.227  24.877  1.00  0.00     0.017 A 
ATOM     90  C   UNL A   1      32.288  27.795  27.129  1.00  0.00     0.017 A 
ATOM     91  C   UNL A   1      32.567  29.534  24.952  1.00  0.00     0.040 A 
ATOM     92  C   UNL A   1      31.787  29.099  27.199  1.00  0.00     0.040 A 
ATOM     93  C   UNL A   1      31.948  29.961  26.118  1.00  0.00     0.123 A 
ATOM     94  F   UNL A   1      31.474  31.211  26.189  1.00  0.00    -0.207 F 
ENDBRANCH  85  88
ENDBRANCH  83  84
BRANCH  83  95
ATOM     95  C   UNL A   1      30.588  24.679  24.648  1.00  0.00     0.101 C 
BRANCH  95  96
ATOM     96  S   UNL A   1      29.895  26.202  23.922  1.00  0.00    -0.177 SA
ATOM     97  H   UNL A   1      30.089  26.191  22.575  1.00  0.00     0.102 HD
ENDBRANCH  95  96
ENDBRANCH  83  95
ENDBRANCH  80  83
ENDBRANCH  78  79
BRANCH  78  98
ATOM     98  C   UNL A   1      33.610  21.474  27.190  1.00  0.00     0.191 C 
BRANCH  98  99
ATOM     99  O   UNL A   1      34.492  20.582  26.510  1.00  0.00    -0.394 OA
ATOM    100  H   UNL A   1      33.990  19.820  26.184  1.00  0.00     0.210 HD
ENDBRANCH  98  99
ENDBRANCH  78  98
ENDBRANCH  75  78
ENDBRANCH  73  74
ENDBRANCH   1  73
TORSDOF 22
ENDMDL
