MODEL 1
REMARK VINA RESULT:     -11.6      0.000      0.000
REMARK SMILES CC(C)[C@@H](CNC(=O)NCC1C(C)(C)C1(C)C)C(=O)NCCCCNC(=O)c1ccc(-c2c3nc(c(-c4cccc(S(=O)(=O)[O-])c4F)c4ccc([nH]4)c(-c4cccc(S(=O)(=O)[O-])c4F)c4nc(c(-c5cccc(S(=O)(=O)[O-])c5F)c5ccc2[nH]5)C=C4)C=C3)cc1
REMARK SMILES IDX 22 1 21 2 20 3 18 4 19 5 4 7 2 8 1 9 3 10 5 11 6 12 7 13
REMARK SMILES IDX 8 15 9 16 10 18 11 19 12 20 15 21 13 22 14 23 16 24 17 25
REMARK SMILES IDX 23 26 24 27 25 28 26 29 27 31 28 32 29 33 90 34 30 35 89 36
REMARK SMILES IDX 31 37 32 38 33 39 83 40 34 41 88 42 82 43 84 44 35 45 87 46
REMARK SMILES IDX 81 47 80 48 36 50 68 51 48 52 67 53 49 54 52 55 66 56 85 57
REMARK SMILES IDX 50 58 51 59 65 61 86 62 53 63 37 64 38 65 46 66 39 67 41 68
REMARK SMILES IDX 47 69 40 70 42 71 43 72 44 73 45 74 69 75 70 76 78 77 71 78
REMARK SMILES IDX 73 79 79 80 72 81 74 82 75 83 76 84 77 85 54 86 55 87 63 88
REMARK SMILES IDX 56 89 58 90 64 91 57 92 59 93 60 94 61 95 62 96
REMARK H PARENT 20 6 6 14 9 17 25 30 84 49 52 60
REMARK Flexibility Score: inf
ROOT
ATOM      1  C   UNL A   1      31.873  30.432  26.444  1.00  0.00     0.023 C 
ENDROOT
BRANCH   1   2
ATOM      2  C   UNL A   1      33.254  29.913  26.822  1.00  0.00     0.116 C 
BRANCH   2   3
ATOM      3  N   UNL A   1      34.001  29.397  25.692  1.00  0.00    -0.356 N 
ATOM      4  C   UNL A   1      33.687  28.415  24.805  1.00  0.00     0.225 C 
ATOM      5  O   UNL A   1      34.393  28.303  23.798  1.00  0.00    -0.275 OA
ATOM      6  H   UNL A   1      34.876  29.825  25.544  1.00  0.00     0.163 HD
BRANCH   4   7
ATOM      7  C   UNL A   1      32.509  27.460  25.010  1.00  0.00     0.100 C 
BRANCH   7   8
ATOM      8  C   UNL A   1      31.671  27.168  23.736  1.00  0.00    -0.003 C 
ATOM      9  C   UNL A   1      31.493  25.666  23.482  1.00  0.00     0.008 C 
ATOM     10  C   UNL A   1      30.282  27.815  23.852  1.00  0.00     0.008 C 
ENDBRANCH   7   8
BRANCH   7  11
ATOM     11  C   UNL A   1      32.878  26.268  25.909  1.00  0.00     0.131 C 
BRANCH  11  12
ATOM     12  N   UNL A   1      31.795  25.527  26.514  1.00  0.00    -0.337 N 
ATOM     13  C   UNL A   1      31.588  24.246  26.840  1.00  0.00     0.314 C 
ATOM     14  H   UNL A   1      31.028  26.101  26.740  1.00  0.00     0.165 HD
ATOM     15  O   UNL A   1      30.463  23.955  27.257  1.00  0.00    -0.249 OA
ATOM     16  N   UNL A   1      32.495  23.273  26.768  1.00  0.00    -0.338 N 
ATOM     17  H   UNL A   1      32.119  22.402  27.033  1.00  0.00     0.165 HD
BRANCH  16  18
ATOM     18  C   UNL A   1      33.887  23.166  26.401  1.00  0.00     0.122 C 
BRANCH  18  19
ATOM     19  C   UNL A   1      34.085  23.155  24.911  1.00  0.00     0.021 C 
ATOM     20  C   UNL A   1      35.138  22.276  24.224  1.00  0.00    -0.025 C 
ATOM     21  C   UNL A   1      33.645  22.097  23.888  1.00  0.00    -0.025 C 
ATOM     22  C   UNL A   1      36.066  22.990  23.263  1.00  0.00     0.012 C 
ATOM     23  C   UNL A   1      35.865  21.161  24.940  1.00  0.00     0.012 C 
ATOM     24  C   UNL A   1      32.915  20.840  24.302  1.00  0.00     0.012 C 
ATOM     25  C   UNL A   1      33.145  22.598  22.547  1.00  0.00     0.012 C 
ENDBRANCH  18  19
ENDBRANCH  16  18
ENDBRANCH  11  12
ENDBRANCH   7  11
ENDBRANCH   4   7
ENDBRANCH   2   3
ENDBRANCH   1   2
BRANCH   1  26
ATOM     26  C   UNL A   1      31.584  31.863  26.891  1.00  0.00     0.023 C 
BRANCH  26  27
ATOM     27  C   UNL A   1      32.776  32.630  27.457  1.00  0.00     0.116 C 
BRANCH  27  28
ATOM     28  N   UNL A   1      32.495  34.033  27.725  1.00  0.00    -0.352 N 
ATOM     29  C   UNL A   1      33.088  34.889  28.627  1.00  0.00     0.251 C 
ATOM     30  H   UNL A   1      31.775  34.429  27.181  1.00  0.00     0.163 HD
ATOM     31  O   UNL A   1      32.643  36.013  28.790  1.00  0.00    -0.269 OA
BRANCH  29  32
ATOM     32  C   UNL A   1      34.243  34.419  29.424  1.00  0.00     0.039 A 
ATOM     33  C   UNL A   1      34.002  33.833  30.667  1.00  0.00     0.014 A 
ATOM     34  C   UNL A   1      35.549  34.530  28.939  1.00  0.00     0.014 A 
ATOM     35  C   UNL A   1      35.065  33.285  31.387  1.00  0.00     0.010 A 
ATOM     36  C   UNL A   1      36.594  33.909  29.616  1.00  0.00     0.010 A 
ATOM     37  C   UNL A   1      36.364  33.278  30.847  1.00  0.00    -0.014 A 
BRANCH  37  38
ATOM     38  C   UNL A   1      37.468  32.572  31.547  1.00  0.00     0.031 A 
ATOM     39  C   UNL A   1      38.194  31.429  30.895  1.00  0.00     0.074 A 
ATOM     40  C   UNL A   1      37.771  32.924  32.813  1.00  0.00     0.049 A 
ATOM     41  N   UNL A   1      39.211  30.738  31.344  1.00  0.00    -0.248 NA
ATOM     42  C   UNL A   1      37.702  30.980  29.582  1.00  0.00     0.031 C 
ATOM     43  C   UNL A   1      37.062  33.935  33.602  1.00  0.00     0.029 A 
ATOM     44  N   UNL A   1      38.744  32.462  33.664  1.00  0.00    -0.354 N 
ATOM     45  C   UNL A   1      39.460  29.759  30.390  1.00  0.00     0.074 A 
ATOM     46  C   UNL A   1      38.463  29.918  29.354  1.00  0.00     0.031 C 
ATOM     47  C   UNL A   1      37.635  34.031  34.811  1.00  0.00     0.029 A 
ATOM     48  C   UNL A   1      38.740  33.081  34.893  1.00  0.00     0.049 A 
ATOM     49  H   UNL A   1      39.383  31.756  33.419  1.00  0.00     0.167 HD
ATOM     50  C   UNL A   1      40.448  28.833  30.360  1.00  0.00     0.034 A 
ATOM     51  C   UNL A   1      39.542  32.912  35.962  1.00  0.00     0.034 A 
ATOM     52  C   UNL A   1      41.461  28.704  31.374  1.00  0.00     0.049 A 
ATOM     53  C   UNL A   1      40.687  31.942  35.868  1.00  0.00     0.074 A 
ATOM     54  C   UNL A   1      42.565  27.870  31.387  1.00  0.00     0.029 A 
ATOM     55  N   UNL A   1      41.489  29.421  32.561  1.00  0.00    -0.354 N 
ATOM     56  N   UNL A   1      41.025  31.160  34.872  1.00  0.00    -0.248 NA
ATOM     57  C   UNL A   1      41.590  31.866  37.025  1.00  0.00     0.031 C 
ATOM     58  C   UNL A   1      43.248  28.066  32.592  1.00  0.00     0.029 A 
ATOM     59  C   UNL A   1      42.586  29.044  33.318  1.00  0.00     0.049 A 
ATOM     60  H   UNL A   1      40.827  30.099  32.826  1.00  0.00     0.167 HD
ATOM     61  C   UNL A   1      42.196  30.523  35.267  1.00  0.00     0.074 A 
ATOM     62  C   UNL A   1      42.523  31.035  36.582  1.00  0.00     0.031 C 
ATOM     63  C   UNL A   1      42.926  29.590  34.607  1.00  0.00     0.034 A 
BRANCH  50  64
ATOM     64  C   UNL A   1      40.515  27.921  29.162  1.00  0.00     0.023 A 
ATOM     65  C   UNL A   1      39.596  26.857  29.045  1.00  0.00     0.012 A 
ATOM     66  C   UNL A   1      41.446  28.143  28.128  1.00  0.00     0.148 A 
ATOM     67  C   UNL A   1      39.625  26.008  27.940  1.00  0.00     0.002 A 
ATOM     68  C   UNL A   1      41.439  27.320  27.007  1.00  0.00     0.091 A 
ATOM     69  F   UNL A   1      42.328  29.144  28.265  1.00  0.00    -0.205 F 
ATOM     70  C   UNL A   1      40.539  26.246  26.917  1.00  0.00     0.022 A 
BRANCH  68  71
ATOM     71  S   UNL A   1      42.520  27.596  25.598  1.00  0.00     0.127 S 
ATOM     72  O   UNL A   1      41.934  28.800  25.010  1.00  0.00    -0.237 OA
ATOM     73  O   UNL A   1      43.818  27.802  26.242  1.00  0.00    -0.237 OA
ATOM     74  O   UNL A   1      42.431  26.393  24.784  1.00  0.00    -0.744 OA
ENDBRANCH  68  71
ENDBRANCH  50  64
BRANCH  51  75
ATOM     75  C   UNL A   1      39.342  33.751  37.177  1.00  0.00     0.023 A 
ATOM     76  C   UNL A   1      39.766  35.095  37.169  1.00  0.00     0.012 A 
ATOM     77  C   UNL A   1      38.692  33.242  38.317  1.00  0.00     0.148 A 
ATOM     78  C   UNL A   1      39.577  35.906  38.289  1.00  0.00     0.002 A 
ATOM     79  C   UNL A   1      38.455  34.072  39.407  1.00  0.00     0.091 A 
ATOM     80  F   UNL A   1      38.305  31.958  38.307  1.00  0.00    -0.205 F 
ATOM     81  C   UNL A   1      38.913  35.398  39.403  1.00  0.00     0.022 A 
BRANCH  79  82
ATOM     82  S   UNL A   1      37.485  33.545  40.824  1.00  0.00     0.127 S 
ATOM     83  O   UNL A   1      37.357  34.789  41.579  1.00  0.00    -0.237 OA
ATOM     84  O   UNL A   1      36.251  33.081  40.188  1.00  0.00    -0.237 OA
ATOM     85  O   UNL A   1      38.262  32.492  41.463  1.00  0.00    -0.744 OA
ENDBRANCH  79  82
ENDBRANCH  51  75
BRANCH  63  86
ATOM     86  C   UNL A   1      44.170  29.077  35.285  1.00  0.00     0.023 A 
ATOM     87  C   UNL A   1      45.416  29.679  35.017  1.00  0.00     0.012 A 
ATOM     88  C   UNL A   1      44.099  28.026  36.221  1.00  0.00     0.148 A 
ATOM     89  C   UNL A   1      46.577  29.214  35.634  1.00  0.00     0.002 A 
ATOM     90  C   UNL A   1      45.252  27.603  36.871  1.00  0.00     0.091 A 
ATOM     91  F   UNL A   1      42.910  27.449  36.451  1.00  0.00    -0.205 F 
ATOM     92  C   UNL A   1      46.494  28.184  36.568  1.00  0.00     0.022 A 
BRANCH  90  93
ATOM     93  S   UNL A   1      45.216  26.349  38.157  1.00  0.00     0.127 S 
ATOM     94  O   UNL A   1      45.051  25.125  37.377  1.00  0.00    -0.237 OA
ATOM     95  O   UNL A   1      46.532  26.501  38.781  1.00  0.00    -0.237 OA
ATOM     96  O   UNL A   1      44.099  26.702  39.023  1.00  0.00    -0.744 OA
ENDBRANCH  90  93
ENDBRANCH  63  86
ENDBRANCH  37  38
ENDBRANCH  29  32
ENDBRANCH  27  28
ENDBRANCH  26  27
ENDBRANCH   1  26
TORSDOF 19
ENDMDL
MODEL 2
REMARK VINA RESULT:     -11.6      5.465      8.723
REMARK SMILES CC(C)[C@@H](CNC(=O)NCC1C(C)(C)C1(C)C)C(=O)NCCCCNC(=O)c1ccc(-c2c3nc(c(-c4cccc(S(=O)(=O)[O-])c4F)c4ccc([nH]4)c(-c4cccc(S(=O)(=O)[O-])c4F)c4nc(c(-c5cccc(S(=O)(=O)[O-])c5F)c5ccc2[nH]5)C=C4)C=C3)cc1
REMARK SMILES IDX 22 1 21 2 20 3 18 4 19 5 4 7 2 8 1 9 3 10 5 11 6 12 7 13
REMARK SMILES IDX 8 15 9 16 10 18 11 19 12 20 15 21 13 22 14 23 16 24 17 25
REMARK SMILES IDX 23 26 24 27 25 28 26 29 27 31 28 32 29 33 90 34 30 35 89 36
REMARK SMILES IDX 31 37 32 38 33 39 83 40 34 41 88 42 82 43 84 44 35 45 87 46
REMARK SMILES IDX 81 47 80 48 36 50 68 51 48 52 67 53 49 54 52 55 66 56 85 57
REMARK SMILES IDX 50 58 51 59 65 61 86 62 53 63 37 64 38 65 46 66 39 67 41 68
REMARK SMILES IDX 47 69 40 70 42 71 43 72 44 73 45 74 69 75 70 76 78 77 71 78
REMARK SMILES IDX 73 79 79 80 72 81 74 82 75 83 76 84 77 85 54 86 55 87 63 88
REMARK SMILES IDX 56 89 58 90 64 91 57 92 59 93 60 94 61 95 62 96
REMARK H PARENT 20 6 6 14 9 17 25 30 84 49 52 60
REMARK Flexibility Score: inf
ROOT
ATOM      1  C   UNL A   1      36.092  23.208  23.612  1.00  0.00     0.023 C 
ENDROOT
BRANCH   1   2
ATOM      2  C   UNL A   1      34.690  23.309  24.197  1.00  0.00     0.116 C 
BRANCH   2   3
ATOM      3  N   UNL A   1      33.645  23.011  23.237  1.00  0.00    -0.356 N 
ATOM      4  C   UNL A   1      32.549  22.215  23.350  1.00  0.00     0.225 C 
ATOM      5  O   UNL A   1      31.689  22.292  22.467  1.00  0.00    -0.275 OA
ATOM      6  H   UNL A   1      33.747  23.457  22.364  1.00  0.00     0.163 HD
BRANCH   4   7
ATOM      7  C   UNL A   1      32.347  21.244  24.516  1.00  0.00     0.100 C 
BRANCH   7   8
ATOM      8  C   UNL A   1      33.092  19.889  24.380  1.00  0.00    -0.003 C 
ATOM      9  C   UNL A   1      32.986  19.032  25.647  1.00  0.00     0.008 C 
ATOM     10  C   UNL A   1      32.528  19.088  23.196  1.00  0.00     0.008 C 
ENDBRANCH   7   8
BRANCH   7  11
ATOM     11  C   UNL A   1      32.406  21.956  25.879  1.00  0.00     0.131 C 
BRANCH  11  12
ATOM     12  N   UNL A   1      31.155  22.199  26.560  1.00  0.00    -0.337 N 
ATOM     13  C   UNL A   1      30.469  23.288  26.924  1.00  0.00     0.314 C 
ATOM     14  H   UNL A   1      30.698  21.365  26.816  1.00  0.00     0.165 HD
ATOM     15  O   UNL A   1      29.456  23.103  27.606  1.00  0.00    -0.249 OA
ATOM     16  N   UNL A   1      30.779  24.542  26.600  1.00  0.00    -0.338 N 
ATOM     17  H   UNL A   1      30.152  25.189  26.997  1.00  0.00     0.165 HD
BRANCH  16  18
ATOM     18  C   UNL A   1      31.799  25.198  25.816  1.00  0.00     0.122 C 
BRANCH  18  19
ATOM     19  C   UNL A   1      31.304  25.590  24.451  1.00  0.00     0.021 C 
ATOM     20  C   UNL A   1      30.965  27.040  24.081  1.00  0.00    -0.025 C 
ATOM     21  C   UNL A   1      32.066  26.286  23.313  1.00  0.00    -0.025 C 
ATOM     22  C   UNL A   1      29.600  27.259  23.459  1.00  0.00     0.012 C 
ATOM     23  C   UNL A   1      31.352  28.217  24.946  1.00  0.00     0.012 C 
ATOM     24  C   UNL A   1      33.514  26.696  23.455  1.00  0.00     0.012 C 
ATOM     25  C   UNL A   1      31.770  25.823  21.900  1.00  0.00     0.012 C 
ENDBRANCH  18  19
ENDBRANCH  16  18
ENDBRANCH  11  12
ENDBRANCH   7  11
ENDBRANCH   4   7
ENDBRANCH   2   3
ENDBRANCH   1   2
BRANCH   1  26
ATOM     26  C   UNL A   1      36.798  21.879  23.872  1.00  0.00     0.023 C 
BRANCH  26  27
ATOM     27  C   UNL A   1      37.055  21.544  25.338  1.00  0.00     0.116 C 
BRANCH  27  28
ATOM     28  N   UNL A   1      38.097  20.547  25.537  1.00  0.00    -0.352 N 
ATOM     29  C   UNL A   1      39.368  20.698  26.046  1.00  0.00     0.251 C 
ATOM     30  H   UNL A   1      37.859  19.630  25.268  1.00  0.00     0.163 HD
ATOM     31  O   UNL A   1      40.149  19.761  26.036  1.00  0.00    -0.269 OA
BRANCH  29  32
ATOM     32  C   UNL A   1      39.791  22.018  26.567  1.00  0.00     0.039 A 
ATOM     33  C   UNL A   1      40.793  22.061  27.537  1.00  0.00     0.014 A 
ATOM     34  C   UNL A   1      39.226  23.201  26.084  1.00  0.00     0.014 A 
ATOM     35  C   UNL A   1      41.283  23.297  27.964  1.00  0.00     0.010 A 
ATOM     36  C   UNL A   1      39.774  24.428  26.446  1.00  0.00     0.010 A 
ATOM     37  C   UNL A   1      40.809  24.490  27.389  1.00  0.00    -0.014 A 
BRANCH  37  38
ATOM     38  C   UNL A   1      41.429  25.794  27.740  1.00  0.00     0.031 A 
ATOM     39  C   UNL A   1      42.849  26.107  27.356  1.00  0.00     0.074 A 
ATOM     40  C   UNL A   1      40.723  26.679  28.472  1.00  0.00     0.049 A 
ATOM     41  N   UNL A   1      43.525  27.212  27.539  1.00  0.00    -0.248 NA
ATOM     42  C   UNL A   1      43.623  25.034  26.709  1.00  0.00     0.031 C 
ATOM     43  C   UNL A   1      39.379  26.448  29.011  1.00  0.00     0.029 A 
ATOM     44  N   UNL A   1      41.039  27.943  28.903  1.00  0.00    -0.354 N 
ATOM     45  C   UNL A   1      44.805  26.960  27.061  1.00  0.00     0.074 A 
ATOM     46  C   UNL A   1      44.825  25.584  26.616  1.00  0.00     0.031 C 
ATOM     47  C   UNL A   1      38.980  27.540  29.681  1.00  0.00     0.029 A 
ATOM     48  C   UNL A   1      40.040  28.542  29.636  1.00  0.00     0.049 A 
ATOM     49  H   UNL A   1      41.899  28.379  28.706  1.00  0.00     0.167 HD
ATOM     50  C   UNL A   1      45.859  27.806  26.969  1.00  0.00     0.034 A 
ATOM     51  C   UNL A   1      39.979  29.764  30.198  1.00  0.00     0.034 A 
ATOM     52  C   UNL A   1      45.823  29.185  27.377  1.00  0.00     0.049 A 
ATOM     53  C   UNL A   1      41.128  30.715  30.003  1.00  0.00     0.074 A 
ATOM     54  C   UNL A   1      46.801  30.153  27.231  1.00  0.00     0.029 A 
ATOM     55  N   UNL A   1      44.755  29.792  28.022  1.00  0.00    -0.354 N 
ATOM     56  N   UNL A   1      42.261  30.521  29.372  1.00  0.00    -0.248 NA
ATOM     57  C   UNL A   1      40.970  32.068  30.553  1.00  0.00     0.031 C 
ATOM     58  C   UNL A   1      46.334  31.339  27.808  1.00  0.00     0.029 A 
ATOM     59  C   UNL A   1      45.053  31.119  28.288  1.00  0.00     0.049 A 
ATOM     60  H   UNL A   1      43.910  29.346  28.256  1.00  0.00     0.167 HD
ATOM     61  C   UNL A   1      42.937  31.734  29.421  1.00  0.00     0.074 A 
ATOM     62  C   UNL A   1      42.072  32.664  30.118  1.00  0.00     0.031 C 
ATOM     63  C   UNL A   1      44.168  32.046  28.945  1.00  0.00     0.034 A 
BRANCH  50  64
ATOM     64  C   UNL A   1      47.128  27.277  26.351  1.00  0.00     0.023 A 
ATOM     65  C   UNL A   1      47.385  27.507  24.983  1.00  0.00     0.012 A 
ATOM     66  C   UNL A   1      48.091  26.601  27.128  1.00  0.00     0.148 A 
ATOM     67  C   UNL A   1      48.558  27.043  24.390  1.00  0.00     0.002 A 
ATOM     68  C   UNL A   1      49.279  26.183  26.540  1.00  0.00     0.091 A 
ATOM     69  F   UNL A   1      47.822  26.371  28.421  1.00  0.00    -0.205 F 
ATOM     70  C   UNL A   1      49.509  26.391  25.171  1.00  0.00     0.022 A 
BRANCH  68  71
ATOM     71  S   UNL A   1      50.602  25.409  27.478  1.00  0.00     0.127 S 
ATOM     72  O   UNL A   1      49.914  24.260  28.065  1.00  0.00    -0.237 OA
ATOM     73  O   UNL A   1      51.566  25.071  26.430  1.00  0.00    -0.237 OA
ATOM     74  O   UNL A   1      51.064  26.414  28.424  1.00  0.00    -0.744 OA
ENDBRANCH  68  71
ENDBRANCH  50  64
BRANCH  51  75
ATOM     75  C   UNL A   1      38.745  30.186  30.918  1.00  0.00     0.023 A 
ATOM     76  C   UNL A   1      38.606  29.889  32.288  1.00  0.00     0.012 A 
ATOM     77  C   UNL A   1      37.733  30.917  30.267  1.00  0.00     0.148 A 
ATOM     78  C   UNL A   1      37.466  30.285  32.989  1.00  0.00     0.002 A 
ATOM     79  C   UNL A   1      36.627  31.358  30.985  1.00  0.00     0.091 A 
ATOM     80  F   UNL A   1      37.880  31.180  28.961  1.00  0.00    -0.205 F 
ATOM     81  C   UNL A   1      36.483  31.029  32.341  1.00  0.00     0.022 A 
BRANCH  79  82
ATOM     82  S   UNL A   1      35.385  32.438  30.268  1.00  0.00     0.127 S 
ATOM     83  O   UNL A   1      34.789  31.575  29.250  1.00  0.00    -0.237 OA
ATOM     84  O   UNL A   1      34.525  32.716  31.419  1.00  0.00    -0.237 OA
ATOM     85  O   UNL A   1      36.111  33.598  29.770  1.00  0.00    -0.744 OA
ENDBRANCH  79  82
ENDBRANCH  51  75
BRANCH  63  86
ATOM     86  C   UNL A   1      44.646  33.463  29.136  1.00  0.00     0.023 A 
ATOM     87  C   UNL A   1      44.511  34.398  28.091  1.00  0.00     0.012 A 
ATOM     88  C   UNL A   1      45.190  33.878  30.368  1.00  0.00     0.148 A 
ATOM     89  C   UNL A   1      44.952  35.711  28.252  1.00  0.00     0.002 A 
ATOM     90  C   UNL A   1      45.579  35.202  30.538  1.00  0.00     0.091 A 
ATOM     91  F   UNL A   1      45.332  32.972  31.347  1.00  0.00    -0.205 F 
ATOM     92  C   UNL A   1      45.476  36.116  29.477  1.00  0.00     0.022 A 
BRANCH  90  93
ATOM     93  S   UNL A   1      46.172  35.826  32.114  1.00  0.00     0.127 S 
ATOM     94  O   UNL A   1      45.149  35.335  33.035  1.00  0.00    -0.237 OA
ATOM     95  O   UNL A   1      47.474  35.170  32.243  1.00  0.00    -0.237 OA
ATOM     96  O   UNL A   1      46.243  37.274  31.965  1.00  0.00    -0.744 OA
ENDBRANCH  90  93
ENDBRANCH  63  86
ENDBRANCH  37  38
ENDBRANCH  29  32
ENDBRANCH  27  28
ENDBRANCH  26  27
ENDBRANCH   1  26
TORSDOF 19
ENDMDL
MODEL 3
REMARK VINA RESULT:     -11.5      5.756     10.859
REMARK SMILES CC(C)[C@@H](CNC(=O)NCC1C(C)(C)C1(C)C)C(=O)NCCCCNC(=O)c1ccc(-c2c3nc(c(-c4cccc(S(=O)(=O)[O-])c4F)c4ccc([nH]4)c(-c4cccc(S(=O)(=O)[O-])c4F)c4nc(c(-c5cccc(S(=O)(=O)[O-])c5F)c5ccc2[nH]5)C=C4)C=C3)cc1
REMARK SMILES IDX 22 1 21 2 20 3 18 4 19 5 4 7 2 8 1 9 3 10 5 11 6 12 7 13
REMARK SMILES IDX 8 15 9 16 10 18 11 19 12 20 15 21 13 22 14 23 16 24 17 25
REMARK SMILES IDX 23 26 24 27 25 28 26 29 27 31 28 32 29 33 90 34 30 35 89 36
REMARK SMILES IDX 31 37 32 38 33 39 83 40 34 41 88 42 82 43 84 44 35 45 87 46
REMARK SMILES IDX 81 47 80 48 36 50 68 51 48 52 67 53 49 54 52 55 66 56 85 57
REMARK SMILES IDX 50 58 51 59 65 61 86 62 53 63 37 64 38 65 46 66 39 67 41 68
REMARK SMILES IDX 47 69 40 70 42 71 43 72 44 73 45 74 69 75 70 76 78 77 71 78
REMARK SMILES IDX 73 79 79 80 72 81 74 82 75 83 76 84 77 85 54 86 55 87 63 88
REMARK SMILES IDX 56 89 58 90 64 91 57 92 59 93 60 94 61 95 62 96
REMARK H PARENT 20 6 6 14 9 17 25 30 84 49 52 60
REMARK Flexibility Score: inf
ROOT
ATOM      1  C   UNL A   1      35.921  23.306  23.600  1.00  0.00     0.023 C 
ENDROOT
BRANCH   1   2
ATOM      2  C   UNL A   1      34.472  23.216  24.057  1.00  0.00     0.116 C 
BRANCH   2   3
ATOM      3  N   UNL A   1      33.587  22.660  23.052  1.00  0.00    -0.356 N 
ATOM      4  C   UNL A   1      32.520  21.827  23.184  1.00  0.00     0.225 C 
ATOM      5  O   UNL A   1      31.792  21.666  22.200  1.00  0.00    -0.275 OA
ATOM      6  H   UNL A   1      33.793  22.927  22.126  1.00  0.00     0.163 HD
BRANCH   4   7
ATOM      7  C   UNL A   1      32.195  21.098  24.490  1.00  0.00     0.100 C 
BRANCH   7   8
ATOM      8  C   UNL A   1      32.716  19.638  24.575  1.00  0.00    -0.003 C 
ATOM      9  C   UNL A   1      32.429  18.838  23.298  1.00  0.00     0.008 C 
ATOM     10  C   UNL A   1      34.231  19.627  24.832  1.00  0.00     0.008 C 
ENDBRANCH   7   8
BRANCH   7  11
ATOM     11  C   UNL A   1      32.395  21.999  25.721  1.00  0.00     0.131 C 
BRANCH  11  12
ATOM     12  N   UNL A   1      31.255  22.217  26.582  1.00  0.00    -0.337 N 
ATOM     13  C   UNL A   1      30.302  23.151  26.675  1.00  0.00     0.314 C 
ATOM     14  H   UNL A   1      31.155  21.509  27.259  1.00  0.00     0.165 HD
ATOM     15  O   UNL A   1      29.529  23.060  27.634  1.00  0.00    -0.249 OA
ATOM     16  N   UNL A   1      30.113  24.151  25.817  1.00  0.00    -0.338 N 
ATOM     17  H   UNL A   1      29.370  24.736  26.094  1.00  0.00     0.165 HD
BRANCH  16  18
ATOM     18  C   UNL A   1      30.716  24.601  24.584  1.00  0.00     0.122 C 
BRANCH  18  19
ATOM     19  C   UNL A   1      31.467  25.891  24.754  1.00  0.00     0.021 C 
ATOM     20  C   UNL A   1      32.256  26.545  23.612  1.00  0.00    -0.025 C 
ATOM     21  C   UNL A   1      31.087  27.299  24.271  1.00  0.00    -0.025 C 
ATOM     22  C   UNL A   1      33.691  26.913  23.929  1.00  0.00     0.012 C 
ATOM     23  C   UNL A   1      32.123  26.106  22.172  1.00  0.00     0.012 C 
ATOM     24  C   UNL A   1      29.815  27.562  23.498  1.00  0.00     0.012 C 
ATOM     25  C   UNL A   1      31.409  28.457  25.196  1.00  0.00     0.012 C 
ENDBRANCH  18  19
ENDBRANCH  16  18
ENDBRANCH  11  12
ENDBRANCH   7  11
ENDBRANCH   4   7
ENDBRANCH   2   3
ENDBRANCH   1   2
BRANCH   1  26
ATOM     26  C   UNL A   1      36.759  22.061  23.885  1.00  0.00     0.023 C 
BRANCH  26  27
ATOM     27  C   UNL A   1      36.991  21.746  25.360  1.00  0.00     0.116 C 
BRANCH  27  28
ATOM     28  N   UNL A   1      38.007  20.728  25.588  1.00  0.00    -0.352 N 
ATOM     29  C   UNL A   1      39.279  20.859  26.099  1.00  0.00     0.251 C 
ATOM     30  H   UNL A   1      37.746  19.812  25.340  1.00  0.00     0.163 HD
ATOM     31  O   UNL A   1      40.035  19.903  26.116  1.00  0.00    -0.269 OA
BRANCH  29  32
ATOM     32  C   UNL A   1      39.733  22.180  26.590  1.00  0.00     0.039 A 
ATOM     33  C   UNL A   1      40.795  22.226  27.495  1.00  0.00     0.014 A 
ATOM     34  C   UNL A   1      39.139  23.362  26.141  1.00  0.00     0.014 A 
ATOM     35  C   UNL A   1      41.310  23.462  27.888  1.00  0.00     0.010 A 
ATOM     36  C   UNL A   1      39.708  24.590  26.465  1.00  0.00     0.010 A 
ATOM     37  C   UNL A   1      40.801  24.654  27.341  1.00  0.00    -0.014 A 
BRANCH  37  38
ATOM     38  C   UNL A   1      41.441  25.959  27.649  1.00  0.00     0.031 A 
ATOM     39  C   UNL A   1      40.701  27.027  28.406  1.00  0.00     0.074 A 
ATOM     40  C   UNL A   1      42.681  26.206  27.182  1.00  0.00     0.049 A 
ATOM     41  N   UNL A   1      41.127  28.199  28.800  1.00  0.00    -0.248 NA
ATOM     42  C   UNL A   1      39.292  26.763  28.738  1.00  0.00     0.031 C 
ATOM     43  C   UNL A   1      43.461  25.300  26.333  1.00  0.00     0.029 A 
ATOM     44  N   UNL A   1      43.500  27.296  27.341  1.00  0.00    -0.354 N 
ATOM     45  C   UNL A   1      40.038  28.821  29.397  1.00  0.00     0.074 A 
ATOM     46  C   UNL A   1      38.918  27.914  29.278  1.00  0.00     0.031 C 
ATOM     47  C   UNL A   1      44.649  25.862  26.065  1.00  0.00     0.029 A 
ATOM     48  C   UNL A   1      44.713  27.172  26.704  1.00  0.00     0.049 A 
ATOM     49  H   UNL A   1      43.243  28.091  27.860  1.00  0.00     0.167 HD
ATOM     50  C   UNL A   1      39.981  30.024  30.018  1.00  0.00     0.034 A 
ATOM     51  C   UNL A   1      45.765  28.012  26.651  1.00  0.00     0.034 A 
ATOM     52  C   UNL A   1      41.108  30.906  30.169  1.00  0.00     0.049 A 
ATOM     53  C   UNL A   1      45.709  29.300  27.425  1.00  0.00     0.074 A 
ATOM     54  C   UNL A   1      41.182  32.096  30.871  1.00  0.00     0.029 A 
ATOM     55  N   UNL A   1      42.356  30.701  29.601  1.00  0.00    -0.354 N 
ATOM     56  N   UNL A   1      44.730  29.784  28.151  1.00  0.00    -0.248 NA
ATOM     57  C   UNL A   1      46.918  30.135  27.413  1.00  0.00     0.031 C 
ATOM     58  C   UNL A   1      42.468  32.623  30.707  1.00  0.00     0.029 A 
ATOM     59  C   UNL A   1      43.205  31.745  29.928  1.00  0.00     0.049 A 
ATOM     60  H   UNL A   1      42.603  29.925  29.047  1.00  0.00     0.167 HD
ATOM     61  C   UNL A   1      45.215  30.962  28.709  1.00  0.00     0.074 A 
ATOM     62  C   UNL A   1      46.584  31.101  28.257  1.00  0.00     0.031 C 
ATOM     63  C   UNL A   1      44.579  31.853  29.509  1.00  0.00     0.034 A 
BRANCH  50  64
ATOM     64  C   UNL A   1      38.667  30.432  30.633  1.00  0.00     0.023 A 
ATOM     65  C   UNL A   1      38.406  30.126  31.986  1.00  0.00     0.012 A 
ATOM     66  C   UNL A   1      37.713  31.162  29.897  1.00  0.00     0.148 A 
ATOM     67  C   UNL A   1      37.206  30.506  32.584  1.00  0.00     0.002 A 
ATOM     68  C   UNL A   1      36.538  31.578  30.514  1.00  0.00     0.091 A 
ATOM     69  F   UNL A   1      37.966  31.426  28.607  1.00  0.00    -0.205 F 
ATOM     70  C   UNL A   1      36.278  31.240  31.851  1.00  0.00     0.022 A 
BRANCH  68  71
ATOM     71  S   UNL A   1      35.318  32.600  29.681  1.00  0.00     0.127 S 
ATOM     72  O   UNL A   1      34.782  31.669  28.688  1.00  0.00    -0.237 OA
ATOM     73  O   UNL A   1      34.395  32.927  30.769  1.00  0.00    -0.237 OA
ATOM     74  O   UNL A   1      36.048  33.738  29.143  1.00  0.00    -0.744 OA
ENDBRANCH  68  71
ENDBRANCH  50  64
BRANCH  51  75
ATOM     75  C   UNL A   1      46.994  27.612  25.910  1.00  0.00     0.023 A 
ATOM     76  C   UNL A   1      48.005  26.895  26.579  1.00  0.00     0.012 A 
ATOM     77  C   UNL A   1      47.144  27.895  24.538  1.00  0.00     0.148 A 
ATOM     78  C   UNL A   1      49.159  26.496  25.904  1.00  0.00     0.002 A 
ATOM     79  C   UNL A   1      48.270  27.444  23.859  1.00  0.00     0.091 A 
ATOM     80  F   UNL A   1      46.174  28.586  23.923  1.00  0.00    -0.205 F 
ATOM     81  C   UNL A   1      49.287  26.761  24.542  1.00  0.00     0.022 A 
BRANCH  79  82
ATOM     82  S   UNL A   1      48.451  27.616  22.080  1.00  0.00     0.127 S 
ATOM     83  O   UNL A   1      49.625  28.481  21.981  1.00  0.00    -0.237 OA
ATOM     84  O   UNL A   1      48.671  26.230  21.664  1.00  0.00    -0.237 OA
ATOM     85  O   UNL A   1      47.198  28.191  21.611  1.00  0.00    -0.744 OA
ENDBRANCH  79  82
ENDBRANCH  51  75
BRANCH  63  86
ATOM     86  C   UNL A   1      45.367  33.051  29.974  1.00  0.00     0.023 A 
ATOM     87  C   UNL A   1      46.105  32.984  31.172  1.00  0.00     0.012 A 
ATOM     88  C   UNL A   1      45.410  34.228  29.202  1.00  0.00     0.148 A 
ATOM     89  C   UNL A   1      46.837  34.085  31.618  1.00  0.00     0.002 A 
ATOM     90  C   UNL A   1      46.183  35.302  29.625  1.00  0.00     0.091 A 
ATOM     91  F   UNL A   1      44.686  34.284  28.074  1.00  0.00    -0.205 F 
ATOM     92  C   UNL A   1      46.884  35.239  30.841  1.00  0.00     0.022 A 
BRANCH  90  93
ATOM     93  S   UNL A   1      46.376  36.789  28.635  1.00  0.00     0.127 S 
ATOM     94  O   UNL A   1      45.145  37.515  28.943  1.00  0.00    -0.237 OA
ATOM     95  O   UNL A   1      47.591  37.384  29.194  1.00  0.00    -0.237 OA
ATOM     96  O   UNL A   1      46.511  36.332  27.258  1.00  0.00    -0.744 OA
ENDBRANCH  90  93
ENDBRANCH  63  86
ENDBRANCH  37  38
ENDBRANCH  29  32
ENDBRANCH  27  28
ENDBRANCH  26  27
ENDBRANCH   1  26
TORSDOF 19
ENDMDL
