MODEL 1
REMARK VINA RESULT:     -11.6      0.000      0.000
REMARK SMILES O=C(NCCCCNC(=O)[C@H](CCC(F)(F)F)Cc1ccccc1)c1ccc(-c2c3nc(c(-c4cccc(S(=O)(=O)[O-])c4F)c4ccc([nH]4)c(-c4cccc(S(=O)(=O)[O-])c4F)c4nc(c(-c5cccc(S(=O)(=O)[O-])c5F)c5ccc2[nH]5)C=C4)C=C3)cc1
REMARK SMILES IDX 5 1 4 2 3 3 1 4 2 5 25 7 26 8 87 9 27 10 86 11 28 12 29 13
REMARK SMILES IDX 30 14 80 15 31 16 85 17 79 18 81 19 32 20 84 21 78 22 77 23
REMARK SMILES IDX 33 25 65 26 45 27 64 28 46 29 49 30 63 31 82 32 47 33 48 34
REMARK SMILES IDX 62 36 83 37 50 38 34 39 35 40 43 41 36 42 38 43 44 44 37 45
REMARK SMILES IDX 39 46 40 47 41 48 42 49 66 50 67 51 75 52 68 53 70 54 76 55
REMARK SMILES IDX 69 56 71 57 72 58 73 59 74 60 51 61 52 62 60 63 53 64 55 65
REMARK SMILES IDX 61 66 54 67 56 68 57 69 58 70 59 71 6 72 7 73 8 74 9 75
REMARK SMILES IDX 10 77 11 78 18 79 19 80 20 81 24 82 21 83 23 84 22 85 12 86
REMARK SMILES IDX 13 87 14 88 15 89 16 90 17 91
REMARK H PARENT 3 6 81 24 49 35 8 76
REMARK Flexibility Score: inf
ROOT
ATOM      1  C   UNL A   1      37.796  19.807  25.036  1.00  0.00     0.023 C 
ENDROOT
BRANCH   1   2
ATOM      2  C   UNL A   1      39.025  20.308  25.770  1.00  0.00     0.116 C 
BRANCH   2   3
ATOM      3  N   UNL A   1      40.079  19.309  25.875  1.00  0.00    -0.352 N 
ATOM      4  O   UNL A   1      42.215  18.601  26.087  1.00  0.00    -0.269 OA
ATOM      5  C   UNL A   1      41.413  19.521  26.144  1.00  0.00     0.251 C 
ATOM      6  H   UNL A   1      39.806  18.373  25.737  1.00  0.00     0.163 HD
BRANCH   5   7
ATOM      7  C   UNL A   1      41.842  20.898  26.461  1.00  0.00     0.039 A 
ATOM      8  C   UNL A   1      41.984  21.285  27.796  1.00  0.00     0.014 A 
ATOM      9  C   UNL A   1      42.018  21.816  25.426  1.00  0.00     0.014 A 
ATOM     10  C   UNL A   1      42.159  22.625  28.104  1.00  0.00     0.010 A 
ATOM     11  C   UNL A   1      42.296  23.147  25.737  1.00  0.00     0.010 A 
ATOM     12  C   UNL A   1      42.349  23.564  27.076  1.00  0.00    -0.014 A 
BRANCH  12  13
ATOM     13  C   UNL A   1      42.750  24.943  27.435  1.00  0.00     0.031 A 
ATOM     14  C   UNL A   1      41.798  25.898  28.093  1.00  0.00     0.074 A 
ATOM     15  C   UNL A   1      44.002  25.325  27.114  1.00  0.00     0.049 A 
ATOM     16  N   UNL A   1      42.003  27.142  28.439  1.00  0.00    -0.248 NA
ATOM     17  C   UNL A   1      40.443  25.407  28.396  1.00  0.00     0.031 C 
ATOM     18  C   UNL A   1      44.983  24.483  26.421  1.00  0.00     0.029 A 
ATOM     19  N   UNL A   1      44.661  26.509  27.308  1.00  0.00    -0.354 N 
ATOM     20  C   UNL A   1      40.796  27.602  28.951  1.00  0.00     0.074 A 
ATOM     21  C   UNL A   1      39.863  26.497  28.887  1.00  0.00     0.031 C 
ATOM     22  C   UNL A   1      46.119  25.171  26.256  1.00  0.00     0.029 A 
ATOM     23  C   UNL A   1      45.927  26.519  26.769  1.00  0.00     0.049 A 
ATOM     24  H   UNL A   1      44.269  27.276  27.784  1.00  0.00     0.167 HD
ATOM     25  C   UNL A   1      40.507  28.833  29.435  1.00  0.00     0.034 A 
ATOM     26  C   UNL A   1      46.824  27.516  26.662  1.00  0.00     0.034 A 
ATOM     27  C   UNL A   1      41.466  29.901  29.540  1.00  0.00     0.049 A 
ATOM     28  C   UNL A   1      46.474  28.858  27.229  1.00  0.00     0.074 A 
ATOM     29  C   UNL A   1      41.307  31.142  30.131  1.00  0.00     0.029 A 
ATOM     30  N   UNL A   1      42.752  29.865  29.024  1.00  0.00    -0.354 N 
ATOM     31  N   UNL A   1      45.388  29.221  27.865  1.00  0.00    -0.248 NA
ATOM     32  C   UNL A   1      47.473  29.923  27.077  1.00  0.00     0.031 C 
ATOM     33  C   UNL A   1      42.489  31.867  29.949  1.00  0.00     0.029 A 
ATOM     34  C   UNL A   1      43.389  31.073  29.254  1.00  0.00     0.049 A 
ATOM     35  H   UNL A   1      43.155  29.094  28.562  1.00  0.00     0.167 HD
ATOM     36  C   UNL A   1      45.571  30.556  28.193  1.00  0.00     0.074 A 
ATOM     37  C   UNL A   1      46.891  30.925  27.722  1.00  0.00     0.031 C 
ATOM     38  C   UNL A   1      44.713  31.410  28.804  1.00  0.00     0.034 A 
BRANCH  25  39
ATOM     39  C   UNL A   1      39.112  29.101  29.931  1.00  0.00     0.023 A 
ATOM     40  C   UNL A   1      38.755  28.727  31.241  1.00  0.00     0.012 A 
ATOM     41  C   UNL A   1      38.199  29.837  29.147  1.00  0.00     0.148 A 
ATOM     42  C   UNL A   1      37.509  29.074  31.762  1.00  0.00     0.002 A 
ATOM     43  C   UNL A   1      36.971  30.204  29.684  1.00  0.00     0.091 A 
ATOM     44  F   UNL A   1      38.554  30.166  27.896  1.00  0.00    -0.205 F 
ATOM     45  C   UNL A   1      36.623  29.821  30.989  1.00  0.00     0.022 A 
BRANCH  43  46
ATOM     46  S   UNL A   1      35.788  31.225  28.796  1.00  0.00     0.127 S 
ATOM     47  O   UNL A   1      35.105  30.230  27.969  1.00  0.00    -0.237 OA
ATOM     48  O   UNL A   1      34.976  31.772  29.883  1.00  0.00    -0.237 OA
ATOM     49  O   UNL A   1      36.573  32.208  28.064  1.00  0.00    -0.744 OA
ENDBRANCH  43  46
ENDBRANCH  25  39
BRANCH  26  50
ATOM     50  C   UNL A   1      48.129  27.260  25.994  1.00  0.00     0.023 A 
ATOM     51  C   UNL A   1      49.188  26.699  26.731  1.00  0.00     0.012 A 
ATOM     52  C   UNL A   1      48.301  27.501  24.617  1.00  0.00     0.148 A 
ATOM     53  C   UNL A   1      50.402  26.401  26.110  1.00  0.00     0.002 A 
ATOM     54  C   UNL A   1      49.490  27.142  23.993  1.00  0.00     0.091 A 
ATOM     55  F   UNL A   1      47.291  28.056  23.933  1.00  0.00    -0.205 F 
ATOM     56  C   UNL A   1      50.548  26.607  24.741  1.00  0.00     0.022 A 
BRANCH  54  57
ATOM     57  S   UNL A   1      49.666  27.229  22.208  1.00  0.00     0.127 S 
ATOM     58  O   UNL A   1      51.060  26.841  22.023  1.00  0.00    -0.237 OA
ATOM     59  O   UNL A   1      48.686  26.245  21.745  1.00  0.00    -0.237 OA
ATOM     60  O   UNL A   1      49.325  28.605  21.866  1.00  0.00    -0.744 OA
ENDBRANCH  54  57
ENDBRANCH  26  50
BRANCH  38  61
ATOM     61  C   UNL A   1      45.172  32.829  28.979  1.00  0.00     0.023 A 
ATOM     62  C   UNL A   1      45.928  33.170  30.119  1.00  0.00     0.012 A 
ATOM     63  C   UNL A   1      44.914  33.805  27.999  1.00  0.00     0.148 A 
ATOM     64  C   UNL A   1      46.397  34.469  30.293  1.00  0.00     0.002 A 
ATOM     65  C   UNL A   1      45.421  35.087  28.159  1.00  0.00     0.091 A 
ATOM     66  F   UNL A   1      44.175  33.462  26.934  1.00  0.00    -0.205 F 
ATOM     67  C   UNL A   1      46.154  35.425  29.309  1.00  0.00     0.022 A 
BRANCH  65  68
ATOM     68  S   UNL A   1      45.229  36.360  26.907  1.00  0.00     0.127 S 
ATOM     69  O   UNL A   1      46.114  37.410  27.410  1.00  0.00    -0.237 OA
ATOM     70  O   UNL A   1      45.707  35.685  25.700  1.00  0.00    -0.237 OA
ATOM     71  O   UNL A   1      43.810  36.694  26.889  1.00  0.00    -0.744 OA
ENDBRANCH  65  68
ENDBRANCH  38  61
ENDBRANCH  12  13
ENDBRANCH   5   7
ENDBRANCH   2   3
ENDBRANCH   1   2
BRANCH   1  72
ATOM     72  C   UNL A   1      36.903  20.914  24.496  1.00  0.00     0.023 C 
BRANCH  72  73
ATOM     73  C   UNL A   1      36.636  22.061  25.474  1.00  0.00     0.116 C 
BRANCH  73  74
ATOM     74  N   UNL A   1      35.711  21.628  26.495  1.00  0.00    -0.356 N 
ATOM     75  C   UNL A   1      34.358  21.520  26.480  1.00  0.00     0.223 C 
ATOM     76  H   UNL A   1      36.132  21.369  27.345  1.00  0.00     0.163 HD
ATOM     77  O   UNL A   1      33.819  21.301  27.569  1.00  0.00    -0.275 OA
BRANCH  75  78
ATOM     78  C   UNL A   1      33.542  21.643  25.179  1.00  0.00     0.083 C 
BRANCH  78  79
ATOM     79  C   UNL A   1      32.591  20.405  25.173  1.00  0.00     0.049 C 
BRANCH  79  80
ATOM     80  C   UNL A   1      33.068  19.214  24.376  1.00  0.00    -0.047 A 
ATOM     81  C   UNL A   1      34.202  18.506  24.806  1.00  0.00     0.004 A 
ATOM     82  C   UNL A   1      32.380  18.777  23.240  1.00  0.00     0.004 A 
ATOM     83  C   UNL A   1      34.626  17.366  24.126  1.00  0.00     0.000 A 
ATOM     84  C   UNL A   1      32.813  17.639  22.556  1.00  0.00     0.000 A 
ATOM     85  C   UNL A   1      33.930  16.932  23.002  1.00  0.00     0.000 A 
ENDBRANCH  79  80
ENDBRANCH  78  79
BRANCH  78  86
ATOM     86  C   UNL A   1      32.730  22.963  25.101  1.00  0.00     0.023 C 
BRANCH  86  87
ATOM     87  C   UNL A   1      32.500  23.615  23.732  1.00  0.00     0.116 C 
BRANCH  87  88
ATOM     88  C   UNL A   1      33.246  23.035  22.548  1.00  0.00     0.389 C 
ATOM     89  F   UNL A   1      32.690  21.885  22.123  1.00  0.00    -0.171 F 
ATOM     90  F   UNL A   1      33.209  23.913  21.516  1.00  0.00    -0.171 F 
ATOM     91  F   UNL A   1      34.546  22.800  22.814  1.00  0.00    -0.171 F 
ENDBRANCH  87  88
ENDBRANCH  86  87
ENDBRANCH  78  86
ENDBRANCH  75  78
ENDBRANCH  73  74
ENDBRANCH  72  73
ENDBRANCH   1  72
TORSDOF 19
ENDMDL
MODEL 2
REMARK VINA RESULT:     -11.2      6.708     11.846
REMARK SMILES O=C(NCCCCNC(=O)[C@H](CCC(F)(F)F)Cc1ccccc1)c1ccc(-c2c3nc(c(-c4cccc(S(=O)(=O)[O-])c4F)c4ccc([nH]4)c(-c4cccc(S(=O)(=O)[O-])c4F)c4nc(c(-c5cccc(S(=O)(=O)[O-])c5F)c5ccc2[nH]5)C=C4)C=C3)cc1
REMARK SMILES IDX 5 1 4 2 3 3 1 4 2 5 25 7 26 8 87 9 27 10 86 11 28 12 29 13
REMARK SMILES IDX 30 14 80 15 31 16 85 17 79 18 81 19 32 20 84 21 78 22 77 23
REMARK SMILES IDX 33 25 65 26 45 27 64 28 46 29 49 30 63 31 82 32 47 33 48 34
REMARK SMILES IDX 62 36 83 37 50 38 34 39 35 40 43 41 36 42 38 43 44 44 37 45
REMARK SMILES IDX 39 46 40 47 41 48 42 49 66 50 67 51 75 52 68 53 70 54 76 55
REMARK SMILES IDX 69 56 71 57 72 58 73 59 74 60 51 61 52 62 60 63 53 64 55 65
REMARK SMILES IDX 61 66 54 67 56 68 57 69 58 70 59 71 6 72 7 73 8 74 9 75
REMARK SMILES IDX 10 77 11 78 18 79 19 80 20 81 24 82 21 83 23 84 22 85 12 86
REMARK SMILES IDX 13 87 14 88 15 89 16 90 17 91
REMARK H PARENT 3 6 81 24 49 35 8 76
REMARK Flexibility Score: inf
ROOT
ATOM      1  C   UNL A   1      31.659  31.871  26.509  1.00  0.00     0.023 C 
ENDROOT
BRANCH   1   2
ATOM      2  C   UNL A   1      32.829  32.492  27.248  1.00  0.00     0.116 C 
BRANCH   2   3
ATOM      3  N   UNL A   1      32.555  33.838  27.729  1.00  0.00    -0.352 N 
ATOM      4  O   UNL A   1      32.822  35.616  29.100  1.00  0.00    -0.269 OA
ATOM      5  C   UNL A   1      33.231  34.534  28.707  1.00  0.00     0.251 C 
ATOM      6  H   UNL A   1      31.798  34.305  27.308  1.00  0.00     0.163 HD
BRANCH   5   7
ATOM      7  C   UNL A   1      34.436  33.909  29.289  1.00  0.00     0.039 A 
ATOM      8  C   UNL A   1      34.297  32.942  30.288  1.00  0.00     0.014 A 
ATOM      9  C   UNL A   1      35.697  34.355  28.893  1.00  0.00     0.014 A 
ATOM     10  C   UNL A   1      35.414  32.524  30.994  1.00  0.00     0.010 A 
ATOM     11  C   UNL A   1      36.829  33.855  29.538  1.00  0.00     0.010 A 
ATOM     12  C   UNL A   1      36.694  32.953  30.605  1.00  0.00    -0.014 A 
BRANCH  12  13
ATOM     13  C   UNL A   1      37.878  32.325  31.233  1.00  0.00     0.031 A 
ATOM     14  C   UNL A   1      38.606  31.185  30.585  1.00  0.00     0.074 A 
ATOM     15  C   UNL A   1      38.260  32.795  32.438  1.00  0.00     0.049 A 
ATOM     16  N   UNL A   1      39.640  30.520  31.031  1.00  0.00    -0.248 NA
ATOM     17  C   UNL A   1      38.115  30.720  29.277  1.00  0.00     0.031 C 
ATOM     18  C   UNL A   1      37.578  33.864  33.174  1.00  0.00     0.029 A 
ATOM     19  N   UNL A   1      39.293  32.433  33.261  1.00  0.00    -0.354 N 
ATOM     20  C   UNL A   1      39.895  29.529  30.093  1.00  0.00     0.074 A 
ATOM     21  C   UNL A   1      38.916  29.686  29.037  1.00  0.00     0.031 C 
ATOM     22  C   UNL A   1      38.214  34.079  34.332  1.00  0.00     0.029 A 
ATOM     23  C   UNL A   1      39.304  33.122  34.451  1.00  0.00     0.049 A 
ATOM     24  H   UNL A   1      39.960  31.749  33.024  1.00  0.00     0.167 HD
ATOM     25  C   UNL A   1      40.864  28.584  30.114  1.00  0.00     0.034 A 
ATOM     26  C   UNL A   1      40.081  32.975  35.540  1.00  0.00     0.034 A 
ATOM     27  C   UNL A   1      41.862  28.480  31.146  1.00  0.00     0.049 A 
ATOM     28  C   UNL A   1      41.156  31.932  35.516  1.00  0.00     0.074 A 
ATOM     29  C   UNL A   1      42.961  27.640  31.196  1.00  0.00     0.029 A 
ATOM     30  N   UNL A   1      41.871  29.221  32.318  1.00  0.00    -0.354 N 
ATOM     31  N   UNL A   1      41.489  31.119  34.544  1.00  0.00    -0.248 NA
ATOM     32  C   UNL A   1      41.971  31.792  36.729  1.00  0.00     0.031 C 
ATOM     33  C   UNL A   1      43.620  27.855  32.411  1.00  0.00     0.029 A 
ATOM     34  C   UNL A   1      42.938  28.836  33.113  1.00  0.00     0.049 A 
ATOM     35  H   UNL A   1      41.216  29.918  32.551  1.00  0.00     0.167 HD
ATOM     36  C   UNL A   1      42.553  30.372  35.024  1.00  0.00     0.074 A 
ATOM     37  C   UNL A   1      42.837  30.858  36.359  1.00  0.00     0.031 C 
ATOM     38  C   UNL A   1      43.219  29.354  34.425  1.00  0.00     0.034 A 
BRANCH  25  39
ATOM     39  C   UNL A   1      40.936  27.602  28.976  1.00  0.00     0.023 A 
ATOM     40  C   UNL A   1      39.997  26.555  28.900  1.00  0.00     0.012 A 
ATOM     41  C   UNL A   1      41.851  27.792  27.920  1.00  0.00     0.148 A 
ATOM     42  C   UNL A   1      39.970  25.708  27.793  1.00  0.00     0.002 A 
ATOM     43  C   UNL A   1      41.798  26.962  26.807  1.00  0.00     0.091 A 
ATOM     44  F   UNL A   1      42.748  28.783  28.023  1.00  0.00    -0.205 F 
ATOM     45  C   UNL A   1      40.861  25.917  26.743  1.00  0.00     0.022 A 
BRANCH  43  46
ATOM     46  S   UNL A   1      42.855  27.190  25.371  1.00  0.00     0.127 S 
ATOM     47  O   UNL A   1      42.703  25.906  24.688  1.00  0.00    -0.237 OA
ATOM     48  O   UNL A   1      42.216  28.319  24.694  1.00  0.00    -0.237 OA
ATOM     49  O   UNL A   1      44.187  27.464  25.891  1.00  0.00    -0.744 OA
ENDBRANCH  43  46
ENDBRANCH  25  39
BRANCH  26  50
ATOM     50  C   UNL A   1      39.856  33.847  36.724  1.00  0.00     0.023 A 
ATOM     51  C   UNL A   1      40.200  35.210  36.659  1.00  0.00     0.012 A 
ATOM     52  C   UNL A   1      39.237  33.349  37.888  1.00  0.00     0.148 A 
ATOM     53  C   UNL A   1      39.947  36.056  37.740  1.00  0.00     0.002 A 
ATOM     54  C   UNL A   1      38.931  34.210  38.934  1.00  0.00     0.091 A 
ATOM     55  F   UNL A   1      38.936  32.044  37.944  1.00  0.00    -0.205 F 
ATOM     56  C   UNL A   1      39.299  35.561  38.869  1.00  0.00     0.022 A 
BRANCH  54  57
ATOM     57  S   UNL A   1      37.949  33.661  40.334  1.00  0.00     0.127 S 
ATOM     58  O   UNL A   1      38.821  32.660  40.940  1.00  0.00    -0.237 OA
ATOM     59  O   UNL A   1      37.791  34.891  41.112  1.00  0.00    -0.237 OA
ATOM     60  O   UNL A   1      36.707  33.170  39.749  1.00  0.00    -0.744 OA
ENDBRANCH  54  57
ENDBRANCH  26  50
BRANCH  38  61
ATOM     61  C   UNL A   1      44.307  28.689  35.221  1.00  0.00     0.023 A 
ATOM     62  C   UNL A   1      45.638  29.119  35.056  1.00  0.00     0.012 A 
ATOM     63  C   UNL A   1      44.010  27.692  36.168  1.00  0.00     0.148 A 
ATOM     64  C   UNL A   1      46.664  28.547  35.804  1.00  0.00     0.002 A 
ATOM     65  C   UNL A   1      45.032  27.155  36.940  1.00  0.00     0.091 A 
ATOM     66  F   UNL A   1      42.739  27.284  36.292  1.00  0.00    -0.205 F 
ATOM     67  C   UNL A   1      46.361  27.573  36.753  1.00  0.00     0.022 A 
BRANCH  65  68
ATOM     68  S   UNL A   1      44.726  25.958  38.243  1.00  0.00     0.127 S 
ATOM     69  O   UNL A   1      44.195  24.824  37.488  1.00  0.00    -0.237 OA
ATOM     70  O   UNL A   1      46.064  25.750  38.797  1.00  0.00    -0.237 OA
ATOM     71  O   UNL A   1      43.787  26.594  39.158  1.00  0.00    -0.744 OA
ENDBRANCH  65  68
ENDBRANCH  38  61
ENDBRANCH  12  13
ENDBRANCH   5   7
ENDBRANCH   2   3
ENDBRANCH   1   2
BRANCH   1  72
ATOM     72  C   UNL A   1      31.668  30.349  26.503  1.00  0.00     0.023 C 
BRANCH  72  73
ATOM     73  C   UNL A   1      33.061  29.714  26.512  1.00  0.00     0.116 C 
BRANCH  73  74
ATOM     74  N   UNL A   1      33.565  29.618  25.162  1.00  0.00    -0.356 N 
ATOM     75  C   UNL A   1      33.133  28.890  24.102  1.00  0.00     0.223 C 
ATOM     76  H   UNL A   1      34.355  30.176  24.981  1.00  0.00     0.163 HD
ATOM     77  O   UNL A   1      33.881  28.866  23.120  1.00  0.00    -0.275 OA
BRANCH  75  78
ATOM     78  C   UNL A   1      31.781  28.151  24.113  1.00  0.00     0.083 C 
BRANCH  78  79
ATOM     79  C   UNL A   1      31.045  28.625  22.820  1.00  0.00     0.049 C 
BRANCH  79  80
ATOM     80  C   UNL A   1      29.730  29.335  23.034  1.00  0.00    -0.047 A 
ATOM     81  C   UNL A   1      28.529  28.620  22.892  1.00  0.00     0.004 A 
ATOM     82  C   UNL A   1      29.683  30.680  23.410  1.00  0.00     0.004 A 
ATOM     83  C   UNL A   1      27.304  29.234  23.146  1.00  0.00     0.000 A 
ATOM     84  C   UNL A   1      28.453  31.294  23.655  1.00  0.00     0.000 A 
ATOM     85  C   UNL A   1      27.267  30.571  23.529  1.00  0.00     0.000 A 
ENDBRANCH  79  80
ENDBRANCH  78  79
BRANCH  78  86
ATOM     86  C   UNL A   1      31.939  26.608  24.125  1.00  0.00     0.023 C 
BRANCH  86  87
ATOM     87  C   UNL A   1      31.705  25.827  22.826  1.00  0.00     0.116 C 
BRANCH  87  88
ATOM     88  C   UNL A   1      32.920  25.487  21.986  1.00  0.00     0.389 C 
ATOM     89  F   UNL A   1      32.912  24.198  21.597  1.00  0.00    -0.171 F 
ATOM     90  F   UNL A   1      32.925  26.253  20.869  1.00  0.00    -0.171 F 
ATOM     91  F   UNL A   1      34.081  25.725  22.628  1.00  0.00    -0.171 F 
ENDBRANCH  87  88
ENDBRANCH  86  87
ENDBRANCH  78  86
ENDBRANCH  75  78
ENDBRANCH  73  74
ENDBRANCH  72  73
ENDBRANCH   1  72
TORSDOF 19
ENDMDL
MODEL 3
REMARK VINA RESULT:     -11.1      1.246      2.691
REMARK SMILES O=C(NCCCCNC(=O)[C@H](CCC(F)(F)F)Cc1ccccc1)c1ccc(-c2c3nc(c(-c4cccc(S(=O)(=O)[O-])c4F)c4ccc([nH]4)c(-c4cccc(S(=O)(=O)[O-])c4F)c4nc(c(-c5cccc(S(=O)(=O)[O-])c5F)c5ccc2[nH]5)C=C4)C=C3)cc1
REMARK SMILES IDX 5 1 4 2 3 3 1 4 2 5 25 7 26 8 87 9 27 10 86 11 28 12 29 13
REMARK SMILES IDX 30 14 80 15 31 16 85 17 79 18 81 19 32 20 84 21 78 22 77 23
REMARK SMILES IDX 33 25 65 26 45 27 64 28 46 29 49 30 63 31 82 32 47 33 48 34
REMARK SMILES IDX 62 36 83 37 50 38 34 39 35 40 43 41 36 42 38 43 44 44 37 45
REMARK SMILES IDX 39 46 40 47 41 48 42 49 66 50 67 51 75 52 68 53 70 54 76 55
REMARK SMILES IDX 69 56 71 57 72 58 73 59 74 60 51 61 52 62 60 63 53 64 55 65
REMARK SMILES IDX 61 66 54 67 56 68 57 69 58 70 59 71 6 72 7 73 8 74 9 75
REMARK SMILES IDX 10 77 11 78 18 79 19 80 20 81 24 82 21 83 23 84 22 85 12 86
REMARK SMILES IDX 13 87 14 88 15 89 16 90 17 91
REMARK H PARENT 3 6 81 24 49 35 8 76
REMARK Flexibility Score: inf
ROOT
ATOM      1  C   UNL A   1      37.783  19.889  25.009  1.00  0.00     0.023 C 
ENDROOT
BRANCH   1   2
ATOM      2  C   UNL A   1      38.988  20.361  25.798  1.00  0.00     0.116 C 
BRANCH   2   3
ATOM      3  N   UNL A   1      40.047  19.366  25.880  1.00  0.00    -0.352 N 
ATOM      4  O   UNL A   1      42.189  18.665  26.060  1.00  0.00    -0.269 OA
ATOM      5  C   UNL A   1      41.383  19.580  26.137  1.00  0.00     0.251 C 
ATOM      6  H   UNL A   1      39.777  18.430  25.734  1.00  0.00     0.163 HD
BRANCH   5   7
ATOM      7  C   UNL A   1      41.810  20.956  26.466  1.00  0.00     0.039 A 
ATOM      8  C   UNL A   1      41.925  21.340  27.804  1.00  0.00     0.014 A 
ATOM      9  C   UNL A   1      42.010  21.875  25.436  1.00  0.00     0.014 A 
ATOM     10  C   UNL A   1      42.098  22.678  28.118  1.00  0.00     0.010 A 
ATOM     11  C   UNL A   1      42.286  23.205  25.756  1.00  0.00     0.010 A 
ATOM     12  C   UNL A   1      42.312  23.619  27.097  1.00  0.00    -0.014 A 
BRANCH  12  13
ATOM     13  C   UNL A   1      42.709  24.996  27.467  1.00  0.00     0.031 A 
ATOM     14  C   UNL A   1      41.746  25.954  28.103  1.00  0.00     0.074 A 
ATOM     15  C   UNL A   1      43.970  25.374  27.176  1.00  0.00     0.049 A 
ATOM     16  N   UNL A   1      41.947  27.197  28.456  1.00  0.00    -0.248 NA
ATOM     17  C   UNL A   1      40.382  25.468  28.373  1.00  0.00     0.031 C 
ATOM     18  C   UNL A   1      44.964  24.529  26.506  1.00  0.00     0.029 A 
ATOM     19  N   UNL A   1      44.629  26.555  27.387  1.00  0.00    -0.354 N 
ATOM     20  C   UNL A   1      40.731  27.661  28.939  1.00  0.00     0.074 A 
ATOM     21  C   UNL A   1      39.794  26.560  28.852  1.00  0.00     0.031 C 
ATOM     22  C   UNL A   1      46.106  25.213  26.368  1.00  0.00     0.029 A 
ATOM     23  C   UNL A   1      45.907  26.561  26.878  1.00  0.00     0.049 A 
ATOM     24  H   UNL A   1      44.229  27.323  27.854  1.00  0.00     0.167 HD
ATOM     25  C   UNL A   1      40.434  28.892  29.418  1.00  0.00     0.034 A 
ATOM     26  C   UNL A   1      46.811  27.555  26.794  1.00  0.00     0.034 A 
ATOM     27  C   UNL A   1      41.394  29.957  29.547  1.00  0.00     0.049 A 
ATOM     28  C   UNL A   1      46.452  28.897  27.353  1.00  0.00     0.074 A 
ATOM     29  C   UNL A   1      41.226  31.198  30.135  1.00  0.00     0.029 A 
ATOM     30  N   UNL A   1      42.692  29.916  29.061  1.00  0.00    -0.354 N 
ATOM     31  N   UNL A   1      45.352  29.264  27.964  1.00  0.00    -0.248 NA
ATOM     32  C   UNL A   1      47.458  29.959  27.227  1.00  0.00     0.031 C 
ATOM     33  C   UNL A   1      42.415  31.918  29.983  1.00  0.00     0.029 A 
ATOM     34  C   UNL A   1      43.328  31.122  29.308  1.00  0.00     0.049 A 
ATOM     35  H   UNL A   1      43.103  29.145  28.608  1.00  0.00     0.167 HD
ATOM     36  C   UNL A   1      45.533  30.598  28.298  1.00  0.00     0.074 A 
ATOM     37  C   UNL A   1      46.865  30.962  27.859  1.00  0.00     0.031 C 
ATOM     38  C   UNL A   1      44.663  31.454  28.890  1.00  0.00     0.034 A 
BRANCH  25  39
ATOM     39  C   UNL A   1      39.029  29.165  29.881  1.00  0.00     0.023 A 
ATOM     40  C   UNL A   1      38.656  28.844  31.201  1.00  0.00     0.012 A 
ATOM     41  C   UNL A   1      38.120  29.855  29.052  1.00  0.00     0.148 A 
ATOM     42  C   UNL A   1      37.398  29.198  31.687  1.00  0.00     0.002 A 
ATOM     43  C   UNL A   1      36.880  30.231  29.554  1.00  0.00     0.091 A 
ATOM     44  F   UNL A   1      38.490  30.133  27.793  1.00  0.00    -0.205 F 
ATOM     45  C   UNL A   1      36.516  29.901  30.870  1.00  0.00     0.022 A 
BRANCH  43  46
ATOM     46  S   UNL A   1      35.699  31.198  28.605  1.00  0.00     0.127 S 
ATOM     47  O   UNL A   1      36.566  32.208  28.000  1.00  0.00    -0.237 OA
ATOM     48  O   UNL A   1      35.174  30.206  27.666  1.00  0.00    -0.237 OA
ATOM     49  O   UNL A   1      34.729  31.704  29.565  1.00  0.00    -0.744 OA
ENDBRANCH  43  46
ENDBRANCH  25  39
BRANCH  26  50
ATOM     50  C   UNL A   1      48.130  27.294  26.157  1.00  0.00     0.023 A 
ATOM     51  C   UNL A   1      49.175  26.746  26.922  1.00  0.00     0.012 A 
ATOM     52  C   UNL A   1      48.330  27.520  24.781  1.00  0.00     0.148 A 
ATOM     53  C   UNL A   1      50.402  26.443  26.331  1.00  0.00     0.002 A 
ATOM     54  C   UNL A   1      49.533  27.157  24.187  1.00  0.00     0.091 A 
ATOM     55  F   UNL A   1      47.333  28.064  24.069  1.00  0.00    -0.205 F 
ATOM     56  C   UNL A   1      50.576  26.633  24.962  1.00  0.00     0.022 A 
BRANCH  54  57
ATOM     57  S   UNL A   1      49.747  27.224  22.404  1.00  0.00     0.127 S 
ATOM     58  O   UNL A   1      51.117  26.749  22.246  1.00  0.00    -0.237 OA
ATOM     59  O   UNL A   1      48.716  26.300  21.927  1.00  0.00    -0.237 OA
ATOM     60  O   UNL A   1      49.498  28.617  22.051  1.00  0.00    -0.744 OA
ENDBRANCH  54  57
ENDBRANCH  26  50
BRANCH  38  61
ATOM     61  C   UNL A   1      45.124  32.871  29.077  1.00  0.00     0.023 A 
ATOM     62  C   UNL A   1      45.843  33.211  30.241  1.00  0.00     0.012 A 
ATOM     63  C   UNL A   1      44.903  33.846  28.088  1.00  0.00     0.148 A 
ATOM     64  C   UNL A   1      46.313  34.508  30.428  1.00  0.00     0.002 A 
ATOM     65  C   UNL A   1      45.411  35.127  28.262  1.00  0.00     0.091 A 
ATOM     66  F   UNL A   1      44.198  33.505  26.999  1.00  0.00    -0.205 F 
ATOM     67  C   UNL A   1      46.107  35.463  29.435  1.00  0.00     0.022 A 
BRANCH  65  68
ATOM     68  S   UNL A   1      45.267  36.398  27.002  1.00  0.00     0.127 S 
ATOM     69  O   UNL A   1      46.064  35.833  25.915  1.00  0.00    -0.237 OA
ATOM     70  O   UNL A   1      43.825  36.427  26.752  1.00  0.00    -0.237 OA
ATOM     71  O   UNL A   1      45.799  37.617  27.600  1.00  0.00    -0.744 OA
ENDBRANCH  65  68
ENDBRANCH  38  61
ENDBRANCH  12  13
ENDBRANCH   5   7
ENDBRANCH   2   3
ENDBRANCH   1   2
BRANCH   1  72
ATOM     72  C   UNL A   1      36.877  21.014  24.530  1.00  0.00     0.023 C 
BRANCH  72  73
ATOM     73  C   UNL A   1      36.504  22.041  25.602  1.00  0.00     0.116 C 
BRANCH  73  74
ATOM     74  N   UNL A   1      35.547  21.466  26.520  1.00  0.00    -0.356 N 
ATOM     75  C   UNL A   1      34.239  21.755  26.736  1.00  0.00     0.223 C 
ATOM     76  H   UNL A   1      35.904  20.742  27.082  1.00  0.00     0.163 HD
ATOM     77  O   UNL A   1      33.722  21.223  27.723  1.00  0.00    -0.275 OA
BRANCH  75  78
ATOM     78  C   UNL A   1      33.439  22.678  25.796  1.00  0.00     0.083 C 
BRANCH  78  79
ATOM     79  C   UNL A   1      34.261  24.004  25.728  1.00  0.00     0.049 C 
BRANCH  79  80
ATOM     80  C   UNL A   1      33.459  25.280  25.827  1.00  0.00    -0.047 A 
ATOM     81  C   UNL A   1      32.129  25.225  26.274  1.00  0.00     0.004 A 
ATOM     82  C   UNL A   1      34.026  26.520  25.521  1.00  0.00     0.004 A 
ATOM     83  C   UNL A   1      31.386  26.393  26.435  1.00  0.00     0.000 A 
ATOM     84  C   UNL A   1      33.276  27.688  25.675  1.00  0.00     0.000 A 
ATOM     85  C   UNL A   1      31.961  27.625  26.138  1.00  0.00     0.000 A 
ENDBRANCH  79  80
ENDBRANCH  78  79
BRANCH  78  86
ATOM     86  C   UNL A   1      33.249  22.073  24.380  1.00  0.00     0.023 C 
BRANCH  86  87
ATOM     87  C   UNL A   1      32.223  20.951  24.183  1.00  0.00     0.116 C 
BRANCH  87  88
ATOM     88  C   UNL A   1      32.748  19.532  24.089  1.00  0.00     0.389 C 
ATOM     89  F   UNL A   1      32.131  18.714  24.963  1.00  0.00    -0.171 F 
ATOM     90  F   UNL A   1      32.522  19.048  22.844  1.00  0.00    -0.171 F 
ATOM     91  F   UNL A   1      34.075  19.452  24.305  1.00  0.00    -0.171 F 
ENDBRANCH  87  88
ENDBRANCH  86  87
ENDBRANCH  78  86
ENDBRANCH  75  78
ENDBRANCH  73  74
ENDBRANCH  72  73
ENDBRANCH   1  72
TORSDOF 19
ENDMDL
