MODEL 1
REMARK VINA RESULT:     -11.7      0.000      0.000
REMARK SMILES COc1ccc(/C=C(\Sc2nc(C)n[nH]2)C(=O)NCCCCNC(=O)c2ccc(-c3c4nc(c(-c5cccc(S(=O)(=O)[O-])c5F)c5ccc([nH]5)c(-c5cccc(S(=O)(=O)[O-])c5F)c5nc(c(-c6cccc(S(=O)(=O)[O-])c6F)c6ccc3[nH]6)C=C5)C=C4)cc2)c(OC)c1
REMARK SMILES IDX 21 1 20 2 19 3 18 4 16 5 17 6 8 8 7 9 6 10 3 11 4 12 92 13
REMARK SMILES IDX 5 14 89 15 2 16 1 17 90 18 91 19 9 20 10 21 11 22 15 23
REMARK SMILES IDX 12 24 14 25 13 27 22 28 23 29 24 30 25 32 26 33 27 34 88 35
REMARK SMILES IDX 28 36 87 37 29 38 30 39 31 40 81 41 32 42 86 43 80 44 82 45
REMARK SMILES IDX 33 46 85 47 79 48 78 49 34 51 66 52 46 53 65 54 47 55 50 56
REMARK SMILES IDX 64 57 83 58 48 59 49 60 63 62 84 63 51 64 35 65 36 66 44 67
REMARK SMILES IDX 37 68 39 69 45 70 38 71 40 72 41 73 42 74 43 75 67 76 68 77
REMARK SMILES IDX 76 78 69 79 71 80 77 81 70 82 72 83 73 84 74 85 75 86 52 87
REMARK SMILES IDX 53 88 61 89 54 90 56 91 62 92 55 93 57 94 58 95 59 96 60 97
REMARK H PARENT 18 7 15 26 23 31 82 50 50 61
REMARK Flexibility Score: inf
ROOT
ATOM      1  C   UNL A   1      31.388  32.355  26.817  1.00  0.00     0.023 C 
ENDROOT
BRANCH   1   2
ATOM      2  C   UNL A   1      31.528  30.970  26.162  1.00  0.00     0.023 C 
BRANCH   2   3
ATOM      3  C   UNL A   1      32.236  29.901  27.008  1.00  0.00     0.116 C 
BRANCH   3   4
ATOM      4  N   UNL A   1      31.531  28.628  27.035  1.00  0.00    -0.352 N 
ATOM      5  C   UNL A   1      31.721  27.373  26.529  1.00  0.00     0.258 C 
ATOM      6  O   UNL A   1      30.811  26.579  26.801  1.00  0.00    -0.269 OA
ATOM      7  H   UNL A   1      30.698  28.686  27.556  1.00  0.00     0.163 HD
BRANCH   5   8
ATOM      8  C   UNL A   1      32.860  26.930  25.606  1.00  0.00     0.081 C 
ATOM      9  C   UNL A   1      33.324  25.680  25.872  1.00  0.00     0.033 C 
BRANCH   9  10
ATOM     10  C   UNL A   1      34.270  24.830  25.107  1.00  0.00     0.018 A 
ATOM     11  C   UNL A   1      35.983  22.852  24.137  1.00  0.00     0.122 A 
ATOM     12  C   UNL A   1      36.455  23.782  25.050  1.00  0.00     0.047 A 
ATOM     13  C   UNL A   1      34.717  23.001  23.569  1.00  0.00     0.093 A 
ATOM     14  C   UNL A   1      35.618  24.801  25.490  1.00  0.00     0.016 A 
ATOM     15  C   UNL A   1      33.864  24.017  24.026  1.00  0.00     0.129 A 
BRANCH  11  16
ATOM     16  O   UNL A   1      36.728  21.713  23.994  1.00  0.00    -0.497 OA
ATOM     17  C   UNL A   1      36.461  20.732  24.982  1.00  0.00     0.278 C 
ENDBRANCH  11  16
BRANCH  15  18
ATOM     18  O   UNL A   1      32.604  24.212  23.514  1.00  0.00    -0.496 OA
ATOM     19  C   UNL A   1      31.562  23.445  24.117  1.00  0.00     0.278 C 
ENDBRANCH  15  18
ENDBRANCH   9  10
BRANCH   8  20
ATOM     20  S   UNL A   1      33.246  27.940  24.252  1.00  0.00    -0.045 SA
BRANCH  20  21
ATOM     21  C   UNL A   1      31.772  28.329  23.465  1.00  0.00     0.188 A 
ATOM     22  N   UNL A   1      30.517  28.099  23.755  1.00  0.00    -0.206 NA
ATOM     23  N   UNL A   1      31.841  29.099  22.345  1.00  0.00    -0.254 N 
ATOM     24  C   UNL A   1      29.844  28.854  22.820  1.00  0.00     0.148 A 
ATOM     25  N   UNL A   1      30.624  29.467  21.916  1.00  0.00    -0.158 NA
ATOM     26  H   UNL A   1      32.682  29.354  21.901  1.00  0.00     0.192 HD
ATOM     27  C   UNL A   1      28.381  29.054  22.859  1.00  0.00     0.092 C 
ENDBRANCH  20  21
ENDBRANCH   8  20
ENDBRANCH   5   8
ENDBRANCH   3   4
ENDBRANCH   2   3
ENDBRANCH   1   2
BRANCH   1  28
ATOM     28  C   UNL A   1      32.689  32.987  27.309  1.00  0.00     0.116 C 
BRANCH  28  29
ATOM     29  N   UNL A   1      32.509  34.322  27.898  1.00  0.00    -0.352 N 
ATOM     30  C   UNL A   1      33.091  34.820  29.050  1.00  0.00     0.251 C 
ATOM     31  H   UNL A   1      31.906  34.932  27.417  1.00  0.00     0.163 HD
ATOM     32  O   UNL A   1      32.584  35.765  29.662  1.00  0.00    -0.269 OA
BRANCH  30  33
ATOM     33  C   UNL A   1      34.351  34.224  29.512  1.00  0.00     0.039 A 
ATOM     34  C   UNL A   1      34.429  33.363  30.612  1.00  0.00     0.014 A 
ATOM     35  C   UNL A   1      35.478  34.520  28.753  1.00  0.00     0.014 A 
ATOM     36  C   UNL A   1      35.647  32.742  30.886  1.00  0.00     0.010 A 
ATOM     37  C   UNL A   1      36.605  33.765  28.899  1.00  0.00     0.010 A 
ATOM     38  C   UNL A   1      36.725  32.942  30.011  1.00  0.00    -0.014 A 
BRANCH  38  39
ATOM     39  C   UNL A   1      37.984  32.225  30.155  1.00  0.00     0.031 A 
ATOM     40  C   UNL A   1      38.023  30.924  29.436  1.00  0.00     0.074 A 
ATOM     41  C   UNL A   1      39.082  32.830  30.665  1.00  0.00     0.049 A 
ATOM     42  N   UNL A   1      38.021  29.740  29.954  1.00  0.00    -0.248 NA
ATOM     43  C   UNL A   1      37.852  30.926  27.974  1.00  0.00     0.031 C 
ATOM     44  C   UNL A   1      39.227  34.236  31.077  1.00  0.00     0.029 A 
ATOM     45  N   UNL A   1      40.353  32.364  30.770  1.00  0.00    -0.354 N 
ATOM     46  C   UNL A   1      38.135  28.862  28.877  1.00  0.00     0.074 A 
ATOM     47  C   UNL A   1      37.761  29.620  27.715  1.00  0.00     0.031 C 
ATOM     48  C   UNL A   1      40.538  34.562  31.113  1.00  0.00     0.029 A 
ATOM     49  C   UNL A   1      41.319  33.360  30.907  1.00  0.00     0.049 A 
ATOM     50  H   UNL A   1      40.574  31.404  30.751  1.00  0.00     0.167 HD
ATOM     51  C   UNL A   1      38.816  27.687  29.004  1.00  0.00     0.034 A 
ATOM     52  C   UNL A   1      42.663  33.213  30.797  1.00  0.00     0.034 A 
ATOM     53  C   UNL A   1      39.092  27.413  30.396  1.00  0.00     0.049 A 
ATOM     54  C   UNL A   1      42.958  31.774  30.982  1.00  0.00     0.074 A 
ATOM     55  C   UNL A   1      38.334  27.236  31.535  1.00  0.00     0.029 A 
ATOM     56  N   UNL A   1      40.367  27.700  30.824  1.00  0.00    -0.354 N 
ATOM     57  N   UNL A   1      42.740  31.142  32.102  1.00  0.00    -0.248 NA
ATOM     58  C   UNL A   1      43.029  30.941  29.793  1.00  0.00     0.031 C 
ATOM     59  C   UNL A   1      39.075  27.883  32.568  1.00  0.00     0.029 A 
ATOM     60  C   UNL A   1      40.279  28.341  32.027  1.00  0.00     0.049 A 
ATOM     61  H   UNL A   1      41.200  27.481  30.346  1.00  0.00     0.167 HD
ATOM     62  C   UNL A   1      42.173  29.938  31.706  1.00  0.00     0.074 A 
ATOM     63  C   UNL A   1      42.481  29.824  30.279  1.00  0.00     0.031 C 
ATOM     64  C   UNL A   1      41.247  29.311  32.489  1.00  0.00     0.034 A 
BRANCH  51  65
ATOM     65  C   UNL A   1      39.629  26.994  27.920  1.00  0.00     0.023 A 
ATOM     66  C   UNL A   1      39.490  25.587  27.838  1.00  0.00     0.012 A 
ATOM     67  C   UNL A   1      40.710  27.564  27.211  1.00  0.00     0.148 A 
ATOM     68  C   UNL A   1      40.437  24.785  27.194  1.00  0.00     0.002 A 
ATOM     69  C   UNL A   1      41.617  26.766  26.518  1.00  0.00     0.091 A 
ATOM     70  F   UNL A   1      40.951  28.872  27.278  1.00  0.00    -0.205 F 
ATOM     71  C   UNL A   1      41.508  25.375  26.540  1.00  0.00     0.022 A 
BRANCH  69  72
ATOM     72  S   UNL A   1      43.008  27.473  25.622  1.00  0.00     0.127 S 
ATOM     73  O   UNL A   1      43.677  28.230  26.676  1.00  0.00    -0.237 OA
ATOM     74  O   UNL A   1      43.713  26.271  25.177  1.00  0.00    -0.237 OA
ATOM     75  O   UNL A   1      42.426  28.260  24.542  1.00  0.00    -0.744 OA
ENDBRANCH  69  72
ENDBRANCH  51  65
BRANCH  52  76
ATOM     76  C   UNL A   1      43.669  34.162  30.263  1.00  0.00     0.023 A 
ATOM     77  C   UNL A   1      44.895  34.355  30.932  1.00  0.00     0.012 A 
ATOM     78  C   UNL A   1      43.541  34.672  28.952  1.00  0.00     0.148 A 
ATOM     79  C   UNL A   1      45.961  35.015  30.308  1.00  0.00     0.002 A 
ATOM     80  C   UNL A   1      44.600  35.336  28.339  1.00  0.00     0.091 A 
ATOM     81  F   UNL A   1      42.412  34.423  28.275  1.00  0.00    -0.205 F 
ATOM     82  C   UNL A   1      45.818  35.501  29.010  1.00  0.00     0.022 A 
BRANCH  80  83
ATOM     83  S   UNL A   1      44.492  35.965  26.659  1.00  0.00     0.127 S 
ATOM     84  O   UNL A   1      45.832  36.519  26.461  1.00  0.00    -0.237 OA
ATOM     85  O   UNL A   1      44.213  34.749  25.900  1.00  0.00    -0.237 OA
ATOM     86  O   UNL A   1      43.425  36.958  26.679  1.00  0.00    -0.744 OA
ENDBRANCH  80  83
ENDBRANCH  52  76
BRANCH  64  87
ATOM     87  C   UNL A   1      41.049  29.810  33.897  1.00  0.00     0.023 A 
ATOM     88  C   UNL A   1      41.960  29.542  34.940  1.00  0.00     0.012 A 
ATOM     89  C   UNL A   1      40.027  30.747  34.110  1.00  0.00     0.148 A 
ATOM     90  C   UNL A   1      41.847  30.192  36.173  1.00  0.00     0.002 A 
ATOM     91  C   UNL A   1      39.948  31.428  35.316  1.00  0.00     0.091 A 
ATOM     92  F   UNL A   1      39.174  30.989  33.103  1.00  0.00    -0.205 F 
ATOM     93  C   UNL A   1      40.851  31.148  36.355  1.00  0.00     0.022 A 
BRANCH  91  94
ATOM     94  S   UNL A   1      38.779  32.766  35.556  1.00  0.00     0.127 S 
ATOM     95  O   UNL A   1      39.119  33.668  34.457  1.00  0.00    -0.237 OA
ATOM     96  O   UNL A   1      37.491  32.085  35.413  1.00  0.00    -0.237 OA
ATOM     97  O   UNL A   1      39.030  33.287  36.894  1.00  0.00    -0.744 OA
ENDBRANCH  91  94
ENDBRANCH  64  87
ENDBRANCH  38  39
ENDBRANCH  30  33
ENDBRANCH  28  29
ENDBRANCH   1  28
TORSDOF 19
ENDMDL
MODEL 2
REMARK VINA RESULT:     -11.6      4.201      9.544
REMARK SMILES COc1ccc(/C=C(\Sc2nc(C)n[nH]2)C(=O)NCCCCNC(=O)c2ccc(-c3c4nc(c(-c5cccc(S(=O)(=O)[O-])c5F)c5ccc([nH]5)c(-c5cccc(S(=O)(=O)[O-])c5F)c5nc(c(-c6cccc(S(=O)(=O)[O-])c6F)c6ccc3[nH]6)C=C5)C=C4)cc2)c(OC)c1
REMARK SMILES IDX 21 1 20 2 19 3 18 4 16 5 17 6 8 8 7 9 6 10 3 11 4 12 92 13
REMARK SMILES IDX 5 14 89 15 2 16 1 17 90 18 91 19 9 20 10 21 11 22 15 23
REMARK SMILES IDX 12 24 14 25 13 27 22 28 23 29 24 30 25 32 26 33 27 34 88 35
REMARK SMILES IDX 28 36 87 37 29 38 30 39 31 40 81 41 32 42 86 43 80 44 82 45
REMARK SMILES IDX 33 46 85 47 79 48 78 49 34 51 66 52 46 53 65 54 47 55 50 56
REMARK SMILES IDX 64 57 83 58 48 59 49 60 63 62 84 63 51 64 35 65 36 66 44 67
REMARK SMILES IDX 37 68 39 69 45 70 38 71 40 72 41 73 42 74 43 75 67 76 68 77
REMARK SMILES IDX 76 78 69 79 71 80 77 81 70 82 72 83 73 84 74 85 75 86 52 87
REMARK SMILES IDX 53 88 61 89 54 90 56 91 62 92 55 93 57 94 58 95 59 96 60 97
REMARK H PARENT 18 7 15 26 23 31 82 50 50 61
REMARK Flexibility Score: inf
ROOT
ATOM      1  C   UNL A   1      38.261  19.587  24.784  1.00  0.00     0.023 C 
ENDROOT
BRANCH   1   2
ATOM      2  C   UNL A   1      36.822  20.070  25.035  1.00  0.00     0.023 C 
BRANCH   2   3
ATOM      3  C   UNL A   1      36.461  21.434  24.427  1.00  0.00     0.116 C 
BRANCH   3   4
ATOM      4  N   UNL A   1      36.875  22.560  25.251  1.00  0.00    -0.352 N 
ATOM      5  C   UNL A   1      36.285  23.663  25.801  1.00  0.00     0.258 C 
ATOM      6  O   UNL A   1      37.065  24.386  26.435  1.00  0.00    -0.269 OA
ATOM      7  H   UNL A   1      37.834  22.515  25.472  1.00  0.00     0.163 HD
BRANCH   5   8
ATOM      8  C   UNL A   1      34.832  24.105  25.607  1.00  0.00     0.081 C 
ATOM      9  C   UNL A   1      34.645  24.908  24.525  1.00  0.00     0.033 C 
BRANCH   9  10
ATOM     10  C   UNL A   1      33.389  25.387  23.897  1.00  0.00     0.018 A 
ATOM     11  C   UNL A   1      31.343  26.797  22.626  1.00  0.00     0.122 A 
ATOM     12  C   UNL A   1      31.568  26.985  23.981  1.00  0.00     0.047 A 
ATOM     13  C   UNL A   1      32.010  25.784  21.935  1.00  0.00     0.093 A 
ATOM     14  C   UNL A   1      32.550  26.241  24.626  1.00  0.00     0.016 A 
ATOM     15  C   UNL A   1      33.015  25.046  22.579  1.00  0.00     0.129 A 
BRANCH  11  16
ATOM     16  O   UNL A   1      30.609  27.763  21.995  1.00  0.00    -0.497 OA
ATOM     17  C   UNL A   1      29.498  28.216  22.750  1.00  0.00     0.278 C 
ENDBRANCH  11  16
BRANCH  15  18
ATOM     18  O   UNL A   1      33.714  24.043  21.952  1.00  0.00    -0.496 OA
ATOM     19  C   UNL A   1      32.947  22.910  21.546  1.00  0.00     0.278 C 
ENDBRANCH  15  18
ENDBRANCH   9  10
BRANCH   8  20
ATOM     20  S   UNL A   1      33.621  23.378  26.611  1.00  0.00    -0.045 SA
BRANCH  20  21
ATOM     21  C   UNL A   1      33.150  21.908  25.862  1.00  0.00     0.188 A 
ATOM     22  N   UNL A   1      32.671  21.622  24.679  1.00  0.00    -0.206 NA
ATOM     23  N   UNL A   1      33.361  20.754  26.554  1.00  0.00    -0.254 N 
ATOM     24  C   UNL A   1      32.707  20.245  24.660  1.00  0.00     0.148 A 
ATOM     25  N   UNL A   1      33.104  19.670  25.806  1.00  0.00    -0.158 NA
ATOM     26  H   UNL A   1      33.665  20.719  27.489  1.00  0.00     0.192 HD
ATOM     27  C   UNL A   1      32.422  19.456  23.445  1.00  0.00     0.092 C 
ENDBRANCH  20  21
ENDBRANCH   8  20
ENDBRANCH   5   8
ENDBRANCH   3   4
ENDBRANCH   2   3
ENDBRANCH   1   2
BRANCH   1  28
ATOM     28  C   UNL A   1      39.284  19.982  25.847  1.00  0.00     0.116 C 
BRANCH  28  29
ATOM     29  N   UNL A   1      40.421  19.055  25.942  1.00  0.00    -0.352 N 
ATOM     30  C   UNL A   1      41.764  19.375  26.035  1.00  0.00     0.251 C 
ATOM     31  H   UNL A   1      40.203  18.096  25.939  1.00  0.00     0.163 HD
ATOM     32  O   UNL A   1      42.636  18.565  25.710  1.00  0.00    -0.269 OA
BRANCH  30  33
ATOM     33  C   UNL A   1      42.134  20.694  26.567  1.00  0.00     0.039 A 
ATOM     34  C   UNL A   1      42.544  21.756  25.755  1.00  0.00     0.014 A 
ATOM     35  C   UNL A   1      41.999  20.853  27.942  1.00  0.00     0.014 A 
ATOM     36  C   UNL A   1      42.741  23.005  26.343  1.00  0.00     0.010 A 
ATOM     37  C   UNL A   1      41.996  22.108  28.476  1.00  0.00     0.010 A 
ATOM     38  C   UNL A   1      42.449  23.170  27.705  1.00  0.00    -0.014 A 
BRANCH  38  39
ATOM     39  C   UNL A   1      42.500  24.472  28.356  1.00  0.00     0.031 A 
ATOM     40  C   UNL A   1      41.296  25.311  28.121  1.00  0.00     0.074 A 
ATOM     41  C   UNL A   1      43.434  24.749  29.296  1.00  0.00     0.049 A 
ATOM     42  N   UNL A   1      41.214  26.383  27.403  1.00  0.00    -0.248 NA
ATOM     43  C   UNL A   1      39.990  24.807  28.577  1.00  0.00     0.031 C 
ATOM     44  C   UNL A   1      44.454  23.843  29.849  1.00  0.00     0.029 A 
ATOM     45  N   UNL A   1      43.567  25.849  30.081  1.00  0.00    -0.354 N 
ATOM     46  C   UNL A   1      39.903  26.834  27.555  1.00  0.00     0.074 A 
ATOM     47  C   UNL A   1      39.159  25.708  28.048  1.00  0.00     0.031 C 
ATOM     48  C   UNL A   1      44.892  24.325  31.033  1.00  0.00     0.029 A 
ATOM     49  C   UNL A   1      44.325  25.643  31.233  1.00  0.00     0.049 A 
ATOM     50  H   UNL A   1      43.162  26.719  29.856  1.00  0.00     0.167 HD
ATOM     51  C   UNL A   1      39.619  28.168  27.551  1.00  0.00     0.034 A 
ATOM     52  C   UNL A   1      44.429  26.474  32.300  1.00  0.00     0.034 A 
ATOM     53  C   UNL A   1      40.763  28.924  27.093  1.00  0.00     0.049 A 
ATOM     54  C   UNL A   1      44.000  27.816  31.847  1.00  0.00     0.074 A 
ATOM     55  C   UNL A   1      41.526  28.959  25.944  1.00  0.00     0.029 A 
ATOM     56  N   UNL A   1      41.516  29.526  28.073  1.00  0.00    -0.354 N 
ATOM     57  N   UNL A   1      44.648  28.503  30.948  1.00  0.00    -0.248 NA
ATOM     58  C   UNL A   1      42.604  28.177  32.029  1.00  0.00     0.031 C 
ATOM     59  C   UNL A   1      42.863  29.153  26.402  1.00  0.00     0.029 A 
ATOM     60  C   UNL A   1      42.835  29.311  27.789  1.00  0.00     0.049 A 
ATOM     61  H   UNL A   1      41.167  30.027  28.845  1.00  0.00     0.167 HD
ATOM     62  C   UNL A   1      43.649  29.021  30.133  1.00  0.00     0.074 A 
ATOM     63  C   UNL A   1      42.417  28.884  30.911  1.00  0.00     0.031 C 
ATOM     64  C   UNL A   1      43.865  29.218  28.800  1.00  0.00     0.034 A 
BRANCH  51  65
ATOM     65  C   UNL A   1      38.525  28.859  28.350  1.00  0.00     0.023 A 
ATOM     66  C   UNL A   1      37.758  29.826  27.654  1.00  0.00     0.012 A 
ATOM     67  C   UNL A   1      38.404  28.853  29.757  1.00  0.00     0.148 A 
ATOM     68  C   UNL A   1      37.016  30.805  28.321  1.00  0.00     0.002 A 
ATOM     69  C   UNL A   1      37.613  29.790  30.416  1.00  0.00     0.091 A 
ATOM     70  F   UNL A   1      39.130  28.017  30.497  1.00  0.00    -0.205 F 
ATOM     71  C   UNL A   1      36.949  30.793  29.706  1.00  0.00     0.022 A 
BRANCH  69  72
ATOM     72  S   UNL A   1      37.458  29.808  32.209  1.00  0.00     0.127 S 
ATOM     73  O   UNL A   1      37.343  28.383  32.503  1.00  0.00    -0.237 OA
ATOM     74  O   UNL A   1      38.723  30.426  32.608  1.00  0.00    -0.237 OA
ATOM     75  O   UNL A   1      36.280  30.616  32.497  1.00  0.00    -0.744 OA
ENDBRANCH  69  72
ENDBRANCH  51  65
BRANCH  52  76
ATOM     76  C   UNL A   1      44.590  26.140  33.735  1.00  0.00     0.023 A 
ATOM     77  C   UNL A   1      45.867  26.151  34.332  1.00  0.00     0.012 A 
ATOM     78  C   UNL A   1      43.462  26.079  34.583  1.00  0.00     0.148 A 
ATOM     79  C   UNL A   1      46.012  26.122  35.725  1.00  0.00     0.002 A 
ATOM     80  C   UNL A   1      43.611  26.041  35.966  1.00  0.00     0.091 A 
ATOM     81  F   UNL A   1      42.242  26.151  34.033  1.00  0.00    -0.205 F 
ATOM     82  C   UNL A   1      44.886  26.073  36.543  1.00  0.00     0.022 A 
BRANCH  80  83
ATOM     83  S   UNL A   1      42.201  26.002  37.081  1.00  0.00     0.127 S 
ATOM     84  O   UNL A   1      41.663  24.664  36.834  1.00  0.00    -0.237 OA
ATOM     85  O   UNL A   1      42.842  26.175  38.382  1.00  0.00    -0.237 OA
ATOM     86  O   UNL A   1      41.332  27.092  36.653  1.00  0.00    -0.744 OA
ENDBRANCH  80  83
ENDBRANCH  52  76
BRANCH  64  87
ATOM     87  C   UNL A   1      45.277  29.109  28.283  1.00  0.00     0.023 A 
ATOM     88  C   UNL A   1      45.810  27.914  27.754  1.00  0.00     0.012 A 
ATOM     89  C   UNL A   1      46.003  30.301  28.137  1.00  0.00     0.148 A 
ATOM     90  C   UNL A   1      47.045  27.911  27.099  1.00  0.00     0.002 A 
ATOM     91  C   UNL A   1      47.203  30.304  27.442  1.00  0.00     0.091 A 
ATOM     92  F   UNL A   1      45.476  31.426  28.644  1.00  0.00    -0.205 F 
ATOM     93  C   UNL A   1      47.734  29.110  26.928  1.00  0.00     0.022 A 
BRANCH  91  94
ATOM     94  S   UNL A   1      48.060  31.834  27.069  1.00  0.00     0.127 S 
ATOM     95  O   UNL A   1      47.150  32.469  26.118  1.00  0.00    -0.237 OA
ATOM     96  O   UNL A   1      48.127  32.483  28.379  1.00  0.00    -0.237 OA
ATOM     97  O   UNL A   1      49.358  31.448  26.530  1.00  0.00    -0.744 OA
ENDBRANCH  91  94
ENDBRANCH  64  87
ENDBRANCH  38  39
ENDBRANCH  30  33
ENDBRANCH  28  29
ENDBRANCH   1  28
TORSDOF 19
ENDMDL
MODEL 3
REMARK VINA RESULT:     -11.6      1.443      2.067
REMARK SMILES COc1ccc(/C=C(\Sc2nc(C)n[nH]2)C(=O)NCCCCNC(=O)c2ccc(-c3c4nc(c(-c5cccc(S(=O)(=O)[O-])c5F)c5ccc([nH]5)c(-c5cccc(S(=O)(=O)[O-])c5F)c5nc(c(-c6cccc(S(=O)(=O)[O-])c6F)c6ccc3[nH]6)C=C5)C=C4)cc2)c(OC)c1
REMARK SMILES IDX 21 1 20 2 19 3 18 4 16 5 17 6 8 8 7 9 6 10 3 11 4 12 92 13
REMARK SMILES IDX 5 14 89 15 2 16 1 17 90 18 91 19 9 20 10 21 11 22 15 23
REMARK SMILES IDX 12 24 14 25 13 27 22 28 23 29 24 30 25 32 26 33 27 34 88 35
REMARK SMILES IDX 28 36 87 37 29 38 30 39 31 40 81 41 32 42 86 43 80 44 82 45
REMARK SMILES IDX 33 46 85 47 79 48 78 49 34 51 66 52 46 53 65 54 47 55 50 56
REMARK SMILES IDX 64 57 83 58 48 59 49 60 63 62 84 63 51 64 35 65 36 66 44 67
REMARK SMILES IDX 37 68 39 69 45 70 38 71 40 72 41 73 42 74 43 75 67 76 68 77
REMARK SMILES IDX 76 78 69 79 71 80 77 81 70 82 72 83 73 84 74 85 75 86 52 87
REMARK SMILES IDX 53 88 61 89 54 90 56 91 62 92 55 93 57 94 58 95 59 96 60 97
REMARK H PARENT 18 7 15 26 23 31 82 50 50 61
REMARK Flexibility Score: inf
ROOT
ATOM      1  C   UNL A   1      31.235  31.899  26.665  1.00  0.00     0.023 C 
ENDROOT
BRANCH   1   2
ATOM      2  C   UNL A   1      31.443  30.761  25.651  1.00  0.00     0.023 C 
BRANCH   2   3
ATOM      3  C   UNL A   1      32.733  29.944  25.820  1.00  0.00     0.116 C 
BRANCH   3   4
ATOM      4  N   UNL A   1      33.337  29.551  24.555  1.00  0.00    -0.352 N 
ATOM      5  C   UNL A   1      33.697  28.384  23.943  1.00  0.00     0.258 C 
ATOM      6  O   UNL A   1      34.218  28.540  22.831  1.00  0.00    -0.269 OA
ATOM      7  H   UNL A   1      33.537  30.333  23.990  1.00  0.00     0.163 HD
BRANCH   5   8
ATOM      8  C   UNL A   1      33.612  26.980  24.548  1.00  0.00     0.081 C 
ATOM      9  C   UNL A   1      34.102  26.005  23.736  1.00  0.00     0.033 C 
BRANCH   9  10
ATOM     10  C   UNL A   1      34.368  24.572  24.018  1.00  0.00     0.018 A 
ATOM     11  C   UNL A   1      34.556  21.989  25.056  1.00  0.00     0.122 A 
ATOM     12  C   UNL A   1      35.446  22.965  25.477  1.00  0.00     0.047 A 
ATOM     13  C   UNL A   1      33.685  22.239  23.995  1.00  0.00     0.093 A 
ATOM     14  C   UNL A   1      35.388  24.236  24.918  1.00  0.00     0.016 A 
ATOM     15  C   UNL A   1      33.612  23.528  23.443  1.00  0.00     0.129 A 
BRANCH  11  16
ATOM     16  O   UNL A   1      34.450  20.883  25.854  1.00  0.00    -0.497 OA
ATOM     17  C   UNL A   1      33.268  20.133  25.631  1.00  0.00     0.278 C 
ENDBRANCH  11  16
BRANCH  15  18
ATOM     18  O   UNL A   1      32.771  23.840  22.403  1.00  0.00    -0.496 OA
ATOM     19  C   UNL A   1      33.135  23.314  21.127  1.00  0.00     0.278 C 
ENDBRANCH  15  18
ENDBRANCH   9  10
BRANCH   8  20
ATOM     20  S   UNL A   1      33.133  26.838  26.207  1.00  0.00    -0.045 SA
BRANCH  20  21
ATOM     21  C   UNL A   1      31.846  25.705  26.274  1.00  0.00     0.188 A 
ATOM     22  N   UNL A   1      31.808  24.401  26.372  1.00  0.00    -0.206 NA
ATOM     23  N   UNL A   1      30.577  26.197  26.315  1.00  0.00    -0.254 N 
ATOM     24  C   UNL A   1      30.470  24.149  26.580  1.00  0.00     0.148 A 
ATOM     25  N   UNL A   1      29.673  25.228  26.527  1.00  0.00    -0.158 NA
ATOM     26  H   UNL A   1      30.349  27.148  26.202  1.00  0.00     0.192 HD
ATOM     27  C   UNL A   1      29.954  22.809  26.927  1.00  0.00     0.092 C 
ENDBRANCH  20  21
ENDBRANCH   8  20
ENDBRANCH   5   8
ENDBRANCH   3   4
ENDBRANCH   2   3
ENDBRANCH   1   2
BRANCH   1  28
ATOM     28  C   UNL A   1      32.510  32.490  27.264  1.00  0.00     0.116 C 
BRANCH  28  29
ATOM     29  N   UNL A   1      32.394  33.914  27.608  1.00  0.00    -0.352 N 
ATOM     30  C   UNL A   1      33.066  34.599  28.605  1.00  0.00     0.251 C 
ATOM     31  H   UNL A   1      31.766  34.443  27.065  1.00  0.00     0.163 HD
ATOM     32  O   UNL A   1      32.619  35.653  29.066  1.00  0.00    -0.269 OA
BRANCH  30  33
ATOM     33  C   UNL A   1      34.348  34.062  29.080  1.00  0.00     0.039 A 
ATOM     34  C   UNL A   1      34.464  33.266  30.224  1.00  0.00     0.014 A 
ATOM     35  C   UNL A   1      35.456  34.345  28.289  1.00  0.00     0.014 A 
ATOM     36  C   UNL A   1      35.701  32.693  30.514  1.00  0.00     0.010 A 
ATOM     37  C   UNL A   1      36.604  33.628  28.460  1.00  0.00     0.010 A 
ATOM     38  C   UNL A   1      36.762  32.872  29.613  1.00  0.00    -0.014 A 
BRANCH  38  39
ATOM     39  C   UNL A   1      38.041  32.196  29.778  1.00  0.00     0.031 A 
ATOM     40  C   UNL A   1      38.080  30.829  29.197  1.00  0.00     0.074 A 
ATOM     41  C   UNL A   1      39.144  32.872  30.176  1.00  0.00     0.049 A 
ATOM     42  N   UNL A   1      38.125  29.706  29.835  1.00  0.00    -0.248 NA
ATOM     43  C   UNL A   1      37.851  30.674  27.751  1.00  0.00     0.031 C 
ATOM     44  C   UNL A   1      39.275  34.316  30.432  1.00  0.00     0.029 A 
ATOM     45  N   UNL A   1      40.429  32.442  30.275  1.00  0.00    -0.354 N 
ATOM     46  C   UNL A   1      38.216  28.721  28.852  1.00  0.00     0.074 A 
ATOM     47  C   UNL A   1      37.779  29.346  27.634  1.00  0.00     0.031 C 
ATOM     48  C   UNL A   1      40.578  34.668  30.379  1.00  0.00     0.029 A 
ATOM     49  C   UNL A   1      41.377  33.465  30.266  1.00  0.00     0.049 A 
ATOM     50  H   UNL A   1      40.671  31.490  30.346  1.00  0.00     0.167 HD
ATOM     51  C   UNL A   1      38.927  27.579  29.071  1.00  0.00     0.034 A 
ATOM     52  C   UNL A   1      42.719  33.331  30.115  1.00  0.00     0.034 A 
ATOM     53  C   UNL A   1      39.265  27.458  30.471  1.00  0.00     0.049 A 
ATOM     54  C   UNL A   1      43.053  31.925  30.436  1.00  0.00     0.074 A 
ATOM     55  C   UNL A   1      38.558  27.388  31.654  1.00  0.00     0.029 A 
ATOM     56  N   UNL A   1      40.549  27.810  30.813  1.00  0.00    -0.354 N 
ATOM     57  N   UNL A   1      42.895  31.410  31.624  1.00  0.00    -0.248 NA
ATOM     58  C   UNL A   1      43.095  30.974  29.339  1.00  0.00     0.031 C 
ATOM     59  C   UNL A   1      39.325  28.152  32.582  1.00  0.00     0.029 A 
ATOM     60  C   UNL A   1      40.495  28.572  31.945  1.00  0.00     0.049 A 
ATOM     61  H   UNL A   1      41.367  27.558  30.325  1.00  0.00     0.167 HD
ATOM     62  C   UNL A   1      42.339  30.161  31.380  1.00  0.00     0.074 A 
ATOM     63  C   UNL A   1      42.592  29.904  29.962  1.00  0.00     0.031 C 
ATOM     64  C   UNL A   1      41.460  29.603  32.262  1.00  0.00     0.034 A 
BRANCH  51  65
ATOM     65  C   UNL A   1      39.712  26.791  28.032  1.00  0.00     0.023 A 
ATOM     66  C   UNL A   1      39.576  25.382  28.082  1.00  0.00     0.012 A 
ATOM     67  C   UNL A   1      40.770  27.295  27.243  1.00  0.00     0.148 A 
ATOM     68  C   UNL A   1      40.507  24.526  27.487  1.00  0.00     0.002 A 
ATOM     69  C   UNL A   1      41.660  26.439  26.599  1.00  0.00     0.091 A 
ATOM     70  F   UNL A   1      41.008  28.604  27.184  1.00  0.00    -0.205 F 
ATOM     71  C   UNL A   1      41.557  25.055  26.751  1.00  0.00     0.022 A 
BRANCH  69  72
ATOM     72  S   UNL A   1      43.022  27.062  25.603  1.00  0.00     0.127 S 
ATOM     73  O   UNL A   1      42.318  27.917  24.653  1.00  0.00    -0.237 OA
ATOM     74  O   UNL A   1      43.820  27.769  26.605  1.00  0.00    -0.237 OA
ATOM     75  O   UNL A   1      43.673  25.885  25.041  1.00  0.00    -0.744 OA
ENDBRANCH  69  72
ENDBRANCH  51  65
BRANCH  52  76
ATOM     76  C   UNL A   1      43.681  34.237  29.444  1.00  0.00     0.023 A 
ATOM     77  C   UNL A   1      44.435  35.162  30.195  1.00  0.00     0.012 A 
ATOM     78  C   UNL A   1      44.060  34.005  28.103  1.00  0.00     0.148 A 
ATOM     79  C   UNL A   1      45.539  35.817  29.634  1.00  0.00     0.002 A 
ATOM     80  C   UNL A   1      45.152  34.665  27.547  1.00  0.00     0.091 A 
ATOM     81  F   UNL A   1      43.404  33.068  27.404  1.00  0.00    -0.205 F 
ATOM     82  C   UNL A   1      45.902  35.566  28.313  1.00  0.00     0.022 A 
BRANCH  80  83
ATOM     83  S   UNL A   1      45.691  34.370  25.858  1.00  0.00     0.127 S 
ATOM     84  O   UNL A   1      44.446  34.559  25.111  1.00  0.00    -0.237 OA
ATOM     85  O   UNL A   1      46.684  35.424  25.671  1.00  0.00    -0.237 OA
ATOM     86  O   UNL A   1      46.204  33.006  25.841  1.00  0.00    -0.744 OA
ENDBRANCH  80  83
ENDBRANCH  52  76
BRANCH  64  87
ATOM     87  C   UNL A   1      41.307  30.243  33.618  1.00  0.00     0.023 A 
ATOM     88  C   UNL A   1      42.259  30.092  34.649  1.00  0.00     0.012 A 
ATOM     89  C   UNL A   1      40.282  31.188  33.772  1.00  0.00     0.148 A 
ATOM     90  C   UNL A   1      42.183  30.866  35.811  1.00  0.00     0.002 A 
ATOM     91  C   UNL A   1      40.238  31.990  34.903  1.00  0.00     0.091 A 
ATOM     92  F   UNL A   1      39.389  31.318  32.779  1.00  0.00    -0.205 F 
ATOM     93  C   UNL A   1      41.182  31.827  35.931  1.00  0.00     0.022 A 
BRANCH  91  94
ATOM     94  S   UNL A   1      39.062  33.336  35.048  1.00  0.00     0.127 S 
ATOM     95  O   UNL A   1      39.331  34.106  33.836  1.00  0.00    -0.237 OA
ATOM     96  O   UNL A   1      37.779  32.630  35.054  1.00  0.00    -0.237 OA
ATOM     97  O   UNL A   1      39.374  34.011  36.301  1.00  0.00    -0.744 OA
ENDBRANCH  91  94
ENDBRANCH  64  87
ENDBRANCH  38  39
ENDBRANCH  30  33
ENDBRANCH  28  29
ENDBRANCH   1  28
TORSDOF 19
ENDMDL
