MODEL 1
REMARK VINA RESULT:     -11.5      0.000      0.000
REMARK SMILES Cc1cc(C)n2ncc(C(=O)N(C)CCCC(=O)NCCCCNC(=O)c3ccc(-c4c5nc(c(-c6cccc(S(=O)(=O)[O-])c6F)c6ccc([nH]6)c(-c6cccc(S(=O)(=O)[O-])c6F)c6nc(c(-c7cccc(S(=O)(=O)[O-])c7F)c7ccc4[nH]7)C=C6)C=C5)cc3)c2n1
REMARK SMILES IDX 20 1 19 2 17 3 18 4 16 6 15 7 14 8 12 9 13 10 10 11 11 12
REMARK SMILES IDX 9 13 1 14 2 15 3 16 91 17 4 18 90 19 5 20 6 21 7 22 8 23
REMARK SMILES IDX 21 24 22 25 23 26 24 27 25 28 26 30 27 31 28 32 89 33 29 34
REMARK SMILES IDX 88 35 30 36 31 37 32 38 82 39 33 40 87 41 81 42 83 43 34 44
REMARK SMILES IDX 86 45 80 46 79 47 35 49 67 50 47 51 66 52 48 53 51 54 65 55
REMARK SMILES IDX 84 56 49 57 50 58 64 60 85 61 52 62 36 63 37 64 45 65 38 66
REMARK SMILES IDX 40 67 46 68 39 69 41 70 42 71 43 72 44 73 68 74 69 75 77 76
REMARK SMILES IDX 70 77 72 78 78 79 71 80 73 81 74 82 75 83 76 84 53 85 54 86
REMARK SMILES IDX 62 87 55 88 57 89 63 90 56 91 58 92 59 93 60 94 61 95
REMARK H PARENT 19 5 24 29 83 48 51 59
REMARK Flexibility Score: inf
ROOT
ATOM      1  C   UNL A   1      32.723  29.011  23.873  1.00  0.00     0.116 C 
ENDROOT
BRANCH   1   2
ATOM      2  N   UNL A   1      31.412  29.621  23.945  1.00  0.00    -0.356 N 
ATOM      3  C   UNL A   1      30.226  29.184  23.436  1.00  0.00     0.220 C 
ATOM      4  O   UNL A   1      29.299  29.992  23.343  1.00  0.00    -0.275 OA
ATOM      5  H   UNL A   1      31.370  30.475  24.433  1.00  0.00     0.163 HD
BRANCH   3   6
ATOM      6  C   UNL A   1      30.037  27.726  23.053  1.00  0.00     0.102 C 
BRANCH   6   7
ATOM      7  C   UNL A   1      29.480  26.758  24.102  1.00  0.00     0.031 C 
BRANCH   7   8
ATOM      8  C   UNL A   1      30.385  26.150  25.184  1.00  0.00     0.120 C 
BRANCH   8   9
ATOM      9  N   UNL A   1      31.071  24.846  25.079  1.00  0.00    -0.342 N 
ATOM     10  C   UNL A   1      30.721  24.114  23.866  1.00  0.00     0.147 C 
BRANCH   9  11
ATOM     11  C   UNL A   1      31.852  24.317  26.124  1.00  0.00     0.259 C 
ATOM     12  O   UNL A   1      31.352  24.146  27.234  1.00  0.00    -0.269 OA
BRANCH  11  13
ATOM     13  C   UNL A   1      33.251  23.929  25.918  1.00  0.00     0.104 A 
ATOM     14  C   UNL A   1      32.898  19.056  25.391  1.00  0.00     0.067 C 
ATOM     15  C   UNL A   1      33.616  20.371  25.368  1.00  0.00     0.042 A 
ATOM     16  C   UNL A   1      35.038  20.338  24.907  1.00  0.00     0.047 A 
ATOM     17  N   UNL A   1      32.988  21.439  25.766  1.00  0.00    -0.233 NA
ATOM     18  C   UNL A   1      35.700  21.507  24.932  1.00  0.00     0.043 A 
ATOM     19  C   UNL A   1      33.673  22.619  25.720  1.00  0.00     0.168 A 
ATOM     20  C   UNL A   1      37.123  21.621  24.480  1.00  0.00     0.067 C 
ATOM     21  N   UNL A   1      35.025  22.665  25.356  1.00  0.00    -0.219 N 
ATOM     22  N   UNL A   1      35.506  23.935  25.433  1.00  0.00    -0.174 NA
ATOM     23  C   UNL A   1      34.431  24.673  25.719  1.00  0.00     0.151 A 
ENDBRANCH  11  13
ENDBRANCH   9  11
ENDBRANCH   8   9
ENDBRANCH   7   8
ENDBRANCH   6   7
ENDBRANCH   3   6
ENDBRANCH   1   2
BRANCH   1  24
ATOM     24  C   UNL A   1      33.236  28.738  25.296  1.00  0.00     0.023 C 
BRANCH  24  25
ATOM     25  C   UNL A   1      32.362  29.306  26.420  1.00  0.00     0.023 C 
BRANCH  25  26
ATOM     26  C   UNL A   1      33.080  30.359  27.250  1.00  0.00     0.116 C 
BRANCH  26  27
ATOM     27  N   UNL A   1      32.523  31.705  27.068  1.00  0.00    -0.352 N 
ATOM     28  C   UNL A   1      32.899  32.868  27.728  1.00  0.00     0.251 C 
ATOM     29  H   UNL A   1      31.803  31.793  26.403  1.00  0.00     0.163 HD
ATOM     30  O   UNL A   1      32.210  33.856  27.736  1.00  0.00    -0.269 OA
BRANCH  28  31
ATOM     31  C   UNL A   1      34.207  32.834  28.413  1.00  0.00     0.039 A 
ATOM     32  C   UNL A   1      34.356  32.252  29.676  1.00  0.00     0.014 A 
ATOM     33  C   UNL A   1      35.302  33.267  27.675  1.00  0.00     0.014 A 
ATOM     34  C   UNL A   1      35.644  32.023  30.162  1.00  0.00     0.010 A 
ATOM     35  C   UNL A   1      36.556  32.895  28.085  1.00  0.00     0.010 A 
ATOM     36  C   UNL A   1      36.744  32.329  29.352  1.00  0.00    -0.014 A 
BRANCH  36  37
ATOM     37  C   UNL A   1      38.121  32.050  29.763  1.00  0.00     0.031 A 
ATOM     38  C   UNL A   1      38.673  30.677  29.509  1.00  0.00     0.074 A 
ATOM     39  C   UNL A   1      38.951  33.087  30.022  1.00  0.00     0.049 A 
ATOM     40  N   UNL A   1      39.338  29.909  30.316  1.00  0.00    -0.248 NA
ATOM     41  C   UNL A   1      38.440  30.075  28.186  1.00  0.00     0.031 C 
ATOM     42  C   UNL A   1      38.655  34.529  29.930  1.00  0.00     0.029 A 
ATOM     43  N   UNL A   1      40.297  33.073  30.203  1.00  0.00    -0.354 N 
ATOM     44  C   UNL A   1      39.740  28.796  29.565  1.00  0.00     0.074 A 
ATOM     45  C   UNL A   1      39.071  28.905  28.294  1.00  0.00     0.031 C 
ATOM     46  C   UNL A   1      39.805  35.209  29.735  1.00  0.00     0.029 A 
ATOM     47  C   UNL A   1      40.907  34.290  29.924  1.00  0.00     0.049 A 
ATOM     48  H   UNL A   1      40.792  32.278  30.506  1.00  0.00     0.167 HD
ATOM     49  C   UNL A   1      40.704  27.921  29.975  1.00  0.00     0.034 A 
ATOM     50  C   UNL A   1      42.234  34.513  29.808  1.00  0.00     0.034 A 
ATOM     51  C   UNL A   1      41.025  28.082  31.364  1.00  0.00     0.049 A 
ATOM     52  C   UNL A   1      42.934  33.375  30.437  1.00  0.00     0.074 A 
ATOM     53  C   UNL A   1      40.349  27.910  32.554  1.00  0.00     0.029 A 
ATOM     54  N   UNL A   1      42.145  28.811  31.676  1.00  0.00    -0.354 N 
ATOM     55  N   UNL A   1      42.872  33.102  31.710  1.00  0.00    -0.248 NA
ATOM     56  C   UNL A   1      43.397  32.300  29.579  1.00  0.00     0.031 C 
ATOM     57  C   UNL A   1      40.827  28.955  33.399  1.00  0.00     0.029 A 
ATOM     58  C   UNL A   1      41.787  29.673  32.681  1.00  0.00     0.049 A 
ATOM     59  H   UNL A   1      43.033  28.732  31.259  1.00  0.00     0.167 HD
ATOM     60  C   UNL A   1      42.877  31.716  31.767  1.00  0.00     0.074 A 
ATOM     61  C   UNL A   1      43.328  31.286  30.444  1.00  0.00     0.031 C 
ATOM     62  C   UNL A   1      42.245  31.044  32.777  1.00  0.00     0.034 A 
BRANCH  49  63
ATOM     63  C   UNL A   1      41.533  27.028  29.080  1.00  0.00     0.023 A 
ATOM     64  C   UNL A   1      42.760  27.526  28.582  1.00  0.00     0.012 A 
ATOM     65  C   UNL A   1      41.073  25.810  28.535  1.00  0.00     0.148 A 
ATOM     66  C   UNL A   1      43.489  26.848  27.597  1.00  0.00     0.002 A 
ATOM     67  C   UNL A   1      41.843  25.095  27.621  1.00  0.00     0.091 A 
ATOM     68  F   UNL A   1      39.831  25.393  28.809  1.00  0.00    -0.205 F 
ATOM     69  C   UNL A   1      43.040  25.620  27.128  1.00  0.00     0.022 A 
BRANCH  67  70
ATOM     70  S   UNL A   1      41.357  23.456  27.065  1.00  0.00     0.127 S 
ATOM     71  O   UNL A   1      41.372  22.702  28.313  1.00  0.00    -0.237 OA
ATOM     72  O   UNL A   1      40.025  23.706  26.510  1.00  0.00    -0.237 OA
ATOM     73  O   UNL A   1      42.354  23.088  26.066  1.00  0.00    -0.744 OA
ENDBRANCH  67  70
ENDBRANCH  49  63
BRANCH  50  74
ATOM     74  C   UNL A   1      42.945  35.463  28.936  1.00  0.00     0.023 A 
ATOM     75  C   UNL A   1      42.827  35.351  27.542  1.00  0.00     0.012 A 
ATOM     76  C   UNL A   1      43.464  36.654  29.489  1.00  0.00     0.148 A 
ATOM     77  C   UNL A   1      43.198  36.412  26.711  1.00  0.00     0.002 A 
ATOM     78  C   UNL A   1      43.789  37.721  28.658  1.00  0.00     0.091 A 
ATOM     79  F   UNL A   1      43.553  36.753  30.822  1.00  0.00    -0.205 F 
ATOM     80  C   UNL A   1      43.663  37.601  27.268  1.00  0.00     0.022 A 
BRANCH  78  81
ATOM     81  S   UNL A   1      44.271  39.337  29.286  1.00  0.00     0.127 S 
ATOM     82  O   UNL A   1      44.583  40.049  28.046  1.00  0.00    -0.237 OA
ATOM     83  O   UNL A   1      43.046  39.771  29.952  1.00  0.00    -0.237 OA
ATOM     84  O   UNL A   1      45.413  39.093  30.155  1.00  0.00    -0.744 OA
ENDBRANCH  78  81
ENDBRANCH  50  74
BRANCH  62  85
ATOM     85  C   UNL A   1      41.695  31.848  33.938  1.00  0.00     0.023 A 
ATOM     86  C   UNL A   1      42.540  32.369  34.942  1.00  0.00     0.012 A 
ATOM     87  C   UNL A   1      40.355  32.266  33.911  1.00  0.00     0.148 A 
ATOM     88  C   UNL A   1      42.063  33.267  35.902  1.00  0.00     0.002 A 
ATOM     89  C   UNL A   1      39.894  33.198  34.837  1.00  0.00     0.091 A 
ATOM     90  F   UNL A   1      39.554  31.775  32.952  1.00  0.00    -0.205 F 
ATOM     91  C   UNL A   1      40.741  33.695  35.839  1.00  0.00     0.022 A 
BRANCH  89  92
ATOM     92  S   UNL A   1      38.245  33.899  34.721  1.00  0.00     0.127 S 
ATOM     93  O   UNL A   1      37.554  32.923  33.881  1.00  0.00    -0.237 OA
ATOM     94  O   UNL A   1      37.808  33.918  36.120  1.00  0.00    -0.237 OA
ATOM     95  O   UNL A   1      38.418  35.224  34.139  1.00  0.00    -0.744 OA
ENDBRANCH  89  92
ENDBRANCH  62  85
ENDBRANCH  36  37
ENDBRANCH  28  31
ENDBRANCH  26  27
ENDBRANCH  25  26
ENDBRANCH  24  25
ENDBRANCH   1  24
TORSDOF 19
ENDMDL
MODEL 2
REMARK VINA RESULT:     -11.4      1.370      2.009
REMARK SMILES Cc1cc(C)n2ncc(C(=O)N(C)CCCC(=O)NCCCCNC(=O)c3ccc(-c4c5nc(c(-c6cccc(S(=O)(=O)[O-])c6F)c6ccc([nH]6)c(-c6cccc(S(=O)(=O)[O-])c6F)c6nc(c(-c7cccc(S(=O)(=O)[O-])c7F)c7ccc4[nH]7)C=C6)C=C5)cc3)c2n1
REMARK SMILES IDX 20 1 19 2 17 3 18 4 16 6 15 7 14 8 12 9 13 10 10 11 11 12
REMARK SMILES IDX 9 13 1 14 2 15 3 16 91 17 4 18 90 19 5 20 6 21 7 22 8 23
REMARK SMILES IDX 21 24 22 25 23 26 24 27 25 28 26 30 27 31 28 32 89 33 29 34
REMARK SMILES IDX 88 35 30 36 31 37 32 38 82 39 33 40 87 41 81 42 83 43 34 44
REMARK SMILES IDX 86 45 80 46 79 47 35 49 67 50 47 51 66 52 48 53 51 54 65 55
REMARK SMILES IDX 84 56 49 57 50 58 64 60 85 61 52 62 36 63 37 64 45 65 38 66
REMARK SMILES IDX 40 67 46 68 39 69 41 70 42 71 43 72 44 73 68 74 69 75 77 76
REMARK SMILES IDX 70 77 72 78 78 79 71 80 73 81 74 82 75 83 76 84 53 85 54 86
REMARK SMILES IDX 62 87 55 88 57 89 63 90 56 91 58 92 59 93 60 94 61 95
REMARK H PARENT 19 5 24 29 83 48 51 59
REMARK Flexibility Score: inf
ROOT
ATOM      1  C   UNL A   1      32.340  29.328  24.466  1.00  0.00     0.116 C 
ENDROOT
BRANCH   1   2
ATOM      2  N   UNL A   1      31.494  29.335  23.292  1.00  0.00    -0.356 N 
ATOM      3  C   UNL A   1      30.604  28.397  22.863  1.00  0.00     0.220 C 
ATOM      4  O   UNL A   1      30.217  28.452  21.694  1.00  0.00    -0.275 OA
ATOM      5  H   UNL A   1      31.573  30.131  22.719  1.00  0.00     0.163 HD
BRANCH   3   6
ATOM      6  C   UNL A   1      30.056  27.353  23.821  1.00  0.00     0.102 C 
BRANCH   6   7
ATOM      7  C   UNL A   1      30.546  25.907  23.689  1.00  0.00     0.031 C 
BRANCH   7   8
ATOM      8  C   UNL A   1      31.954  25.498  24.146  1.00  0.00     0.120 C 
BRANCH   8   9
ATOM      9  N   UNL A   1      32.346  25.230  25.545  1.00  0.00    -0.342 N 
ATOM     10  C   UNL A   1      33.276  26.220  26.076  1.00  0.00     0.147 C 
BRANCH   9  11
ATOM     11  C   UNL A   1      31.974  24.052  26.220  1.00  0.00     0.259 C 
ATOM     12  O   UNL A   1      31.400  24.124  27.305  1.00  0.00    -0.269 OA
BRANCH  11  13
ATOM     13  C   UNL A   1      32.223  22.726  25.647  1.00  0.00     0.104 A 
ATOM     14  C   UNL A   1      37.126  22.655  25.319  1.00  0.00     0.067 C 
ATOM     15  C   UNL A   1      35.756  22.051  25.249  1.00  0.00     0.042 A 
ATOM     16  C   UNL A   1      35.695  20.587  24.952  1.00  0.00     0.047 A 
ATOM     17  N   UNL A   1      34.720  22.819  25.419  1.00  0.00    -0.233 NA
ATOM     18  C   UNL A   1      34.468  20.052  24.840  1.00  0.00     0.043 A 
ATOM     19  C   UNL A   1      33.489  22.230  25.358  1.00  0.00     0.168 A 
ATOM     20  C   UNL A   1      34.261  18.596  24.563  1.00  0.00     0.067 C 
ATOM     21  N   UNL A   1      33.344  20.876  25.027  1.00  0.00    -0.219 N 
ATOM     22  N   UNL A   1      32.031  20.527  24.978  1.00  0.00    -0.174 NA
ATOM     23  C   UNL A   1      31.387  21.620  25.394  1.00  0.00     0.151 A 
ENDBRANCH  11  13
ENDBRANCH   9  11
ENDBRANCH   8   9
ENDBRANCH   7   8
ENDBRANCH   6   7
ENDBRANCH   3   6
ENDBRANCH   1   2
BRANCH   1  24
ATOM     24  C   UNL A   1      31.511  29.738  25.694  1.00  0.00     0.023 C 
BRANCH  24  25
ATOM     25  C   UNL A   1      32.230  29.593  27.039  1.00  0.00     0.023 C 
BRANCH  25  26
ATOM     26  C   UNL A   1      33.260  30.685  27.279  1.00  0.00     0.116 C 
BRANCH  26  27
ATOM     27  N   UNL A   1      32.680  32.033  27.241  1.00  0.00    -0.352 N 
ATOM     28  C   UNL A   1      33.060  33.135  27.997  1.00  0.00     0.251 C 
ATOM     29  H   UNL A   1      31.939  32.172  26.609  1.00  0.00     0.163 HD
ATOM     30  O   UNL A   1      32.359  34.106  28.119  1.00  0.00    -0.269 OA
BRANCH  28  31
ATOM     31  C   UNL A   1      34.389  33.057  28.639  1.00  0.00     0.039 A 
ATOM     32  C   UNL A   1      34.576  32.389  29.853  1.00  0.00     0.014 A 
ATOM     33  C   UNL A   1      35.460  33.544  27.900  1.00  0.00     0.014 A 
ATOM     34  C   UNL A   1      35.879  32.131  30.282  1.00  0.00     0.010 A 
ATOM     35  C   UNL A   1      36.726  33.148  28.245  1.00  0.00     0.010 A 
ATOM     36  C   UNL A   1      36.953  32.496  29.463  1.00  0.00    -0.014 A 
BRANCH  36  37
ATOM     37  C   UNL A   1      38.342  32.193  29.812  1.00  0.00     0.031 A 
ATOM     38  C   UNL A   1      38.868  30.821  29.505  1.00  0.00     0.074 A 
ATOM     39  C   UNL A   1      39.194  33.216  30.061  1.00  0.00     0.049 A 
ATOM     40  N   UNL A   1      39.557  30.028  30.266  1.00  0.00    -0.248 NA
ATOM     41  C   UNL A   1      38.576  30.253  28.178  1.00  0.00     0.031 C 
ATOM     42  C   UNL A   1      38.910  34.662  30.014  1.00  0.00     0.029 A 
ATOM     43  N   UNL A   1      40.545  33.184  30.188  1.00  0.00    -0.354 N 
ATOM     44  C   UNL A   1      39.916  28.929  29.474  1.00  0.00     0.074 A 
ATOM     45  C   UNL A   1      39.198  29.074  28.233  1.00  0.00     0.031 C 
ATOM     46  C   UNL A   1      40.059  35.335  29.789  1.00  0.00     0.029 A 
ATOM     47  C   UNL A   1      41.158  34.401  29.912  1.00  0.00     0.049 A 
ATOM     48  H   UNL A   1      41.044  32.377  30.451  1.00  0.00     0.167 HD
ATOM     49  C   UNL A   1      40.886  28.035  29.825  1.00  0.00     0.034 A 
ATOM     50  C   UNL A   1      42.481  34.613  29.748  1.00  0.00     0.034 A 
ATOM     51  C   UNL A   1      41.265  28.160  31.203  1.00  0.00     0.049 A 
ATOM     52  C   UNL A   1      43.193  33.454  30.322  1.00  0.00     0.074 A 
ATOM     53  C   UNL A   1      40.635  27.967  32.415  1.00  0.00     0.029 A 
ATOM     54  N   UNL A   1      42.403  28.870  31.486  1.00  0.00    -0.354 N 
ATOM     55  N   UNL A   1      43.179  33.151  31.589  1.00  0.00    -0.248 NA
ATOM     56  C   UNL A   1      43.609  32.395  29.421  1.00  0.00     0.031 C 
ATOM     57  C   UNL A   1      41.158  28.987  33.264  1.00  0.00     0.029 A 
ATOM     58  C   UNL A   1      42.096  29.712  32.524  1.00  0.00     0.049 A 
ATOM     59  H   UNL A   1      43.273  28.791  31.032  1.00  0.00     0.167 HD
ATOM     60  C   UNL A   1      43.170  31.764  31.614  1.00  0.00     0.074 A 
ATOM     61  C   UNL A   1      43.564  31.361  30.265  1.00  0.00     0.031 C 
ATOM     62  C   UNL A   1      42.573  31.075  32.633  1.00  0.00     0.034 A 
BRANCH  49  63
ATOM     63  C   UNL A   1      41.668  27.155  28.876  1.00  0.00     0.023 A 
ATOM     64  C   UNL A   1      41.924  25.816  29.255  1.00  0.00     0.012 A 
ATOM     65  C   UNL A   1      42.342  27.631  27.731  1.00  0.00     0.148 A 
ATOM     66  C   UNL A   1      42.801  24.996  28.534  1.00  0.00     0.002 A 
ATOM     67  C   UNL A   1      43.144  26.787  26.966  1.00  0.00     0.091 A 
ATOM     68  F   UNL A   1      42.306  28.936  27.440  1.00  0.00    -0.205 F 
ATOM     69  C   UNL A   1      43.398  25.476  27.375  1.00  0.00     0.022 A 
BRANCH  67  70
ATOM     70  S   UNL A   1      43.853  27.328  25.405  1.00  0.00     0.127 S 
ATOM     71  O   UNL A   1      44.782  28.364  25.844  1.00  0.00    -0.237 OA
ATOM     72  O   UNL A   1      44.483  26.100  24.915  1.00  0.00    -0.237 OA
ATOM     73  O   UNL A   1      42.713  27.766  24.609  1.00  0.00    -0.744 OA
ENDBRANCH  67  70
ENDBRANCH  49  63
BRANCH  50  74
ATOM     74  C   UNL A   1      43.167  35.576  28.870  1.00  0.00     0.023 A 
ATOM     75  C   UNL A   1      43.096  35.421  27.477  1.00  0.00     0.012 A 
ATOM     76  C   UNL A   1      43.607  36.807  29.404  1.00  0.00     0.148 A 
ATOM     77  C   UNL A   1      43.436  36.479  26.627  1.00  0.00     0.002 A 
ATOM     78  C   UNL A   1      43.901  37.867  28.553  1.00  0.00     0.091 A 
ATOM     79  F   UNL A   1      43.652  36.945  30.736  1.00  0.00    -0.205 F 
ATOM     80  C   UNL A   1      43.822  37.704  27.164  1.00  0.00     0.022 A 
BRANCH  78  81
ATOM     81  S   UNL A   1      44.279  39.522  29.149  1.00  0.00     0.127 S 
ATOM     82  O   UNL A   1      45.477  39.275  29.951  1.00  0.00    -0.237 OA
ATOM     83  O   UNL A   1      44.513  40.239  27.899  1.00  0.00    -0.237 OA
ATOM     84  O   UNL A   1      43.110  39.939  29.910  1.00  0.00    -0.744 OA
ENDBRANCH  78  81
ENDBRANCH  50  74
BRANCH  62  85
ATOM     85  C   UNL A   1      42.079  31.857  33.833  1.00  0.00     0.023 A 
ATOM     86  C   UNL A   1      42.961  32.293  34.847  1.00  0.00     0.012 A 
ATOM     87  C   UNL A   1      40.761  32.344  33.842  1.00  0.00     0.148 A 
ATOM     88  C   UNL A   1      42.542  33.173  35.849  1.00  0.00     0.002 A 
ATOM     89  C   UNL A   1      40.360  33.259  34.812  1.00  0.00     0.091 A 
ATOM     90  F   UNL A   1      39.925  31.934  32.875  1.00  0.00    -0.205 F 
ATOM     91  C   UNL A   1      41.244  33.670  35.822  1.00  0.00     0.022 A 
BRANCH  89  92
ATOM     92  S   UNL A   1      38.748  34.048  34.748  1.00  0.00     0.127 S 
ATOM     93  O   UNL A   1      38.723  34.797  36.003  1.00  0.00    -0.237 OA
ATOM     94  O   UNL A   1      38.847  34.877  33.544  1.00  0.00    -0.237 OA
ATOM     95  O   UNL A   1      37.781  32.963  34.640  1.00  0.00    -0.744 OA
ENDBRANCH  89  92
ENDBRANCH  62  85
ENDBRANCH  36  37
ENDBRANCH  28  31
ENDBRANCH  26  27
ENDBRANCH  25  26
ENDBRANCH  24  25
ENDBRANCH   1  24
TORSDOF 19
ENDMDL
MODEL 3
REMARK VINA RESULT:     -11.1      3.602      7.736
REMARK SMILES Cc1cc(C)n2ncc(C(=O)N(C)CCCC(=O)NCCCCNC(=O)c3ccc(-c4c5nc(c(-c6cccc(S(=O)(=O)[O-])c6F)c6ccc([nH]6)c(-c6cccc(S(=O)(=O)[O-])c6F)c6nc(c(-c7cccc(S(=O)(=O)[O-])c7F)c7ccc4[nH]7)C=C6)C=C5)cc3)c2n1
REMARK SMILES IDX 20 1 19 2 17 3 18 4 16 6 15 7 14 8 12 9 13 10 10 11 11 12
REMARK SMILES IDX 9 13 1 14 2 15 3 16 91 17 4 18 90 19 5 20 6 21 7 22 8 23
REMARK SMILES IDX 21 24 22 25 23 26 24 27 25 28 26 30 27 31 28 32 89 33 29 34
REMARK SMILES IDX 88 35 30 36 31 37 32 38 82 39 33 40 87 41 81 42 83 43 34 44
REMARK SMILES IDX 86 45 80 46 79 47 35 49 67 50 47 51 66 52 48 53 51 54 65 55
REMARK SMILES IDX 84 56 49 57 50 58 64 60 85 61 52 62 36 63 37 64 45 65 38 66
REMARK SMILES IDX 40 67 46 68 39 69 41 70 42 71 43 72 44 73 68 74 69 75 77 76
REMARK SMILES IDX 70 77 72 78 78 79 71 80 73 81 74 82 75 83 76 84 53 85 54 86
REMARK SMILES IDX 62 87 55 88 57 89 63 90 56 91 58 92 59 93 60 94 61 95
REMARK H PARENT 19 5 24 29 83 48 51 59
REMARK Flexibility Score: inf
ROOT
ATOM      1  C   UNL A   1      32.615  28.778  23.884  1.00  0.00     0.116 C 
ENDROOT
BRANCH   1   2
ATOM      2  N   UNL A   1      31.292  29.365  23.907  1.00  0.00    -0.356 N 
ATOM      3  C   UNL A   1      30.116  28.862  23.439  1.00  0.00     0.220 C 
ATOM      4  O   UNL A   1      29.172  29.640  23.279  1.00  0.00    -0.275 OA
ATOM      5  H   UNL A   1      31.233  30.256  24.320  1.00  0.00     0.163 HD
BRANCH   3   6
ATOM      6  C   UNL A   1      29.956  27.373  23.182  1.00  0.00     0.102 C 
BRANCH   6   7
ATOM      7  C   UNL A   1      29.813  26.432  24.383  1.00  0.00     0.031 C 
BRANCH   7   8
ATOM      8  C   UNL A   1      31.036  25.745  25.007  1.00  0.00     0.120 C 
BRANCH   8   9
ATOM      9  N   UNL A   1      31.594  24.449  24.568  1.00  0.00    -0.342 N 
ATOM     10  C   UNL A   1      31.808  24.380  23.126  1.00  0.00     0.147 C 
BRANCH   9  11
ATOM     11  C   UNL A   1      31.744  23.356  25.443  1.00  0.00     0.259 C 
ATOM     12  O   UNL A   1      31.193  23.373  26.541  1.00  0.00    -0.269 OA
BRANCH  11  13
ATOM     13  C   UNL A   1      32.520  22.170  25.066  1.00  0.00     0.104 A 
ATOM     14  C   UNL A   1      37.138  23.704  25.753  1.00  0.00     0.067 C 
ATOM     15  C   UNL A   1      36.080  22.682  25.465  1.00  0.00     0.042 A 
ATOM     16  C   UNL A   1      36.551  21.272  25.308  1.00  0.00     0.047 A 
ATOM     17  N   UNL A   1      34.845  23.072  25.343  1.00  0.00    -0.233 NA
ATOM     18  C   UNL A   1      35.612  20.361  25.001  1.00  0.00     0.043 A 
ATOM     19  C   UNL A   1      33.908  22.110  25.092  1.00  0.00     0.168 A 
ATOM     20  C   UNL A   1      35.941  18.910  24.833  1.00  0.00     0.067 C 
ATOM     21  N   UNL A   1      34.275  20.775  24.873  1.00  0.00    -0.219 N 
ATOM     22  N   UNL A   1      33.184  20.013  24.592  1.00  0.00    -0.174 NA
ATOM     23  C   UNL A   1      32.153  20.845  24.758  1.00  0.00     0.151 A 
ENDBRANCH  11  13
ENDBRANCH   9  11
ENDBRANCH   8   9
ENDBRANCH   7   8
ENDBRANCH   6   7
ENDBRANCH   3   6
ENDBRANCH   1   2
BRANCH   1  24
ATOM     24  C   UNL A   1      33.453  29.368  25.030  1.00  0.00     0.023 C 
BRANCH  24  25
ATOM     25  C   UNL A   1      33.494  28.520  26.306  1.00  0.00     0.023 C 
BRANCH  25  26
ATOM     26  C   UNL A   1      33.727  29.350  27.558  1.00  0.00     0.116 C 
BRANCH  26  27
ATOM     27  N   UNL A   1      33.954  30.771  27.266  1.00  0.00    -0.352 N 
ATOM     28  C   UNL A   1      35.021  31.556  27.683  1.00  0.00     0.251 C 
ATOM     29  H   UNL A   1      33.273  31.216  26.713  1.00  0.00     0.163 HD
ATOM     30  O   UNL A   1      34.988  32.760  27.650  1.00  0.00    -0.269 OA
BRANCH  28  31
ATOM     31  C   UNL A   1      36.216  30.830  28.161  1.00  0.00     0.039 A 
ATOM     32  C   UNL A   1      36.500  29.530  27.733  1.00  0.00     0.014 A 
ATOM     33  C   UNL A   1      37.116  31.561  28.928  1.00  0.00     0.014 A 
ATOM     34  C   UNL A   1      37.758  28.991  28.013  1.00  0.00     0.010 A 
ATOM     35  C   UNL A   1      38.396  31.089  29.058  1.00  0.00     0.010 A 
ATOM     36  C   UNL A   1      38.711  29.785  28.660  1.00  0.00    -0.014 A 
BRANCH  36  37
ATOM     37  C   UNL A   1      40.073  29.315  28.922  1.00  0.00     0.031 A 
ATOM     38  C   UNL A   1      40.461  29.019  30.342  1.00  0.00     0.074 A 
ATOM     39  C   UNL A   1      40.810  28.833  27.893  1.00  0.00     0.049 A 
ATOM     40  N   UNL A   1      41.534  29.371  30.979  1.00  0.00    -0.248 NA
ATOM     41  C   UNL A   1      39.522  28.237  31.163  1.00  0.00     0.031 C 
ATOM     42  C   UNL A   1      40.409  28.694  26.481  1.00  0.00     0.029 A 
ATOM     43  N   UNL A   1      41.987  28.158  27.935  1.00  0.00    -0.354 N 
ATOM     44  C   UNL A   1      41.484  28.736  32.227  1.00  0.00     0.074 A 
ATOM     45  C   UNL A   1      40.176  28.138  32.321  1.00  0.00     0.031 C 
ATOM     46  C   UNL A   1      41.152  27.728  25.900  1.00  0.00     0.029 A 
ATOM     47  C   UNL A   1      42.210  27.362  26.818  1.00  0.00     0.049 A 
ATOM     48  H   UNL A   1      42.623  28.228  28.684  1.00  0.00     0.167 HD
ATOM     49  C   UNL A   1      42.562  28.618  33.055  1.00  0.00     0.034 A 
ATOM     50  C   UNL A   1      43.175  26.428  26.680  1.00  0.00     0.034 A 
ATOM     51  C   UNL A   1      43.645  29.472  32.659  1.00  0.00     0.049 A 
ATOM     52  C   UNL A   1      44.196  26.685  27.714  1.00  0.00     0.074 A 
ATOM     53  C   UNL A   1      43.841  30.835  32.580  1.00  0.00     0.029 A 
ATOM     54  N   UNL A   1      44.665  28.908  31.936  1.00  0.00    -0.354 N 
ATOM     55  N   UNL A   1      44.938  27.756  27.749  1.00  0.00    -0.248 NA
ATOM     56  C   UNL A   1      44.126  25.922  28.947  1.00  0.00     0.031 C 
ATOM     57  C   UNL A   1      44.652  31.020  31.422  1.00  0.00     0.029 A 
ATOM     58  C   UNL A   1      44.925  29.757  30.890  1.00  0.00     0.049 A 
ATOM     59  H   UNL A   1      45.123  28.059  32.131  1.00  0.00     0.167 HD
ATOM     60  C   UNL A   1      45.081  28.036  29.100  1.00  0.00     0.074 A 
ATOM     61  C   UNL A   1      44.671  26.809  29.783  1.00  0.00     0.031 C 
ATOM     62  C   UNL A   1      45.242  29.318  29.548  1.00  0.00     0.034 A 
BRANCH  49  63
ATOM     63  C   UNL A   1      42.745  27.573  34.133  1.00  0.00     0.023 A 
ATOM     64  C   UNL A   1      42.499  27.941  35.477  1.00  0.00     0.012 A 
ATOM     65  C   UNL A   1      43.344  26.313  33.918  1.00  0.00     0.148 A 
ATOM     66  C   UNL A   1      42.832  27.101  36.547  1.00  0.00     0.002 A 
ATOM     67  C   UNL A   1      43.592  25.445  34.979  1.00  0.00     0.091 A 
ATOM     68  F   UNL A   1      43.789  25.994  32.697  1.00  0.00    -0.205 F 
ATOM     69  C   UNL A   1      43.361  25.842  36.298  1.00  0.00     0.022 A 
BRANCH  67  70
ATOM     70  S   UNL A   1      44.177  23.768  34.700  1.00  0.00     0.127 S 
ATOM     71  O   UNL A   1      43.069  23.186  33.952  1.00  0.00    -0.237 OA
ATOM     72  O   UNL A   1      45.396  23.998  33.921  1.00  0.00    -0.237 OA
ATOM     73  O   UNL A   1      44.421  23.231  36.033  1.00  0.00    -0.744 OA
ENDBRANCH  67  70
ENDBRANCH  49  63
BRANCH  50  74
ATOM     74  C   UNL A   1      43.139  25.156  25.938  1.00  0.00     0.023 A 
ATOM     75  C   UNL A   1      44.193  24.825  25.071  1.00  0.00     0.012 A 
ATOM     76  C   UNL A   1      42.234  24.148  26.336  1.00  0.00     0.148 A 
ATOM     77  C   UNL A   1      44.359  23.510  24.625  1.00  0.00     0.002 A 
ATOM     78  C   UNL A   1      42.432  22.834  25.922  1.00  0.00     0.091 A 
ATOM     79  F   UNL A   1      41.245  24.476  27.177  1.00  0.00    -0.205 F 
ATOM     80  C   UNL A   1      43.490  22.514  25.062  1.00  0.00     0.022 A 
BRANCH  78  81
ATOM     81  S   UNL A   1      41.448  21.459  26.535  1.00  0.00     0.127 S 
ATOM     82  O   UNL A   1      41.999  20.343  25.767  1.00  0.00    -0.237 OA
ATOM     83  O   UNL A   1      41.793  21.459  27.954  1.00  0.00    -0.237 OA
ATOM     84  O   UNL A   1      40.067  21.796  26.219  1.00  0.00    -0.744 OA
ENDBRANCH  78  81
ENDBRANCH  50  74
BRANCH  62  85
ATOM     85  C   UNL A   1      45.447  30.414  28.522  1.00  0.00     0.023 A 
ATOM     86  C   UNL A   1      44.362  31.149  27.997  1.00  0.00     0.012 A 
ATOM     87  C   UNL A   1      46.750  30.856  28.239  1.00  0.00     0.148 A 
ATOM     88  C   UNL A   1      44.564  32.281  27.202  1.00  0.00     0.002 A 
ATOM     89  C   UNL A   1      46.949  32.012  27.488  1.00  0.00     0.091 A 
ATOM     90  F   UNL A   1      47.781  30.160  28.743  1.00  0.00    -0.205 F 
ATOM     91  C   UNL A   1      45.860  32.723  26.961  1.00  0.00     0.022 A 
BRANCH  89  92
ATOM     92  S   UNL A   1      48.586  32.715  27.264  1.00  0.00     0.127 S 
ATOM     93  O   UNL A   1      49.047  32.866  28.643  1.00  0.00    -0.237 OA
ATOM     94  O   UNL A   1      49.278  31.673  26.501  1.00  0.00    -0.237 OA
ATOM     95  O   UNL A   1      48.386  33.954  26.524  1.00  0.00    -0.744 OA
ENDBRANCH  89  92
ENDBRANCH  62  85
ENDBRANCH  36  37
ENDBRANCH  28  31
ENDBRANCH  26  27
ENDBRANCH  25  26
ENDBRANCH  24  25
ENDBRANCH   1  24
TORSDOF 19
ENDMDL
