MODEL 1
REMARK VINA RESULT:     -10.4      0.000      0.000
REMARK SMILES CC[C@H](C)[C@H](C(=O)NCCCCNC(=O)c1ccc(-c2c3nc(c(-c4cccc(S(=O)(=O)[O-])c4F)c4ccc([nH]4)c(-c4cccc(S(=O)(=O)[O-])c4F)c4nc(c(-c5cccc(S(=O)(=O)[O-])c5F)c5ccc2[nH]5)C=C4)C=C3)cc1)[NH+]1CC2(CC2)C1
REMARK SMILES IDX 11 1 10 2 9 3 8 4 6 5 7 6 5 8 3 9 4 10 2 11 1 12 79 13 80 14
REMARK SMILES IDX 84 15 81 17 82 18 83 19 12 20 13 21 14 22 15 24 16 25 17 26
REMARK SMILES IDX 78 27 18 28 77 29 19 30 20 31 21 32 71 33 22 34 76 35 70 36
REMARK SMILES IDX 72 37 23 38 75 39 69 40 68 41 24 43 56 44 36 45 55 46 37 47
REMARK SMILES IDX 40 48 54 49 73 50 38 51 39 52 53 54 74 55 41 56 25 57 26 58
REMARK SMILES IDX 34 59 27 60 29 61 35 62 28 63 30 64 31 65 32 66 33 67 57 68
REMARK SMILES IDX 58 69 66 70 59 71 61 72 67 73 60 74 62 75 63 76 64 77 65 78
REMARK SMILES IDX 42 79 43 80 51 81 44 82 46 83 52 84 45 85 47 86 48 87 49 88
REMARK SMILES IDX 50 89
REMARK H PARENT 8 7 79 16 13 23 72 42 40 53
REMARK Flexibility Score: inf
ROOT
ATOM      1  C   UNL A   1      32.721  28.089  26.683  1.00  0.00     0.023 C 
ENDROOT
BRANCH   1   2
ATOM      2  C   UNL A   1      32.694  26.664  26.124  1.00  0.00     0.023 C 
BRANCH   2   3
ATOM      3  C   UNL A   1      34.058  26.121  25.711  1.00  0.00     0.116 C 
BRANCH   3   4
ATOM      4  N   UNL A   1      34.095  25.826  24.293  1.00  0.00    -0.351 N 
ATOM      5  C   UNL A   1      34.100  24.635  23.623  1.00  0.00     0.278 C 
ATOM      6  O   UNL A   1      34.067  24.725  22.395  1.00  0.00    -0.268 OA
ATOM      7  H   UNL A   1      34.118  26.620  23.713  1.00  0.00     0.163 HD
BRANCH   5   8
ATOM      8  C   UNL A   1      34.005  23.316  24.425  1.00  0.00     0.277 C 
BRANCH   8   9
ATOM      9  C   UNL A   1      32.596  22.660  24.158  1.00  0.00     0.054 C 
ATOM     10  C   UNL A   1      32.656  21.186  23.737  1.00  0.00     0.014 C 
BRANCH   9  11
ATOM     11  C   UNL A   1      31.579  22.877  25.306  1.00  0.00     0.006 C 
ATOM     12  C   UNL A   1      32.181  22.935  26.708  1.00  0.00     0.004 C 
ENDBRANCH   9  11
ENDBRANCH   8   9
BRANCH   8  13
ATOM     13  N   UNL A   1      35.091  22.306  24.264  1.00  0.00    -0.323 N 
ATOM     14  C   UNL A   1      36.438  22.742  23.854  1.00  0.00     0.275 C 
ATOM     15  C   UNL A   1      35.653  21.905  25.582  1.00  0.00     0.275 C 
ATOM     16  H   UNL A   1      34.591  21.680  23.631  1.00  0.00     0.348 HD
ATOM     17  C   UNL A   1      36.783  22.801  25.284  1.00  0.00     0.068 C 
ATOM     18  C   UNL A   1      37.224  23.986  26.080  1.00  0.00     0.020 C 
ATOM     19  C   UNL A   1      38.152  22.812  25.877  1.00  0.00     0.020 C 
ENDBRANCH   8  13
ENDBRANCH   5   8
ENDBRANCH   3   4
ENDBRANCH   2   3
ENDBRANCH   1   2
BRANCH   1  20
ATOM     20  C   UNL A   1      33.865  28.961  26.175  1.00  0.00     0.116 C 
BRANCH  20  21
ATOM     21  N   UNL A   1      33.799  30.320  26.692  1.00  0.00    -0.352 N 
ATOM     22  C   UNL A   1      34.615  30.933  27.610  1.00  0.00     0.251 C 
ATOM     23  H   UNL A   1      33.068  30.876  26.334  1.00  0.00     0.163 HD
ATOM     24  O   UNL A   1      34.308  32.029  28.073  1.00  0.00    -0.269 OA
BRANCH  22  25
ATOM     25  C   UNL A   1      35.851  30.255  28.052  1.00  0.00     0.039 A 
ATOM     26  C   UNL A   1      36.977  30.289  27.227  1.00  0.00     0.014 A 
ATOM     27  C   UNL A   1      35.903  29.611  29.291  1.00  0.00     0.014 A 
ATOM     28  C   UNL A   1      38.176  29.729  27.674  1.00  0.00     0.010 A 
ATOM     29  C   UNL A   1      37.117  29.126  29.767  1.00  0.00     0.010 A 
ATOM     30  C   UNL A   1      38.266  29.174  28.963  1.00  0.00    -0.014 A 
BRANCH  30  31
ATOM     31  C   UNL A   1      39.553  28.652  29.489  1.00  0.00     0.031 A 
ATOM     32  C   UNL A   1      40.263  29.367  30.607  1.00  0.00     0.074 A 
ATOM     33  C   UNL A   1      40.127  27.580  28.904  1.00  0.00     0.049 A 
ATOM     34  N   UNL A   1      41.416  29.092  31.160  1.00  0.00    -0.248 NA
ATOM     35  C   UNL A   1      39.607  30.565  31.157  1.00  0.00     0.031 C 
ATOM     36  C   UNL A   1      39.578  26.847  27.762  1.00  0.00     0.029 A 
ATOM     37  N   UNL A   1      41.311  26.939  29.172  1.00  0.00    -0.354 N 
ATOM     38  C   UNL A   1      41.641  30.098  32.092  1.00  0.00     0.074 A 
ATOM     39  C   UNL A   1      40.521  31.010  32.006  1.00  0.00     0.031 C 
ATOM     40  C   UNL A   1      40.420  25.854  27.430  1.00  0.00     0.029 A 
ATOM     41  C   UNL A   1      41.583  25.900  28.311  1.00  0.00     0.049 A 
ATOM     42  H   UNL A   1      41.908  27.197  29.910  1.00  0.00     0.167 HD
ATOM     43  C   UNL A   1      42.670  30.237  32.960  1.00  0.00     0.034 A 
ATOM     44  C   UNL A   1      42.652  25.085  28.231  1.00  0.00     0.034 A 
ATOM     45  C   UNL A   1      43.764  29.310  33.067  1.00  0.00     0.049 A 
ATOM     46  C   UNL A   1      43.768  25.241  29.228  1.00  0.00     0.074 A 
ATOM     47  C   UNL A   1      44.808  29.313  33.975  1.00  0.00     0.029 A 
ATOM     48  N   UNL A   1      43.965  28.223  32.230  1.00  0.00    -0.354 N 
ATOM     49  N   UNL A   1      43.883  26.104  30.208  1.00  0.00    -0.248 NA
ATOM     50  C   UNL A   1      44.884  24.288  29.134  1.00  0.00     0.031 C 
ATOM     51  C   UNL A   1      45.660  28.249  33.665  1.00  0.00     0.029 A 
ATOM     52  C   UNL A   1      45.123  27.556  32.591  1.00  0.00     0.049 A 
ATOM     53  H   UNL A   1      43.371  27.964  31.489  1.00  0.00     0.167 HD
ATOM     54  C   UNL A   1      45.061  25.775  30.870  1.00  0.00     0.074 A 
ATOM     55  C   UNL A   1      45.612  24.622  30.190  1.00  0.00     0.031 C 
ATOM     56  C   UNL A   1      45.636  26.379  31.938  1.00  0.00     0.034 A 
BRANCH  43  57
ATOM     57  C   UNL A   1      42.644  31.419  33.896  1.00  0.00     0.023 A 
ATOM     58  C   UNL A   1      43.203  32.648  33.488  1.00  0.00     0.012 A 
ATOM     59  C   UNL A   1      42.013  31.331  35.153  1.00  0.00     0.148 A 
ATOM     60  C   UNL A   1      43.173  33.758  34.331  1.00  0.00     0.002 A 
ATOM     61  C   UNL A   1      41.942  32.457  35.966  1.00  0.00     0.091 A 
ATOM     62  F   UNL A   1      41.503  30.151  35.532  1.00  0.00    -0.205 F 
ATOM     63  C   UNL A   1      42.533  33.666  35.564  1.00  0.00     0.022 A 
BRANCH  61  64
ATOM     64  S   UNL A   1      41.067  32.465  37.536  1.00  0.00     0.127 S 
ATOM     65  O   UNL A   1      39.787  31.865  37.162  1.00  0.00    -0.237 OA
ATOM     66  O   UNL A   1      41.919  31.613  38.366  1.00  0.00    -0.237 OA
ATOM     67  O   UNL A   1      41.005  33.858  37.955  1.00  0.00    -0.744 OA
ENDBRANCH  61  64
ENDBRANCH  43  57
BRANCH  44  68
ATOM     68  C   UNL A   1      42.694  24.009  27.198  1.00  0.00     0.023 A 
ATOM     69  C   UNL A   1      43.351  24.248  25.975  1.00  0.00     0.012 A 
ATOM     70  C   UNL A   1      42.110  22.750  27.430  1.00  0.00     0.148 A 
ATOM     71  C   UNL A   1      43.394  23.263  24.988  1.00  0.00     0.002 A 
ATOM     72  C   UNL A   1      42.206  21.754  26.466  1.00  0.00     0.091 A 
ATOM     73  F   UNL A   1      41.483  22.548  28.598  1.00  0.00    -0.205 F 
ATOM     74  C   UNL A   1      42.830  22.013  25.236  1.00  0.00     0.022 A 
BRANCH  72  75
ATOM     75  S   UNL A   1      41.627  20.078  26.749  1.00  0.00     0.127 S 
ATOM     76  O   UNL A   1      40.204  20.291  26.994  1.00  0.00    -0.237 OA
ATOM     77  O   UNL A   1      41.945  19.432  25.475  1.00  0.00    -0.237 OA
ATOM     78  O   UNL A   1      42.397  19.581  27.882  1.00  0.00    -0.744 OA
ENDBRANCH  72  75
ENDBRANCH  44  68
BRANCH  56  79
ATOM     79  C   UNL A   1      46.909  25.781  32.482  1.00  0.00     0.023 A 
ATOM     80  C   UNL A   1      48.159  26.232  32.014  1.00  0.00     0.012 A 
ATOM     81  C   UNL A   1      46.861  24.825  33.517  1.00  0.00     0.148 A 
ATOM     82  C   UNL A   1      49.341  25.716  32.544  1.00  0.00     0.002 A 
ATOM     83  C   UNL A   1      48.042  24.356  34.077  1.00  0.00     0.091 A 
ATOM     84  F   UNL A   1      45.661  24.397  33.936  1.00  0.00    -0.205 F 
ATOM     85  C   UNL A   1      49.283  24.789  33.583  1.00  0.00     0.022 A 
BRANCH  83  86
ATOM     86  S   UNL A   1      48.064  23.239  35.483  1.00  0.00     0.127 S 
ATOM     87  O   UNL A   1      47.063  23.845  36.360  1.00  0.00    -0.237 OA
ATOM     88  O   UNL A   1      47.658  21.971  34.877  1.00  0.00    -0.237 OA
ATOM     89  O   UNL A   1      49.429  23.256  35.992  1.00  0.00    -0.744 OA
ENDBRANCH  83  86
ENDBRANCH  56  79
ENDBRANCH  30  31
ENDBRANCH  22  25
ENDBRANCH  20  21
ENDBRANCH   1  20
TORSDOF 17
ENDMDL
MODEL 2
REMARK VINA RESULT:     -10.2      1.475      1.851
REMARK SMILES CC[C@H](C)[C@H](C(=O)NCCCCNC(=O)c1ccc(-c2c3nc(c(-c4cccc(S(=O)(=O)[O-])c4F)c4ccc([nH]4)c(-c4cccc(S(=O)(=O)[O-])c4F)c4nc(c(-c5cccc(S(=O)(=O)[O-])c5F)c5ccc2[nH]5)C=C4)C=C3)cc1)[NH+]1CC2(CC2)C1
REMARK SMILES IDX 11 1 10 2 9 3 8 4 6 5 7 6 5 8 3 9 4 10 2 11 1 12 79 13 80 14
REMARK SMILES IDX 84 15 81 17 82 18 83 19 12 20 13 21 14 22 15 24 16 25 17 26
REMARK SMILES IDX 78 27 18 28 77 29 19 30 20 31 21 32 71 33 22 34 76 35 70 36
REMARK SMILES IDX 72 37 23 38 75 39 69 40 68 41 24 43 56 44 36 45 55 46 37 47
REMARK SMILES IDX 40 48 54 49 73 50 38 51 39 52 53 54 74 55 41 56 25 57 26 58
REMARK SMILES IDX 34 59 27 60 29 61 35 62 28 63 30 64 31 65 32 66 33 67 57 68
REMARK SMILES IDX 58 69 66 70 59 71 61 72 67 73 60 74 62 75 63 76 64 77 65 78
REMARK SMILES IDX 42 79 43 80 51 81 44 82 46 83 52 84 45 85 47 86 48 87 49 88
REMARK SMILES IDX 50 89
REMARK H PARENT 8 7 79 16 13 23 72 42 40 53
REMARK Flexibility Score: inf
ROOT
ATOM      1  C   UNL A   1      32.807  27.243  26.362  1.00  0.00     0.023 C 
ENDROOT
BRANCH   1   2
ATOM      2  C   UNL A   1      32.761  26.482  25.034  1.00  0.00     0.023 C 
BRANCH   2   3
ATOM      3  C   UNL A   1      34.117  25.987  24.541  1.00  0.00     0.116 C 
BRANCH   3   4
ATOM      4  N   UNL A   1      33.976  25.195  23.336  1.00  0.00    -0.351 N 
ATOM      5  C   UNL A   1      34.026  23.844  23.137  1.00  0.00     0.278 C 
ATOM      6  O   UNL A   1      33.799  23.476  21.984  1.00  0.00    -0.268 OA
ATOM      7  H   UNL A   1      33.815  25.721  22.520  1.00  0.00     0.163 HD
BRANCH   5   8
ATOM      8  C   UNL A   1      34.215  22.908  24.354  1.00  0.00     0.277 C 
BRANCH   8   9
ATOM      9  C   UNL A   1      32.867  22.131  24.610  1.00  0.00     0.054 C 
ATOM     10  C   UNL A   1      32.929  20.634  24.279  1.00  0.00     0.014 C 
BRANCH   9  11
ATOM     11  C   UNL A   1      32.266  22.373  26.017  1.00  0.00     0.006 C 
ATOM     12  C   UNL A   1      30.758  22.611  26.050  1.00  0.00     0.004 C 
ENDBRANCH   9  11
ENDBRANCH   8   9
BRANCH   8  13
ATOM     13  N   UNL A   1      35.370  21.964  24.353  1.00  0.00    -0.323 N 
ATOM     14  C   UNL A   1      36.700  22.440  23.931  1.00  0.00     0.275 C 
ATOM     15  C   UNL A   1      35.907  21.768  25.726  1.00  0.00     0.275 C 
ATOM     16  H   UNL A   1      34.937  21.232  23.788  1.00  0.00     0.348 HD
ATOM     17  C   UNL A   1      36.986  22.698  25.352  1.00  0.00     0.068 C 
ATOM     18  C   UNL A   1      37.318  23.999  26.007  1.00  0.00     0.020 C 
ATOM     19  C   UNL A   1      38.328  22.877  25.979  1.00  0.00     0.020 C 
ENDBRANCH   8  13
ENDBRANCH   5   8
ENDBRANCH   3   4
ENDBRANCH   2   3
ENDBRANCH   1   2
BRANCH   1  20
ATOM     20  C   UNL A   1      34.049  28.102  26.571  1.00  0.00     0.116 C 
BRANCH  20  21
ATOM     21  N   UNL A   1      33.722  29.500  26.814  1.00  0.00    -0.352 N 
ATOM     22  C   UNL A   1      34.392  30.420  27.582  1.00  0.00     0.251 C 
ATOM     23  H   UNL A   1      32.908  29.830  26.367  1.00  0.00     0.163 HD
ATOM     24  O   UNL A   1      33.878  31.508  27.828  1.00  0.00    -0.269 OA
BRANCH  22  25
ATOM     25  C   UNL A   1      35.722  30.081  28.128  1.00  0.00     0.039 A 
ATOM     26  C   UNL A   1      35.817  29.598  29.435  1.00  0.00     0.014 A 
ATOM     27  C   UNL A   1      36.868  30.215  27.341  1.00  0.00     0.014 A 
ATOM     28  C   UNL A   1      37.058  29.191  29.931  1.00  0.00     0.010 A 
ATOM     29  C   UNL A   1      38.088  29.734  27.807  1.00  0.00     0.010 A 
ATOM     30  C   UNL A   1      38.198  29.221  29.109  1.00  0.00    -0.014 A 
BRANCH  30  31
ATOM     31  C   UNL A   1      39.508  28.712  29.589  1.00  0.00     0.031 A 
ATOM     32  C   UNL A   1      40.247  29.431  30.686  1.00  0.00     0.074 A 
ATOM     33  C   UNL A   1      40.075  27.651  28.979  1.00  0.00     0.049 A 
ATOM     34  N   UNL A   1      41.421  29.167  31.198  1.00  0.00    -0.248 NA
ATOM     35  C   UNL A   1      39.596  30.618  31.264  1.00  0.00     0.031 C 
ATOM     36  C   UNL A   1      39.497  26.916  27.852  1.00  0.00     0.029 A 
ATOM     37  N   UNL A   1      41.274  27.022  29.204  1.00  0.00    -0.354 N 
ATOM     38  C   UNL A   1      41.665  30.171  32.127  1.00  0.00     0.074 A 
ATOM     39  C   UNL A   1      40.533  31.070  32.084  1.00  0.00     0.031 C 
ATOM     40  C   UNL A   1      40.338  25.936  27.487  1.00  0.00     0.029 A 
ATOM     41  C   UNL A   1      41.529  25.991  28.328  1.00  0.00     0.049 A 
ATOM     42  H   UNL A   1      41.893  27.284  29.922  1.00  0.00     0.167 HD
ATOM     43  C   UNL A   1      42.721  30.319  32.961  1.00  0.00     0.034 A 
ATOM     44  C   UNL A   1      42.605  25.190  28.208  1.00  0.00     0.034 A 
ATOM     45  C   UNL A   1      43.829  29.404  33.026  1.00  0.00     0.049 A 
ATOM     46  C   UNL A   1      43.752  25.354  29.168  1.00  0.00     0.074 A 
ATOM     47  C   UNL A   1      44.903  29.416  33.899  1.00  0.00     0.029 A 
ATOM     48  N   UNL A   1      44.015  28.324  32.178  1.00  0.00    -0.354 N 
ATOM     49  N   UNL A   1      43.890  26.214  30.148  1.00  0.00    -0.248 NA
ATOM     50  C   UNL A   1      44.875  24.416  29.031  1.00  0.00     0.031 C 
ATOM     51  C   UNL A   1      45.757  28.363  33.554  1.00  0.00     0.029 A 
ATOM     52  C   UNL A   1      45.192  27.669  32.496  1.00  0.00     0.049 A 
ATOM     53  H   UNL A   1      43.399  28.061  31.456  1.00  0.00     0.167 HD
ATOM     54  C   UNL A   1      45.093  25.896  30.768  1.00  0.00     0.074 A 
ATOM     55  C   UNL A   1      45.635  24.753  30.064  1.00  0.00     0.031 C 
ATOM     56  C   UNL A   1      45.697  26.501  31.820  1.00  0.00     0.034 A 
BRANCH  43  57
ATOM     57  C   UNL A   1      42.712  31.495  33.904  1.00  0.00     0.023 A 
ATOM     58  C   UNL A   1      43.203  32.744  33.469  1.00  0.00     0.012 A 
ATOM     59  C   UNL A   1      42.164  31.381  35.197  1.00  0.00     0.148 A 
ATOM     60  C   UNL A   1      43.187  33.850  34.319  1.00  0.00     0.002 A 
ATOM     61  C   UNL A   1      42.105  32.501  36.019  1.00  0.00     0.091 A 
ATOM     62  F   UNL A   1      41.720  30.183  35.600  1.00  0.00    -0.205 F 
ATOM     63  C   UNL A   1      42.628  33.731  35.589  1.00  0.00     0.022 A 
BRANCH  61  64
ATOM     64  S   UNL A   1      41.329  32.473  37.640  1.00  0.00     0.127 S 
ATOM     65  O   UNL A   1      41.423  33.878  38.035  1.00  0.00    -0.237 OA
ATOM     66  O   UNL A   1      39.976  32.018  37.324  1.00  0.00    -0.237 OA
ATOM     67  O   UNL A   1      42.111  31.546  38.445  1.00  0.00    -0.744 OA
ENDBRANCH  61  64
ENDBRANCH  43  57
BRANCH  44  68
ATOM     68  C   UNL A   1      42.625  24.120  27.169  1.00  0.00     0.023 A 
ATOM     69  C   UNL A   1      43.223  24.377  25.920  1.00  0.00     0.012 A 
ATOM     70  C   UNL A   1      42.078  22.847  27.419  1.00  0.00     0.148 A 
ATOM     71  C   UNL A   1      43.244  23.397  24.927  1.00  0.00     0.002 A 
ATOM     72  C   UNL A   1      42.153  21.857  26.447  1.00  0.00     0.091 A 
ATOM     73  F   UNL A   1      41.506  22.626  28.612  1.00  0.00    -0.205 F 
ATOM     74  C   UNL A   1      42.718  22.135  25.193  1.00  0.00     0.022 A 
BRANCH  72  75
ATOM     75  S   UNL A   1      41.622  20.168  26.746  1.00  0.00     0.127 S 
ATOM     76  O   UNL A   1      41.921  19.531  25.467  1.00  0.00    -0.237 OA
ATOM     77  O   UNL A   1      42.494  19.772  27.852  1.00  0.00    -0.237 OA
ATOM     78  O   UNL A   1      40.211  20.255  27.096  1.00  0.00    -0.744 OA
ENDBRANCH  72  75
ENDBRANCH  44  68
BRANCH  56  79
ATOM     79  C   UNL A   1      46.995  25.917  32.317  1.00  0.00     0.023 A 
ATOM     80  C   UNL A   1      47.002  25.063  33.438  1.00  0.00     0.012 A 
ATOM     81  C   UNL A   1      48.197  26.157  31.622  1.00  0.00     0.148 A 
ATOM     82  C   UNL A   1      48.192  24.483  33.877  1.00  0.00     0.002 A 
ATOM     83  C   UNL A   1      49.367  25.533  32.033  1.00  0.00     0.091 A 
ATOM     84  F   UNL A   1      48.171  26.987  30.569  1.00  0.00    -0.205 F 
ATOM     85  C   UNL A   1      49.370  24.707  33.168  1.00  0.00     0.022 A 
BRANCH  83  86
ATOM     86  S   UNL A   1      50.910  25.682  31.125  1.00  0.00     0.127 S 
ATOM     87  O   UNL A   1      51.795  24.810  31.895  1.00  0.00    -0.237 OA
ATOM     88  O   UNL A   1      50.542  25.167  29.805  1.00  0.00    -0.237 OA
ATOM     89  O   UNL A   1      51.256  27.097  31.147  1.00  0.00    -0.744 OA
ENDBRANCH  83  86
ENDBRANCH  56  79
ENDBRANCH  30  31
ENDBRANCH  22  25
ENDBRANCH  20  21
ENDBRANCH   1  20
TORSDOF 17
ENDMDL
MODEL 3
REMARK VINA RESULT:     -10.2      3.845      9.345
REMARK SMILES CC[C@H](C)[C@H](C(=O)NCCCCNC(=O)c1ccc(-c2c3nc(c(-c4cccc(S(=O)(=O)[O-])c4F)c4ccc([nH]4)c(-c4cccc(S(=O)(=O)[O-])c4F)c4nc(c(-c5cccc(S(=O)(=O)[O-])c5F)c5ccc2[nH]5)C=C4)C=C3)cc1)[NH+]1CC2(CC2)C1
REMARK SMILES IDX 11 1 10 2 9 3 8 4 6 5 7 6 5 8 3 9 4 10 2 11 1 12 79 13 80 14
REMARK SMILES IDX 84 15 81 17 82 18 83 19 12 20 13 21 14 22 15 24 16 25 17 26
REMARK SMILES IDX 78 27 18 28 77 29 19 30 20 31 21 32 71 33 22 34 76 35 70 36
REMARK SMILES IDX 72 37 23 38 75 39 69 40 68 41 24 43 56 44 36 45 55 46 37 47
REMARK SMILES IDX 40 48 54 49 73 50 38 51 39 52 53 54 74 55 41 56 25 57 26 58
REMARK SMILES IDX 34 59 27 60 29 61 35 62 28 63 30 64 31 65 32 66 33 67 57 68
REMARK SMILES IDX 58 69 66 70 59 71 61 72 67 73 60 74 62 75 63 76 64 77 65 78
REMARK SMILES IDX 42 79 43 80 51 81 44 82 46 83 52 84 45 85 47 86 48 87 49 88
REMARK SMILES IDX 50 89
REMARK H PARENT 8 7 79 16 13 23 72 42 40 53
REMARK Flexibility Score: inf
ROOT
ATOM      1  C   UNL A   1      31.893  31.329  26.892  1.00  0.00     0.023 C 
ENDROOT
BRANCH   1   2
ATOM      2  C   UNL A   1      32.086  29.858  27.272  1.00  0.00     0.023 C 
BRANCH   2   3
ATOM      3  C   UNL A   1      32.409  28.939  26.099  1.00  0.00     0.116 C 
BRANCH   3   4
ATOM      4  N   UNL A   1      31.426  27.881  25.981  1.00  0.00    -0.351 N 
ATOM      5  C   UNL A   1      30.821  27.334  24.884  1.00  0.00     0.278 C 
ATOM      6  O   UNL A   1      30.068  26.389  25.119  1.00  0.00    -0.268 OA
ATOM      7  H   UNL A   1      31.147  27.487  26.839  1.00  0.00     0.163 HD
BRANCH   5   8
ATOM      8  C   UNL A   1      31.223  27.830  23.475  1.00  0.00     0.277 C 
BRANCH   8   9
ATOM      9  C   UNL A   1      32.208  26.781  22.830  1.00  0.00     0.054 C 
ATOM     10  C   UNL A   1      31.698  26.158  21.524  1.00  0.00     0.014 C 
BRANCH   9  11
ATOM     11  C   UNL A   1      33.659  27.300  22.678  1.00  0.00     0.006 C 
ATOM     12  C   UNL A   1      33.832  28.809  22.831  1.00  0.00     0.004 C 
ENDBRANCH   9  11
ENDBRANCH   8   9
BRANCH   8  13
ATOM     13  N   UNL A   1      30.141  28.191  22.513  1.00  0.00    -0.323 N 
ATOM     14  C   UNL A   1      28.821  28.606  23.023  1.00  0.00     0.275 C 
ATOM     15  C   UNL A   1      30.334  29.565  21.976  1.00  0.00     0.275 C 
ATOM     16  H   UNL A   1      30.176  27.338  21.954  1.00  0.00     0.348 HD
ATOM     17  C   UNL A   1      29.294  29.997  22.925  1.00  0.00     0.068 C 
ATOM     18  C   UNL A   1      29.438  31.003  24.020  1.00  0.00     0.020 C 
ATOM     19  C   UNL A   1      28.454  31.230  22.897  1.00  0.00     0.020 C 
ENDBRANCH   8  13
ENDBRANCH   5   8
ENDBRANCH   3   4
ENDBRANCH   2   3
ENDBRANCH   1   2
BRANCH   1  20
ATOM     20  C   UNL A   1      33.102  32.223  27.139  1.00  0.00     0.116 C 
BRANCH  20  21
ATOM     21  N   UNL A   1      32.724  33.590  27.469  1.00  0.00    -0.352 N 
ATOM     22  C   UNL A   1      33.189  34.392  28.481  1.00  0.00     0.251 C 
ATOM     23  H   UNL A   1      32.039  33.994  26.886  1.00  0.00     0.163 HD
ATOM     24  O   UNL A   1      32.629  35.457  28.731  1.00  0.00    -0.269 OA
BRANCH  22  25
ATOM     25  C   UNL A   1      34.352  33.954  29.281  1.00  0.00     0.039 A 
ATOM     26  C   UNL A   1      34.140  33.152  30.404  1.00  0.00     0.014 A 
ATOM     27  C   UNL A   1      35.648  34.313  28.905  1.00  0.00     0.014 A 
ATOM     28  C   UNL A   1      35.236  32.658  31.115  1.00  0.00     0.010 A 
ATOM     29  C   UNL A   1      36.739  33.755  29.565  1.00  0.00     0.010 A 
ATOM     30  C   UNL A   1      36.546  32.926  30.681  1.00  0.00    -0.014 A 
BRANCH  30  31
ATOM     31  C   UNL A   1      37.723  32.340  31.372  1.00  0.00     0.031 A 
ATOM     32  C   UNL A   1      38.476  31.195  30.750  1.00  0.00     0.074 A 
ATOM     33  C   UNL A   1      38.063  32.782  32.600  1.00  0.00     0.049 A 
ATOM     34  N   UNL A   1      39.492  30.522  31.226  1.00  0.00    -0.248 NA
ATOM     35  C   UNL A   1      38.011  30.725  29.434  1.00  0.00     0.031 C 
ATOM     36  C   UNL A   1      37.363  33.831  33.344  1.00  0.00     0.029 A 
ATOM     37  N   UNL A   1      39.065  32.385  33.450  1.00  0.00    -0.354 N 
ATOM     38  C   UNL A   1      39.763  29.530  30.291  1.00  0.00     0.074 A 
ATOM     39  C   UNL A   1      38.783  29.666  29.236  1.00  0.00     0.031 C 
ATOM     40  C   UNL A   1      37.959  33.998  34.535  1.00  0.00     0.029 A 
ATOM     41  C   UNL A   1      39.060  33.048  34.657  1.00  0.00     0.049 A 
ATOM     42  H   UNL A   1      39.724  31.693  33.219  1.00  0.00     0.167 HD
ATOM     43  C   UNL A   1      40.753  28.607  30.295  1.00  0.00     0.034 A 
ATOM     44  C   UNL A   1      39.844  32.899  35.742  1.00  0.00     0.034 A 
ATOM     45  C   UNL A   1      41.746  28.497  31.328  1.00  0.00     0.049 A 
ATOM     46  C   UNL A   1      40.957  31.887  35.707  1.00  0.00     0.074 A 
ATOM     47  C   UNL A   1      42.843  27.655  31.379  1.00  0.00     0.029 A 
ATOM     48  N   UNL A   1      41.757  29.239  32.498  1.00  0.00    -0.354 N 
ATOM     49  N   UNL A   1      41.296  31.066  34.743  1.00  0.00    -0.248 NA
ATOM     50  C   UNL A   1      41.820  31.806  36.895  1.00  0.00     0.031 C 
ATOM     51  C   UNL A   1      43.497  27.863  32.598  1.00  0.00     0.029 A 
ATOM     52  C   UNL A   1      42.834  28.867  33.285  1.00  0.00     0.049 A 
ATOM     53  H   UNL A   1      41.097  29.931  32.734  1.00  0.00     0.167 HD
ATOM     54  C   UNL A   1      42.432  30.400  35.190  1.00  0.00     0.074 A 
ATOM     55  C   UNL A   1      42.734  30.927  36.504  1.00  0.00     0.031 C 
ATOM     56  C   UNL A   1      43.153  29.434  34.571  1.00  0.00     0.034 A 
BRANCH  43  57
ATOM     57  C   UNL A   1      40.836  27.663  29.122  1.00  0.00     0.023 A 
ATOM     58  C   UNL A   1      39.990  26.536  29.068  1.00  0.00     0.012 A 
ATOM     59  C   UNL A   1      41.708  27.923  28.046  1.00  0.00     0.148 A 
ATOM     60  C   UNL A   1      40.038  25.660  27.984  1.00  0.00     0.002 A 
ATOM     61  C   UNL A   1      41.714  27.073  26.945  1.00  0.00     0.091 A 
ATOM     62  F   UNL A   1      42.518  28.988  28.121  1.00  0.00    -0.205 F 
ATOM     63  C   UNL A   1      40.891  25.935  26.919  1.00  0.00     0.022 A 
BRANCH  61  64
ATOM     64  S   UNL A   1      42.713  27.385  25.485  1.00  0.00     0.127 S 
ATOM     65  O   UNL A   1      42.525  26.146  24.730  1.00  0.00    -0.237 OA
ATOM     66  O   UNL A   1      42.055  28.557  24.908  1.00  0.00    -0.237 OA
ATOM     67  O   UNL A   1      44.067  27.622  25.967  1.00  0.00    -0.744 OA
ENDBRANCH  61  64
ENDBRANCH  43  57
BRANCH  44  68
ATOM     68  C   UNL A   1      39.638  33.769  36.935  1.00  0.00     0.023 A 
ATOM     69  C   UNL A   1      40.067  35.110  36.898  1.00  0.00     0.012 A 
ATOM     70  C   UNL A   1      39.002  33.283  38.094  1.00  0.00     0.148 A 
ATOM     71  C   UNL A   1      39.897  35.941  38.006  1.00  0.00     0.002 A 
ATOM     72  C   UNL A   1      38.784  34.131  39.172  1.00  0.00     0.091 A 
ATOM     73  F   UNL A   1      38.610  32.001  38.110  1.00  0.00    -0.205 F 
ATOM     74  C   UNL A   1      39.248  35.455  39.139  1.00  0.00     0.022 A 
BRANCH  72  75
ATOM     75  S   UNL A   1      37.842  33.633  40.617  1.00  0.00     0.127 S 
ATOM     76  O   UNL A   1      38.761  32.704  41.267  1.00  0.00    -0.237 OA
ATOM     77  O   UNL A   1      37.660  34.909  41.310  1.00  0.00    -0.237 OA
ATOM     78  O   UNL A   1      36.610  33.049  40.103  1.00  0.00    -0.744 OA
ENDBRANCH  72  75
ENDBRANCH  44  68
BRANCH  56  79
ATOM     79  C   UNL A   1      44.377  28.909  35.277  1.00  0.00     0.023 A 
ATOM     80  C   UNL A   1      45.633  29.505  35.054  1.00  0.00     0.012 A 
ATOM     81  C   UNL A   1      44.262  27.869  36.223  1.00  0.00     0.148 A 
ATOM     82  C   UNL A   1      46.762  29.054  35.738  1.00  0.00     0.002 A 
ATOM     83  C   UNL A   1      45.380  27.462  36.938  1.00  0.00     0.091 A 
ATOM     84  F   UNL A   1      43.061  27.303  36.406  1.00  0.00    -0.205 F 
ATOM     85  C   UNL A   1      46.633  28.043  36.687  1.00  0.00     0.022 A 
BRANCH  83  86
ATOM     86  S   UNL A   1      45.292  26.239  38.250  1.00  0.00     0.127 S 
ATOM     87  O   UNL A   1      44.320  26.846  39.158  1.00  0.00    -0.237 OA
ATOM     88  O   UNL A   1      44.805  25.057  37.538  1.00  0.00    -0.237 OA
ATOM     89  O   UNL A   1      46.644  26.114  38.778  1.00  0.00    -0.744 OA
ENDBRANCH  83  86
ENDBRANCH  56  79
ENDBRANCH  30  31
ENDBRANCH  22  25
ENDBRANCH  20  21
ENDBRANCH   1  20
TORSDOF 17
ENDMDL
