MODEL 1
REMARK VINA RESULT:     -13.2      0.000      0.000
REMARK SMILES O=C(NCCCCNC(=O)[C@H]1[C@H]2CC[C@H](CC2)[C@@H]1C(=O)Nc1ccc(Cc2ccncc2)cc1)c1ccc(-c2c3nc(c(-c4cccc(S(=O)(=O)[O-])c4F)c4ccc([nH]4)c(-c4cccc(S(=O)(=O)[O-])c4F)c4nc(c(-c5cccc(S(=O)(=O)[O-])c5F)c5ccc2[nH]5)C=C4)C=C3)cc1
REMARK SMILES IDX 6 1 5 2 4 3 3 4 1 5 2 6 35 8 36 9 97 10 37 11 96 12 38 13
REMARK SMILES IDX 39 14 40 15 90 16 41 17 95 18 89 19 91 20 42 21 94 22 88 23
REMARK SMILES IDX 87 24 43 26 75 27 55 28 74 29 56 30 59 31 73 32 92 33 57 34
REMARK SMILES IDX 58 35 72 37 93 38 60 39 44 40 45 41 53 42 46 43 48 44 54 45
REMARK SMILES IDX 47 46 49 47 50 48 51 49 52 50 76 51 77 52 85 53 78 54 80 55
REMARK SMILES IDX 86 56 79 57 81 58 82 59 83 60 84 61 61 62 62 63 70 64 63 65
REMARK SMILES IDX 65 66 71 67 64 68 66 69 67 70 68 71 69 72 7 73 8 74 9 75
REMARK SMILES IDX 10 77 11 78 12 79 18 80 13 81 17 82 15 83 14 84 16 85 19 86
REMARK SMILES IDX 20 87 21 88 22 90 23 91 34 92 24 93 33 94 25 95 26 96 27 97
REMARK SMILES IDX 28 98 32 99 29 100 31 101 30 102
REMARK H PARENT 3 7 91 25 59 36 8 76 21 89
REMARK Flexibility Score: inf
ROOT
ATOM      1  C   UNL A   1      31.670  30.886  26.127  1.00  0.00     0.023 C 
ENDROOT
BRANCH   1   2
ATOM      2  C   UNL A   1      31.521  32.337  26.592  1.00  0.00     0.023 C 
BRANCH   2   3
ATOM      3  C   UNL A   1      32.749  32.908  27.285  1.00  0.00     0.116 C 
BRANCH   3   4
ATOM      4  N   UNL A   1      32.508  34.228  27.842  1.00  0.00    -0.352 N 
ATOM      5  O   UNL A   1      32.716  35.877  29.364  1.00  0.00    -0.269 OA
ATOM      6  C   UNL A   1      33.141  34.828  28.905  1.00  0.00     0.251 C 
ATOM      7  H   UNL A   1      31.804  34.758  27.405  1.00  0.00     0.163 HD
BRANCH   6   8
ATOM      8  C   UNL A   1      34.326  34.165  29.491  1.00  0.00     0.039 A 
ATOM      9  C   UNL A   1      35.612  34.521  29.073  1.00  0.00     0.014 A 
ATOM     10  C   UNL A   1      34.143  33.176  30.459  1.00  0.00     0.014 A 
ATOM     11  C   UNL A   1      36.713  33.818  29.548  1.00  0.00     0.010 A 
ATOM     12  C   UNL A   1      35.255  32.522  30.991  1.00  0.00     0.010 A 
ATOM     13  C   UNL A   1      36.546  32.830  30.531  1.00  0.00    -0.014 A 
BRANCH  13  14
ATOM     14  C   UNL A   1      37.741  32.227  31.168  1.00  0.00     0.031 A 
ATOM     15  C   UNL A   1      38.479  31.085  30.531  1.00  0.00     0.074 A 
ATOM     16  C   UNL A   1      38.118  32.699  32.373  1.00  0.00     0.049 A 
ATOM     17  N   UNL A   1      39.517  30.431  30.983  1.00  0.00    -0.248 NA
ATOM     18  C   UNL A   1      37.993  30.609  29.226  1.00  0.00     0.031 C 
ATOM     19  C   UNL A   1      37.433  33.768  33.107  1.00  0.00     0.029 A 
ATOM     20  N   UNL A   1      39.142  32.330  33.205  1.00  0.00    -0.354 N 
ATOM     21  C   UNL A   1      39.781  29.437  30.049  1.00  0.00     0.074 A 
ATOM     22  C   UNL A   1      38.800  29.581  28.994  1.00  0.00     0.031 C 
ATOM     23  C   UNL A   1      38.050  33.962  34.280  1.00  0.00     0.029 A 
ATOM     24  C   UNL A   1      39.138  33.000  34.407  1.00  0.00     0.049 A 
ATOM     25  H   UNL A   1      39.815  31.651  32.968  1.00  0.00     0.167 HD
ATOM     26  C   UNL A   1      40.758  28.500  30.071  1.00  0.00     0.034 A 
ATOM     27  C   UNL A   1      39.895  32.835  35.506  1.00  0.00     0.034 A 
ATOM     28  C   UNL A   1      41.753  28.398  31.106  1.00  0.00     0.049 A 
ATOM     29  C   UNL A   1      40.977  31.795  35.489  1.00  0.00     0.074 A 
ATOM     30  C   UNL A   1      42.858  27.564  31.155  1.00  0.00     0.029 A 
ATOM     31  N   UNL A   1      41.753  29.131  32.282  1.00  0.00    -0.354 N 
ATOM     32  N   UNL A   1      41.329  30.991  34.515  1.00  0.00    -0.248 NA
ATOM     33  C   UNL A   1      41.780  31.651  36.711  1.00  0.00     0.031 C 
ATOM     34  C   UNL A   1      43.505  27.768  32.378  1.00  0.00     0.029 A 
ATOM     35  C   UNL A   1      42.816  28.743  33.081  1.00  0.00     0.049 A 
ATOM     36  H   UNL A   1      41.094  29.823  32.517  1.00  0.00     0.167 HD
ATOM     37  C   UNL A   1      42.401  30.255  35.000  1.00  0.00     0.074 A 
ATOM     38  C   UNL A   1      42.664  30.734  36.342  1.00  0.00     0.031 C 
ATOM     39  C   UNL A   1      43.090  29.255  34.398  1.00  0.00     0.034 A 
BRANCH  26  40
ATOM     40  C   UNL A   1      40.838  27.518  28.933  1.00  0.00     0.023 A 
ATOM     41  C   UNL A   1      39.895  26.477  28.842  1.00  0.00     0.012 A 
ATOM     42  C   UNL A   1      41.772  27.701  27.893  1.00  0.00     0.148 A 
ATOM     43  C   UNL A   1      39.884  25.625  27.738  1.00  0.00     0.002 A 
ATOM     44  C   UNL A   1      41.733  26.870  26.779  1.00  0.00     0.091 A 
ATOM     45  F   UNL A   1      42.672  28.687  28.009  1.00  0.00    -0.205 F 
ATOM     46  C   UNL A   1      40.794  25.829  26.702  1.00  0.00     0.022 A 
BRANCH  44  47
ATOM     47  S   UNL A   1      42.812  27.096  25.360  1.00  0.00     0.127 S 
ATOM     48  O   UNL A   1      44.109  27.290  26.005  1.00  0.00    -0.237 OA
ATOM     49  O   UNL A   1      42.666  25.821  24.657  1.00  0.00    -0.237 OA
ATOM     50  O   UNL A   1      42.296  28.251  24.640  1.00  0.00    -0.744 OA
ENDBRANCH  44  47
ENDBRANCH  26  40
BRANCH  27  51
ATOM     51  C   UNL A   1      39.655  33.685  36.704  1.00  0.00     0.023 A 
ATOM     52  C   UNL A   1      40.033  35.040  36.684  1.00  0.00     0.012 A 
ATOM     53  C   UNL A   1      39.013  33.166  37.847  1.00  0.00     0.148 A 
ATOM     54  C   UNL A   1      39.802  35.857  37.791  1.00  0.00     0.002 A 
ATOM     55  C   UNL A   1      38.731  34.001  38.922  1.00  0.00     0.091 A 
ATOM     56  F   UNL A   1      38.678  31.869  37.857  1.00  0.00    -0.205 F 
ATOM     57  C   UNL A   1      39.140  35.342  38.904  1.00  0.00     0.022 A 
BRANCH  55  58
ATOM     58  S   UNL A   1      37.750  33.445  40.319  1.00  0.00     0.127 S 
ATOM     59  O   UNL A   1      37.689  34.650  41.141  1.00  0.00    -0.237 OA
ATOM     60  O   UNL A   1      36.488  33.069  39.682  1.00  0.00    -0.237 OA
ATOM     61  O   UNL A   1      38.488  32.322  40.883  1.00  0.00    -0.744 OA
ENDBRANCH  55  58
ENDBRANCH  27  51
BRANCH  39  62
ATOM     62  C   UNL A   1      44.199  28.610  35.183  1.00  0.00     0.023 A 
ATOM     63  C   UNL A   1      45.511  29.107  35.062  1.00  0.00     0.012 A 
ATOM     64  C   UNL A   1      43.932  27.567  36.092  1.00  0.00     0.148 A 
ATOM     65  C   UNL A   1      46.548  28.559  35.815  1.00  0.00     0.002 A 
ATOM     66  C   UNL A   1      44.962  27.058  36.874  1.00  0.00     0.091 A 
ATOM     67  F   UNL A   1      42.678  27.099  36.178  1.00  0.00    -0.205 F 
ATOM     68  C   UNL A   1      46.271  27.545  36.729  1.00  0.00     0.022 A 
BRANCH  66  69
ATOM     69  S   UNL A   1      44.688  25.814  38.140  1.00  0.00     0.127 S 
ATOM     70  O   UNL A   1      43.687  26.465  38.984  1.00  0.00    -0.237 OA
ATOM     71  O   UNL A   1      44.186  24.683  37.359  1.00  0.00    -0.237 OA
ATOM     72  O   UNL A   1      45.981  25.589  38.771  1.00  0.00    -0.744 OA
ENDBRANCH  66  69
ENDBRANCH  39  62
ENDBRANCH  13  14
ENDBRANCH   6   8
ENDBRANCH   3   4
ENDBRANCH   2   3
ENDBRANCH   1   2
BRANCH   1  73
ATOM     73  C   UNL A   1      32.184  29.933  27.207  1.00  0.00     0.116 C 
BRANCH  73  74
ATOM     74  N   UNL A   1      33.320  29.175  26.715  1.00  0.00    -0.356 N 
ATOM     75  C   UNL A   1      33.355  27.985  26.059  1.00  0.00     0.224 C 
ATOM     76  H   UNL A   1      34.199  29.586  26.881  1.00  0.00     0.163 HD
ATOM     77  O   UNL A   1      34.428  27.382  26.036  1.00  0.00    -0.275 OA
BRANCH  75  78
ATOM     78  C   UNL A   1      32.109  27.455  25.358  1.00  0.00     0.094 C 
ATOM     79  C   UNL A   1      31.958  28.110  23.949  1.00  0.00     0.002 C 
ATOM     80  C   UNL A   1      32.125  25.886  25.261  1.00  0.00     0.094 C 
ATOM     81  C   UNL A   1      33.068  27.677  22.979  1.00  0.00     0.005 C 
ATOM     82  C   UNL A   1      30.628  27.611  23.354  1.00  0.00     0.005 C 
ATOM     83  C   UNL A   1      32.002  25.534  23.756  1.00  0.00     0.002 C 
ATOM     84  C   UNL A   1      33.197  26.157  23.002  1.00  0.00     0.005 C 
ATOM     85  C   UNL A   1      30.696  26.095  23.163  1.00  0.00     0.005 C 
BRANCH  80  86
ATOM     86  C   UNL A   1      31.085  25.323  26.266  1.00  0.00     0.228 C 
ATOM     87  O   UNL A   1      30.225  26.072  26.751  1.00  0.00    -0.274 OA
ATOM     88  N   UNL A   1      31.000  24.042  26.711  1.00  0.00    -0.326 N 
ATOM     89  H   UNL A   1      30.306  23.889  27.393  1.00  0.00     0.169 HD
BRANCH  88  90
ATOM     90  C   UNL A   1      31.731  22.914  26.367  1.00  0.00     0.041 A 
ATOM     91  C   UNL A   1      31.387  22.279  25.176  1.00  0.00     0.026 A 
ATOM     92  C   UNL A   1      32.788  22.446  27.142  1.00  0.00     0.026 A 
ATOM     93  C   UNL A   1      32.229  21.303  24.657  1.00  0.00     0.006 A 
ATOM     94  C   UNL A   1      33.602  21.426  26.642  1.00  0.00     0.006 A 
ATOM     95  C   UNL A   1      33.365  20.889  25.367  1.00  0.00    -0.043 A 
BRANCH  95  96
ATOM     96  C   UNL A   1      34.331  19.909  24.745  1.00  0.00     0.071 C 
BRANCH  96  97
ATOM     97  C   UNL A   1      33.850  18.482  24.758  1.00  0.00    -0.041 A 
ATOM     98  C   UNL A   1      32.826  18.074  25.619  1.00  0.00     0.024 A 
ATOM     99  C   UNL A   1      34.430  17.528  23.922  1.00  0.00     0.024 A 
ATOM    100  C   UNL A   1      32.443  16.743  25.618  1.00  0.00     0.111 A 
ATOM    101  C   UNL A   1      33.967  16.222  23.984  1.00  0.00     0.111 A 
ATOM    102  N   UNL A   1      32.986  15.808  24.814  1.00  0.00    -0.265 NA
ENDBRANCH  96  97
ENDBRANCH  95  96
ENDBRANCH  88  90
ENDBRANCH  80  86
ENDBRANCH  75  78
ENDBRANCH  73  74
ENDBRANCH   1  73
TORSDOF 18
ENDMDL
MODEL 2
REMARK VINA RESULT:     -13.1      1.768      2.357
REMARK SMILES O=C(NCCCCNC(=O)[C@H]1[C@H]2CC[C@H](CC2)[C@@H]1C(=O)Nc1ccc(Cc2ccncc2)cc1)c1ccc(-c2c3nc(c(-c4cccc(S(=O)(=O)[O-])c4F)c4ccc([nH]4)c(-c4cccc(S(=O)(=O)[O-])c4F)c4nc(c(-c5cccc(S(=O)(=O)[O-])c5F)c5ccc2[nH]5)C=C4)C=C3)cc1
REMARK SMILES IDX 6 1 5 2 4 3 3 4 1 5 2 6 35 8 36 9 97 10 37 11 96 12 38 13
REMARK SMILES IDX 39 14 40 15 90 16 41 17 95 18 89 19 91 20 42 21 94 22 88 23
REMARK SMILES IDX 87 24 43 26 75 27 55 28 74 29 56 30 59 31 73 32 92 33 57 34
REMARK SMILES IDX 58 35 72 37 93 38 60 39 44 40 45 41 53 42 46 43 48 44 54 45
REMARK SMILES IDX 47 46 49 47 50 48 51 49 52 50 76 51 77 52 85 53 78 54 80 55
REMARK SMILES IDX 86 56 79 57 81 58 82 59 83 60 84 61 61 62 62 63 70 64 63 65
REMARK SMILES IDX 65 66 71 67 64 68 66 69 67 70 68 71 69 72 7 73 8 74 9 75
REMARK SMILES IDX 10 77 11 78 12 79 18 80 13 81 17 82 15 83 14 84 16 85 19 86
REMARK SMILES IDX 20 87 21 88 22 90 23 91 34 92 24 93 33 94 25 95 26 96 27 97
REMARK SMILES IDX 28 98 32 99 29 100 31 101 30 102
REMARK H PARENT 3 7 91 25 59 36 8 76 21 89
REMARK Flexibility Score: inf
ROOT
ATOM      1  C   UNL A   1      30.892  31.268  25.561  1.00  0.00     0.023 C 
ENDROOT
BRANCH   1   2
ATOM      2  C   UNL A   1      31.369  31.694  26.952  1.00  0.00     0.023 C 
BRANCH   2   3
ATOM      3  C   UNL A   1      32.676  32.474  26.961  1.00  0.00     0.116 C 
BRANCH   3   4
ATOM      4  N   UNL A   1      32.517  33.818  27.487  1.00  0.00    -0.352 N 
ATOM      5  O   UNL A   1      32.877  35.504  28.938  1.00  0.00    -0.269 OA
ATOM      6  C   UNL A   1      33.236  34.427  28.489  1.00  0.00     0.251 C 
ATOM      7  H   UNL A   1      31.806  34.360  27.077  1.00  0.00     0.163 HD
BRANCH   6   8
ATOM      8  C   UNL A   1      34.431  33.739  29.023  1.00  0.00     0.039 A 
ATOM      9  C   UNL A   1      35.707  34.264  28.798  1.00  0.00     0.014 A 
ATOM     10  C   UNL A   1      34.268  32.556  29.747  1.00  0.00     0.014 A 
ATOM     11  C   UNL A   1      36.829  33.554  29.210  1.00  0.00     0.010 A 
ATOM     12  C   UNL A   1      35.394  31.882  30.224  1.00  0.00     0.010 A 
ATOM     13  C   UNL A   1      36.681  32.370  29.949  1.00  0.00    -0.014 A 
BRANCH  13  14
ATOM     14  C   UNL A   1      37.878  31.730  30.546  1.00  0.00     0.031 A 
ATOM     15  C   UNL A   1      38.650  30.672  29.814  1.00  0.00     0.074 A 
ATOM     16  C   UNL A   1      38.223  32.088  31.798  1.00  0.00     0.049 A 
ATOM     17  N   UNL A   1      39.694  29.996  30.219  1.00  0.00    -0.248 NA
ATOM     18  C   UNL A   1      38.197  30.318  28.459  1.00  0.00     0.031 C 
ATOM     19  C   UNL A   1      37.504  33.066  32.621  1.00  0.00     0.029 A 
ATOM     20  N   UNL A   1      39.241  31.658  32.610  1.00  0.00    -0.354 N 
ATOM     21  C   UNL A   1      39.995  29.105  29.196  1.00  0.00     0.074 A 
ATOM     22  C   UNL A   1      39.029  29.334  28.142  1.00  0.00     0.031 C 
ATOM     23  C   UNL A   1      38.096  33.154  33.820  1.00  0.00     0.029 A 
ATOM     24  C   UNL A   1      39.201  32.206  33.871  1.00  0.00     0.049 A 
ATOM     25  H   UNL A   1      39.932  31.019  32.320  1.00  0.00     0.167 HD
ATOM     26  C   UNL A   1      40.991  28.189  29.145  1.00  0.00     0.034 A 
ATOM     27  C   UNL A   1      39.943  31.948  34.964  1.00  0.00     0.034 A 
ATOM     28  C   UNL A   1      41.970  28.005  30.184  1.00  0.00     0.049 A 
ATOM     29  C   UNL A   1      41.046  30.935  34.865  1.00  0.00     0.074 A 
ATOM     30  C   UNL A   1      43.091  27.192  30.172  1.00  0.00     0.029 A 
ATOM     31  N   UNL A   1      41.934  28.617  31.426  1.00  0.00    -0.354 N 
ATOM     32  N   UNL A   1      41.433  30.239  33.823  1.00  0.00    -0.248 NA
ATOM     33  C   UNL A   1      41.831  30.686  36.081  1.00  0.00     0.031 C 
ATOM     34  C   UNL A   1      43.712  27.286  31.421  1.00  0.00     0.029 A 
ATOM     35  C   UNL A   1      42.991  28.173  32.203  1.00  0.00     0.049 A 
ATOM     36  H   UNL A   1      41.257  29.270  31.716  1.00  0.00     0.167 HD
ATOM     37  C   UNL A   1      42.511  29.479  34.254  1.00  0.00     0.074 A 
ATOM     38  C   UNL A   1      42.741  29.827  35.641  1.00  0.00     0.031 C 
ATOM     39  C   UNL A   1      43.232  28.558  33.570  1.00  0.00     0.034 A 
BRANCH  26  40
ATOM     40  C   UNL A   1      41.112  27.327  27.917  1.00  0.00     0.023 A 
ATOM     41  C   UNL A   1      41.774  27.824  26.779  1.00  0.00     0.012 A 
ATOM     42  C   UNL A   1      40.677  25.986  27.937  1.00  0.00     0.148 A 
ATOM     43  C   UNL A   1      41.994  27.003  25.672  1.00  0.00     0.002 A 
ATOM     44  C   UNL A   1      40.931  25.164  26.845  1.00  0.00     0.091 A 
ATOM     45  F   UNL A   1      40.033  25.540  29.025  1.00  0.00    -0.205 F 
ATOM     46  C   UNL A   1      41.584  25.672  25.710  1.00  0.00     0.022 A 
BRANCH  44  47
ATOM     47  S   UNL A   1      40.511  23.417  26.825  1.00  0.00     0.127 S 
ATOM     48  O   UNL A   1      41.358  22.923  25.742  1.00  0.00    -0.237 OA
ATOM     49  O   UNL A   1      40.920  22.988  28.162  1.00  0.00    -0.237 OA
ATOM     50  O   UNL A   1      39.078  23.349  26.575  1.00  0.00    -0.744 OA
ENDBRANCH  44  47
ENDBRANCH  26  40
BRANCH  27  51
ATOM     51  C   UNL A   1      39.664  32.670  36.235  1.00  0.00     0.023 A 
ATOM     52  C   UNL A   1      40.335  33.875  36.513  1.00  0.00     0.012 A 
ATOM     53  C   UNL A   1      38.705  32.189  37.149  1.00  0.00     0.148 A 
ATOM     54  C   UNL A   1      40.076  34.575  37.691  1.00  0.00     0.002 A 
ATOM     55  C   UNL A   1      38.407  32.924  38.291  1.00  0.00     0.091 A 
ATOM     56  F   UNL A   1      38.090  31.030  36.878  1.00  0.00    -0.205 F 
ATOM     57  C   UNL A   1      39.104  34.107  38.574  1.00  0.00     0.022 A 
BRANCH  55  58
ATOM     58  S   UNL A   1      37.065  32.461  39.390  1.00  0.00     0.127 S 
ATOM     59  O   UNL A   1      37.204  33.442  40.463  1.00  0.00    -0.237 OA
ATOM     60  O   UNL A   1      35.890  32.642  38.538  1.00  0.00    -0.237 OA
ATOM     61  O   UNL A   1      37.327  31.074  39.753  1.00  0.00    -0.744 OA
ENDBRANCH  55  58
ENDBRANCH  27  51
BRANCH  39  62
ATOM     62  C   UNL A   1      44.340  27.859  34.308  1.00  0.00     0.023 A 
ATOM     63  C   UNL A   1      45.626  28.433  34.327  1.00  0.00     0.012 A 
ATOM     64  C   UNL A   1      44.093  26.682  35.041  1.00  0.00     0.148 A 
ATOM     65  C   UNL A   1      46.659  27.832  35.045  1.00  0.00     0.002 A 
ATOM     66  C   UNL A   1      45.116  26.114  35.792  1.00  0.00     0.091 A 
ATOM     67  F   UNL A   1      42.865  26.145  34.994  1.00  0.00    -0.205 F 
ATOM     68  C   UNL A   1      46.400  26.681  35.787  1.00  0.00     0.022 A 
BRANCH  66  69
ATOM     69  S   UNL A   1      44.858  24.685  36.850  1.00  0.00     0.127 S 
ATOM     70  O   UNL A   1      44.505  23.654  35.874  1.00  0.00    -0.237 OA
ATOM     71  O   UNL A   1      46.172  24.517  37.468  1.00  0.00    -0.237 OA
ATOM     72  O   UNL A   1      43.795  25.054  37.774  1.00  0.00    -0.744 OA
ENDBRANCH  66  69
ENDBRANCH  39  62
ENDBRANCH  13  14
ENDBRANCH   6   8
ENDBRANCH   3   4
ENDBRANCH   2   3
ENDBRANCH   1   2
BRANCH   1  73
ATOM     73  C   UNL A   1      31.767  30.203  24.898  1.00  0.00     0.116 C 
BRANCH  73  74
ATOM     74  N   UNL A   1      30.964  29.352  24.038  1.00  0.00    -0.356 N 
ATOM     75  C   UNL A   1      31.249  28.133  23.508  1.00  0.00     0.224 C 
ATOM     76  H   UNL A   1      30.078  29.713  23.803  1.00  0.00     0.163 HD
ATOM     77  O   UNL A   1      30.567  27.757  22.555  1.00  0.00    -0.275 OA
BRANCH  75  78
ATOM     78  C   UNL A   1      32.352  27.270  24.110  1.00  0.00     0.094 C 
ATOM     79  C   UNL A   1      32.364  27.409  25.665  1.00  0.00     0.002 C 
ATOM     80  C   UNL A   1      32.214  25.767  23.671  1.00  0.00     0.094 C 
ATOM     81  C   UNL A   1      31.109  26.808  26.317  1.00  0.00     0.005 C 
ATOM     82  C   UNL A   1      33.566  26.601  26.187  1.00  0.00     0.005 C 
ATOM     83  C   UNL A   1      32.114  24.933  24.974  1.00  0.00     0.002 C 
ATOM     84  C   UNL A   1      30.877  25.403  25.770  1.00  0.00     0.005 C 
ATOM     85  C   UNL A   1      33.367  25.122  25.847  1.00  0.00     0.005 C 
BRANCH  80  86
ATOM     86  C   UNL A   1      33.333  25.452  22.644  1.00  0.00     0.228 C 
ATOM     87  O   UNL A   1      33.845  26.369  21.987  1.00  0.00    -0.274 OA
ATOM     88  N   UNL A   1      33.845  24.227  22.354  1.00  0.00    -0.326 N 
ATOM     89  H   UNL A   1      34.513  24.222  21.630  1.00  0.00     0.169 HD
BRANCH  88  90
ATOM     90  C   UNL A   1      33.581  22.982  22.907  1.00  0.00     0.041 A 
ATOM     91  C   UNL A   1      34.474  22.517  23.868  1.00  0.00     0.026 A 
ATOM     92  C   UNL A   1      32.460  22.235  22.558  1.00  0.00     0.026 A 
ATOM     93  C   UNL A   1      34.137  21.403  24.629  1.00  0.00     0.006 A 
ATOM     94  C   UNL A   1      32.151  21.085  23.289  1.00  0.00     0.006 A 
ATOM     95  C   UNL A   1      32.955  20.694  24.371  1.00  0.00    -0.043 A 
BRANCH  95  96
ATOM     96  C   UNL A   1      32.545  19.555  25.273  1.00  0.00     0.071 C 
BRANCH  96  97
ATOM     97  C   UNL A   1      33.058  18.209  24.832  1.00  0.00    -0.041 A 
ATOM     98  C   UNL A   1      33.071  17.119  25.708  1.00  0.00     0.024 A 
ATOM     99  C   UNL A   1      33.553  18.025  23.541  1.00  0.00     0.024 A 
ATOM    100  C   UNL A   1      33.585  15.912  25.266  1.00  0.00     0.111 A 
ATOM    101  C   UNL A   1      34.034  16.773  23.186  1.00  0.00     0.111 A 
ATOM    102  N   UNL A   1      34.061  15.712  24.021  1.00  0.00    -0.265 NA
ENDBRANCH  96  97
ENDBRANCH  95  96
ENDBRANCH  88  90
ENDBRANCH  80  86
ENDBRANCH  75  78
ENDBRANCH  73  74
ENDBRANCH   1  73
TORSDOF 18
ENDMDL
MODEL 3
REMARK VINA RESULT:     -13.0      6.087     11.675
REMARK SMILES O=C(NCCCCNC(=O)[C@H]1[C@H]2CC[C@H](CC2)[C@@H]1C(=O)Nc1ccc(Cc2ccncc2)cc1)c1ccc(-c2c3nc(c(-c4cccc(S(=O)(=O)[O-])c4F)c4ccc([nH]4)c(-c4cccc(S(=O)(=O)[O-])c4F)c4nc(c(-c5cccc(S(=O)(=O)[O-])c5F)c5ccc2[nH]5)C=C4)C=C3)cc1
REMARK SMILES IDX 6 1 5 2 4 3 3 4 1 5 2 6 35 8 36 9 97 10 37 11 96 12 38 13
REMARK SMILES IDX 39 14 40 15 90 16 41 17 95 18 89 19 91 20 42 21 94 22 88 23
REMARK SMILES IDX 87 24 43 26 75 27 55 28 74 29 56 30 59 31 73 32 92 33 57 34
REMARK SMILES IDX 58 35 72 37 93 38 60 39 44 40 45 41 53 42 46 43 48 44 54 45
REMARK SMILES IDX 47 46 49 47 50 48 51 49 52 50 76 51 77 52 85 53 78 54 80 55
REMARK SMILES IDX 86 56 79 57 81 58 82 59 83 60 84 61 61 62 62 63 70 64 63 65
REMARK SMILES IDX 65 66 71 67 64 68 66 69 67 70 68 71 69 72 7 73 8 74 9 75
REMARK SMILES IDX 10 77 11 78 12 79 18 80 13 81 17 82 15 83 14 84 16 85 19 86
REMARK SMILES IDX 20 87 21 88 22 90 23 91 34 92 24 93 33 94 25 95 26 96 27 97
REMARK SMILES IDX 28 98 32 99 29 100 31 101 30 102
REMARK H PARENT 3 7 91 25 59 36 8 76 21 89
REMARK Flexibility Score: inf
ROOT
ATOM      1  C   UNL A   1      36.421  20.620  24.894  1.00  0.00     0.023 C 
ENDROOT
BRANCH   1   2
ATOM      2  C   UNL A   1      37.579  19.627  25.017  1.00  0.00     0.023 C 
BRANCH   2   3
ATOM      3  C   UNL A   1      38.866  20.220  25.572  1.00  0.00     0.116 C 
BRANCH   3   4
ATOM      4  N   UNL A   1      39.901  19.219  25.763  1.00  0.00    -0.352 N 
ATOM      5  O   UNL A   1      42.013  18.486  26.041  1.00  0.00    -0.269 OA
ATOM      6  C   UNL A   1      41.224  19.418  26.077  1.00  0.00     0.251 C 
ATOM      7  H   UNL A   1      39.620  18.283  25.655  1.00  0.00     0.163 HD
BRANCH   6   8
ATOM      8  C   UNL A   1      41.672  20.782  26.431  1.00  0.00     0.039 A 
ATOM      9  C   UNL A   1      41.828  21.753  25.438  1.00  0.00     0.014 A 
ATOM     10  C   UNL A   1      41.945  21.083  27.767  1.00  0.00     0.014 A 
ATOM     11  C   UNL A   1      42.353  22.998  25.765  1.00  0.00     0.010 A 
ATOM     12  C   UNL A   1      42.402  22.358  28.104  1.00  0.00     0.010 A 
ATOM     13  C   UNL A   1      42.620  23.320  27.105  1.00  0.00    -0.014 A 
BRANCH  13  14
ATOM     14  C   UNL A   1      42.994  24.710  27.460  1.00  0.00     0.031 A 
ATOM     15  C   UNL A   1      42.006  25.653  28.085  1.00  0.00     0.074 A 
ATOM     16  C   UNL A   1      44.238  25.126  27.152  1.00  0.00     0.049 A 
ATOM     17  N   UNL A   1      42.173  26.906  28.418  1.00  0.00    -0.248 NA
ATOM     18  C   UNL A   1      40.660  25.132  28.369  1.00  0.00     0.031 C 
ATOM     19  C   UNL A   1      45.257  24.306  26.489  1.00  0.00     0.029 A 
ATOM     20  N   UNL A   1      44.851  26.339  27.325  1.00  0.00    -0.354 N 
ATOM     21  C   UNL A   1      40.947  27.341  28.904  1.00  0.00     0.074 A 
ATOM     22  C   UNL A   1      40.044  26.212  28.835  1.00  0.00     0.031 C 
ATOM     23  C   UNL A   1      46.363  25.040  26.306  1.00  0.00     0.029 A 
ATOM     24  C   UNL A   1      46.116  26.393  26.787  1.00  0.00     0.049 A 
ATOM     25  H   UNL A   1      44.428  27.098  27.789  1.00  0.00     0.167 HD
ATOM     26  C   UNL A   1      40.614  28.567  29.371  1.00  0.00     0.034 A 
ATOM     27  C   UNL A   1      46.971  27.424  26.655  1.00  0.00     0.034 A 
ATOM     28  C   UNL A   1      41.537  29.668  29.474  1.00  0.00     0.049 A 
ATOM     29  C   UNL A   1      46.572  28.766  27.196  1.00  0.00     0.074 A 
ATOM     30  C   UNL A   1      41.330  30.910  30.049  1.00  0.00     0.029 A 
ATOM     31  N   UNL A   1      42.828  29.671  28.971  1.00  0.00    -0.354 N 
ATOM     32  N   UNL A   1      45.473  29.106  27.824  1.00  0.00    -0.248 NA
ATOM     33  C   UNL A   1      47.536  29.862  27.032  1.00  0.00     0.031 C 
ATOM     34  C   UNL A   1      42.484  31.677  29.862  1.00  0.00     0.029 A 
ATOM     35  C   UNL A   1      43.417  30.905  29.189  1.00  0.00     0.049 A 
ATOM     36  H   UNL A   1      43.262  28.910  28.523  1.00  0.00     0.167 HD
ATOM     37  C   UNL A   1      45.617  30.449  28.141  1.00  0.00     0.074 A 
ATOM     38  C   UNL A   1      46.925  30.853  27.668  1.00  0.00     0.031 C 
ATOM     39  C   UNL A   1      44.735  31.281  28.747  1.00  0.00     0.034 A 
BRANCH  26  40
ATOM     40  C   UNL A   1      39.204  28.799  29.844  1.00  0.00     0.023 A 
ATOM     41  C   UNL A   1      38.865  28.527  31.183  1.00  0.00     0.012 A 
ATOM     42  C   UNL A   1      38.253  29.399  28.995  1.00  0.00     0.148 A 
ATOM     43  C   UNL A   1      37.595  28.838  31.669  1.00  0.00     0.002 A 
ATOM     44  C   UNL A   1      37.001  29.738  29.496  1.00  0.00     0.091 A 
ATOM     45  F   UNL A   1      38.592  29.633  27.719  1.00  0.00    -0.205 F 
ATOM     46  C   UNL A   1      36.669  29.454  30.830  1.00  0.00     0.022 A 
BRANCH  44  47
ATOM     47  S   UNL A   1      35.764  30.602  28.519  1.00  0.00     0.127 S 
ATOM     48  O   UNL A   1      35.068  31.378  29.543  1.00  0.00    -0.237 OA
ATOM     49  O   UNL A   1      36.592  31.397  27.611  1.00  0.00    -0.237 OA
ATOM     50  O   UNL A   1      34.968  29.570  27.871  1.00  0.00    -0.744 OA
ENDBRANCH  44  47
ENDBRANCH  26  40
BRANCH  27  51
ATOM     51  C   UNL A   1      48.285  27.215  25.990  1.00  0.00     0.023 A 
ATOM     52  C   UNL A   1      49.380  26.750  26.741  1.00  0.00     0.012 A 
ATOM     53  C   UNL A   1      48.443  27.434  24.606  1.00  0.00     0.148 A 
ATOM     54  C   UNL A   1      50.616  26.532  26.133  1.00  0.00     0.002 A 
ATOM     55  C   UNL A   1      49.660  27.157  23.996  1.00  0.00     0.091 A 
ATOM     56  F   UNL A   1      47.396  27.897  23.910  1.00  0.00    -0.205 F 
ATOM     57  C   UNL A   1      50.753  26.723  24.759  1.00  0.00     0.022 A 
BRANCH  55  58
ATOM     58  S   UNL A   1      49.864  27.234  22.213  1.00  0.00     0.127 S 
ATOM     59  O   UNL A   1      48.818  26.326  21.752  1.00  0.00    -0.237 OA
ATOM     60  O   UNL A   1      49.619  28.650  21.935  1.00  0.00    -0.237 OA
ATOM     61  O   UNL A   1      51.237  26.810  21.966  1.00  0.00    -0.744 OA
ENDBRANCH  55  58
ENDBRANCH  27  51
BRANCH  39  62
ATOM     62  C   UNL A   1      45.154  32.713  28.937  1.00  0.00     0.023 A 
ATOM     63  C   UNL A   1      45.852  33.080  30.105  1.00  0.00     0.012 A 
ATOM     64  C   UNL A   1      44.926  33.675  27.933  1.00  0.00     0.148 A 
ATOM     65  C   UNL A   1      46.295  34.389  30.282  1.00  0.00     0.002 A 
ATOM     66  C   UNL A   1      45.412  34.966  28.097  1.00  0.00     0.091 A 
ATOM     67  F   UNL A   1      44.245  33.306  26.839  1.00  0.00    -0.205 F 
ATOM     68  C   UNL A   1      46.086  35.328  29.274  1.00  0.00     0.022 A 
BRANCH  66  69
ATOM     69  S   UNL A   1      45.270  36.220  26.818  1.00  0.00     0.127 S 
ATOM     70  O   UNL A   1      46.001  35.601  25.713  1.00  0.00    -0.237 OA
ATOM     71  O   UNL A   1      43.823  36.301  26.624  1.00  0.00    -0.237 OA
ATOM     72  O   UNL A   1      45.877  37.425  27.367  1.00  0.00    -0.744 OA
ENDBRANCH  66  69
ENDBRANCH  39  62
ENDBRANCH  13  14
ENDBRANCH   6   8
ENDBRANCH   3   4
ENDBRANCH   2   3
ENDBRANCH   1   2
BRANCH   1  73
ATOM     73  C   UNL A   1      36.795  21.935  24.206  1.00  0.00     0.116 C 
BRANCH  73  74
ATOM     74  N   UNL A   1      36.448  23.064  25.049  1.00  0.00    -0.356 N 
ATOM     75  C   UNL A   1      35.251  23.681  25.229  1.00  0.00     0.224 C 
ATOM     76  H   UNL A   1      37.194  23.441  25.570  1.00  0.00     0.163 HD
ATOM     77  O   UNL A   1      35.263  24.807  25.728  1.00  0.00    -0.275 OA
BRANCH  75  78
ATOM     78  C   UNL A   1      33.954  22.972  24.854  1.00  0.00     0.094 C 
ATOM     79  C   UNL A   1      33.481  22.050  26.021  1.00  0.00     0.002 C 
ATOM     80  C   UNL A   1      32.835  23.995  24.443  1.00  0.00     0.094 C 
ATOM     81  C   UNL A   1      33.050  22.848  27.261  1.00  0.00     0.005 C 
ATOM     82  C   UNL A   1      32.237  21.290  25.527  1.00  0.00     0.005 C 
ATOM     83  C   UNL A   1      31.629  23.734  25.382  1.00  0.00     0.002 C 
ATOM     84  C   UNL A   1      32.083  23.951  26.843  1.00  0.00     0.005 C 
ATOM     85  C   UNL A   1      31.116  22.290  25.233  1.00  0.00     0.005 C 
BRANCH  80  86
ATOM     86  C   UNL A   1      32.638  23.915  22.906  1.00  0.00     0.228 C 
ATOM     87  O   UNL A   1      32.972  22.892  22.293  1.00  0.00    -0.274 OA
ATOM     88  N   UNL A   1      32.125  24.884  22.103  1.00  0.00    -0.326 N 
ATOM     89  H   UNL A   1      32.133  24.668  21.142  1.00  0.00     0.169 HD
BRANCH  88  90
ATOM     90  C   UNL A   1      31.594  26.128  22.413  1.00  0.00     0.041 A 
ATOM     91  C   UNL A   1      30.319  26.148  22.971  1.00  0.00     0.026 A 
ATOM     92  C   UNL A   1      32.303  27.309  22.218  1.00  0.00     0.026 A 
ATOM     93  C   UNL A   1      29.836  27.329  23.524  1.00  0.00     0.006 A 
ATOM     94  C   UNL A   1      31.791  28.506  22.727  1.00  0.00     0.006 A 
ATOM     95  C   UNL A   1      30.581  28.513  23.439  1.00  0.00    -0.043 A 
BRANCH  95  96
ATOM     96  C   UNL A   1      30.099  29.762  24.138  1.00  0.00     0.071 C 
BRANCH  96  97
ATOM     97  C   UNL A   1      29.334  30.706  23.248  1.00  0.00    -0.041 A 
ATOM     98  C   UNL A   1      28.788  30.272  22.036  1.00  0.00     0.024 A 
ATOM     99  C   UNL A   1      29.171  32.045  23.604  1.00  0.00     0.024 A 
ATOM    100  C   UNL A   1      28.125  31.187  21.236  1.00  0.00     0.111 A 
ATOM    101  C   UNL A   1      28.478  32.882  22.743  1.00  0.00     0.111 A 
ATOM    102  N   UNL A   1      27.950  32.482  21.566  1.00  0.00    -0.265 NA
ENDBRANCH  96  97
ENDBRANCH  95  96
ENDBRANCH  88  90
ENDBRANCH  80  86
ENDBRANCH  75  78
ENDBRANCH  73  74
ENDBRANCH   1  73
TORSDOF 18
ENDMDL
