MODEL 1
REMARK VINA RESULT:     -12.6      0.000      0.000
REMARK SMILES Cc1cc(F)cc(N[C@H](C(=O)NCCCCNC(=O)c2ccc(-c3c4nc(c(-c5cccc(S(=O)(=O)[O-])c5F)c5ccc([nH]5)c(-c5cccc(S(=O)(=O)[O-])c5F)c5nc(c(-c6cccc(S(=O)(=O)[O-])c6F)c6ccc3[nH]6)C=C5)C=C4)cc2)c2cc(C)cc(C)c2)c1
REMARK SMILES IDX 15 1 14 2 13 3 12 4 10 5 11 6 9 8 8 9 7 11 1 12 2 13 3 14
REMARK SMILES IDX 91 15 4 16 5 17 6 18 83 19 84 20 90 21 85 22 88 23 86 24
REMARK SMILES IDX 87 25 89 26 16 27 17 28 18 29 19 31 20 32 21 33 82 34 22 35
REMARK SMILES IDX 81 36 23 37 24 38 25 39 75 40 26 41 80 42 74 43 76 44 27 45
REMARK SMILES IDX 79 46 73 47 72 48 28 50 60 51 40 52 59 53 41 54 44 55 58 56
REMARK SMILES IDX 77 57 42 58 43 59 57 61 78 62 45 63 29 64 30 65 38 66 31 67
REMARK SMILES IDX 33 68 39 69 32 70 34 71 35 72 36 73 37 74 61 75 62 76 70 77
REMARK SMILES IDX 63 78 65 79 71 80 64 81 66 82 67 83 68 84 69 85 46 86 47 87
REMARK SMILES IDX 55 88 48 89 50 90 56 91 49 92 51 93 52 94 53 95 54 96
REMARK H PARENT 12 7 8 10 17 30 76 49 44 60
REMARK Flexibility Score: inf
ROOT
ATOM      1  C   UNL A   1      31.033  31.976  26.249  1.00  0.00     0.023 C 
ENDROOT
BRANCH   1   2
ATOM      2  C   UNL A   1      31.102  30.691  25.425  1.00  0.00     0.023 C 
BRANCH   2   3
ATOM      3  C   UNL A   1      32.292  29.778  25.711  1.00  0.00     0.116 C 
BRANCH   3   4
ATOM      4  N   UNL A   1      33.246  29.691  24.626  1.00  0.00    -0.354 N 
ATOM      5  C   UNL A   1      33.337  28.755  23.626  1.00  0.00     0.247 C 
ATOM      6  O   UNL A   1      34.200  28.974  22.768  1.00  0.00    -0.272 OA
ATOM      7  H   UNL A   1      33.924  30.405  24.601  1.00  0.00     0.163 HD
BRANCH   5   8
ATOM      8  C   UNL A   1      32.526  27.423  23.662  1.00  0.00     0.200 C 
BRANCH   8   9
ATOM      9  N   UNL A   1      31.361  27.358  22.745  1.00  0.00    -0.370 N 
ATOM     10  H   UNL A   1      31.378  26.596  22.123  1.00  0.00     0.161 HD
BRANCH   9  11
ATOM     11  C   UNL A   1      30.258  28.176  22.612  1.00  0.00     0.038 A 
ATOM     12  C   UNL A   1      26.586  28.050  23.726  1.00  0.00     0.044 C 
ATOM     13  C   UNL A   1      27.864  28.525  23.110  1.00  0.00    -0.046 A 
ATOM     14  C   UNL A   1      27.906  29.771  22.486  1.00  0.00     0.042 A 
ATOM     15  C   UNL A   1      29.028  27.731  23.134  1.00  0.00     0.029 A 
ATOM     16  C   UNL A   1      29.107  30.225  21.977  1.00  0.00     0.125 A 
ATOM     17  F   UNL A   1      29.164  31.425  21.385  1.00  0.00    -0.207 F 
ATOM     18  C   UNL A   1      30.267  29.461  22.079  1.00  0.00     0.065 A 
ENDBRANCH   9  11
ENDBRANCH   8   9
BRANCH   8  19
ATOM     19  C   UNL A   1      33.340  26.129  23.590  1.00  0.00    -0.016 A 
ATOM     20  C   UNL A   1      33.144  25.203  22.556  1.00  0.00     0.009 A 
ATOM     21  C   UNL A   1      34.193  25.763  24.647  1.00  0.00     0.009 A 
ATOM     22  C   UNL A   1      33.574  23.879  22.676  1.00  0.00    -0.051 A 
ATOM     23  C   UNL A   1      34.766  24.484  24.702  1.00  0.00    -0.051 A 
ATOM     24  C   UNL A   1      32.992  22.835  21.767  1.00  0.00     0.044 C 
ATOM     25  C   UNL A   1      34.396  23.529  23.747  1.00  0.00     0.006 A 
ATOM     26  C   UNL A   1      35.684  24.095  25.821  1.00  0.00     0.044 C 
ENDBRANCH   8  19
ENDBRANCH   5   8
ENDBRANCH   3   4
ENDBRANCH   2   3
ENDBRANCH   1   2
BRANCH   1  27
ATOM     27  C   UNL A   1      32.295  32.344  27.022  1.00  0.00     0.116 C 
BRANCH  27  28
ATOM     28  N   UNL A   1      32.288  33.714  27.521  1.00  0.00    -0.352 N 
ATOM     29  C   UNL A   1      33.176  34.339  28.365  1.00  0.00     0.251 C 
ATOM     30  H   UNL A   1      31.539  34.271  27.209  1.00  0.00     0.163 HD
ATOM     31  O   UNL A   1      32.944  35.476  28.772  1.00  0.00    -0.269 OA
BRANCH  29  32
ATOM     32  C   UNL A   1      34.397  33.629  28.805  1.00  0.00     0.039 A 
ATOM     33  C   UNL A   1      35.645  34.226  28.604  1.00  0.00     0.014 A 
ATOM     34  C   UNL A   1      34.305  32.394  29.451  1.00  0.00     0.014 A 
ATOM     35  C   UNL A   1      36.792  33.628  29.134  1.00  0.00     0.010 A 
ATOM     36  C   UNL A   1      35.437  31.842  30.045  1.00  0.00     0.010 A 
ATOM     37  C   UNL A   1      36.692  32.455  29.900  1.00  0.00    -0.014 A 
BRANCH  37  38
ATOM     38  C   UNL A   1      37.869  31.859  30.584  1.00  0.00     0.031 A 
ATOM     39  C   UNL A   1      38.671  30.782  29.904  1.00  0.00     0.074 A 
ATOM     40  C   UNL A   1      38.139  32.192  31.864  1.00  0.00     0.049 A 
ATOM     41  N   UNL A   1      39.642  30.049  30.381  1.00  0.00    -0.248 NA
ATOM     42  C   UNL A   1      38.309  30.465  28.511  1.00  0.00     0.031 C 
ATOM     43  C   UNL A   1      37.389  33.163  32.663  1.00  0.00     0.029 A 
ATOM     44  N   UNL A   1      39.096  31.721  32.729  1.00  0.00    -0.354 N 
ATOM     45  C   UNL A   1      39.975  29.155  29.371  1.00  0.00     0.074 A 
ATOM     46  C   UNL A   1      39.083  29.419  28.262  1.00  0.00     0.031 C 
ATOM     47  C   UNL A   1      37.909  33.211  33.900  1.00  0.00     0.029 A 
ATOM     48  C   UNL A   1      39.007  32.255  33.994  1.00  0.00     0.049 A 
ATOM     49  H   UNL A   1      39.781  31.062  32.469  1.00  0.00     0.167 HD
ATOM     50  C   UNL A   1      40.952  28.217  29.355  1.00  0.00     0.034 A 
ATOM     51  C   UNL A   1      39.720  31.996  35.109  1.00  0.00     0.034 A 
ATOM     52  C   UNL A   1      41.874  27.998  30.434  1.00  0.00     0.049 A 
ATOM     53  C   UNL A   1      40.839  30.990  35.046  1.00  0.00     0.074 A 
ATOM     54  C   UNL A   1      42.959  27.138  30.478  1.00  0.00     0.029 A 
ATOM     55  N   UNL A   1      41.826  28.642  31.660  1.00  0.00    -0.354 N 
ATOM     56  N   UNL A   1      41.238  30.264  34.029  1.00  0.00    -0.248 NA
ATOM     57  C   UNL A   1      41.628  30.792  36.270  1.00  0.00     0.031 C 
ATOM     58  C   UNL A   1      43.558  27.256  31.736  1.00  0.00     0.029 A 
ATOM     59  C   UNL A   1      42.858  28.201  32.468  1.00  0.00     0.049 A 
ATOM     60  H   UNL A   1      41.154  29.315  31.918  1.00  0.00     0.167 HD
ATOM     61  C   UNL A   1      42.348  29.558  34.478  1.00  0.00     0.074 A 
ATOM     62  C   UNL A   1      42.567  29.952  35.854  1.00  0.00     0.031 C 
ATOM     63  C   UNL A   1      43.109  28.655  33.812  1.00  0.00     0.034 A 
BRANCH  50  64
ATOM     64  C   UNL A   1      41.116  27.398  28.101  1.00  0.00     0.023 A 
ATOM     65  C   UNL A   1      41.711  27.984  26.965  1.00  0.00     0.012 A 
ATOM     66  C   UNL A   1      40.740  26.042  28.062  1.00  0.00     0.148 A 
ATOM     67  C   UNL A   1      41.897  27.244  25.798  1.00  0.00     0.002 A 
ATOM     68  C   UNL A   1      40.970  25.297  26.910  1.00  0.00     0.091 A 
ATOM     69  F   UNL A   1      40.156  25.507  29.144  1.00  0.00    -0.205 F 
ATOM     70  C   UNL A   1      41.537  25.899  25.775  1.00  0.00     0.022 A 
BRANCH  68  71
ATOM     71  S   UNL A   1      40.615  23.540  26.806  1.00  0.00     0.127 S 
ATOM     72  O   UNL A   1      39.195  23.545  26.460  1.00  0.00    -0.237 OA
ATOM     73  O   UNL A   1      41.503  23.107  25.727  1.00  0.00    -0.237 OA
ATOM     74  O   UNL A   1      40.941  22.989  28.115  1.00  0.00    -0.744 OA
ENDBRANCH  68  71
ENDBRANCH  50  64
BRANCH  51  75
ATOM     75  C   UNL A   1      39.449  32.760  36.361  1.00  0.00     0.023 A 
ATOM     76  C   UNL A   1      40.084  34.003  36.558  1.00  0.00     0.012 A 
ATOM     77  C   UNL A   1      38.550  32.287  37.336  1.00  0.00     0.148 A 
ATOM     78  C   UNL A   1      39.852  34.745  37.716  1.00  0.00     0.002 A 
ATOM     79  C   UNL A   1      38.283  33.057  38.463  1.00  0.00     0.091 A 
ATOM     80  F   UNL A   1      37.966  31.097  37.138  1.00  0.00    -0.205 F 
ATOM     81  C   UNL A   1      38.945  34.279  38.662  1.00  0.00     0.022 A 
BRANCH  79  82
ATOM     82  S   UNL A   1      37.032  32.597  39.668  1.00  0.00     0.127 S 
ATOM     83  O   UNL A   1      35.815  32.627  38.863  1.00  0.00    -0.237 OA
ATOM     84  O   UNL A   1      37.474  31.261  40.069  1.00  0.00    -0.237 OA
ATOM     85  O   UNL A   1      37.122  33.597  40.724  1.00  0.00    -0.744 OA
ENDBRANCH  79  82
ENDBRANCH  51  75
BRANCH  63  86
ATOM     86  C   UNL A   1      44.288  28.057  34.533  1.00  0.00     0.023 A 
ATOM     87  C   UNL A   1      45.520  28.738  34.544  1.00  0.00     0.012 A 
ATOM     88  C   UNL A   1      44.141  26.873  35.282  1.00  0.00     0.148 A 
ATOM     89  C   UNL A   1      46.597  28.237  35.275  1.00  0.00     0.002 A 
ATOM     90  C   UNL A   1      45.205  26.405  36.044  1.00  0.00     0.091 A 
ATOM     91  F   UNL A   1      42.964  26.231  35.241  1.00  0.00    -0.205 F 
ATOM     92  C   UNL A   1      46.436  27.080  36.034  1.00  0.00     0.022 A 
BRANCH  90  93
ATOM     93  S   UNL A   1      45.058  24.978  37.127  1.00  0.00     0.127 S 
ATOM     94  O   UNL A   1      46.409  24.880  37.675  1.00  0.00    -0.237 OA
ATOM     95  O   UNL A   1      44.041  25.419  38.084  1.00  0.00    -0.237 OA
ATOM     96  O   UNL A   1      44.645  23.869  36.277  1.00  0.00    -0.744 OA
ENDBRANCH  90  93
ENDBRANCH  63  86
ENDBRANCH  37  38
ENDBRANCH  29  32
ENDBRANCH  27  28
ENDBRANCH   1  27
TORSDOF 17
ENDMDL
MODEL 2
REMARK VINA RESULT:     -12.4      6.159     11.539
REMARK SMILES Cc1cc(F)cc(N[C@H](C(=O)NCCCCNC(=O)c2ccc(-c3c4nc(c(-c5cccc(S(=O)(=O)[O-])c5F)c5ccc([nH]5)c(-c5cccc(S(=O)(=O)[O-])c5F)c5nc(c(-c6cccc(S(=O)(=O)[O-])c6F)c6ccc3[nH]6)C=C5)C=C4)cc2)c2cc(C)cc(C)c2)c1
REMARK SMILES IDX 15 1 14 2 13 3 12 4 10 5 11 6 9 8 8 9 7 11 1 12 2 13 3 14
REMARK SMILES IDX 91 15 4 16 5 17 6 18 83 19 84 20 90 21 85 22 88 23 86 24
REMARK SMILES IDX 87 25 89 26 16 27 17 28 18 29 19 31 20 32 21 33 82 34 22 35
REMARK SMILES IDX 81 36 23 37 24 38 25 39 75 40 26 41 80 42 74 43 76 44 27 45
REMARK SMILES IDX 79 46 73 47 72 48 28 50 60 51 40 52 59 53 41 54 44 55 58 56
REMARK SMILES IDX 77 57 42 58 43 59 57 61 78 62 45 63 29 64 30 65 38 66 31 67
REMARK SMILES IDX 33 68 39 69 32 70 34 71 35 72 36 73 37 74 61 75 62 76 70 77
REMARK SMILES IDX 63 78 65 79 71 80 64 81 66 82 67 83 68 84 69 85 46 86 47 87
REMARK SMILES IDX 55 88 48 89 50 90 56 91 49 92 51 93 52 94 53 95 54 96
REMARK H PARENT 12 7 8 10 17 30 76 49 44 60
REMARK Flexibility Score: inf
ROOT
ATOM      1  C   UNL A   1      37.618  19.363  25.001  1.00  0.00     0.023 C 
ENDROOT
BRANCH   1   2
ATOM      2  C   UNL A   1      36.280  20.102  24.994  1.00  0.00     0.023 C 
BRANCH   2   3
ATOM      3  C   UNL A   1      36.310  21.542  25.500  1.00  0.00     0.116 C 
BRANCH   3   4
ATOM      4  N   UNL A   1      35.518  21.767  26.691  1.00  0.00    -0.354 N 
ATOM      5  C   UNL A   1      34.176  22.035  26.800  1.00  0.00     0.247 C 
ATOM      6  O   UNL A   1      33.737  22.093  27.955  1.00  0.00    -0.272 OA
ATOM      7  H   UNL A   1      36.011  21.720  27.541  1.00  0.00     0.163 HD
BRANCH   5   8
ATOM      8  C   UNL A   1      33.302  22.408  25.564  1.00  0.00     0.200 C 
BRANCH   8   9
ATOM      9  N   UNL A   1      32.325  21.377  25.136  1.00  0.00    -0.370 N 
ATOM     10  H   UNL A   1      31.386  21.608  25.319  1.00  0.00     0.161 HD
BRANCH   9  11
ATOM     11  C   UNL A   1      32.499  20.151  24.526  1.00  0.00     0.038 A 
ATOM     12  C   UNL A   1      33.158  16.558  25.708  1.00  0.00     0.044 C 
ATOM     13  C   UNL A   1      32.911  17.733  24.814  1.00  0.00    -0.046 A 
ATOM     14  C   UNL A   1      32.815  17.542  23.437  1.00  0.00     0.042 A 
ATOM     15  C   UNL A   1      32.788  19.036  25.337  1.00  0.00     0.029 A 
ATOM     16  C   UNL A   1      32.524  18.625  22.630  1.00  0.00     0.125 A 
ATOM     17  F   UNL A   1      32.418  18.454  21.306  1.00  0.00    -0.207 F 
ATOM     18  C   UNL A   1      32.327  19.893  23.170  1.00  0.00     0.065 A 
ENDBRANCH   9  11
ENDBRANCH   8   9
BRANCH   8  19
ATOM     19  C   UNL A   1      32.649  23.792  25.584  1.00  0.00    -0.016 A 
ATOM     20  C   UNL A   1      31.365  23.998  25.059  1.00  0.00     0.009 A 
ATOM     21  C   UNL A   1      33.383  24.922  25.986  1.00  0.00     0.009 A 
ATOM     22  C   UNL A   1      30.917  25.276  24.718  1.00  0.00    -0.051 A 
ATOM     23  C   UNL A   1      32.877  26.217  25.797  1.00  0.00    -0.051 A 
ATOM     24  C   UNL A   1      29.745  25.418  23.790  1.00  0.00     0.044 C 
ATOM     25  C   UNL A   1      31.674  26.384  25.100  1.00  0.00     0.006 A 
ATOM     26  C   UNL A   1      33.654  27.421  26.235  1.00  0.00     0.044 C 
ENDBRANCH   8  19
ENDBRANCH   5   8
ENDBRANCH   3   4
ENDBRANCH   2   3
ENDBRANCH   1   2
BRANCH   1  27
ATOM     27  C   UNL A   1      38.795  20.117  25.611  1.00  0.00     0.116 C 
BRANCH  27  28
ATOM     28  N   UNL A   1      39.974  19.283  25.809  1.00  0.00    -0.352 N 
ATOM     29  C   UNL A   1      41.238  19.642  26.218  1.00  0.00     0.251 C 
ATOM     30  H   UNL A   1      39.847  18.325  25.622  1.00  0.00     0.163 HD
ATOM     31  O   UNL A   1      42.145  18.812  26.217  1.00  0.00    -0.269 OA
BRANCH  29  32
ATOM     32  C   UNL A   1      41.508  21.037  26.631  1.00  0.00     0.039 A 
ATOM     33  C   UNL A   1      42.043  21.282  27.899  1.00  0.00     0.014 A 
ATOM     34  C   UNL A   1      41.272  22.095  25.751  1.00  0.00     0.014 A 
ATOM     35  C   UNL A   1      42.427  22.580  28.250  1.00  0.00     0.010 A 
ATOM     36  C   UNL A   1      41.727  23.371  26.072  1.00  0.00     0.010 A 
ATOM     37  C   UNL A   1      42.316  23.627  27.321  1.00  0.00    -0.014 A 
BRANCH  37  38
ATOM     38  C   UNL A   1      42.828  24.993  27.609  1.00  0.00     0.031 A 
ATOM     39  C   UNL A   1      41.934  26.010  28.267  1.00  0.00     0.074 A 
ATOM     40  C   UNL A   1      44.049  25.358  27.166  1.00  0.00     0.049 A 
ATOM     41  N   UNL A   1      42.147  27.282  28.481  1.00  0.00    -0.248 NA
ATOM     42  C   UNL A   1      40.611  25.540  28.713  1.00  0.00     0.031 C 
ATOM     43  C   UNL A   1      44.982  24.489  26.444  1.00  0.00     0.029 A 
ATOM     44  N   UNL A   1      44.700  26.566  27.224  1.00  0.00    -0.354 N 
ATOM     45  C   UNL A   1      40.974  27.774  29.039  1.00  0.00     0.074 A 
ATOM     46  C   UNL A   1      40.041  26.670  29.107  1.00  0.00     0.031 C 
ATOM     47  C   UNL A   1      46.079  25.194  26.122  1.00  0.00     0.029 A 
ATOM     48  C   UNL A   1      45.918  26.568  26.584  1.00  0.00     0.049 A 
ATOM     49  H   UNL A   1      44.329  27.356  27.679  1.00  0.00     0.167 HD
ATOM     50  C   UNL A   1      40.705  29.026  29.482  1.00  0.00     0.034 A 
ATOM     51  C   UNL A   1      46.801  27.566  26.381  1.00  0.00     0.034 A 
ATOM     52  C   UNL A   1      41.653  30.106  29.468  1.00  0.00     0.049 A 
ATOM     53  C   UNL A   1      46.501  28.934  26.935  1.00  0.00     0.074 A 
ATOM     54  C   UNL A   1      41.508  31.384  29.980  1.00  0.00     0.029 A 
ATOM     55  N   UNL A   1      42.922  30.037  28.916  1.00  0.00    -0.354 N 
ATOM     56  N   UNL A   1      45.446  29.340  27.600  1.00  0.00    -0.248 NA
ATOM     57  C   UNL A   1      47.525  29.971  26.744  1.00  0.00     0.031 C 
ATOM     58  C   UNL A   1      42.688  32.091  29.726  1.00  0.00     0.029 A 
ATOM     59  C   UNL A   1      43.573  31.247  29.074  1.00  0.00     0.049 A 
ATOM     60  H   UNL A   1      43.304  29.243  28.476  1.00  0.00     0.167 HD
ATOM     61  C   UNL A   1      45.699  30.664  27.943  1.00  0.00     0.074 A 
ATOM     62  C   UNL A   1      47.011  30.988  27.423  1.00  0.00     0.031 C 
ATOM     63  C   UNL A   1      44.908  31.535  28.616  1.00  0.00     0.034 A 
BRANCH  50  64
ATOM     64  C   UNL A   1      39.346  29.279  30.081  1.00  0.00     0.023 A 
ATOM     65  C   UNL A   1      39.071  28.828  31.388  1.00  0.00     0.012 A 
ATOM     66  C   UNL A   1      38.366  30.010  29.382  1.00  0.00     0.148 A 
ATOM     67  C   UNL A   1      37.831  29.069  31.977  1.00  0.00     0.002 A 
ATOM     68  C   UNL A   1      37.148  30.286  29.993  1.00  0.00     0.091 A 
ATOM     69  F   UNL A   1      38.637  30.414  28.132  1.00  0.00    -0.205 F 
ATOM     70  C   UNL A   1      36.874  29.806  31.284  1.00  0.00     0.022 A 
BRANCH  68  71
ATOM     71  S   UNL A   1      35.881  31.295  29.216  1.00  0.00     0.127 S 
ATOM     72  O   UNL A   1      35.078  31.700  30.368  1.00  0.00    -0.237 OA
ATOM     73  O   UNL A   1      36.668  32.372  28.615  1.00  0.00    -0.237 OA
ATOM     74  O   UNL A   1      35.211  30.427  28.257  1.00  0.00    -0.744 OA
ENDBRANCH  68  71
ENDBRANCH  50  64
BRANCH  51  75
ATOM     75  C   UNL A   1      48.091  27.290  25.686  1.00  0.00     0.023 A 
ATOM     76  C   UNL A   1      49.187  26.815  26.435  1.00  0.00     0.012 A 
ATOM     77  C   UNL A   1      48.233  27.459  24.296  1.00  0.00     0.148 A 
ATOM     78  C   UNL A   1      50.408  26.544  25.817  1.00  0.00     0.002 A 
ATOM     79  C   UNL A   1      49.437  27.136  23.678  1.00  0.00     0.091 A 
ATOM     80  F   UNL A   1      47.185  27.923  23.601  1.00  0.00    -0.205 F 
ATOM     81  C   UNL A   1      50.530  26.694  24.439  1.00  0.00     0.022 A 
BRANCH  79  82
ATOM     82  S   UNL A   1      49.643  27.172  21.893  1.00  0.00     0.127 S 
ATOM     83  O   UNL A   1      49.397  28.579  21.591  1.00  0.00    -0.237 OA
ATOM     84  O   UNL A   1      51.033  26.742  21.739  1.00  0.00    -0.237 OA
ATOM     85  O   UNL A   1      48.665  26.228  21.369  1.00  0.00    -0.744 OA
ENDBRANCH  79  82
ENDBRANCH  51  75
BRANCH  63  86
ATOM     86  C   UNL A   1      45.446  32.915  28.884  1.00  0.00     0.023 A 
ATOM     87  C   UNL A   1      46.260  33.142  30.010  1.00  0.00     0.012 A 
ATOM     88  C   UNL A   1      45.227  33.958  27.963  1.00  0.00     0.148 A 
ATOM     89  C   UNL A   1      46.833  34.396  30.227  1.00  0.00     0.002 A 
ATOM     90  C   UNL A   1      45.837  35.191  28.162  1.00  0.00     0.091 A 
ATOM     91  F   UNL A   1      44.432  33.725  26.908  1.00  0.00    -0.205 F 
ATOM     92  C   UNL A   1      46.632  35.414  29.298  1.00  0.00     0.022 A 
BRANCH  90  93
ATOM     93  S   UNL A   1      45.714  36.529  26.969  1.00  0.00     0.127 S 
ATOM     94  O   UNL A   1      46.554  37.554  27.583  1.00  0.00    -0.237 OA
ATOM     95  O   UNL A   1      46.276  35.921  25.761  1.00  0.00    -0.237 OA
ATOM     96  O   UNL A   1      44.296  36.855  26.876  1.00  0.00    -0.744 OA
ENDBRANCH  90  93
ENDBRANCH  63  86
ENDBRANCH  37  38
ENDBRANCH  29  32
ENDBRANCH  27  28
ENDBRANCH   1  27
TORSDOF 17
ENDMDL
MODEL 3
REMARK VINA RESULT:     -12.4      1.495      2.140
REMARK SMILES Cc1cc(F)cc(N[C@H](C(=O)NCCCCNC(=O)c2ccc(-c3c4nc(c(-c5cccc(S(=O)(=O)[O-])c5F)c5ccc([nH]5)c(-c5cccc(S(=O)(=O)[O-])c5F)c5nc(c(-c6cccc(S(=O)(=O)[O-])c6F)c6ccc3[nH]6)C=C5)C=C4)cc2)c2cc(C)cc(C)c2)c1
REMARK SMILES IDX 15 1 14 2 13 3 12 4 10 5 11 6 9 8 8 9 7 11 1 12 2 13 3 14
REMARK SMILES IDX 91 15 4 16 5 17 6 18 83 19 84 20 90 21 85 22 88 23 86 24
REMARK SMILES IDX 87 25 89 26 16 27 17 28 18 29 19 31 20 32 21 33 82 34 22 35
REMARK SMILES IDX 81 36 23 37 24 38 25 39 75 40 26 41 80 42 74 43 76 44 27 45
REMARK SMILES IDX 79 46 73 47 72 48 28 50 60 51 40 52 59 53 41 54 44 55 58 56
REMARK SMILES IDX 77 57 42 58 43 59 57 61 78 62 45 63 29 64 30 65 38 66 31 67
REMARK SMILES IDX 33 68 39 69 32 70 34 71 35 72 36 73 37 74 61 75 62 76 70 77
REMARK SMILES IDX 63 78 65 79 71 80 64 81 66 82 67 83 68 84 69 85 46 86 47 87
REMARK SMILES IDX 55 88 48 89 50 90 56 91 49 92 51 93 52 94 53 95 54 96
REMARK H PARENT 12 7 8 10 17 30 76 49 44 60
REMARK Flexibility Score: inf
ROOT
ATOM      1  C   UNL A   1      31.811  31.221  26.611  1.00  0.00     0.023 C 
ENDROOT
BRANCH   1   2
ATOM      2  C   UNL A   1      31.926  29.702  26.730  1.00  0.00     0.023 C 
BRANCH   2   3
ATOM      3  C   UNL A   1      33.292  29.108  26.393  1.00  0.00     0.116 C 
BRANCH   3   4
ATOM      4  N   UNL A   1      33.708  29.323  25.023  1.00  0.00    -0.354 N 
ATOM      5  C   UNL A   1      33.188  28.795  23.868  1.00  0.00     0.247 C 
ATOM      6  O   UNL A   1      33.681  29.224  22.817  1.00  0.00    -0.272 OA
ATOM      7  H   UNL A   1      34.471  29.933  24.904  1.00  0.00     0.163 HD
BRANCH   5   8
ATOM      8  C   UNL A   1      32.166  27.617  23.880  1.00  0.00     0.200 C 
BRANCH   8   9
ATOM      9  N   UNL A   1      31.048  27.728  22.911  1.00  0.00    -0.370 N 
ATOM     10  H   UNL A   1      31.163  27.188  22.097  1.00  0.00     0.161 HD
BRANCH   9  11
ATOM     11  C   UNL A   1      29.876  28.456  22.949  1.00  0.00     0.038 A 
ATOM     12  C   UNL A   1      28.807  32.009  21.962  1.00  0.00     0.044 C 
ATOM     13  C   UNL A   1      28.751  30.601  22.467  1.00  0.00    -0.046 A 
ATOM     14  C   UNL A   1      27.536  30.072  22.896  1.00  0.00     0.042 A 
ATOM     15  C   UNL A   1      29.909  29.800  22.532  1.00  0.00     0.029 A 
ATOM     16  C   UNL A   1      27.485  28.752  23.300  1.00  0.00     0.125 A 
ATOM     17  F   UNL A   1      26.321  28.227  23.704  1.00  0.00    -0.207 F 
ATOM     18  C   UNL A   1      28.624  27.950  23.284  1.00  0.00     0.065 A 
ENDBRANCH   9  11
ENDBRANCH   8   9
BRANCH   8  19
ATOM     19  C   UNL A   1      32.755  26.205  23.862  1.00  0.00    -0.016 A 
ATOM     20  C   UNL A   1      33.547  25.733  24.919  1.00  0.00     0.009 A 
ATOM     21  C   UNL A   1      32.646  25.401  22.714  1.00  0.00     0.009 A 
ATOM     22  C   UNL A   1      34.392  24.633  24.758  1.00  0.00    -0.051 A 
ATOM     23  C   UNL A   1      33.369  24.204  22.599  1.00  0.00    -0.051 A 
ATOM     24  C   UNL A   1      35.510  24.419  25.737  1.00  0.00     0.044 C 
ATOM     25  C   UNL A   1      34.290  23.865  23.598  1.00  0.00     0.006 A 
ATOM     26  C   UNL A   1      33.246  23.341  21.380  1.00  0.00     0.044 C 
ENDBRANCH   8  19
ENDBRANCH   5   8
ENDBRANCH   3   4
ENDBRANCH   2   3
ENDBRANCH   1   2
BRANCH   1  27
ATOM     27  C   UNL A   1      32.913  32.031  27.285  1.00  0.00     0.116 C 
BRANCH  27  28
ATOM     28  N   UNL A   1      32.558  33.430  27.489  1.00  0.00    -0.352 N 
ATOM     29  C   UNL A   1      33.087  34.345  28.369  1.00  0.00     0.251 C 
ATOM     30  H   UNL A   1      31.835  33.768  26.913  1.00  0.00     0.163 HD
ATOM     31  O   UNL A   1      32.579  35.459  28.481  1.00  0.00    -0.269 OA
BRANCH  29  32
ATOM     32  C   UNL A   1      34.252  33.974  29.203  1.00  0.00     0.039 A 
ATOM     33  C   UNL A   1      34.051  33.212  30.358  1.00  0.00     0.014 A 
ATOM     34  C   UNL A   1      35.543  34.345  28.821  1.00  0.00     0.014 A 
ATOM     35  C   UNL A   1      35.154  32.744  31.078  1.00  0.00     0.010 A 
ATOM     36  C   UNL A   1      36.640  33.812  29.494  1.00  0.00     0.010 A 
ATOM     37  C   UNL A   1      36.458  33.001  30.626  1.00  0.00    -0.014 A 
BRANCH  37  38
ATOM     38  C   UNL A   1      37.652  32.416  31.292  1.00  0.00     0.031 A 
ATOM     39  C   UNL A   1      38.383  31.265  30.653  1.00  0.00     0.074 A 
ATOM     40  C   UNL A   1      38.001  32.832  32.527  1.00  0.00     0.049 A 
ATOM     41  N   UNL A   1      39.356  30.536  31.133  1.00  0.00    -0.248 NA
ATOM     42  C   UNL A   1      37.937  30.860  29.309  1.00  0.00     0.031 C 
ATOM     43  C   UNL A   1      37.325  33.885  33.288  1.00  0.00     0.029 A 
ATOM     44  N   UNL A   1      38.988  32.393  33.375  1.00  0.00    -0.354 N 
ATOM     45  C   UNL A   1      39.607  29.560  30.177  1.00  0.00     0.074 A 
ATOM     46  C   UNL A   1      38.665  29.772  29.099  1.00  0.00     0.031 C 
ATOM     47  C   UNL A   1      37.912  34.005  34.490  1.00  0.00     0.029 A 
ATOM     48  C   UNL A   1      38.984  33.022  34.599  1.00  0.00     0.049 A 
ATOM     49  H   UNL A   1      39.638  31.694  33.130  1.00  0.00     0.167 HD
ATOM     50  C   UNL A   1      40.552  28.590  30.181  1.00  0.00     0.034 A 
ATOM     51  C   UNL A   1      39.748  32.821  35.692  1.00  0.00     0.034 A 
ATOM     52  C   UNL A   1      41.525  28.419  31.225  1.00  0.00     0.049 A 
ATOM     53  C   UNL A   1      40.830  31.774  35.647  1.00  0.00     0.074 A 
ATOM     54  C   UNL A   1      42.583  27.528  31.277  1.00  0.00     0.029 A 
ATOM     55  N   UNL A   1      41.562  29.153  32.400  1.00  0.00    -0.354 N 
ATOM     56  N   UNL A   1      41.152  30.963  34.668  1.00  0.00    -0.248 NA
ATOM     57  C   UNL A   1      41.678  31.640  36.840  1.00  0.00     0.031 C 
ATOM     58  C   UNL A   1      43.253  27.717  32.490  1.00  0.00     0.029 A 
ATOM     59  C   UNL A   1      42.623  28.737  33.184  1.00  0.00     0.049 A 
ATOM     60  H   UNL A   1      40.926  29.866  32.641  1.00  0.00     0.167 HD
ATOM     61  C   UNL A   1      42.263  30.254  35.110  1.00  0.00     0.074 A 
ATOM     62  C   UNL A   1      42.567  30.740  36.440  1.00  0.00     0.031 C 
ATOM     63  C   UNL A   1      42.959  29.279  34.476  1.00  0.00     0.034 A 
BRANCH  50  64
ATOM     64  C   UNL A   1      40.623  27.677  28.985  1.00  0.00     0.023 A 
ATOM     65  C   UNL A   1      39.672  26.645  28.845  1.00  0.00     0.012 A 
ATOM     66  C   UNL A   1      41.584  27.873  27.975  1.00  0.00     0.148 A 
ATOM     67  C   UNL A   1      39.699  25.800  27.737  1.00  0.00     0.002 A 
ATOM     68  C   UNL A   1      41.577  27.054  26.851  1.00  0.00     0.091 A 
ATOM     69  F   UNL A   1      42.494  28.846  28.134  1.00  0.00    -0.205 F 
ATOM     70  C   UNL A   1      40.643  26.011  26.736  1.00  0.00     0.022 A 
BRANCH  68  71
ATOM     71  S   UNL A   1      42.699  27.296  25.469  1.00  0.00     0.127 S 
ATOM     72  O   UNL A   1      43.966  27.537  26.157  1.00  0.00    -0.237 OA
ATOM     73  O   UNL A   1      42.618  26.010  24.775  1.00  0.00    -0.237 OA
ATOM     74  O   UNL A   1      42.169  28.425  24.716  1.00  0.00    -0.744 OA
ENDBRANCH  68  71
ENDBRANCH  50  64
BRANCH  51  75
ATOM     75  C   UNL A   1      39.568  33.683  36.895  1.00  0.00     0.023 A 
ATOM     76  C   UNL A   1      40.010  35.020  36.854  1.00  0.00     0.012 A 
ATOM     77  C   UNL A   1      38.938  33.205  38.060  1.00  0.00     0.148 A 
ATOM     78  C   UNL A   1      39.857  35.856  37.961  1.00  0.00     0.002 A 
ATOM     79  C   UNL A   1      38.739  34.059  39.140  1.00  0.00     0.091 A 
ATOM     80  F   UNL A   1      38.534  31.927  38.086  1.00  0.00    -0.205 F 
ATOM     81  C   UNL A   1      39.212  35.380  39.098  1.00  0.00     0.022 A 
BRANCH  79  82
ATOM     82  S   UNL A   1      37.803  33.570  40.594  1.00  0.00     0.127 S 
ATOM     83  O   UNL A   1      37.747  34.818  41.348  1.00  0.00    -0.237 OA
ATOM     84  O   UNL A   1      36.531  33.146  40.007  1.00  0.00    -0.237 OA
ATOM     85  O   UNL A   1      38.568  32.491  41.204  1.00  0.00    -0.744 OA
ENDBRANCH  79  82
ENDBRANCH  51  75
BRANCH  63  86
ATOM     86  C   UNL A   1      44.156  28.696  35.178  1.00  0.00     0.023 A 
ATOM     87  C   UNL A   1      45.428  29.265  34.982  1.00  0.00     0.012 A 
ATOM     88  C   UNL A   1      43.998  27.650  36.108  1.00  0.00     0.148 A 
ATOM     89  C   UNL A   1      46.533  28.788  35.688  1.00  0.00     0.002 A 
ATOM     90  C   UNL A   1      45.095  27.210  36.841  1.00  0.00     0.091 A 
ATOM     91  F   UNL A   1      42.781  27.110  36.264  1.00  0.00    -0.205 F 
ATOM     92  C   UNL A   1      46.364  27.771  36.625  1.00  0.00     0.022 A 
BRANCH  90  93
ATOM     93  S   UNL A   1      44.952  25.973  38.136  1.00  0.00     0.127 S 
ATOM     94  O   UNL A   1      46.305  25.960  38.686  1.00  0.00    -0.237 OA
ATOM     95  O   UNL A   1      43.941  26.561  39.017  1.00  0.00    -0.237 OA
ATOM     96  O   UNL A   1      44.533  24.744  37.474  1.00  0.00    -0.744 OA
ENDBRANCH  90  93
ENDBRANCH  63  86
ENDBRANCH  37  38
ENDBRANCH  29  32
ENDBRANCH  27  28
ENDBRANCH   1  27
TORSDOF 17
ENDMDL
