MODEL 1
REMARK VINA RESULT:     -12.9      0.000      0.000
REMARK SMILES CC(C)(C)c1cc2c(cc1Cl)C=C(C(=O)NCCCCNC(=O)c1ccc(-c3c4nc(c(-c5cccc(S(=O)(=O)[O-])c5F)c5ccc([nH]5)c(-c5cccc(S(=O)(=O)[O-])c5F)c5nc(c(-c6cccc(S(=O)(=O)[O-])c6F)c6ccc3[nH]6)C=C5)C=C4)cc1)[C@H](C(F)(F)F)O2
REMARK SMILES IDX 19 1 18 2 17 3 16 4 14 5 15 6 13 8 5 9 6 10 10 11 7 12 9 13
REMARK SMILES IDX 11 14 8 15 92 16 12 17 87 18 2 19 1 20 3 21 4 22 88 23 89 24
REMARK SMILES IDX 90 25 91 26 20 27 21 28 22 29 23 31 24 32 25 33 86 34 26 35
REMARK SMILES IDX 85 36 27 37 28 38 29 39 79 40 30 41 84 42 78 43 80 44 31 45
REMARK SMILES IDX 83 46 77 47 76 48 32 50 64 51 44 52 63 53 45 54 48 55 62 56
REMARK SMILES IDX 81 57 46 58 47 59 61 61 82 62 49 63 33 64 34 65 42 66 35 67
REMARK SMILES IDX 37 68 43 69 36 70 38 71 39 72 40 73 41 74 65 75 66 76 74 77
REMARK SMILES IDX 67 78 69 79 75 80 68 81 70 82 71 83 72 84 73 85 50 86 51 87
REMARK SMILES IDX 59 88 52 89 54 90 60 91 53 92 55 93 56 94 57 95 58 96
REMARK H PARENT 16 7 21 30 80 49 48 60
REMARK Flexibility Score: inf
ROOT
ATOM      1  C   UNL A   1      31.290  30.385  25.442  1.00  0.00     0.023 C 
ENDROOT
BRANCH   1   2
ATOM      2  C   UNL A   1      31.531  28.954  24.960  1.00  0.00     0.023 C 
BRANCH   2   3
ATOM      3  C   UNL A   1      33.001  28.547  24.871  1.00  0.00     0.116 C 
BRANCH   3   4
ATOM      4  N   UNL A   1      33.466  28.497  23.497  1.00  0.00    -0.352 N 
ATOM      5  C   UNL A   1      33.639  27.550  22.546  1.00  0.00     0.251 C 
ATOM      6  O   UNL A   1      34.008  27.975  21.445  1.00  0.00    -0.270 OA
ATOM      7  H   UNL A   1      33.726  29.388  23.170  1.00  0.00     0.163 HD
BRANCH   5   8
ATOM      8  C   UNL A   1      33.428  26.082  22.728  1.00  0.00     0.067 C 
ATOM      9  C   UNL A   1      33.828  21.253  24.271  1.00  0.00    -0.020 A 
ATOM     10  C   UNL A   1      33.046  21.954  23.325  1.00  0.00     0.053 A 
ATOM     11  C   UNL A   1      34.838  22.006  24.918  1.00  0.00     0.045 A 
ATOM     12  C   UNL A   1      33.232  23.314  23.069  1.00  0.00     0.128 A 
ATOM     13  C   UNL A   1      35.038  23.370  24.631  1.00  0.00     0.032 A 
ATOM     14  Cl  UNL A   1      35.908  21.370  26.121  1.00  0.00    -0.084 Cl
ATOM     15  C   UNL A   1      34.230  24.030  23.711  1.00  0.00     0.019 A 
ATOM     16  O   UNL A   1      32.401  23.888  22.147  1.00  0.00    -0.475 OA
ATOM     17  C   UNL A   1      34.404  25.443  23.402  1.00  0.00     0.025 C 
ATOM     18  C   UNL A   1      32.195  25.323  22.313  1.00  0.00     0.314 C 
BRANCH   9  19
ATOM     19  C   UNL A   1      33.521  19.761  24.554  1.00  0.00    -0.012 C 
ATOM     20  C   UNL A   1      34.802  18.899  24.515  1.00  0.00     0.016 C 
ATOM     21  C   UNL A   1      32.564  19.115  23.510  1.00  0.00     0.016 C 
ATOM     22  C   UNL A   1      32.809  19.612  25.916  1.00  0.00     0.016 C 
ENDBRANCH   9  19
BRANCH  18  23
ATOM     23  C   UNL A   1      30.976  25.577  23.218  1.00  0.00     0.429 C 
ATOM     24  F   UNL A   1      31.311  25.725  24.519  1.00  0.00    -0.167 F 
ATOM     25  F   UNL A   1      30.341  26.714  22.838  1.00  0.00    -0.167 F 
ATOM     26  F   UNL A   1      30.064  24.578  23.164  1.00  0.00    -0.167 F 
ENDBRANCH  18  23
ENDBRANCH   5   8
ENDBRANCH   3   4
ENDBRANCH   2   3
ENDBRANCH   1   2
BRANCH   1  27
ATOM     27  C   UNL A   1      32.148  30.826  26.621  1.00  0.00     0.116 C 
BRANCH  27  28
ATOM     28  N   UNL A   1      32.002  32.231  26.973  1.00  0.00    -0.352 N 
ATOM     29  C   UNL A   1      32.922  33.046  27.600  1.00  0.00     0.251 C 
ATOM     30  H   UNL A   1      31.145  32.651  26.734  1.00  0.00     0.163 HD
ATOM     31  O   UNL A   1      32.632  34.198  27.893  1.00  0.00    -0.269 OA
BRANCH  29  32
ATOM     32  C   UNL A   1      34.236  32.475  27.963  1.00  0.00     0.039 A 
ATOM     33  C   UNL A   1      34.337  31.137  28.347  1.00  0.00     0.014 A 
ATOM     34  C   UNL A   1      35.350  33.315  28.021  1.00  0.00     0.014 A 
ATOM     35  C   UNL A   1      35.496  30.692  28.966  1.00  0.00     0.010 A 
ATOM     36  C   UNL A   1      36.547  32.836  28.561  1.00  0.00     0.010 A 
ATOM     37  C   UNL A   1      36.610  31.540  29.095  1.00  0.00    -0.014 A 
BRANCH  37  38
ATOM     38  C   UNL A   1      37.816  31.038  29.803  1.00  0.00     0.031 A 
ATOM     39  C   UNL A   1      38.089  31.410  31.237  1.00  0.00     0.074 A 
ATOM     40  C   UNL A   1      38.631  30.175  29.164  1.00  0.00     0.049 A 
ATOM     41  N   UNL A   1      39.048  30.989  32.021  1.00  0.00    -0.248 NA
ATOM     42  C   UNL A   1      37.179  32.374  31.876  1.00  0.00     0.031 C 
ATOM     43  C   UNL A   1      38.481  29.759  27.768  1.00  0.00     0.029 A 
ATOM     44  N   UNL A   1      39.720  29.470  29.608  1.00  0.00    -0.354 N 
ATOM     45  C   UNL A   1      38.887  31.670  33.222  1.00  0.00     0.074 A 
ATOM     46  C   UNL A   1      37.735  32.531  33.070  1.00  0.00     0.031 C 
ATOM     47  C   UNL A   1      39.397  28.821  27.490  1.00  0.00     0.029 A 
ATOM     48  C   UNL A   1      40.231  28.606  28.669  1.00  0.00     0.049 A 
ATOM     49  H   UNL A   1      40.099  29.573  30.510  1.00  0.00     0.167 HD
ATOM     50  C   UNL A   1      39.619  31.568  34.356  1.00  0.00     0.034 A 
ATOM     51  C   UNL A   1      41.253  27.732  28.744  1.00  0.00     0.034 A 
ATOM     52  C   UNL A   1      40.717  30.658  34.535  1.00  0.00     0.049 A 
ATOM     53  C   UNL A   1      42.024  27.613  30.024  1.00  0.00     0.074 A 
ATOM     54  C   UNL A   1      41.475  30.443  35.672  1.00  0.00     0.029 A 
ATOM     55  N   UNL A   1      41.207  29.807  33.558  1.00  0.00    -0.354 N 
ATOM     56  N   UNL A   1      41.802  28.206  31.172  1.00  0.00    -0.248 NA
ATOM     57  C   UNL A   1      43.181  26.707  30.025  1.00  0.00     0.031 C 
ATOM     58  C   UNL A   1      42.425  29.458  35.382  1.00  0.00     0.029 A 
ATOM     59  C   UNL A   1      42.259  29.066  34.063  1.00  0.00     0.049 A 
ATOM     60  H   UNL A   1      40.857  29.740  32.639  1.00  0.00     0.167 HD
ATOM     61  C   UNL A   1      42.792  27.751  32.031  1.00  0.00     0.074 A 
ATOM     62  C   UNL A   1      43.598  26.808  31.282  1.00  0.00     0.031 C 
ATOM     63  C   UNL A   1      43.028  28.105  33.317  1.00  0.00     0.034 A 
BRANCH  50  64
ATOM     64  C   UNL A   1      39.227  32.419  35.532  1.00  0.00     0.023 A 
ATOM     65  C   UNL A   1      38.445  31.852  36.558  1.00  0.00     0.012 A 
ATOM     66  C   UNL A   1      39.717  33.732  35.674  1.00  0.00     0.148 A 
ATOM     67  C   UNL A   1      38.151  32.583  37.707  1.00  0.00     0.002 A 
ATOM     68  C   UNL A   1      39.439  34.445  36.834  1.00  0.00     0.091 A 
ATOM     69  F   UNL A   1      40.447  34.252  34.677  1.00  0.00    -0.205 F 
ATOM     70  C   UNL A   1      38.654  33.873  37.849  1.00  0.00     0.022 A 
BRANCH  68  71
ATOM     71  S   UNL A   1      40.081  36.096  37.141  1.00  0.00     0.127 S 
ATOM     72  O   UNL A   1      41.500  35.821  37.370  1.00  0.00    -0.237 OA
ATOM     73  O   UNL A   1      39.788  36.777  35.880  1.00  0.00    -0.237 OA
ATOM     74  O   UNL A   1      39.353  36.603  38.294  1.00  0.00    -0.744 OA
ENDBRANCH  68  71
ENDBRANCH  50  64
BRANCH  51  75
ATOM     75  C   UNL A   1      41.547  26.863  27.574  1.00  0.00     0.023 A 
ATOM     76  C   UNL A   1      42.253  27.401  26.482  1.00  0.00     0.012 A 
ATOM     77  C   UNL A   1      41.229  25.491  27.585  1.00  0.00     0.148 A 
ATOM     78  C   UNL A   1      42.641  26.585  25.419  1.00  0.00     0.002 A 
ATOM     79  C   UNL A   1      41.660  24.675  26.547  1.00  0.00     0.091 A 
ATOM     80  F   UNL A   1      40.545  25.008  28.632  1.00  0.00    -0.205 F 
ATOM     81  C   UNL A   1      42.358  25.221  25.458  1.00  0.00     0.022 A 
BRANCH  79  82
ATOM     82  S   UNL A   1      41.461  22.890  26.578  1.00  0.00     0.127 S 
ATOM     83  O   UNL A   1      40.010  22.751  26.495  1.00  0.00    -0.237 OA
ATOM     84  O   UNL A   1      42.192  22.484  25.378  1.00  0.00    -0.237 OA
ATOM     85  O   UNL A   1      42.067  22.450  27.828  1.00  0.00    -0.744 OA
ENDBRANCH  79  82
ENDBRANCH  51  75
BRANCH  63  86
ATOM     86  C   UNL A   1      44.216  27.499  34.006  1.00  0.00     0.023 A 
ATOM     87  C   UNL A   1      45.438  28.198  33.988  1.00  0.00     0.012 A 
ATOM     88  C   UNL A   1      44.094  26.324  34.770  1.00  0.00     0.148 A 
ATOM     89  C   UNL A   1      46.528  27.732  34.720  1.00  0.00     0.002 A 
ATOM     90  C   UNL A   1      45.176  25.880  35.520  1.00  0.00     0.091 A 
ATOM     91  F   UNL A   1      42.918  25.679  34.763  1.00  0.00    -0.205 F 
ATOM     92  C   UNL A   1      46.394  26.581  35.493  1.00  0.00     0.022 A 
BRANCH  90  93
ATOM     93  S   UNL A   1      45.087  24.448  36.600  1.00  0.00     0.127 S 
ATOM     94  O   UNL A   1      46.429  24.431  37.181  1.00  0.00    -0.237 OA
ATOM     95  O   UNL A   1      44.024  24.828  37.529  1.00  0.00    -0.237 OA
ATOM     96  O   UNL A   1      44.772  23.313  35.742  1.00  0.00    -0.744 OA
ENDBRANCH  90  93
ENDBRANCH  63  86
ENDBRANCH  37  38
ENDBRANCH  29  32
ENDBRANCH  27  28
ENDBRANCH   1  27
TORSDOF 16
ENDMDL
MODEL 2
REMARK VINA RESULT:     -12.6      5.067     10.329
REMARK SMILES CC(C)(C)c1cc2c(cc1Cl)C=C(C(=O)NCCCCNC(=O)c1ccc(-c3c4nc(c(-c5cccc(S(=O)(=O)[O-])c5F)c5ccc([nH]5)c(-c5cccc(S(=O)(=O)[O-])c5F)c5nc(c(-c6cccc(S(=O)(=O)[O-])c6F)c6ccc3[nH]6)C=C5)C=C4)cc1)[C@H](C(F)(F)F)O2
REMARK SMILES IDX 19 1 18 2 17 3 16 4 14 5 15 6 13 8 5 9 6 10 10 11 7 12 9 13
REMARK SMILES IDX 11 14 8 15 92 16 12 17 87 18 2 19 1 20 3 21 4 22 88 23 89 24
REMARK SMILES IDX 90 25 91 26 20 27 21 28 22 29 23 31 24 32 25 33 86 34 26 35
REMARK SMILES IDX 85 36 27 37 28 38 29 39 79 40 30 41 84 42 78 43 80 44 31 45
REMARK SMILES IDX 83 46 77 47 76 48 32 50 64 51 44 52 63 53 45 54 48 55 62 56
REMARK SMILES IDX 81 57 46 58 47 59 61 61 82 62 49 63 33 64 34 65 42 66 35 67
REMARK SMILES IDX 37 68 43 69 36 70 38 71 39 72 40 73 41 74 65 75 66 76 74 77
REMARK SMILES IDX 67 78 69 79 75 80 68 81 70 82 71 83 72 84 73 85 50 86 51 87
REMARK SMILES IDX 59 88 52 89 54 90 60 91 53 92 55 93 56 94 57 95 58 96
REMARK H PARENT 16 7 21 30 80 49 48 60
REMARK Flexibility Score: inf
ROOT
ATOM      1  C   UNL A   1      36.642  22.614  23.622  1.00  0.00     0.023 C 
ENDROOT
BRANCH   1   2
ATOM      2  C   UNL A   1      35.207  22.779  23.119  1.00  0.00     0.023 C 
BRANCH   2   3
ATOM      3  C   UNL A   1      34.589  24.151  23.384  1.00  0.00     0.116 C 
BRANCH   3   4
ATOM      4  N   UNL A   1      34.013  24.237  24.714  1.00  0.00    -0.352 N 
ATOM      5  C   UNL A   1      33.135  25.038  25.360  1.00  0.00     0.251 C 
ATOM      6  O   UNL A   1      32.865  24.694  26.516  1.00  0.00    -0.270 OA
ATOM      7  H   UNL A   1      34.350  23.523  25.301  1.00  0.00     0.163 HD
BRANCH   5   8
ATOM      8  C   UNL A   1      32.498  26.268  24.798  1.00  0.00     0.067 C 
ATOM      9  C   UNL A   1      29.125  29.640  23.036  1.00  0.00    -0.020 A 
ATOM     10  C   UNL A   1      30.531  29.588  23.171  1.00  0.00     0.053 A 
ATOM     11  C   UNL A   1      28.428  28.453  23.367  1.00  0.00     0.045 A 
ATOM     12  C   UNL A   1      31.190  28.449  23.637  1.00  0.00     0.128 A 
ATOM     13  C   UNL A   1      29.104  27.299  23.806  1.00  0.00     0.032 A 
ATOM     14  Cl  UNL A   1      26.706  28.281  23.293  1.00  0.00    -0.084 Cl
ATOM     15  C   UNL A   1      30.488  27.296  23.951  1.00  0.00     0.019 A 
ATOM     16  O   UNL A   1      32.552  28.524  23.745  1.00  0.00    -0.475 OA
ATOM     17  C   UNL A   1      31.215  26.123  24.414  1.00  0.00     0.025 C 
ATOM     18  C   UNL A   1      33.141  27.628  24.733  1.00  0.00     0.314 C 
BRANCH   9  19
ATOM     19  C   UNL A   1      28.455  30.961  22.578  1.00  0.00    -0.012 C 
ATOM     20  C   UNL A   1      27.922  30.856  21.132  1.00  0.00     0.016 C 
ATOM     21  C   UNL A   1      29.424  32.178  22.568  1.00  0.00     0.016 C 
ATOM     22  C   UNL A   1      27.317  31.345  23.549  1.00  0.00     0.016 C 
ENDBRANCH   9  19
BRANCH  18  23
ATOM     23  C   UNL A   1      33.233  28.337  26.097  1.00  0.00     0.429 C 
ATOM     24  F   UNL A   1      34.386  28.071  26.750  1.00  0.00    -0.167 F 
ATOM     25  F   UNL A   1      33.170  29.682  25.929  1.00  0.00    -0.167 F 
ATOM     26  F   UNL A   1      32.225  27.996  26.935  1.00  0.00    -0.167 F 
ENDBRANCH  18  23
ENDBRANCH   5   8
ENDBRANCH   3   4
ENDBRANCH   2   3
ENDBRANCH   1   2
BRANCH   1  27
ATOM     27  C   UNL A   1      36.776  22.071  25.039  1.00  0.00     0.116 C 
BRANCH  27  28
ATOM     28  N   UNL A   1      37.701  20.955  25.166  1.00  0.00    -0.352 N 
ATOM     29  C   UNL A   1      38.915  20.932  25.821  1.00  0.00     0.251 C 
ATOM     30  H   UNL A   1      37.427  20.114  24.734  1.00  0.00     0.163 HD
ATOM     31  O   UNL A   1      39.620  19.933  25.787  1.00  0.00    -0.269 OA
BRANCH  29  32
ATOM     32  C   UNL A   1      39.367  22.161  26.508  1.00  0.00     0.039 A 
ATOM     33  C   UNL A   1      38.849  23.402  26.136  1.00  0.00     0.014 A 
ATOM     34  C   UNL A   1      40.392  22.074  27.452  1.00  0.00     0.014 A 
ATOM     35  C   UNL A   1      39.484  24.560  26.563  1.00  0.00     0.010 A 
ATOM     36  C   UNL A   1      40.969  23.244  27.951  1.00  0.00     0.010 A 
ATOM     37  C   UNL A   1      40.562  24.495  27.464  1.00  0.00    -0.014 A 
BRANCH  37  38
ATOM     38  C   UNL A   1      41.241  25.755  27.862  1.00  0.00     0.031 A 
ATOM     39  C   UNL A   1      42.628  26.081  27.374  1.00  0.00     0.074 A 
ATOM     40  C   UNL A   1      40.564  26.649  28.610  1.00  0.00     0.049 A 
ATOM     41  N   UNL A   1      43.325  27.172  27.560  1.00  0.00    -0.248 NA
ATOM     42  C   UNL A   1      43.329  25.057  26.579  1.00  0.00     0.031 C 
ATOM     43  C   UNL A   1      39.223  26.435  29.160  1.00  0.00     0.029 A 
ATOM     44  N   UNL A   1      40.890  27.919  29.009  1.00  0.00    -0.354 N 
ATOM     45  C   UNL A   1      44.555  26.951  26.953  1.00  0.00     0.074 A 
ATOM     46  C   UNL A   1      44.514  25.621  26.386  1.00  0.00     0.031 C 
ATOM     47  C   UNL A   1      38.814  27.559  29.764  1.00  0.00     0.029 A 
ATOM     48  C   UNL A   1      39.879  28.555  29.690  1.00  0.00     0.049 A 
ATOM     49  H   UNL A   1      41.763  28.335  28.826  1.00  0.00     0.167 HD
ATOM     50  C   UNL A   1      45.613  27.789  26.856  1.00  0.00     0.034 A 
ATOM     51  C   UNL A   1      39.809  29.801  30.195  1.00  0.00     0.034 A 
ATOM     52  C   UNL A   1      45.628  29.138  27.352  1.00  0.00     0.049 A 
ATOM     53  C   UNL A   1      40.982  30.722  30.042  1.00  0.00     0.074 A 
ATOM     54  C   UNL A   1      46.635  30.080  27.242  1.00  0.00     0.029 A 
ATOM     55  N   UNL A   1      44.588  29.739  28.041  1.00  0.00    -0.354 N 
ATOM     56  N   UNL A   1      42.103  30.519  29.391  1.00  0.00    -0.248 NA
ATOM     57  C   UNL A   1      40.886  32.039  30.684  1.00  0.00     0.031 C 
ATOM     58  C   UNL A   1      46.202  31.255  27.865  1.00  0.00     0.029 A 
ATOM     59  C   UNL A   1      44.929  31.039  28.366  1.00  0.00     0.049 A 
ATOM     60  H   UNL A   1      43.733  29.306  28.266  1.00  0.00     0.167 HD
ATOM     61  C   UNL A   1      42.847  31.680  29.550  1.00  0.00     0.074 A 
ATOM     62  C   UNL A   1      42.039  32.595  30.331  1.00  0.00     0.031 C 
ATOM     63  C   UNL A   1      44.100  31.950  29.112  1.00  0.00     0.034 A 
BRANCH  50  64
ATOM     64  C   UNL A   1      46.838  27.304  26.131  1.00  0.00     0.023 A 
ATOM     65  C   UNL A   1      46.986  27.601  24.762  1.00  0.00     0.012 A 
ATOM     66  C   UNL A   1      47.881  26.657  26.821  1.00  0.00     0.148 A 
ATOM     67  C   UNL A   1      48.155  27.255  24.087  1.00  0.00     0.002 A 
ATOM     68  C   UNL A   1      49.054  26.336  26.146  1.00  0.00     0.091 A 
ATOM     69  F   UNL A   1      47.709  26.373  28.120  1.00  0.00    -0.205 F 
ATOM     70  C   UNL A   1      49.190  26.632  24.779  1.00  0.00     0.022 A 
BRANCH  68  71
ATOM     71  S   UNL A   1      50.468  25.578  26.955  1.00  0.00     0.127 S 
ATOM     72  O   UNL A   1      51.383  25.389  25.829  1.00  0.00    -0.237 OA
ATOM     73  O   UNL A   1      50.873  26.618  27.901  1.00  0.00    -0.237 OA
ATOM     74  O   UNL A   1      49.974  24.354  27.566  1.00  0.00    -0.744 OA
ENDBRANCH  68  71
ENDBRANCH  50  64
BRANCH  51  75
ATOM     75  C   UNL A   1      38.544  30.251  30.835  1.00  0.00     0.023 A 
ATOM     76  C   UNL A   1      38.391  30.103  32.226  1.00  0.00     0.012 A 
ATOM     77  C   UNL A   1      37.548  30.916  30.095  1.00  0.00     0.148 A 
ATOM     78  C   UNL A   1      37.266  30.614  32.872  1.00  0.00     0.002 A 
ATOM     79  C   UNL A   1      36.454  31.466  30.751  1.00  0.00     0.091 A 
ATOM     80  F   UNL A   1      37.714  31.032  28.770  1.00  0.00    -0.205 F 
ATOM     81  C   UNL A   1      36.306  31.307  32.139  1.00  0.00     0.022 A 
BRANCH  79  82
ATOM     82  S   UNL A   1      35.241  32.489  29.910  1.00  0.00     0.127 S 
ATOM     83  O   UNL A   1      34.301  32.784  30.988  1.00  0.00    -0.237 OA
ATOM     84  O   UNL A   1      36.055  33.623  29.471  1.00  0.00    -0.237 OA
ATOM     85  O   UNL A   1      34.720  31.668  28.825  1.00  0.00    -0.744 OA
ENDBRANCH  79  82
ENDBRANCH  51  75
BRANCH  63  86
ATOM     86  C   UNL A   1      44.701  33.276  29.477  1.00  0.00     0.023 A 
ATOM     87  C   UNL A   1      45.519  33.356  30.620  1.00  0.00     0.012 A 
ATOM     88  C   UNL A   1      44.568  34.394  28.633  1.00  0.00     0.148 A 
ATOM     89  C   UNL A   1      46.196  34.537  30.922  1.00  0.00     0.002 A 
ATOM     90  C   UNL A   1      45.267  35.558  28.924  1.00  0.00     0.091 A 
ATOM     91  F   UNL A   1      43.778  34.287  27.553  1.00  0.00    -0.205 F 
ATOM     92  C   UNL A   1      46.079  35.632  30.070  1.00  0.00     0.022 A 
BRANCH  90  93
ATOM     93  S   UNL A   1      45.238  37.002  27.856  1.00  0.00     0.127 S 
ATOM     94  O   UNL A   1      45.731  36.449  26.595  1.00  0.00    -0.237 OA
ATOM     95  O   UNL A   1      43.819  37.356  27.854  1.00  0.00    -0.237 OA
ATOM     96  O   UNL A   1      46.112  37.985  28.482  1.00  0.00    -0.744 OA
ENDBRANCH  90  93
ENDBRANCH  63  86
ENDBRANCH  37  38
ENDBRANCH  29  32
ENDBRANCH  27  28
ENDBRANCH   1  27
TORSDOF 16
ENDMDL
MODEL 3
REMARK VINA RESULT:     -12.6      2.060      2.603
REMARK SMILES CC(C)(C)c1cc2c(cc1Cl)C=C(C(=O)NCCCCNC(=O)c1ccc(-c3c4nc(c(-c5cccc(S(=O)(=O)[O-])c5F)c5ccc([nH]5)c(-c5cccc(S(=O)(=O)[O-])c5F)c5nc(c(-c6cccc(S(=O)(=O)[O-])c6F)c6ccc3[nH]6)C=C5)C=C4)cc1)[C@H](C(F)(F)F)O2
REMARK SMILES IDX 19 1 18 2 17 3 16 4 14 5 15 6 13 8 5 9 6 10 10 11 7 12 9 13
REMARK SMILES IDX 11 14 8 15 92 16 12 17 87 18 2 19 1 20 3 21 4 22 88 23 89 24
REMARK SMILES IDX 90 25 91 26 20 27 21 28 22 29 23 31 24 32 25 33 86 34 26 35
REMARK SMILES IDX 85 36 27 37 28 38 29 39 79 40 30 41 84 42 78 43 80 44 31 45
REMARK SMILES IDX 83 46 77 47 76 48 32 50 64 51 44 52 63 53 45 54 48 55 62 56
REMARK SMILES IDX 81 57 46 58 47 59 61 61 82 62 49 63 33 64 34 65 42 66 35 67
REMARK SMILES IDX 37 68 43 69 36 70 38 71 39 72 40 73 41 74 65 75 66 76 74 77
REMARK SMILES IDX 67 78 69 79 75 80 68 81 70 82 71 83 72 84 73 85 50 86 51 87
REMARK SMILES IDX 59 88 52 89 54 90 60 91 53 92 55 93 56 94 57 95 58 96
REMARK H PARENT 16 7 21 30 80 49 48 60
REMARK Flexibility Score: inf
ROOT
ATOM      1  C   UNL A   1      31.694  28.967  26.064  1.00  0.00     0.023 C 
ENDROOT
BRANCH   1   2
ATOM      2  C   UNL A   1      31.720  27.804  27.057  1.00  0.00     0.023 C 
BRANCH   2   3
ATOM      3  C   UNL A   1      32.311  26.506  26.508  1.00  0.00     0.116 C 
BRANCH   3   4
ATOM      4  N   UNL A   1      31.980  26.312  25.108  1.00  0.00    -0.352 N 
ATOM      5  C   UNL A   1      31.965  25.282  24.231  1.00  0.00     0.251 C 
ATOM      6  O   UNL A   1      31.530  25.558  23.107  1.00  0.00    -0.270 OA
ATOM      7  H   UNL A   1      31.692  27.151  24.685  1.00  0.00     0.163 HD
BRANCH   5   8
ATOM      8  C   UNL A   1      32.425  23.888  24.512  1.00  0.00     0.067 C 
ATOM      9  C   UNL A   1      33.321  18.893  24.196  1.00  0.00    -0.020 A 
ATOM     10  C   UNL A   1      33.563  19.909  25.149  1.00  0.00     0.053 A 
ATOM     11  C   UNL A   1      32.559  19.275  23.065  1.00  0.00     0.045 A 
ATOM     12  C   UNL A   1      33.110  21.217  24.971  1.00  0.00     0.128 A 
ATOM     13  C   UNL A   1      32.081  20.590  22.909  1.00  0.00     0.032 A 
ATOM     14  Cl  UNL A   1      32.149  18.212  21.762  1.00  0.00    -0.084 Cl
ATOM     15  C   UNL A   1      32.362  21.568  23.858  1.00  0.00     0.019 A 
ATOM     16  O   UNL A   1      33.422  22.117  25.952  1.00  0.00    -0.475 OA
ATOM     17  C   UNL A   1      31.892  22.939  23.720  1.00  0.00     0.025 C 
ATOM     18  C   UNL A   1      33.483  23.508  25.515  1.00  0.00     0.314 C 
BRANCH   9  19
ATOM     19  C   UNL A   1      33.913  17.479  24.426  1.00  0.00    -0.012 C 
ATOM     20  C   UNL A   1      35.345  17.548  25.000  1.00  0.00     0.016 C 
ATOM     21  C   UNL A   1      34.037  16.638  23.123  1.00  0.00     0.016 C 
ATOM     22  C   UNL A   1      32.993  16.663  25.360  1.00  0.00     0.016 C 
ENDBRANCH   9  19
BRANCH  18  23
ATOM     23  C   UNL A   1      34.915  23.857  25.069  1.00  0.00     0.429 C 
ATOM     24  F   UNL A   1      35.133  23.603  23.760  1.00  0.00    -0.167 F 
ATOM     25  F   UNL A   1      35.156  25.177  25.266  1.00  0.00    -0.167 F 
ATOM     26  F   UNL A   1      35.860  23.175  25.759  1.00  0.00    -0.167 F 
ENDBRANCH  18  23
ENDBRANCH   5   8
ENDBRANCH   3   4
ENDBRANCH   2   3
ENDBRANCH   1   2
BRANCH   1  27
ATOM     27  C   UNL A   1      32.885  29.914  26.141  1.00  0.00     0.116 C 
BRANCH  27  28
ATOM     28  N   UNL A   1      32.574  31.222  26.699  1.00  0.00    -0.352 N 
ATOM     29  C   UNL A   1      33.372  32.012  27.499  1.00  0.00     0.251 C 
ATOM     30  H   UNL A   1      31.687  31.587  26.478  1.00  0.00     0.163 HD
ATOM     31  O   UNL A   1      32.948  33.067  27.951  1.00  0.00    -0.269 OA
BRANCH  29  32
ATOM     32  C   UNL A   1      34.724  31.524  27.846  1.00  0.00     0.039 A 
ATOM     33  C   UNL A   1      34.919  30.184  28.185  1.00  0.00     0.014 A 
ATOM     34  C   UNL A   1      35.775  32.438  27.936  1.00  0.00     0.014 A 
ATOM     35  C   UNL A   1      36.107  29.802  28.792  1.00  0.00     0.010 A 
ATOM     36  C   UNL A   1      37.003  32.028  28.463  1.00  0.00     0.010 A 
ATOM     37  C   UNL A   1      37.158  30.722  28.953  1.00  0.00    -0.014 A 
BRANCH  37  38
ATOM     38  C   UNL A   1      38.396  30.283  29.647  1.00  0.00     0.031 A 
ATOM     39  C   UNL A   1      38.684  30.701  31.065  1.00  0.00     0.074 A 
ATOM     40  C   UNL A   1      39.230  29.436  29.012  1.00  0.00     0.049 A 
ATOM     41  N   UNL A   1      39.674  30.337  31.839  1.00  0.00    -0.248 NA
ATOM     42  C   UNL A   1      37.751  31.646  31.700  1.00  0.00     0.031 C 
ATOM     43  C   UNL A   1      39.067  28.980  27.630  1.00  0.00     0.029 A 
ATOM     44  N   UNL A   1      40.354  28.784  29.449  1.00  0.00    -0.354 N 
ATOM     45  C   UNL A   1      39.512  31.040  33.026  1.00  0.00     0.074 A 
ATOM     46  C   UNL A   1      38.326  31.853  32.878  1.00  0.00     0.031 C 
ATOM     47  C   UNL A   1      40.013  28.071  27.355  1.00  0.00     0.029 A 
ATOM     48  C   UNL A   1      40.878  27.917  28.521  1.00  0.00     0.049 A 
ATOM     49  H   UNL A   1      40.747  28.923  30.340  1.00  0.00     0.167 HD
ATOM     50  C   UNL A   1      40.270  30.994  34.147  1.00  0.00     0.034 A 
ATOM     51  C   UNL A   1      41.934  27.083  28.595  1.00  0.00     0.034 A 
ATOM     52  C   UNL A   1      41.405  30.130  34.324  1.00  0.00     0.049 A 
ATOM     53  C   UNL A   1      42.735  27.025  29.861  1.00  0.00     0.074 A 
ATOM     54  C   UNL A   1      42.194  29.972  35.449  1.00  0.00     0.029 A 
ATOM     55  N   UNL A   1      41.907  29.275  33.357  1.00  0.00    -0.354 N 
ATOM     56  N   UNL A   1      42.513  27.638  30.998  1.00  0.00    -0.248 NA
ATOM     57  C   UNL A   1      43.925  26.164  29.859  1.00  0.00     0.031 C 
ATOM     58  C   UNL A   1      43.174  29.017  35.163  1.00  0.00     0.029 A 
ATOM     59  C   UNL A   1      42.997  28.587  33.858  1.00  0.00     0.049 A 
ATOM     60  H   UNL A   1      41.542  29.171  32.448  1.00  0.00     0.167 HD
ATOM     61  C   UNL A   1      43.538  27.242  31.847  1.00  0.00     0.074 A 
ATOM     62  C   UNL A   1      44.363  26.311  31.104  1.00  0.00     0.031 C 
ATOM     63  C   UNL A   1      43.786  27.637  33.119  1.00  0.00     0.034 A 
BRANCH  50  64
ATOM     64  C   UNL A   1      39.870  31.859  35.309  1.00  0.00     0.023 A 
ATOM     65  C   UNL A   1      40.298  33.201  35.344  1.00  0.00     0.012 A 
ATOM     66  C   UNL A   1      38.991  31.382  36.300  1.00  0.00     0.148 A 
ATOM     67  C   UNL A   1      39.860  34.056  36.354  1.00  0.00     0.002 A 
ATOM     68  C   UNL A   1      38.540  32.248  37.291  1.00  0.00     0.091 A 
ATOM     69  F   UNL A   1      38.610  30.097  36.252  1.00  0.00    -0.205 F 
ATOM     70  C   UNL A   1      38.976  33.583  37.320  1.00  0.00     0.022 A 
BRANCH  68  71
ATOM     71  S   UNL A   1      37.360  31.754  38.553  1.00  0.00     0.127 S 
ATOM     72  O   UNL A   1      36.279  32.715  38.337  1.00  0.00    -0.237 OA
ATOM     73  O   UNL A   1      37.043  30.381  38.157  1.00  0.00    -0.237 OA
ATOM     74  O   UNL A   1      38.056  31.878  39.825  1.00  0.00    -0.744 OA
ENDBRANCH  68  71
ENDBRANCH  50  64
BRANCH  51  75
ATOM     75  C   UNL A   1      42.237  26.197  27.440  1.00  0.00     0.023 A 
ATOM     76  C   UNL A   1      43.069  26.674  26.411  1.00  0.00     0.012 A 
ATOM     77  C   UNL A   1      41.796  24.859  27.411  1.00  0.00     0.148 A 
ATOM     78  C   UNL A   1      43.462  25.832  25.370  1.00  0.00     0.002 A 
ATOM     79  C   UNL A   1      42.230  24.013  26.399  1.00  0.00     0.091 A 
ATOM     80  F   UNL A   1      40.994  24.436  28.397  1.00  0.00    -0.205 F 
ATOM     81  C   UNL A   1      43.056  24.499  25.372  1.00  0.00     0.022 A 
BRANCH  79  82
ATOM     82  S   UNL A   1      41.870  22.253  26.394  1.00  0.00     0.127 S 
ATOM     83  O   UNL A   1      40.424  22.246  26.188  1.00  0.00    -0.237 OA
ATOM     84  O   UNL A   1      42.659  21.787  25.255  1.00  0.00    -0.237 OA
ATOM     85  O   UNL A   1      42.327  21.756  27.685  1.00  0.00    -0.744 OA
ENDBRANCH  79  82
ENDBRANCH  51  75
BRANCH  63  86
ATOM     86  C   UNL A   1      45.010  27.093  33.797  1.00  0.00     0.023 A 
ATOM     87  C   UNL A   1      46.192  27.857  33.773  1.00  0.00     0.012 A 
ATOM     88  C   UNL A   1      44.957  25.910  34.557  1.00  0.00     0.148 A 
ATOM     89  C   UNL A   1      47.312  27.447  34.495  1.00  0.00     0.002 A 
ATOM     90  C   UNL A   1      46.067  25.522  35.297  1.00  0.00     0.091 A 
ATOM     91  F   UNL A   1      43.817  25.202  34.556  1.00  0.00    -0.205 F 
ATOM     92  C   UNL A   1      47.246  26.288  35.264  1.00  0.00     0.022 A 
BRANCH  90  93
ATOM     93  S   UNL A   1      46.063  24.083  36.372  1.00  0.00     0.127 S 
ATOM     94  O   UNL A   1      45.851  22.997  35.415  1.00  0.00    -0.237 OA
ATOM     95  O   UNL A   1      47.404  24.130  36.954  1.00  0.00    -0.237 OA
ATOM     96  O   UNL A   1      44.977  24.290  37.320  1.00  0.00    -0.744 OA
ENDBRANCH  90  93
ENDBRANCH  63  86
ENDBRANCH  37  38
ENDBRANCH  29  32
ENDBRANCH  27  28
ENDBRANCH   1  27
TORSDOF 16
ENDMDL
