MODEL 1
REMARK VINA RESULT:     -12.1      0.000      0.000
REMARK SMILES C[C@H]1[C@H](C(=O)NCCCCNC(=O)c2ccc(-c3c4nc(c(-c5cccc(S(=O)(=O)[O-])c5F)c5ccc([nH]5)c(-c5cccc(S(=O)(=O)[O-])c5F)c5nc(c(-c6cccc(S(=O)(=O)[O-])c6F)c6ccc3[nH]6)C=C5)C=C4)cc2)CCN1c1ncnc2sccc12
REMARK SMILES IDX 9 1 8 2 7 3 6 4 4 5 5 6 3 8 1 9 2 10 79 11 77 12 78 13 80 14
REMARK SMILES IDX 81 15 88 16 82 17 84 18 87 19 83 20 85 21 86 22 10 23 11 24
REMARK SMILES IDX 12 25 13 27 14 28 15 29 76 30 16 31 75 32 17 33 18 34 19 35
REMARK SMILES IDX 69 36 20 37 74 38 68 39 70 40 21 41 73 42 67 43 66 44 22 46
REMARK SMILES IDX 54 47 34 48 53 49 35 50 38 51 52 52 71 53 36 54 37 55 51 57
REMARK SMILES IDX 72 58 39 59 23 60 24 61 32 62 25 63 27 64 33 65 26 66 28 67
REMARK SMILES IDX 29 68 30 69 31 70 55 71 56 72 64 73 57 74 59 75 65 76 58 77
REMARK SMILES IDX 60 78 61 79 62 80 63 81 40 82 41 83 49 84 42 85 44 86 50 87
REMARK SMILES IDX 43 88 45 89 46 90 47 91 48 92
REMARK H PARENT 6 7 11 26 70 45 38 56
REMARK Flexibility Score: inf
ROOT
ATOM      1  C   UNL A   1      32.103  29.627  24.995  1.00  0.00     0.023 C 
ENDROOT
BRANCH   1   2
ATOM      2  C   UNL A   1      30.685  29.830  24.458  1.00  0.00     0.023 C 
BRANCH   2   3
ATOM      3  C   UNL A   1      30.370  29.041  23.190  1.00  0.00     0.116 C 
BRANCH   3   4
ATOM      4  N   UNL A   1      29.777  27.749  23.484  1.00  0.00    -0.356 N 
ATOM      5  C   UNL A   1      30.319  26.502  23.497  1.00  0.00     0.225 C 
ATOM      6  O   UNL A   1      29.571  25.556  23.761  1.00  0.00    -0.275 OA
ATOM      7  H   UNL A   1      28.820  27.781  23.714  1.00  0.00     0.163 HD
BRANCH   5   8
ATOM      8  C   UNL A   1      31.796  26.243  23.241  1.00  0.00     0.102 C 
ATOM      9  C   UNL A   1      33.517  26.077  25.073  1.00  0.00     0.032 C 
ATOM     10  C   UNL A   1      32.441  25.326  24.286  1.00  0.00     0.093 C 
ATOM     11  N   UNL A   1      33.027  24.222  23.512  1.00  0.00    -0.352 N 
ATOM     12  C   UNL A   1      32.062  25.637  21.868  1.00  0.00     0.037 C 
ATOM     13  C   UNL A   1      33.002  24.460  22.085  1.00  0.00     0.119 C 
BRANCH  11  14
ATOM     14  C   UNL A   1      33.378  23.036  24.123  1.00  0.00     0.141 A 
ATOM     15  N   UNL A   1      32.363  22.273  24.613  1.00  0.00    -0.219 NA
ATOM     16  C   UNL A   1      34.696  22.518  24.270  1.00  0.00     0.054 A 
ATOM     17  C   UNL A   1      32.617  21.097  25.200  1.00  0.00     0.225 A 
ATOM     18  C   UNL A   1      34.803  21.276  24.889  1.00  0.00     0.128 A 
ATOM     19  C   UNL A   1      36.015  22.991  23.924  1.00  0.00     0.026 A 
ATOM     20  N   UNL A   1      33.804  20.527  25.377  1.00  0.00    -0.225 NA
ATOM     21  S   UNL A   1      36.408  20.706  24.999  1.00  0.00    -0.124 S 
ATOM     22  C   UNL A   1      37.019  22.101  24.238  1.00  0.00     0.068 A 
ENDBRANCH  11  14
ENDBRANCH   5   8
ENDBRANCH   3   4
ENDBRANCH   2   3
ENDBRANCH   1   2
BRANCH   1  23
ATOM     23  C   UNL A   1      32.309  30.021  26.453  1.00  0.00     0.116 C 
BRANCH  23  24
ATOM     24  N   UNL A   1      32.236  31.458  26.675  1.00  0.00    -0.352 N 
ATOM     25  C   UNL A   1      33.109  32.266  27.365  1.00  0.00     0.251 C 
ATOM     26  H   UNL A   1      31.458  31.913  26.278  1.00  0.00     0.163 HD
ATOM     27  O   UNL A   1      32.841  33.448  27.554  1.00  0.00    -0.269 OA
BRANCH  25  28
ATOM     28  C   UNL A   1      34.358  31.689  27.905  1.00  0.00     0.039 A 
ATOM     29  C   UNL A   1      35.456  32.526  28.110  1.00  0.00     0.014 A 
ATOM     30  C   UNL A   1      34.426  30.335  28.247  1.00  0.00     0.014 A 
ATOM     31  C   UNL A   1      36.604  32.020  28.723  1.00  0.00     0.010 A 
ATOM     32  C   UNL A   1      35.541  29.853  28.925  1.00  0.00     0.010 A 
ATOM     33  C   UNL A   1      36.641  30.688  29.169  1.00  0.00    -0.014 A 
BRANCH  33  34
ATOM     34  C   UNL A   1      37.812  30.154  29.910  1.00  0.00     0.031 A 
ATOM     35  C   UNL A   1      38.097  30.617  31.313  1.00  0.00     0.074 A 
ATOM     36  C   UNL A   1      38.674  29.326  29.285  1.00  0.00     0.049 A 
ATOM     37  N   UNL A   1      39.101  30.311  32.094  1.00  0.00    -0.248 NA
ATOM     38  C   UNL A   1      37.147  31.573  31.906  1.00  0.00     0.031 C 
ATOM     39  C   UNL A   1      38.556  28.872  27.897  1.00  0.00     0.029 A 
ATOM     40  N   UNL A   1      39.834  28.739  29.727  1.00  0.00    -0.354 N 
ATOM     41  C   UNL A   1      38.924  31.060  33.250  1.00  0.00     0.074 A 
ATOM     42  C   UNL A   1      37.737  31.862  33.057  1.00  0.00     0.031 C 
ATOM     43  C   UNL A   1      39.598  28.078  27.603  1.00  0.00     0.029 A 
ATOM     44  C   UNL A   1      40.472  27.986  28.769  1.00  0.00     0.049 A 
ATOM     45  H   UNL A   1      40.177  28.849  30.643  1.00  0.00     0.167 HD
ATOM     46  C   UNL A   1      39.664  31.057  34.384  1.00  0.00     0.034 A 
ATOM     47  C   UNL A   1      41.631  27.301  28.821  1.00  0.00     0.034 A 
ATOM     48  C   UNL A   1      40.815  30.221  34.593  1.00  0.00     0.049 A 
ATOM     49  C   UNL A   1      42.406  27.275  30.111  1.00  0.00     0.074 A 
ATOM     50  C   UNL A   1      41.574  30.072  35.740  1.00  0.00     0.029 A 
ATOM     51  N   UNL A   1      41.378  29.395  33.632  1.00  0.00    -0.354 N 
ATOM     52  N   UNL A   1      42.129  27.857  31.252  1.00  0.00    -0.248 NA
ATOM     53  C   UNL A   1      43.634  26.466  30.133  1.00  0.00     0.031 C 
ATOM     54  C   UNL A   1      42.607  29.171  35.466  1.00  0.00     0.029 A 
ATOM     55  C   UNL A   1      42.479  28.740  34.156  1.00  0.00     0.049 A 
ATOM     56  H   UNL A   1      41.043  29.290  32.712  1.00  0.00     0.167 HD
ATOM     57  C   UNL A   1      43.126  27.459  32.136  1.00  0.00     0.074 A 
ATOM     58  C   UNL A   1      44.001  26.568  31.403  1.00  0.00     0.031 C 
ATOM     59  C   UNL A   1      43.309  27.812  33.432  1.00  0.00     0.034 A 
BRANCH  46  60
ATOM     60  C   UNL A   1      39.214  31.946  35.515  1.00  0.00     0.023 A 
ATOM     61  C   UNL A   1      38.323  31.437  36.483  1.00  0.00     0.012 A 
ATOM     62  C   UNL A   1      39.712  33.255  35.654  1.00  0.00     0.148 A 
ATOM     63  C   UNL A   1      37.907  32.229  37.552  1.00  0.00     0.002 A 
ATOM     64  C   UNL A   1      39.326  34.024  36.747  1.00  0.00     0.091 A 
ATOM     65  F   UNL A   1      40.540  33.729  34.714  1.00  0.00    -0.205 F 
ATOM     66  C   UNL A   1      38.416  33.518  37.689  1.00  0.00     0.022 A 
BRANCH  64  67
ATOM     67  S   UNL A   1      39.984  35.666  37.057  1.00  0.00     0.127 S 
ATOM     68  O   UNL A   1      39.282  36.039  38.284  1.00  0.00    -0.237 OA
ATOM     69  O   UNL A   1      41.413  35.399  37.230  1.00  0.00    -0.237 OA
ATOM     70  O   UNL A   1      39.654  36.459  35.880  1.00  0.00    -0.744 OA
ENDBRANCH  64  67
ENDBRANCH  46  60
BRANCH  47  71
ATOM     71  C   UNL A   1      42.091  26.523  27.636  1.00  0.00     0.023 A 
ATOM     72  C   UNL A   1      42.842  27.170  26.636  1.00  0.00     0.012 A 
ATOM     73  C   UNL A   1      41.817  25.148  27.508  1.00  0.00     0.148 A 
ATOM     74  C   UNL A   1      43.285  26.468  25.514  1.00  0.00     0.002 A 
ATOM     75  C   UNL A   1      42.308  24.444  26.415  1.00  0.00     0.091 A 
ATOM     76  F   UNL A   1      41.091  24.553  28.465  1.00  0.00    -0.205 F 
ATOM     77  C   UNL A   1      43.027  25.105  25.407  1.00  0.00     0.022 A 
BRANCH  75  78
ATOM     78  S   UNL A   1      42.136  22.662  26.262  1.00  0.00     0.127 S 
ATOM     79  O   UNL A   1      42.815  22.191  27.466  1.00  0.00    -0.237 OA
ATOM     80  O   UNL A   1      40.682  22.496  26.268  1.00  0.00    -0.237 OA
ATOM     81  O   UNL A   1      42.772  22.315  24.998  1.00  0.00    -0.744 OA
ENDBRANCH  75  78
ENDBRANCH  47  71
BRANCH  59  82
ATOM     82  C   UNL A   1      44.482  27.211  34.162  1.00  0.00     0.023 A 
ATOM     83  C   UNL A   1      45.728  27.868  34.143  1.00  0.00     0.012 A 
ATOM     84  C   UNL A   1      44.328  26.039  34.929  1.00  0.00     0.148 A 
ATOM     85  C   UNL A   1      46.813  27.350  34.851  1.00  0.00     0.002 A 
ATOM     86  C   UNL A   1      45.400  25.557  35.671  1.00  0.00     0.091 A 
ATOM     87  F   UNL A   1      43.139  25.419  34.919  1.00  0.00    -0.205 F 
ATOM     88  C   UNL A   1      46.644  26.203  35.624  1.00  0.00     0.022 A 
BRANCH  86  89
ATOM     89  S   UNL A   1      45.249  24.142  36.769  1.00  0.00     0.127 S 
ATOM     90  O   UNL A   1      44.252  24.615  37.728  1.00  0.00    -0.237 OA
ATOM     91  O   UNL A   1      44.776  23.095  35.863  1.00  0.00    -0.237 OA
ATOM     92  O   UNL A   1      46.581  23.913  37.311  1.00  0.00    -0.744 OA
ENDBRANCH  86  89
ENDBRANCH  59  82
ENDBRANCH  33  34
ENDBRANCH  25  28
ENDBRANCH  23  24
ENDBRANCH   1  23
TORSDOF 15
ENDMDL
MODEL 2
REMARK VINA RESULT:     -12.1      2.412      8.002
REMARK SMILES C[C@H]1[C@H](C(=O)NCCCCNC(=O)c2ccc(-c3c4nc(c(-c5cccc(S(=O)(=O)[O-])c5F)c5ccc([nH]5)c(-c5cccc(S(=O)(=O)[O-])c5F)c5nc(c(-c6cccc(S(=O)(=O)[O-])c6F)c6ccc3[nH]6)C=C5)C=C4)cc2)CCN1c1ncnc2sccc12
REMARK SMILES IDX 9 1 8 2 7 3 6 4 4 5 5 6 3 8 1 9 2 10 79 11 77 12 78 13 80 14
REMARK SMILES IDX 81 15 88 16 82 17 84 18 87 19 83 20 85 21 86 22 10 23 11 24
REMARK SMILES IDX 12 25 13 27 14 28 15 29 76 30 16 31 75 32 17 33 18 34 19 35
REMARK SMILES IDX 69 36 20 37 74 38 68 39 70 40 21 41 73 42 67 43 66 44 22 46
REMARK SMILES IDX 54 47 34 48 53 49 35 50 38 51 52 52 71 53 36 54 37 55 51 57
REMARK SMILES IDX 72 58 39 59 23 60 24 61 32 62 25 63 27 64 33 65 26 66 28 67
REMARK SMILES IDX 29 68 30 69 31 70 55 71 56 72 64 73 57 74 59 75 65 76 58 77
REMARK SMILES IDX 60 78 61 79 62 80 63 81 40 82 41 83 49 84 42 85 44 86 50 87
REMARK SMILES IDX 43 88 45 89 46 90 47 91 48 92
REMARK H PARENT 6 7 11 26 70 45 38 56
REMARK Flexibility Score: inf
ROOT
ATOM      1  C   UNL A   1      31.797  31.759  26.815  1.00  0.00     0.023 C 
ENDROOT
BRANCH   1   2
ATOM      2  C   UNL A   1      32.029  30.248  26.817  1.00  0.00     0.023 C 
BRANCH   2   3
ATOM      3  C   UNL A   1      32.863  29.735  25.646  1.00  0.00     0.116 C 
BRANCH   3   4
ATOM      4  N   UNL A   1      32.047  29.445  24.480  1.00  0.00    -0.356 N 
ATOM      5  C   UNL A   1      32.165  28.482  23.527  1.00  0.00     0.225 C 
ATOM      6  O   UNL A   1      31.335  28.476  22.615  1.00  0.00    -0.275 OA
ATOM      7  H   UNL A   1      31.278  30.047  24.360  1.00  0.00     0.163 HD
BRANCH   5   8
ATOM      8  C   UNL A   1      33.242  27.408  23.570  1.00  0.00     0.102 C 
ATOM      9  C   UNL A   1      34.118  26.401  25.707  1.00  0.00     0.032 C 
ATOM     10  C   UNL A   1      33.005  26.354  24.658  1.00  0.00     0.093 C 
ATOM     11  N   UNL A   1      33.003  25.069  23.946  1.00  0.00    -0.352 N 
ATOM     12  C   UNL A   1      33.400  26.675  22.244  1.00  0.00     0.037 C 
ATOM     13  C   UNL A   1      33.425  25.188  22.567  1.00  0.00     0.119 C 
BRANCH  11  14
ATOM     14  C   UNL A   1      32.473  23.936  24.529  1.00  0.00     0.141 A 
ATOM     15  N   UNL A   1      31.186  24.015  24.965  1.00  0.00    -0.219 NA
ATOM     16  C   UNL A   1      33.130  22.684  24.698  1.00  0.00     0.054 A 
ATOM     17  C   UNL A   1      30.589  22.954  25.521  1.00  0.00     0.225 A 
ATOM     18  C   UNL A   1      32.377  21.669  25.281  1.00  0.00     0.128 A 
ATOM     19  C   UNL A   1      34.452  22.187  24.406  1.00  0.00     0.026 A 
ATOM     20  N   UNL A   1      31.111  21.747  25.715  1.00  0.00    -0.225 NA
ATOM     21  S   UNL A   1      33.220  20.191  25.419  1.00  0.00    -0.124 S 
ATOM     22  C   UNL A   1      34.622  20.856  24.721  1.00  0.00     0.068 A 
ENDBRANCH  11  14
ENDBRANCH   5   8
ENDBRANCH   3   4
ENDBRANCH   2   3
ENDBRANCH   1   2
BRANCH   1  23
ATOM     23  C   UNL A   1      32.960  32.596  27.336  1.00  0.00     0.116 C 
BRANCH  23  24
ATOM     24  N   UNL A   1      32.585  33.969  27.647  1.00  0.00    -0.352 N 
ATOM     25  C   UNL A   1      33.103  34.803  28.610  1.00  0.00     0.251 C 
ATOM     26  H   UNL A   1      31.866  34.351  27.094  1.00  0.00     0.163 HD
ATOM     27  O   UNL A   1      32.595  35.901  28.815  1.00  0.00    -0.269 OA
BRANCH  25  28
ATOM     28  C   UNL A   1      34.256  34.352  29.416  1.00  0.00     0.039 A 
ATOM     29  C   UNL A   1      34.019  33.653  30.602  1.00  0.00     0.014 A 
ATOM     30  C   UNL A   1      35.563  34.580  28.978  1.00  0.00     0.014 A 
ATOM     31  C   UNL A   1      35.096  33.122  31.316  1.00  0.00     0.010 A 
ATOM     32  C   UNL A   1      36.627  33.987  29.650  1.00  0.00     0.010 A 
ATOM     33  C   UNL A   1      36.406  33.253  30.825  1.00  0.00    -0.014 A 
BRANCH  33  34
ATOM     34  C   UNL A   1      37.556  32.615  31.515  1.00  0.00     0.031 A 
ATOM     35  C   UNL A   1      38.277  31.460  30.876  1.00  0.00     0.074 A 
ATOM     36  C   UNL A   1      37.889  33.014  32.760  1.00  0.00     0.049 A 
ATOM     37  N   UNL A   1      39.260  30.739  31.349  1.00  0.00    -0.248 NA
ATOM     38  C   UNL A   1      37.814  31.039  29.543  1.00  0.00     0.031 C 
ATOM     39  C   UNL A   1      37.211  34.064  33.523  1.00  0.00     0.029 A 
ATOM     40  N   UNL A   1      38.865  32.563  33.614  1.00  0.00    -0.354 N 
ATOM     41  C   UNL A   1      39.508  29.762  30.394  1.00  0.00     0.074 A 
ATOM     42  C   UNL A   1      38.550  29.958  29.330  1.00  0.00     0.031 C 
ATOM     43  C   UNL A   1      37.792  34.179  34.728  1.00  0.00     0.029 A 
ATOM     44  C   UNL A   1      38.865  33.195  34.836  1.00  0.00     0.049 A 
ATOM     45  H   UNL A   1      39.505  31.854  33.374  1.00  0.00     0.167 HD
ATOM     46  C   UNL A   1      40.468  28.806  30.388  1.00  0.00     0.034 A 
ATOM     47  C   UNL A   1      39.639  33.002  35.921  1.00  0.00     0.034 A 
ATOM     48  C   UNL A   1      41.452  28.645  31.424  1.00  0.00     0.049 A 
ATOM     49  C   UNL A   1      40.731  31.967  35.866  1.00  0.00     0.074 A 
ATOM     50  C   UNL A   1      42.524  27.771  31.464  1.00  0.00     0.029 A 
ATOM     51  N   UNL A   1      41.480  29.368  32.606  1.00  0.00    -0.354 N 
ATOM     52  N   UNL A   1      41.059  31.166  34.883  1.00  0.00    -0.248 NA
ATOM     53  C   UNL A   1      41.584  31.837  37.057  1.00  0.00     0.031 C 
ATOM     54  C   UNL A   1      43.190  27.954  32.680  1.00  0.00     0.029 A 
ATOM     55  C   UNL A   1      42.547  28.956  33.387  1.00  0.00     0.049 A 
ATOM     56  H   UNL A   1      40.838  30.071  32.854  1.00  0.00     0.167 HD
ATOM     57  C   UNL A   1      42.174  30.461  35.321  1.00  0.00     0.074 A 
ATOM     58  C   UNL A   1      42.479  30.947  36.650  1.00  0.00     0.031 C 
ATOM     59  C   UNL A   1      42.873  29.488  34.685  1.00  0.00     0.034 A 
BRANCH  46  60
ATOM     60  C   UNL A   1      40.539  27.895  29.189  1.00  0.00     0.023 A 
ATOM     61  C   UNL A   1      39.657  26.798  29.099  1.00  0.00     0.012 A 
ATOM     62  C   UNL A   1      41.432  28.153  28.131  1.00  0.00     0.148 A 
ATOM     63  C   UNL A   1      39.686  25.951  27.992  1.00  0.00     0.002 A 
ATOM     64  C   UNL A   1      41.424  27.330  27.010  1.00  0.00     0.091 A 
ATOM     65  F   UNL A   1      42.277  29.186  28.244  1.00  0.00    -0.205 F 
ATOM     66  C   UNL A   1      40.562  26.223  26.944  1.00  0.00     0.022 A 
BRANCH  64  67
ATOM     67  S   UNL A   1      42.457  27.639  25.574  1.00  0.00     0.127 S 
ATOM     68  O   UNL A   1      43.792  27.659  26.169  1.00  0.00    -0.237 OA
ATOM     69  O   UNL A   1      42.180  26.471  24.738  1.00  0.00    -0.237 OA
ATOM     70  O   UNL A   1      42.001  28.905  25.017  1.00  0.00    -0.744 OA
ENDBRANCH  64  67
ENDBRANCH  46  60
BRANCH  47  71
ATOM     71  C   UNL A   1      39.458  33.859  37.128  1.00  0.00     0.023 A 
ATOM     72  C   UNL A   1      39.915  35.191  37.103  1.00  0.00     0.012 A 
ATOM     73  C   UNL A   1      38.813  33.375  38.282  1.00  0.00     0.148 A 
ATOM     74  C   UNL A   1      39.762  36.016  38.218  1.00  0.00     0.002 A 
ATOM     75  C   UNL A   1      38.615  34.220  39.369  1.00  0.00     0.091 A 
ATOM     76  F   UNL A   1      38.396  32.101  38.291  1.00  0.00    -0.205 F 
ATOM     77  C   UNL A   1      39.105  35.535  39.346  1.00  0.00     0.022 A 
BRANCH  75  78
ATOM     78  S   UNL A   1      37.665  33.725  40.811  1.00  0.00     0.127 S 
ATOM     79  O   UNL A   1      37.518  34.993  41.522  1.00  0.00    -0.237 OA
ATOM     80  O   UNL A   1      36.436  33.213  40.203  1.00  0.00    -0.237 OA
ATOM     81  O   UNL A   1      38.468  32.711  41.480  1.00  0.00    -0.744 OA
ENDBRANCH  75  78
ENDBRANCH  47  71
BRANCH  59  82
ATOM     82  C   UNL A   1      44.061  28.900  35.400  1.00  0.00     0.023 A 
ATOM     83  C   UNL A   1      45.340  29.459  35.207  1.00  0.00     0.012 A 
ATOM     84  C   UNL A   1      43.898  27.847  36.323  1.00  0.00     0.148 A 
ATOM     85  C   UNL A   1      46.444  28.957  35.896  1.00  0.00     0.002 A 
ATOM     86  C   UNL A   1      44.994  27.386  37.042  1.00  0.00     0.091 A 
ATOM     87  F   UNL A   1      42.676  27.317  36.479  1.00  0.00    -0.205 F 
ATOM     88  C   UNL A   1      46.268  27.931  36.822  1.00  0.00     0.022 A 
BRANCH  86  89
ATOM     89  S   UNL A   1      44.845  26.134  38.322  1.00  0.00     0.127 S 
ATOM     90  O   UNL A   1      44.399  24.973  37.554  1.00  0.00    -0.237 OA
ATOM     91  O   UNL A   1      46.216  26.042  38.827  1.00  0.00    -0.237 OA
ATOM     92  O   UNL A   1      43.883  26.658  39.283  1.00  0.00    -0.744 OA
ENDBRANCH  86  89
ENDBRANCH  59  82
ENDBRANCH  33  34
ENDBRANCH  25  28
ENDBRANCH  23  24
ENDBRANCH   1  23
TORSDOF 15
ENDMDL
MODEL 3
REMARK VINA RESULT:     -12.0      2.083      2.816
REMARK SMILES C[C@H]1[C@H](C(=O)NCCCCNC(=O)c2ccc(-c3c4nc(c(-c5cccc(S(=O)(=O)[O-])c5F)c5ccc([nH]5)c(-c5cccc(S(=O)(=O)[O-])c5F)c5nc(c(-c6cccc(S(=O)(=O)[O-])c6F)c6ccc3[nH]6)C=C5)C=C4)cc2)CCN1c1ncnc2sccc12
REMARK SMILES IDX 9 1 8 2 7 3 6 4 4 5 5 6 3 8 1 9 2 10 79 11 77 12 78 13 80 14
REMARK SMILES IDX 81 15 88 16 82 17 84 18 87 19 83 20 85 21 86 22 10 23 11 24
REMARK SMILES IDX 12 25 13 27 14 28 15 29 76 30 16 31 75 32 17 33 18 34 19 35
REMARK SMILES IDX 69 36 20 37 74 38 68 39 70 40 21 41 73 42 67 43 66 44 22 46
REMARK SMILES IDX 54 47 34 48 53 49 35 50 38 51 52 52 71 53 36 54 37 55 51 57
REMARK SMILES IDX 72 58 39 59 23 60 24 61 32 62 25 63 27 64 33 65 26 66 28 67
REMARK SMILES IDX 29 68 30 69 31 70 55 71 56 72 64 73 57 74 59 75 65 76 58 77
REMARK SMILES IDX 60 78 61 79 62 80 63 81 40 82 41 83 49 84 42 85 44 86 50 87
REMARK SMILES IDX 43 88 45 89 46 90 47 91 48 92
REMARK H PARENT 6 7 11 26 70 45 38 56
REMARK Flexibility Score: inf
ROOT
ATOM      1  C   UNL A   1      33.104  28.225  27.252  1.00  0.00     0.023 C 
ENDROOT
BRANCH   1   2
ATOM      2  C   UNL A   1      31.675  27.873  26.837  1.00  0.00     0.023 C 
BRANCH   2   3
ATOM      3  C   UNL A   1      31.326  28.241  25.397  1.00  0.00     0.116 C 
BRANCH   3   4
ATOM      4  N   UNL A   1      30.489  27.237  24.765  1.00  0.00    -0.356 N 
ATOM      5  C   UNL A   1      30.803  26.223  23.915  1.00  0.00     0.225 C 
ATOM      6  O   UNL A   1      29.878  25.520  23.499  1.00  0.00    -0.275 OA
ATOM      7  H   UNL A   1      29.533  27.301  24.990  1.00  0.00     0.163 HD
BRANCH   5   8
ATOM      8  C   UNL A   1      32.232  25.908  23.500  1.00  0.00     0.102 C 
ATOM      9  C   UNL A   1      34.108  25.543  25.140  1.00  0.00     0.032 C 
ATOM     10  C   UNL A   1      32.922  24.896  24.422  1.00  0.00     0.093 C 
ATOM     11  N   UNL A   1      33.369  23.815  23.531  1.00  0.00    -0.352 N 
ATOM     12  C   UNL A   1      32.331  25.376  22.075  1.00  0.00     0.037 C 
ATOM     13  C   UNL A   1      33.221  24.143  22.130  1.00  0.00     0.119 C 
BRANCH  11  14
ATOM     14  C   UNL A   1      33.711  22.578  24.036  1.00  0.00     0.141 A 
ATOM     15  N   UNL A   1      32.690  21.718  24.300  1.00  0.00    -0.219 NA
ATOM     16  C   UNL A   1      35.029  22.100  24.285  1.00  0.00     0.054 A 
ATOM     17  C   UNL A   1      32.938  20.489  24.769  1.00  0.00     0.225 A 
ATOM     18  C   UNL A   1      35.131  20.796  24.760  1.00  0.00     0.128 A 
ATOM     19  C   UNL A   1      36.351  22.667  24.166  1.00  0.00     0.026 A 
ATOM     20  N   UNL A   1      34.126  19.951  25.025  1.00  0.00    -0.225 NA
ATOM     21  S   UNL A   1      36.742  20.284  25.001  1.00  0.00    -0.124 S 
ATOM     22  C   UNL A   1      37.359  21.787  24.495  1.00  0.00     0.068 A 
ENDBRANCH  11  14
ENDBRANCH   5   8
ENDBRANCH   3   4
ENDBRANCH   2   3
ENDBRANCH   1   2
BRANCH   1  23
ATOM     23  C   UNL A   1      33.786  29.287  26.397  1.00  0.00     0.116 C 
BRANCH  23  24
ATOM     24  N   UNL A   1      33.724  30.620  26.980  1.00  0.00    -0.352 N 
ATOM     25  C   UNL A   1      34.600  31.215  27.859  1.00  0.00     0.251 C 
ATOM     26  H   UNL A   1      32.953  31.170  26.710  1.00  0.00     0.163 HD
ATOM     27  O   UNL A   1      34.340  32.312  28.343  1.00  0.00    -0.269 OA
BRANCH  25  28
ATOM     28  C   UNL A   1      35.839  30.506  28.238  1.00  0.00     0.039 A 
ATOM     29  C   UNL A   1      36.965  30.628  27.421  1.00  0.00     0.014 A 
ATOM     30  C   UNL A   1      35.899  29.760  29.418  1.00  0.00     0.014 A 
ATOM     31  C   UNL A   1      38.174  30.058  27.823  1.00  0.00     0.010 A 
ATOM     32  C   UNL A   1      37.121  29.257  29.853  1.00  0.00     0.010 A 
ATOM     33  C   UNL A   1      38.271  29.399  29.061  1.00  0.00    -0.014 A 
BRANCH  33  34
ATOM     34  C   UNL A   1      39.567  28.869  29.554  1.00  0.00     0.031 A 
ATOM     35  C   UNL A   1      40.294  29.564  30.673  1.00  0.00     0.074 A 
ATOM     36  C   UNL A   1      40.137  27.818  28.930  1.00  0.00     0.049 A 
ATOM     37  N   UNL A   1      41.460  29.287  31.196  1.00  0.00    -0.248 NA
ATOM     38  C   UNL A   1      39.640  30.745  31.262  1.00  0.00     0.031 C 
ATOM     39  C   UNL A   1      39.575  27.111  27.777  1.00  0.00     0.029 A 
ATOM     40  N   UNL A   1      41.329  27.177  29.160  1.00  0.00    -0.354 N 
ATOM     41  C   UNL A   1      41.695  30.273  32.145  1.00  0.00     0.074 A 
ATOM     42  C   UNL A   1      40.568  31.178  32.102  1.00  0.00     0.031 C 
ATOM     43  C   UNL A   1      40.418  26.135  27.404  1.00  0.00     0.029 A 
ATOM     44  C   UNL A   1      41.592  26.162  28.270  1.00  0.00     0.049 A 
ATOM     45  H   UNL A   1      41.939  27.422  29.893  1.00  0.00     0.167 HD
ATOM     46  C   UNL A   1      42.740  30.399  32.998  1.00  0.00     0.034 A 
ATOM     47  C   UNL A   1      42.659  25.347  28.162  1.00  0.00     0.034 A 
ATOM     48  C   UNL A   1      43.834  29.470  33.073  1.00  0.00     0.049 A 
ATOM     49  C   UNL A   1      43.782  25.476  29.156  1.00  0.00     0.074 A 
ATOM     50  C   UNL A   1      44.890  29.454  33.967  1.00  0.00     0.029 A 
ATOM     51  N   UNL A   1      44.019  28.395  32.217  1.00  0.00    -0.354 N 
ATOM     52  N   UNL A   1      43.905  26.312  30.157  1.00  0.00    -0.248 NA
ATOM     53  C   UNL A   1      44.895  24.524  29.029  1.00  0.00     0.031 C 
ATOM     54  C   UNL A   1      45.723  28.380  33.640  1.00  0.00     0.029 A 
ATOM     55  C   UNL A   1      45.176  27.712  32.557  1.00  0.00     0.049 A 
ATOM     56  H   UNL A   1      43.417  28.152  31.478  1.00  0.00     0.167 HD
ATOM     57  C   UNL A   1      45.089  25.967  30.800  1.00  0.00     0.074 A 
ATOM     58  C   UNL A   1      45.634  24.831  30.087  1.00  0.00     0.031 C 
ATOM     59  C   UNL A   1      45.678  26.549  31.873  1.00  0.00     0.034 A 
BRANCH  46  60
ATOM     60  C   UNL A   1      42.718  31.554  33.965  1.00  0.00     0.023 A 
ATOM     61  C   UNL A   1      43.245  32.801  33.568  1.00  0.00     0.012 A 
ATOM     62  C   UNL A   1      42.130  31.426  35.238  1.00  0.00     0.148 A 
ATOM     63  C   UNL A   1      43.218  33.893  34.434  1.00  0.00     0.002 A 
ATOM     64  C   UNL A   1      42.067  32.532  36.080  1.00  0.00     0.091 A 
ATOM     65  F   UNL A   1      41.654  30.229  35.607  1.00  0.00    -0.205 F 
ATOM     66  C   UNL A   1      42.621  33.761  35.685  1.00  0.00     0.022 A 
BRANCH  64  67
ATOM     67  S   UNL A   1      41.250  32.487  37.679  1.00  0.00     0.127 S 
ATOM     68  O   UNL A   1      41.290  33.895  38.070  1.00  0.00    -0.237 OA
ATOM     69  O   UNL A   1      39.919  31.988  37.331  1.00  0.00    -0.237 OA
ATOM     70  O   UNL A   1      42.039  31.584  38.506  1.00  0.00    -0.744 OA
ENDBRANCH  64  67
ENDBRANCH  46  60
BRANCH  47  71
ATOM     71  C   UNL A   1      42.683  24.286  27.115  1.00  0.00     0.023 A 
ATOM     72  C   UNL A   1      43.389  24.514  25.918  1.00  0.00     0.012 A 
ATOM     73  C   UNL A   1      42.039  23.048  27.308  1.00  0.00     0.148 A 
ATOM     74  C   UNL A   1      43.427  23.541  24.918  1.00  0.00     0.002 A 
ATOM     75  C   UNL A   1      42.128  22.063  26.330  1.00  0.00     0.091 A 
ATOM     76  F   UNL A   1      41.363  22.854  28.449  1.00  0.00    -0.205 F 
ATOM     77  C   UNL A   1      42.806  22.313  25.127  1.00  0.00     0.022 A 
BRANCH  75  78
ATOM     78  S   UNL A   1      41.471  20.408  26.570  1.00  0.00     0.127 S 
ATOM     79  O   UNL A   1      42.044  20.043  27.863  1.00  0.00    -0.237 OA
ATOM     80  O   UNL A   1      40.028  20.654  26.582  1.00  0.00    -0.237 OA
ATOM     81  O   UNL A   1      41.936  19.633  25.428  1.00  0.00    -0.744 OA
ENDBRANCH  75  78
ENDBRANCH  47  71
BRANCH  59  82
ATOM     82  C   UNL A   1      46.968  25.951  32.371  1.00  0.00     0.023 A 
ATOM     83  C   UNL A   1      48.195  26.398  31.844  1.00  0.00     0.012 A 
ATOM     84  C   UNL A   1      46.966  25.005  33.416  1.00  0.00     0.148 A 
ATOM     85  C   UNL A   1      49.401  25.889  32.327  1.00  0.00     0.002 A 
ATOM     86  C   UNL A   1      48.173  24.539  33.925  1.00  0.00     0.091 A 
ATOM     87  F   UNL A   1      45.787  24.579  33.891  1.00  0.00    -0.205 F 
ATOM     88  C   UNL A   1      49.389  24.971  33.375  1.00  0.00     0.022 A 
BRANCH  86  89
ATOM     89  S   UNL A   1      48.256  23.429  35.336  1.00  0.00     0.127 S 
ATOM     90  O   UNL A   1      47.625  22.223  34.804  1.00  0.00    -0.237 OA
ATOM     91  O   UNL A   1      49.698  23.317  35.558  1.00  0.00    -0.237 OA
ATOM     92  O   UNL A   1      47.531  24.094  36.411  1.00  0.00    -0.744 OA
ENDBRANCH  86  89
ENDBRANCH  59  82
ENDBRANCH  33  34
ENDBRANCH  25  28
ENDBRANCH  23  24
ENDBRANCH   1  23
TORSDOF 15
ENDMDL
