MODEL 1
REMARK VINA RESULT:     -12.7      0.000      0.000
REMARK SMILES CC(C)CN(C)c1cc2c(cc1Cl)C=C(C(=O)NCCCCNC(=O)c1ccc(-c3c4nc(c(-c5cccc(S(=O)(=O)[O-])c5F)c5ccc([nH]5)c(-c5cccc(S(=O)(=O)[O-])c5F)c5nc(c(-c6cccc(S(=O)(=O)[O-])c6F)c6ccc3[nH]6)C=C5)C=C4)cc1)[C@@H](C(F)(F)F)O2
REMARK SMILES IDX 20 1 19 2 18 3 16 4 17 5 15 7 7 8 8 9 12 10 9 11 11 12 13 13
REMARK SMILES IDX 10 14 94 15 14 16 89 17 5 18 6 19 4 20 2 21 1 22 3 23 90 24
REMARK SMILES IDX 91 25 92 26 93 27 21 28 22 29 23 30 24 31 25 33 26 34 27 35
REMARK SMILES IDX 88 36 28 37 87 38 29 39 30 40 31 41 81 42 32 43 86 44 80 45
REMARK SMILES IDX 82 46 33 47 85 48 79 49 78 50 34 52 66 53 46 54 65 55 47 56
REMARK SMILES IDX 50 57 64 58 83 59 48 60 49 61 63 63 84 64 51 65 35 66 36 67
REMARK SMILES IDX 44 68 37 69 39 70 45 71 38 72 40 73 41 74 42 75 43 76 67 77
REMARK SMILES IDX 68 78 76 79 69 80 71 81 77 82 70 83 72 84 73 85 74 86 75 87
REMARK SMILES IDX 52 88 53 89 61 90 54 91 56 92 62 93 55 94 57 95 58 96 59 97
REMARK SMILES IDX 60 98
REMARK H PARENT 18 6 23 32 82 51 50 62
REMARK Flexibility Score: inf
ROOT
ATOM      1  C   UNL A   1      35.490  21.665  24.595  1.00  0.00     0.023 C 
ENDROOT
BRANCH   1   2
ATOM      2  C   UNL A   1      34.213  20.945  25.017  1.00  0.00     0.116 C 
BRANCH   2   3
ATOM      3  N   UNL A   1      33.297  20.771  23.905  1.00  0.00    -0.352 N 
ATOM      4  C   UNL A   1      32.386  21.534  23.256  1.00  0.00     0.251 C 
ATOM      5  O   UNL A   1      31.827  20.993  22.297  1.00  0.00    -0.270 OA
ATOM      6  H   UNL A   1      33.351  19.865  23.524  1.00  0.00     0.163 HD
BRANCH   4   7
ATOM      7  C   UNL A   1      32.020  22.931  23.623  1.00  0.00     0.067 C 
ATOM      8  C   UNL A   1      31.296  27.926  23.616  1.00  0.00     0.059 A 
ATOM      9  C   UNL A   1      30.549  26.822  24.059  1.00  0.00     0.074 A 
ATOM     10  C   UNL A   1      32.542  27.668  22.999  1.00  0.00     0.065 A 
ATOM     11  C   UNL A   1      31.019  25.525  23.869  1.00  0.00     0.130 A 
ATOM     12  C   UNL A   1      32.965  26.360  22.730  1.00  0.00     0.034 A 
ATOM     13  Cl  UNL A   1      33.629  28.944  22.564  1.00  0.00    -0.082 Cl
ATOM     14  C   UNL A   1      32.195  25.283  23.158  1.00  0.00     0.019 A 
ATOM     15  O   UNL A   1      30.285  24.501  24.409  1.00  0.00    -0.475 OA
ATOM     16  C   UNL A   1      32.569  23.903  22.870  1.00  0.00     0.025 C 
ATOM     17  C   UNL A   1      31.084  23.320  24.732  1.00  0.00     0.314 C 
BRANCH   8  18
ATOM     18  N   UNL A   1      30.798  29.228  23.781  1.00  0.00    -0.373 N 
ATOM     19  C   UNL A   1      31.296  29.930  24.962  1.00  0.00     0.143 C 
BRANCH  18  20
ATOM     20  C   UNL A   1      29.371  29.427  23.452  1.00  0.00     0.119 C 
BRANCH  20  21
ATOM     21  C   UNL A   1      29.087  30.827  22.868  1.00  0.00     0.002 C 
ATOM     22  C   UNL A   1      28.936  30.797  21.344  1.00  0.00     0.009 C 
ATOM     23  C   UNL A   1      27.818  31.427  23.479  1.00  0.00     0.009 C 
ENDBRANCH  20  21
ENDBRANCH  18  20
ENDBRANCH   8  18
BRANCH  17  24
ATOM     24  C   UNL A   1      31.822  23.514  26.078  1.00  0.00     0.429 C 
ATOM     25  F   UNL A   1      31.175  24.424  26.848  1.00  0.00    -0.167 F 
ATOM     26  F   UNL A   1      31.885  22.369  26.802  1.00  0.00    -0.167 F 
ATOM     27  F   UNL A   1      33.096  23.945  25.933  1.00  0.00    -0.167 F 
ENDBRANCH  17  24
ENDBRANCH   4   7
ENDBRANCH   2   3
ENDBRANCH   1   2
BRANCH   1  28
ATOM     28  C   UNL A   1      36.741  20.786  24.612  1.00  0.00     0.023 C 
BRANCH  28  29
ATOM     29  C   UNL A   1      37.958  21.396  25.302  1.00  0.00     0.116 C 
BRANCH  29  30
ATOM     30  N   UNL A   1      38.980  20.429  25.679  1.00  0.00    -0.352 N 
ATOM     31  C   UNL A   1      40.090  20.650  26.469  1.00  0.00     0.251 C 
ATOM     32  H   UNL A   1      38.866  19.515  25.331  1.00  0.00     0.163 HD
ATOM     33  O   UNL A   1      40.909  19.759  26.669  1.00  0.00    -0.269 OA
BRANCH  31  34
ATOM     34  C   UNL A   1      40.286  22.007  27.014  1.00  0.00     0.039 A 
ATOM     35  C   UNL A   1      39.641  23.088  26.413  1.00  0.00     0.014 A 
ATOM     36  C   UNL A   1      41.239  22.202  28.014  1.00  0.00     0.014 A 
ATOM     37  C   UNL A   1      40.085  24.376  26.686  1.00  0.00     0.010 A 
ATOM     38  C   UNL A   1      41.629  23.503  28.340  1.00  0.00     0.010 A 
ATOM     39  C   UNL A   1      41.103  24.594  27.630  1.00  0.00    -0.014 A 
BRANCH  39  40
ATOM     40  C   UNL A   1      41.633  25.968  27.825  1.00  0.00     0.031 A 
ATOM     41  C   UNL A   1      40.849  26.991  28.605  1.00  0.00     0.074 A 
ATOM     42  C   UNL A   1      42.856  26.272  27.351  1.00  0.00     0.049 A 
ATOM     43  N   UNL A   1      41.171  28.227  28.892  1.00  0.00    -0.248 NA
ATOM     44  C   UNL A   1      39.536  26.582  29.134  1.00  0.00     0.031 C 
ATOM     45  C   UNL A   1      43.708  25.363  26.582  1.00  0.00     0.029 A 
ATOM     46  N   UNL A   1      43.601  27.416  27.462  1.00  0.00    -0.354 N 
ATOM     47  C   UNL A   1      40.092  28.753  29.590  1.00  0.00     0.074 A 
ATOM     48  C   UNL A   1      39.100  27.705  29.689  1.00  0.00     0.031 C 
ATOM     49  C   UNL A   1      44.880  25.967  26.334  1.00  0.00     0.029 A 
ATOM     50  C   UNL A   1      44.843  27.320  26.881  1.00  0.00     0.049 A 
ATOM     51  H   UNL A   1      43.278  28.230  27.914  1.00  0.00     0.167 HD
ATOM     52  C   UNL A   1      39.949  29.989  30.122  1.00  0.00     0.034 A 
ATOM     53  C   UNL A   1      45.842  28.218  26.794  1.00  0.00     0.034 A 
ATOM     54  C   UNL A   1      40.959  31.011  30.082  1.00  0.00     0.049 A 
ATOM     55  C   UNL A   1      45.660  29.578  27.401  1.00  0.00     0.074 A 
ATOM     56  C   UNL A   1      40.914  32.285  30.621  1.00  0.00     0.029 A 
ATOM     57  N   UNL A   1      42.201  30.873  29.481  1.00  0.00    -0.354 N 
ATOM     58  N   UNL A   1      44.651  30.036  28.101  1.00  0.00    -0.248 NA
ATOM     59  C   UNL A   1      46.754  30.542  27.215  1.00  0.00     0.031 C 
ATOM     60  C   UNL A   1      42.133  32.916  30.351  1.00  0.00     0.029 A 
ATOM     61  C   UNL A   1      42.932  32.036  29.641  1.00  0.00     0.049 A 
ATOM     62  H   UNL A   1      42.514  30.067  29.011  1.00  0.00     0.167 HD
ATOM     63  C   UNL A   1      44.988  31.338  28.444  1.00  0.00     0.074 A 
ATOM     64  C   UNL A   1      46.307  31.588  27.897  1.00  0.00     0.031 C 
ATOM     65  C   UNL A   1      44.260  32.251  29.129  1.00  0.00     0.034 A 
BRANCH  52  66
ATOM     66  C   UNL A   1      38.673  30.301  30.855  1.00  0.00     0.023 A 
ATOM     67  C   UNL A   1      38.524  29.866  32.186  1.00  0.00     0.012 A 
ATOM     68  C   UNL A   1      37.669  31.093  30.266  1.00  0.00     0.148 A 
ATOM     69  C   UNL A   1      37.389  30.209  32.920  1.00  0.00     0.002 A 
ATOM     70  C   UNL A   1      36.552  31.453  31.012  1.00  0.00     0.091 A 
ATOM     71  F   UNL A   1      37.824  31.478  28.990  1.00  0.00    -0.205 F 
ATOM     72  C   UNL A   1      36.410  31.009  32.338  1.00  0.00     0.022 A 
BRANCH  70  73
ATOM     73  S   UNL A   1      35.258  32.521  30.371  1.00  0.00     0.127 S 
ATOM     74  O   UNL A   1      34.800  31.762  29.208  1.00  0.00    -0.237 OA
ATOM     75  O   UNL A   1      34.310  32.562  31.485  1.00  0.00    -0.237 OA
ATOM     76  O   UNL A   1      35.899  33.794  30.073  1.00  0.00    -0.744 OA
ENDBRANCH  70  73
ENDBRANCH  52  66
BRANCH  53  77
ATOM     77  C   UNL A   1      47.121  27.821  26.150  1.00  0.00     0.023 A 
ATOM     78  C   UNL A   1      48.114  27.195  26.928  1.00  0.00     0.012 A 
ATOM     79  C   UNL A   1      47.324  27.977  24.765  1.00  0.00     0.148 A 
ATOM     80  C   UNL A   1      49.288  26.731  26.337  1.00  0.00     0.002 A 
ATOM     81  C   UNL A   1      48.475  27.471  24.175  1.00  0.00     0.091 A 
ATOM     82  F   UNL A   1      46.370  28.590  24.051  1.00  0.00    -0.205 F 
ATOM     83  C   UNL A   1      49.463  26.855  24.960  1.00  0.00     0.022 A 
BRANCH  81  84
ATOM     84  S   UNL A   1      48.723  27.473  22.396  1.00  0.00     0.127 S 
ATOM     85  O   UNL A   1      47.588  28.270  21.939  1.00  0.00    -0.237 OA
ATOM     86  O   UNL A   1      50.027  28.127  22.273  1.00  0.00    -0.237 OA
ATOM     87  O   UNL A   1      48.716  26.072  21.998  1.00  0.00    -0.744 OA
ENDBRANCH  81  84
ENDBRANCH  53  77
BRANCH  65  88
ATOM     88  C   UNL A   1      44.859  33.614  29.328  1.00  0.00     0.023 A 
ATOM     89  C   UNL A   1      45.546  33.889  30.526  1.00  0.00     0.012 A 
ATOM     90  C   UNL A   1      44.837  34.573  28.299  1.00  0.00     0.148 A 
ATOM     91  C   UNL A   1      46.198  35.109  30.701  1.00  0.00     0.002 A 
ATOM     92  C   UNL A   1      45.513  35.775  28.469  1.00  0.00     0.091 A 
ATOM     93  F   UNL A   1      44.165  34.288  27.175  1.00  0.00    -0.205 F 
ATOM     94  C   UNL A   1      46.190  36.045  29.671  1.00  0.00     0.022 A 
BRANCH  92  95
ATOM     95  S   UNL A   1      45.618  37.018  27.177  1.00  0.00     0.127 S 
ATOM     96  O   UNL A   1      46.590  37.953  27.741  1.00  0.00    -0.237 OA
ATOM     97  O   UNL A   1      46.108  36.240  26.038  1.00  0.00    -0.237 OA
ATOM     98  O   UNL A   1      44.270  37.546  27.015  1.00  0.00    -0.744 OA
ENDBRANCH  92  95
ENDBRANCH  65  88
ENDBRANCH  39  40
ENDBRANCH  31  34
ENDBRANCH  29  30
ENDBRANCH  28  29
ENDBRANCH   1  28
TORSDOF 18
ENDMDL
MODEL 2
REMARK VINA RESULT:     -12.6      5.000     10.441
REMARK SMILES CC(C)CN(C)c1cc2c(cc1Cl)C=C(C(=O)NCCCCNC(=O)c1ccc(-c3c4nc(c(-c5cccc(S(=O)(=O)[O-])c5F)c5ccc([nH]5)c(-c5cccc(S(=O)(=O)[O-])c5F)c5nc(c(-c6cccc(S(=O)(=O)[O-])c6F)c6ccc3[nH]6)C=C5)C=C4)cc1)[C@@H](C(F)(F)F)O2
REMARK SMILES IDX 20 1 19 2 18 3 16 4 17 5 15 7 7 8 8 9 12 10 9 11 11 12 13 13
REMARK SMILES IDX 10 14 94 15 14 16 89 17 5 18 6 19 4 20 2 21 1 22 3 23 90 24
REMARK SMILES IDX 91 25 92 26 93 27 21 28 22 29 23 30 24 31 25 33 26 34 27 35
REMARK SMILES IDX 88 36 28 37 87 38 29 39 30 40 31 41 81 42 32 43 86 44 80 45
REMARK SMILES IDX 82 46 33 47 85 48 79 49 78 50 34 52 66 53 46 54 65 55 47 56
REMARK SMILES IDX 50 57 64 58 83 59 48 60 49 61 63 63 84 64 51 65 35 66 36 67
REMARK SMILES IDX 44 68 37 69 39 70 45 71 38 72 40 73 41 74 42 75 43 76 67 77
REMARK SMILES IDX 68 78 76 79 69 80 71 81 77 82 70 83 72 84 73 85 74 86 75 87
REMARK SMILES IDX 52 88 53 89 61 90 54 91 56 92 62 93 55 94 57 95 58 96 59 97
REMARK SMILES IDX 60 98
REMARK H PARENT 18 6 23 32 82 51 50 62
REMARK Flexibility Score: inf
ROOT
ATOM      1  C   UNL A   1      31.014  29.494  24.378  1.00  0.00     0.023 C 
ENDROOT
BRANCH   1   2
ATOM      2  C   UNL A   1      31.089  28.266  23.477  1.00  0.00     0.116 C 
BRANCH   2   3
ATOM      3  N   UNL A   1      32.307  28.247  22.690  1.00  0.00    -0.352 N 
ATOM      4  C   UNL A   1      33.345  27.396  22.509  1.00  0.00     0.251 C 
ATOM      5  O   UNL A   1      34.191  27.758  21.685  1.00  0.00    -0.270 OA
ATOM      6  H   UNL A   1      32.406  29.063  22.147  1.00  0.00     0.163 HD
BRANCH   4   7
ATOM      7  C   UNL A   1      33.530  26.104  23.226  1.00  0.00     0.067 C 
ATOM      8  C   UNL A   1      34.028  21.216  24.383  1.00  0.00     0.059 A 
ATOM      9  C   UNL A   1      34.649  22.399  24.815  1.00  0.00     0.074 A 
ATOM     10  C   UNL A   1      33.037  21.325  23.380  1.00  0.00     0.065 A 
ATOM     11  C   UNL A   1      34.309  23.626  24.250  1.00  0.00     0.130 A 
ATOM     12  C   UNL A   1      32.766  22.548  22.754  1.00  0.00     0.034 A 
ATOM     13  Cl  UNL A   1      32.083  19.967  22.886  1.00  0.00    -0.082 Cl
ATOM     14  C   UNL A   1      33.412  23.703  23.183  1.00  0.00     0.019 A 
ATOM     15  O   UNL A   1      34.885  24.750  24.783  1.00  0.00    -0.475 OA
ATOM     16  C   UNL A   1      33.196  24.994  22.541  1.00  0.00     0.025 C 
ATOM     17  C   UNL A   1      34.072  25.954  24.620  1.00  0.00     0.314 C 
BRANCH   8  18
ATOM     18  N   UNL A   1      34.403  19.981  24.935  1.00  0.00    -0.373 N 
ATOM     19  C   UNL A   1      35.819  19.651  24.794  1.00  0.00     0.143 C 
BRANCH  18  20
ATOM     20  C   UNL A   1      33.448  18.868  24.751  1.00  0.00     0.119 C 
BRANCH  20  21
ATOM     21  C   UNL A   1      34.151  17.503  24.598  1.00  0.00     0.002 C 
ATOM     22  C   UNL A   1      33.536  16.432  25.504  1.00  0.00     0.009 C 
ATOM     23  C   UNL A   1      34.092  17.017  23.147  1.00  0.00     0.009 C 
ENDBRANCH  20  21
ENDBRANCH  18  20
ENDBRANCH   8  18
BRANCH  17  24
ATOM     24  C   UNL A   1      32.955  26.006  25.690  1.00  0.00     0.429 C 
ATOM     25  F   UNL A   1      33.083  24.975  26.561  1.00  0.00    -0.167 F 
ATOM     26  F   UNL A   1      33.000  27.144  26.427  1.00  0.00    -0.167 F 
ATOM     27  F   UNL A   1      31.710  25.937  25.168  1.00  0.00    -0.167 F 
ENDBRANCH  17  24
ENDBRANCH   4   7
ENDBRANCH   2   3
ENDBRANCH   1   2
BRANCH   1  28
ATOM     28  C   UNL A   1      32.338  29.861  25.050  1.00  0.00     0.023 C 
BRANCH  28  29
ATOM     29  C   UNL A   1      32.249  30.173  26.541  1.00  0.00     0.116 C 
BRANCH  29  30
ATOM     30  N   UNL A   1      32.119  31.591  26.850  1.00  0.00    -0.352 N 
ATOM     31  C   UNL A   1      33.068  32.412  27.424  1.00  0.00     0.251 C 
ATOM     32  H   UNL A   1      31.257  32.010  26.624  1.00  0.00     0.163 HD
ATOM     33  O   UNL A   1      32.815  33.584  27.683  1.00  0.00    -0.269 OA
BRANCH  31  34
ATOM     34  C   UNL A   1      34.374  31.818  27.766  1.00  0.00     0.039 A 
ATOM     35  C   UNL A   1      34.448  30.464  28.094  1.00  0.00     0.014 A 
ATOM     36  C   UNL A   1      35.480  32.656  27.915  1.00  0.00     0.014 A 
ATOM     37  C   UNL A   1      35.579  29.987  28.747  1.00  0.00     0.010 A 
ATOM     38  C   UNL A   1      36.643  32.153  28.503  1.00  0.00     0.010 A 
ATOM     39  C   UNL A   1      36.675  30.834  28.983  1.00  0.00    -0.014 A 
BRANCH  39  40
ATOM     40  C   UNL A   1      37.826  30.330  29.775  1.00  0.00     0.031 A 
ATOM     41  C   UNL A   1      38.851  29.420  29.150  1.00  0.00     0.074 A 
ATOM     42  C   UNL A   1      37.981  30.749  31.045  1.00  0.00     0.049 A 
ATOM     43  N   UNL A   1      39.928  28.907  29.687  1.00  0.00    -0.248 NA
ATOM     44  C   UNL A   1      38.646  29.032  27.743  1.00  0.00     0.031 C 
ATOM     45  C   UNL A   1      37.055  31.632  31.757  1.00  0.00     0.029 A 
ATOM     46  N   UNL A   1      38.979  30.509  31.953  1.00  0.00    -0.354 N 
ATOM     47  C   UNL A   1      40.502  28.107  28.707  1.00  0.00     0.074 A 
ATOM     48  C   UNL A   1      39.657  28.199  27.536  1.00  0.00     0.031 C 
ATOM     49  C   UNL A   1      37.553  31.900  32.973  1.00  0.00     0.029 A 
ATOM     50  C   UNL A   1      38.805  31.170  33.146  1.00  0.00     0.049 A 
ATOM     51  H   UNL A   1      39.746  29.919  31.770  1.00  0.00     0.167 HD
ATOM     52  C   UNL A   1      41.643  27.380  28.767  1.00  0.00     0.034 A 
ATOM     53  C   UNL A   1      39.565  31.187  34.257  1.00  0.00     0.034 A 
ATOM     54  C   UNL A   1      42.518  27.338  29.907  1.00  0.00     0.049 A 
ATOM     55  C   UNL A   1      40.829  30.380  34.293  1.00  0.00     0.074 A 
ATOM     56  C   UNL A   1      43.712  26.653  30.048  1.00  0.00     0.029 A 
ATOM     57  N   UNL A   1      42.303  28.020  31.095  1.00  0.00    -0.354 N 
ATOM     58  N   UNL A   1      41.378  29.671  33.336  1.00  0.00    -0.248 NA
ATOM     59  C   UNL A   1      41.581  30.378  35.556  1.00  0.00     0.031 C 
ATOM     60  C   UNL A   1      44.223  26.925  31.321  1.00  0.00     0.029 A 
ATOM     61  C   UNL A   1      43.345  27.775  31.971  1.00  0.00     0.049 A 
ATOM     62  H   UNL A   1      41.525  28.591  31.285  1.00  0.00     0.167 HD
ATOM     63  C   UNL A   1      42.542  29.144  33.877  1.00  0.00     0.074 A 
ATOM     64  C   UNL A   1      42.634  29.634  35.238  1.00  0.00     0.031 C 
ATOM     65  C   UNL A   1      43.442  28.309  33.305  1.00  0.00     0.034 A 
BRANCH  52  66
ATOM     66  C   UNL A   1      42.055  26.608  27.544  1.00  0.00     0.023 A 
ATOM     67  C   UNL A   1      42.762  27.271  26.523  1.00  0.00     0.012 A 
ATOM     68  C   UNL A   1      41.827  25.222  27.445  1.00  0.00     0.148 A 
ATOM     69  C   UNL A   1      43.232  26.567  25.414  1.00  0.00     0.002 A 
ATOM     70  C   UNL A   1      42.320  24.522  26.349  1.00  0.00     0.091 A 
ATOM     71  F   UNL A   1      41.133  24.617  28.421  1.00  0.00    -0.205 F 
ATOM     72  C   UNL A   1      43.019  25.194  25.333  1.00  0.00     0.022 A 
BRANCH  70  73
ATOM     73  S   UNL A   1      42.144  22.743  26.174  1.00  0.00     0.127 S 
ATOM     74  O   UNL A   1      40.690  22.587  26.211  1.00  0.00    -0.237 OA
ATOM     75  O   UNL A   1      42.750  22.499  24.865  1.00  0.00    -0.237 OA
ATOM     76  O   UNL A   1      42.864  22.155  27.296  1.00  0.00    -0.744 OA
ENDBRANCH  70  73
ENDBRANCH  52  66
BRANCH  53  77
ATOM     77  C   UNL A   1      39.163  32.050  35.398  1.00  0.00     0.023 A 
ATOM     78  C   UNL A   1      38.366  31.504  36.422  1.00  0.00     0.012 A 
ATOM     79  C   UNL A   1      39.635  33.371  35.520  1.00  0.00     0.148 A 
ATOM     80  C   UNL A   1      38.045  32.259  37.549  1.00  0.00     0.002 A 
ATOM     81  C   UNL A   1      39.351  34.102  36.665  1.00  0.00     0.091 A 
ATOM     82  F   UNL A   1      40.378  33.872  34.523  1.00  0.00    -0.205 F 
ATOM     83  C   UNL A   1      38.548  33.552  37.678  1.00  0.00     0.022 A 
BRANCH  81  84
ATOM     84  S   UNL A   1      40.062  35.723  36.972  1.00  0.00     0.127 S 
ATOM     85  O   UNL A   1      39.455  36.077  38.252  1.00  0.00    -0.237 OA
ATOM     86  O   UNL A   1      41.492  35.421  37.028  1.00  0.00    -0.237 OA
ATOM     87  O   UNL A   1      39.668  36.544  35.834  1.00  0.00    -0.744 OA
ENDBRANCH  81  84
ENDBRANCH  53  77
BRANCH  65  88
ATOM     88  C   UNL A   1      44.606  27.859  34.140  1.00  0.00     0.023 A 
ATOM     89  C   UNL A   1      45.774  28.644  34.162  1.00  0.00     0.012 A 
ATOM     90  C   UNL A   1      44.506  26.732  34.977  1.00  0.00     0.148 A 
ATOM     91  C   UNL A   1      46.834  28.309  35.003  1.00  0.00     0.002 A 
ATOM     92  C   UNL A   1      45.555  26.420  35.833  1.00  0.00     0.091 A 
ATOM     93  F   UNL A   1      43.387  25.996  34.925  1.00  0.00    -0.205 F 
ATOM     94  C   UNL A   1      46.721  27.205  35.844  1.00  0.00     0.022 A 
BRANCH  92  95
ATOM     95  S   UNL A   1      45.478  25.057  37.002  1.00  0.00     0.127 S 
ATOM     96  O   UNL A   1      45.311  23.910  36.111  1.00  0.00    -0.237 OA
ATOM     97  O   UNL A   1      46.784  25.138  37.657  1.00  0.00    -0.237 OA
ATOM     98  O   UNL A   1      44.345  25.338  37.873  1.00  0.00    -0.744 OA
ENDBRANCH  92  95
ENDBRANCH  65  88
ENDBRANCH  39  40
ENDBRANCH  31  34
ENDBRANCH  29  30
ENDBRANCH  28  29
ENDBRANCH   1  28
TORSDOF 18
ENDMDL
MODEL 3
REMARK VINA RESULT:     -12.5      0.713      7.344
REMARK SMILES CC(C)CN(C)c1cc2c(cc1Cl)C=C(C(=O)NCCCCNC(=O)c1ccc(-c3c4nc(c(-c5cccc(S(=O)(=O)[O-])c5F)c5ccc([nH]5)c(-c5cccc(S(=O)(=O)[O-])c5F)c5nc(c(-c6cccc(S(=O)(=O)[O-])c6F)c6ccc3[nH]6)C=C5)C=C4)cc1)[C@@H](C(F)(F)F)O2
REMARK SMILES IDX 20 1 19 2 18 3 16 4 17 5 15 7 7 8 8 9 12 10 9 11 11 12 13 13
REMARK SMILES IDX 10 14 94 15 14 16 89 17 5 18 6 19 4 20 2 21 1 22 3 23 90 24
REMARK SMILES IDX 91 25 92 26 93 27 21 28 22 29 23 30 24 31 25 33 26 34 27 35
REMARK SMILES IDX 88 36 28 37 87 38 29 39 30 40 31 41 81 42 32 43 86 44 80 45
REMARK SMILES IDX 82 46 33 47 85 48 79 49 78 50 34 52 66 53 46 54 65 55 47 56
REMARK SMILES IDX 50 57 64 58 83 59 48 60 49 61 63 63 84 64 51 65 35 66 36 67
REMARK SMILES IDX 44 68 37 69 39 70 45 71 38 72 40 73 41 74 42 75 43 76 67 77
REMARK SMILES IDX 68 78 76 79 69 80 71 81 77 82 70 83 72 84 73 85 74 86 75 87
REMARK SMILES IDX 52 88 53 89 61 90 54 91 56 92 62 93 55 94 57 95 58 96 59 97
REMARK SMILES IDX 60 98
REMARK H PARENT 18 6 23 32 82 51 50 62
REMARK Flexibility Score: inf
ROOT
ATOM      1  C   UNL A   1      35.884  21.519  24.586  1.00  0.00     0.023 C 
ENDROOT
BRANCH   1   2
ATOM      2  C   UNL A   1      34.564  21.064  25.200  1.00  0.00     0.116 C 
BRANCH   2   3
ATOM      3  N   UNL A   1      33.588  20.715  24.185  1.00  0.00    -0.352 N 
ATOM      4  C   UNL A   1      32.604  21.355  23.509  1.00  0.00     0.251 C 
ATOM      5  O   UNL A   1      32.010  20.674  22.667  1.00  0.00    -0.270 OA
ATOM      6  H   UNL A   1      33.658  19.769  23.920  1.00  0.00     0.163 HD
BRANCH   4   7
ATOM      7  C   UNL A   1      32.201  22.773  23.720  1.00  0.00     0.067 C 
ATOM      8  C   UNL A   1      31.622  27.771  23.324  1.00  0.00     0.059 A 
ATOM      9  C   UNL A   1      30.768  26.702  23.638  1.00  0.00     0.074 A 
ATOM     10  C   UNL A   1      32.968  27.465  23.014  1.00  0.00     0.065 A 
ATOM     11  C   UNL A   1      31.235  25.390  23.617  1.00  0.00     0.130 A 
ATOM     12  C   UNL A   1      33.407  26.139  22.906  1.00  0.00     0.034 A 
ATOM     13  Cl  UNL A   1      34.156  28.702  22.776  1.00  0.00    -0.082 Cl
ATOM     14  C   UNL A   1      32.534  25.096  23.200  1.00  0.00     0.019 A 
ATOM     15  O   UNL A   1      30.374  24.405  24.025  1.00  0.00    -0.475 OA
ATOM     16  C   UNL A   1      32.928  23.698  23.066  1.00  0.00     0.025 C 
ATOM     17  C   UNL A   1      31.050  23.230  24.573  1.00  0.00     0.314 C 
BRANCH   8  18
ATOM     18  N   UNL A   1      31.132  29.087  23.313  1.00  0.00    -0.373 N 
ATOM     19  C   UNL A   1      31.039  29.717  24.628  1.00  0.00     0.143 C 
BRANCH  18  20
ATOM     20  C   UNL A   1      30.027  29.364  22.372  1.00  0.00     0.119 C 
BRANCH  20  21
ATOM     21  C   UNL A   1      28.766  29.903  23.081  1.00  0.00     0.002 C 
ATOM     22  C   UNL A   1      28.339  31.270  22.538  1.00  0.00     0.009 C 
ATOM     23  C   UNL A   1      27.597  28.925  22.935  1.00  0.00     0.009 C 
ENDBRANCH  20  21
ENDBRANCH  18  20
ENDBRANCH   8  18
BRANCH  17  24
ATOM     24  C   UNL A   1      31.475  23.481  26.040  1.00  0.00     0.429 C 
ATOM     25  F   UNL A   1      32.826  23.452  26.155  1.00  0.00    -0.167 F 
ATOM     26  F   UNL A   1      31.073  24.694  26.492  1.00  0.00    -0.167 F 
ATOM     27  F   UNL A   1      30.980  22.567  26.904  1.00  0.00    -0.167 F 
ENDBRANCH  17  24
ENDBRANCH   4   7
ENDBRANCH   2   3
ENDBRANCH   1   2
BRANCH   1  28
ATOM     28  C   UNL A   1      37.052  20.563  24.830  1.00  0.00     0.023 C 
BRANCH  28  29
ATOM     29  C   UNL A   1      38.089  21.044  25.843  1.00  0.00     0.116 C 
BRANCH  29  30
ATOM     30  N   UNL A   1      39.323  20.269  25.849  1.00  0.00    -0.352 N 
ATOM     31  C   UNL A   1      40.546  20.650  26.364  1.00  0.00     0.251 C 
ATOM     32  H   UNL A   1      39.279  19.375  25.440  1.00  0.00     0.163 HD
ATOM     33  O   UNL A   1      41.528  19.922  26.258  1.00  0.00    -0.269 OA
BRANCH  31  34
ATOM     34  C   UNL A   1      40.643  21.981  26.992  1.00  0.00     0.039 A 
ATOM     35  C   UNL A   1      40.109  23.090  26.337  1.00  0.00     0.014 A 
ATOM     36  C   UNL A   1      41.410  22.128  28.149  1.00  0.00     0.014 A 
ATOM     37  C   UNL A   1      40.498  24.363  26.736  1.00  0.00     0.010 A 
ATOM     38  C   UNL A   1      41.736  23.411  28.592  1.00  0.00     0.010 A 
ATOM     39  C   UNL A   1      41.338  24.535  27.850  1.00  0.00    -0.014 A 
BRANCH  39  40
ATOM     40  C   UNL A   1      41.824  25.895  28.191  1.00  0.00     0.031 A 
ATOM     41  C   UNL A   1      43.215  26.334  27.813  1.00  0.00     0.074 A 
ATOM     42  C   UNL A   1      40.983  26.762  28.789  1.00  0.00     0.049 A 
ATOM     43  N   UNL A   1      43.793  27.491  28.011  1.00  0.00    -0.248 NA
ATOM     44  C   UNL A   1      44.072  25.352  27.124  1.00  0.00     0.031 C 
ATOM     45  C   UNL A   1      39.613  26.452  29.201  1.00  0.00     0.029 A 
ATOM     46  N   UNL A   1      41.146  28.078  29.132  1.00  0.00    -0.354 N 
ATOM     47  C   UNL A   1      45.085  27.365  27.516  1.00  0.00     0.074 A 
ATOM     48  C   UNL A   1      45.213  26.018  27.004  1.00  0.00     0.031 C 
ATOM     49  C   UNL A   1      39.043  27.561  29.695  1.00  0.00     0.029 A 
ATOM     50  C   UNL A   1      40.021  28.644  29.682  1.00  0.00     0.049 A 
ATOM     51  H   UNL A   1      41.989  28.571  28.999  1.00  0.00     0.167 HD
ATOM     52  C   UNL A   1      46.068  28.294  27.470  1.00  0.00     0.034 A 
ATOM     53  C   UNL A   1      39.798  29.895  30.128  1.00  0.00     0.034 A 
ATOM     54  C   UNL A   1      45.923  29.651  27.919  1.00  0.00     0.049 A 
ATOM     55  C   UNL A   1      40.903  30.907  30.056  1.00  0.00     0.074 A 
ATOM     56  C   UNL A   1      46.857  30.672  27.883  1.00  0.00     0.029 A 
ATOM     57  N   UNL A   1      44.769  30.182  28.471  1.00  0.00    -0.354 N 
ATOM     58  N   UNL A   1      42.101  30.779  29.537  1.00  0.00    -0.248 NA
ATOM     59  C   UNL A   1      40.628  32.235  30.623  1.00  0.00     0.031 C 
ATOM     60  C   UNL A   1      46.264  31.824  28.409  1.00  0.00     0.029 A 
ATOM     61  C   UNL A   1      44.964  31.518  28.776  1.00  0.00     0.049 A 
ATOM     62  H   UNL A   1      43.934  29.684  28.625  1.00  0.00     0.167 HD
ATOM     63  C   UNL A   1      42.720  32.010  29.708  1.00  0.00     0.074 A 
ATOM     64  C   UNL A   1      41.758  32.878  30.356  1.00  0.00     0.031 C 
ATOM     65  C   UNL A   1      43.981  32.378  29.379  1.00  0.00     0.034 A 
BRANCH  52  66
ATOM     66  C   UNL A   1      47.384  27.900  26.856  1.00  0.00     0.023 A 
ATOM     67  C   UNL A   1      48.457  27.557  27.701  1.00  0.00     0.012 A 
ATOM     68  C   UNL A   1      47.532  27.782  25.461  1.00  0.00     0.148 A 
ATOM     69  C   UNL A   1      49.664  27.108  27.166  1.00  0.00     0.002 A 
ATOM     70  C   UNL A   1      48.730  27.310  24.935  1.00  0.00     0.091 A 
ATOM     71  F   UNL A   1      46.503  28.135  24.677  1.00  0.00    -0.205 F 
ATOM     72  C   UNL A   1      49.797  26.975  25.786  1.00  0.00     0.022 A 
BRANCH  70  73
ATOM     73  S   UNL A   1      48.985  27.055  23.175  1.00  0.00     0.127 S 
ATOM     74  O   UNL A   1      48.464  28.303  22.620  1.00  0.00    -0.237 OA
ATOM     75  O   UNL A   1      50.438  26.909  23.091  1.00  0.00    -0.237 OA
ATOM     76  O   UNL A   1      48.234  25.856  22.830  1.00  0.00    -0.744 OA
ENDBRANCH  70  73
ENDBRANCH  52  66
BRANCH  53  77
ATOM     77  C   UNL A   1      38.446  30.257  30.628  1.00  0.00     0.023 A 
ATOM     78  C   UNL A   1      38.135  30.033  31.982  1.00  0.00     0.012 A 
ATOM     79  C   UNL A   1      37.507  30.899  29.799  1.00  0.00     0.148 A 
ATOM     80  C   UNL A   1      36.908  30.442  32.503  1.00  0.00     0.002 A 
ATOM     81  C   UNL A   1      36.306  31.345  30.334  1.00  0.00     0.091 A 
ATOM     82  F   UNL A   1      37.823  31.086  28.510  1.00  0.00    -0.205 F 
ATOM     83  C   UNL A   1      36.000  31.110  31.684  1.00  0.00     0.022 A 
BRANCH  81  84
ATOM     84  S   UNL A   1      35.136  32.325  29.386  1.00  0.00     0.127 S 
ATOM     85  O   UNL A   1      36.012  33.315  28.766  1.00  0.00    -0.237 OA
ATOM     86  O   UNL A   1      34.580  31.330  28.469  1.00  0.00    -0.237 OA
ATOM     87  O   UNL A   1      34.181  32.843  30.358  1.00  0.00    -0.744 OA
ENDBRANCH  81  84
ENDBRANCH  53  77
BRANCH  65  88
ATOM     88  C   UNL A   1      44.409  33.778  29.716  1.00  0.00     0.023 A 
ATOM     89  C   UNL A   1      45.024  34.024  30.958  1.00  0.00     0.012 A 
ATOM     90  C   UNL A   1      44.302  34.816  28.771  1.00  0.00     0.148 A 
ATOM     91  C   UNL A   1      45.522  35.290  31.260  1.00  0.00     0.002 A 
ATOM     92  C   UNL A   1      44.826  36.068  29.068  1.00  0.00     0.091 A 
ATOM     93  F   UNL A   1      43.700  34.556  27.602  1.00  0.00    -0.205 F 
ATOM     94  C   UNL A   1      45.433  36.307  30.313  1.00  0.00     0.022 A 
BRANCH  92  95
ATOM     95  S   UNL A   1      44.820  37.424  27.890  1.00  0.00     0.127 S 
ATOM     96  O   UNL A   1      45.138  36.735  26.641  1.00  0.00    -0.237 OA
ATOM     97  O   UNL A   1      43.443  37.912  27.987  1.00  0.00    -0.237 OA
ATOM     98  O   UNL A   1      45.830  38.366  28.355  1.00  0.00    -0.744 OA
ENDBRANCH  92  95
ENDBRANCH  65  88
ENDBRANCH  39  40
ENDBRANCH  31  34
ENDBRANCH  29  30
ENDBRANCH  28  29
ENDBRANCH   1  28
TORSDOF 18
ENDMDL
