MODEL 1
REMARK VINA RESULT:     -13.0      0.000      0.000
REMARK SMILES Cc1cc(C)c2c(c1)C=C(C(=O)NCCCCNC(=O)c1ccc(-c3c4nc(c(-c5cccc(S(=O)(=O)[O-])c5F)c5ccc([nH]5)c(-c5cccc(S(=O)(=O)[O-])c5F)c5nc(c(-c6cccc(S(=O)(=O)[O-])c6F)c6ccc3[nH]6)C=C5)C=C4)cc1)[C@@H](C(F)(F)F)O2
REMARK SMILES IDX 16 1 15 2 14 3 13 4 11 5 12 6 10 8 1 9 2 10 3 11 8 12 4 13
REMARK SMILES IDX 7 14 5 15 6 16 9 17 89 18 84 19 85 20 86 21 87 22 88 23
REMARK SMILES IDX 17 24 18 25 19 26 20 28 21 29 22 30 83 31 23 32 82 33 24 34
REMARK SMILES IDX 25 35 26 36 76 37 27 38 81 39 75 40 77 41 28 42 80 43 74 44
REMARK SMILES IDX 73 45 29 47 61 48 41 49 60 50 42 51 45 52 59 53 78 54 43 55
REMARK SMILES IDX 44 56 58 58 79 59 46 60 30 61 31 62 39 63 32 64 34 65 40 66
REMARK SMILES IDX 33 67 35 68 36 69 37 70 38 71 62 72 63 73 71 74 64 75 66 76
REMARK SMILES IDX 72 77 65 78 67 79 68 80 69 81 70 82 47 83 48 84 56 85 49 86
REMARK SMILES IDX 51 87 57 88 50 89 52 90 53 91 54 92 55 93
REMARK H PARENT 13 7 18 27 77 46 45 57
REMARK Flexibility Score: inf
ROOT
ATOM      1  C   UNL A   1      32.795  29.366  24.900  1.00  0.00     0.023 C 
ENDROOT
BRANCH   1   2
ATOM      2  C   UNL A   1      33.979  28.503  24.452  1.00  0.00     0.023 C 
BRANCH   2   3
ATOM      3  C   UNL A   1      33.852  27.026  24.813  1.00  0.00     0.116 C 
BRANCH   3   4
ATOM      4  N   UNL A   1      33.531  26.205  23.659  1.00  0.00    -0.352 N 
ATOM      5  C   UNL A   1      32.443  25.968  22.891  1.00  0.00     0.251 C 
ATOM      6  O   UNL A   1      32.614  25.168  21.964  1.00  0.00    -0.270 OA
ATOM      7  H   UNL A   1      34.310  25.684  23.357  1.00  0.00     0.163 HD
BRANCH   5   8
ATOM      8  C   UNL A   1      31.098  26.590  23.081  1.00  0.00     0.067 C 
ATOM      9  C   UNL A   1      28.159  31.944  22.086  1.00  0.00     0.044 C 
ATOM     10  C   UNL A   1      28.317  30.512  22.502  1.00  0.00    -0.050 A 
ATOM     11  C   UNL A   1      27.216  29.800  22.997  1.00  0.00     0.010 A 
ATOM     12  C   UNL A   1      29.545  29.856  22.352  1.00  0.00     0.015 A 
ATOM     13  C   UNL A   1      27.334  28.452  23.359  1.00  0.00    -0.008 A 
ATOM     14  C   UNL A   1      29.679  28.511  22.715  1.00  0.00     0.018 A 
ATOM     15  C   UNL A   1      26.146  27.701  23.889  1.00  0.00     0.048 C 
ATOM     16  C   UNL A   1      28.577  27.820  23.220  1.00  0.00     0.130 A 
ATOM     17  C   UNL A   1      30.945  27.812  22.538  1.00  0.00     0.025 C 
ATOM     18  O   UNL A   1      28.649  26.493  23.548  1.00  0.00    -0.475 OA
ATOM     19  C   UNL A   1      29.971  25.971  23.857  1.00  0.00     0.314 C 
BRANCH  19  20
ATOM     20  C   UNL A   1      30.191  26.033  25.380  1.00  0.00     0.429 C 
ATOM     21  F   UNL A   1      31.182  25.181  25.749  1.00  0.00    -0.167 F 
ATOM     22  F   UNL A   1      30.566  27.262  25.803  1.00  0.00    -0.167 F 
ATOM     23  F   UNL A   1      29.087  25.693  26.083  1.00  0.00    -0.167 F 
ENDBRANCH  19  20
ENDBRANCH   5   8
ENDBRANCH   3   4
ENDBRANCH   2   3
ENDBRANCH   1   2
BRANCH   1  24
ATOM     24  C   UNL A   1      32.715  29.652  26.399  1.00  0.00     0.116 C 
BRANCH  24  25
ATOM     25  N   UNL A   1      32.478  31.051  26.729  1.00  0.00    -0.352 N 
ATOM     26  C   UNL A   1      33.344  31.922  27.350  1.00  0.00     0.251 C 
ATOM     27  H   UNL A   1      31.599  31.416  26.478  1.00  0.00     0.163 HD
ATOM     28  O   UNL A   1      33.000  33.069  27.621  1.00  0.00    -0.269 OA
BRANCH  26  29
ATOM     29  C   UNL A   1      34.676  31.425  27.735  1.00  0.00     0.039 A 
ATOM     30  C   UNL A   1      35.701  32.348  27.951  1.00  0.00     0.014 A 
ATOM     31  C   UNL A   1      34.866  30.065  28.001  1.00  0.00     0.014 A 
ATOM     32  C   UNL A   1      36.897  31.917  28.522  1.00  0.00     0.010 A 
ATOM     33  C   UNL A   1      36.037  29.650  28.625  1.00  0.00     0.010 A 
ATOM     34  C   UNL A   1      37.055  30.573  28.907  1.00  0.00    -0.014 A 
BRANCH  34  35
ATOM     35  C   UNL A   1      38.257  30.141  29.660  1.00  0.00     0.031 A 
ATOM     36  C   UNL A   1      38.498  30.632  31.057  1.00  0.00     0.074 A 
ATOM     37  C   UNL A   1      39.165  29.353  29.049  1.00  0.00     0.049 A 
ATOM     38  N   UNL A   1      39.469  30.323  31.875  1.00  0.00    -0.248 NA
ATOM     39  C   UNL A   1      37.542  31.611  31.599  1.00  0.00     0.031 C 
ATOM     40  C   UNL A   1      39.085  28.894  27.660  1.00  0.00     0.029 A 
ATOM     41  N   UNL A   1      40.334  28.804  29.512  1.00  0.00    -0.354 N 
ATOM     42  C   UNL A   1      39.251  31.077  33.020  1.00  0.00     0.074 A 
ATOM     43  C   UNL A   1      38.084  31.894  32.776  1.00  0.00     0.031 C 
ATOM     44  C   UNL A   1      40.143  28.110  27.395  1.00  0.00     0.029 A 
ATOM     45  C   UNL A   1      40.979  28.018  28.588  1.00  0.00     0.049 A 
ATOM     46  H   UNL A   1      40.678  28.959  30.422  1.00  0.00     0.167 HD
ATOM     47  C   UNL A   1      39.935  31.054  34.187  1.00  0.00     0.034 A 
ATOM     48  C   UNL A   1      42.104  27.282  28.698  1.00  0.00     0.034 A 
ATOM     49  C   UNL A   1      41.059  30.198  34.443  1.00  0.00     0.049 A 
ATOM     50  C   UNL A   1      42.817  27.234  30.022  1.00  0.00     0.074 A 
ATOM     51  C   UNL A   1      41.759  30.030  35.622  1.00  0.00     0.029 A 
ATOM     52  N   UNL A   1      41.645  29.363  33.504  1.00  0.00    -0.354 N 
ATOM     53  N   UNL A   1      42.491  27.814  31.151  1.00  0.00    -0.248 NA
ATOM     54  C   UNL A   1      44.028  26.404  30.101  1.00  0.00     0.031 C 
ATOM     55  C   UNL A   1      42.772  29.092  35.397  1.00  0.00     0.029 A 
ATOM     56  C   UNL A   1      42.701  28.678  34.076  1.00  0.00     0.049 A 
ATOM     57  H   UNL A   1      41.352  29.271  32.568  1.00  0.00     0.167 HD
ATOM     58  C   UNL A   1      43.436  27.399  32.082  1.00  0.00     0.074 A 
ATOM     59  C   UNL A   1      44.339  26.504  31.388  1.00  0.00     0.031 C 
ATOM     60  C   UNL A   1      43.553  27.743  33.387  1.00  0.00     0.034 A 
BRANCH  47  61
ATOM     61  C   UNL A   1      39.422  31.909  35.313  1.00  0.00     0.023 A 
ATOM     62  C   UNL A   1      38.509  31.346  36.229  1.00  0.00     0.012 A 
ATOM     63  C   UNL A   1      39.880  33.225  35.508  1.00  0.00     0.148 A 
ATOM     64  C   UNL A   1      38.041  32.089  37.311  1.00  0.00     0.002 A 
ATOM     65  C   UNL A   1      39.434  33.947  36.610  1.00  0.00     0.091 A 
ATOM     66  F   UNL A   1      40.727  33.749  34.612  1.00  0.00    -0.205 F 
ATOM     67  C   UNL A   1      38.511  33.383  37.508  1.00  0.00     0.022 A 
BRANCH  65  68
ATOM     68  S   UNL A   1      40.032  35.599  36.986  1.00  0.00     0.127 S 
ATOM     69  O   UNL A   1      41.474  35.375  37.082  1.00  0.00    -0.237 OA
ATOM     70  O   UNL A   1      39.612  36.357  35.806  1.00  0.00    -0.237 OA
ATOM     71  O   UNL A   1      39.371  35.991  38.222  1.00  0.00    -0.744 OA
ENDBRANCH  65  68
ENDBRANCH  47  61
BRANCH  48  72
ATOM     72  C   UNL A   1      42.539  26.429  27.555  1.00  0.00     0.023 A 
ATOM     73  C   UNL A   1      43.462  26.953  26.630  1.00  0.00     0.012 A 
ATOM     74  C   UNL A   1      42.109  25.096  27.415  1.00  0.00     0.148 A 
ATOM     75  C   UNL A   1      43.939  26.172  25.577  1.00  0.00     0.002 A 
ATOM     76  C   UNL A   1      42.624  24.306  26.391  1.00  0.00     0.091 A 
ATOM     77  F   UNL A   1      41.217  24.618  28.295  1.00  0.00    -0.205 F 
ATOM     78  C   UNL A   1      43.530  24.845  25.464  1.00  0.00     0.022 A 
BRANCH  76  79
ATOM     79  S   UNL A   1      42.255  22.552  26.257  1.00  0.00     0.127 S 
ATOM     80  O   UNL A   1      42.962  22.190  25.032  1.00  0.00    -0.237 OA
ATOM     81  O   UNL A   1      42.841  22.019  27.487  1.00  0.00    -0.237 OA
ATOM     82  O   UNL A   1      40.801  22.467  26.205  1.00  0.00    -0.744 OA
ENDBRANCH  76  79
ENDBRANCH  48  72
BRANCH  60  83
ATOM     83  C   UNL A   1      44.692  27.157  34.176  1.00  0.00     0.023 A 
ATOM     84  C   UNL A   1      45.915  27.852  34.231  1.00  0.00     0.012 A 
ATOM     85  C   UNL A   1      44.504  26.013  34.977  1.00  0.00     0.148 A 
ATOM     86  C   UNL A   1      46.939  27.415  35.070  1.00  0.00     0.002 A 
ATOM     87  C   UNL A   1      45.515  25.606  35.839  1.00  0.00     0.091 A 
ATOM     88  F   UNL A   1      43.335  25.362  34.895  1.00  0.00    -0.205 F 
ATOM     89  C   UNL A   1      46.734  26.303  35.883  1.00  0.00     0.022 A 
BRANCH  87  90
ATOM     90  S   UNL A   1      45.310  24.246  36.995  1.00  0.00     0.127 S 
ATOM     91  O   UNL A   1      46.625  24.198  37.633  1.00  0.00    -0.237 OA
ATOM     92  O   UNL A   1      44.231  24.730  37.856  1.00  0.00    -0.237 OA
ATOM     93  O   UNL A   1      44.967  23.082  36.191  1.00  0.00    -0.744 OA
ENDBRANCH  87  90
ENDBRANCH  60  83
ENDBRANCH  34  35
ENDBRANCH  26  29
ENDBRANCH  24  25
ENDBRANCH   1  24
TORSDOF 15
ENDMDL
MODEL 2
REMARK VINA RESULT:     -12.9      1.782      3.454
REMARK SMILES Cc1cc(C)c2c(c1)C=C(C(=O)NCCCCNC(=O)c1ccc(-c3c4nc(c(-c5cccc(S(=O)(=O)[O-])c5F)c5ccc([nH]5)c(-c5cccc(S(=O)(=O)[O-])c5F)c5nc(c(-c6cccc(S(=O)(=O)[O-])c6F)c6ccc3[nH]6)C=C5)C=C4)cc1)[C@@H](C(F)(F)F)O2
REMARK SMILES IDX 16 1 15 2 14 3 13 4 11 5 12 6 10 8 1 9 2 10 3 11 8 12 4 13
REMARK SMILES IDX 7 14 5 15 6 16 9 17 89 18 84 19 85 20 86 21 87 22 88 23
REMARK SMILES IDX 17 24 18 25 19 26 20 28 21 29 22 30 83 31 23 32 82 33 24 34
REMARK SMILES IDX 25 35 26 36 76 37 27 38 81 39 75 40 77 41 28 42 80 43 74 44
REMARK SMILES IDX 73 45 29 47 61 48 41 49 60 50 42 51 45 52 59 53 78 54 43 55
REMARK SMILES IDX 44 56 58 58 79 59 46 60 30 61 31 62 39 63 32 64 34 65 40 66
REMARK SMILES IDX 33 67 35 68 36 69 37 70 38 71 62 72 63 73 71 74 64 75 66 76
REMARK SMILES IDX 72 77 65 78 67 79 68 80 69 81 70 82 47 83 48 84 56 85 49 86
REMARK SMILES IDX 51 87 57 88 50 89 52 90 53 91 54 92 55 93
REMARK H PARENT 13 7 18 27 77 46 45 57
REMARK Flexibility Score: inf
ROOT
ATOM      1  C   UNL A   1      31.748  28.988  24.892  1.00  0.00     0.023 C 
ENDROOT
BRANCH   1   2
ATOM      2  C   UNL A   1      32.237  28.592  23.495  1.00  0.00     0.023 C 
BRANCH   2   3
ATOM      3  C   UNL A   1      31.327  27.606  22.767  1.00  0.00     0.116 C 
BRANCH   3   4
ATOM      4  N   UNL A   1      32.039  26.844  21.757  1.00  0.00    -0.352 N 
ATOM      5  C   UNL A   1      32.798  25.726  21.720  1.00  0.00     0.251 C 
ATOM      6  O   UNL A   1      33.221  25.410  20.602  1.00  0.00    -0.270 OA
ATOM      7  H   UNL A   1      31.943  27.249  20.865  1.00  0.00     0.163 HD
BRANCH   5   8
ATOM      8  C   UNL A   1      33.144  24.875  22.899  1.00  0.00     0.067 C 
ATOM      9  C   UNL A   1      37.495  20.892  24.768  1.00  0.00     0.044 C 
ATOM     10  C   UNL A   1      36.264  21.741  24.872  1.00  0.00    -0.050 A 
ATOM     11  C   UNL A   1      35.517  21.751  26.059  1.00  0.00     0.010 A 
ATOM     12  C   UNL A   1      35.874  22.569  23.813  1.00  0.00     0.015 A 
ATOM     13  C   UNL A   1      34.383  22.563  26.189  1.00  0.00    -0.008 A 
ATOM     14  C   UNL A   1      34.740  23.381  23.926  1.00  0.00     0.018 A 
ATOM     15  C   UNL A   1      33.592  22.563  27.466  1.00  0.00     0.048 C 
ATOM     16  C   UNL A   1      34.000  23.368  25.109  1.00  0.00     0.130 A 
ATOM     17  C   UNL A   1      34.342  24.266  22.839  1.00  0.00     0.025 C 
ATOM     18  O   UNL A   1      32.908  24.176  25.283  1.00  0.00    -0.475 OA
ATOM     19  C   UNL A   1      32.240  24.634  24.074  1.00  0.00     0.314 C 
BRANCH  19  20
ATOM     20  C   UNL A   1      31.081  23.674  23.748  1.00  0.00     0.429 C 
ATOM     21  F   UNL A   1      30.491  23.241  24.892  1.00  0.00    -0.167 F 
ATOM     22  F   UNL A   1      30.106  24.262  23.015  1.00  0.00    -0.167 F 
ATOM     23  F   UNL A   1      31.483  22.579  23.065  1.00  0.00    -0.167 F 
ENDBRANCH  19  20
ENDBRANCH   5   8
ENDBRANCH   3   4
ENDBRANCH   2   3
ENDBRANCH   1   2
BRANCH   1  24
ATOM     24  C   UNL A   1      32.803  29.599  25.813  1.00  0.00     0.116 C 
BRANCH  24  25
ATOM     25  N   UNL A   1      32.431  30.891  26.374  1.00  0.00    -0.352 N 
ATOM     26  C   UNL A   1      33.181  31.688  27.208  1.00  0.00     0.251 C 
ATOM     27  H   UNL A   1      31.542  31.234  26.127  1.00  0.00     0.163 HD
ATOM     28  O   UNL A   1      32.727  32.737  27.657  1.00  0.00    -0.269 OA
BRANCH  26  29
ATOM     29  C   UNL A   1      34.524  31.222  27.596  1.00  0.00     0.039 A 
ATOM     30  C   UNL A   1      35.536  32.166  27.778  1.00  0.00     0.014 A 
ATOM     31  C   UNL A   1      34.737  29.874  27.899  1.00  0.00     0.014 A 
ATOM     32  C   UNL A   1      36.743  31.769  28.352  1.00  0.00     0.010 A 
ATOM     33  C   UNL A   1      35.918  29.494  28.526  1.00  0.00     0.010 A 
ATOM     34  C   UNL A   1      36.924  30.440  28.773  1.00  0.00    -0.014 A 
BRANCH  34  35
ATOM     35  C   UNL A   1      38.138  30.048  29.528  1.00  0.00     0.031 A 
ATOM     36  C   UNL A   1      38.379  30.577  30.911  1.00  0.00     0.074 A 
ATOM     37  C   UNL A   1      39.055  29.261  28.932  1.00  0.00     0.049 A 
ATOM     38  N   UNL A   1      39.361  30.305  31.730  1.00  0.00    -0.248 NA
ATOM     39  C   UNL A   1      37.410  31.553  31.435  1.00  0.00     0.031 C 
ATOM     40  C   UNL A   1      38.975  28.765  27.555  1.00  0.00     0.029 A 
ATOM     41  N   UNL A   1      40.237  28.744  29.401  1.00  0.00    -0.354 N 
ATOM     42  C   UNL A   1      39.137  31.084  32.858  1.00  0.00     0.074 A 
ATOM     43  C   UNL A   1      37.954  31.875  32.601  1.00  0.00     0.031 C 
ATOM     44  C   UNL A   1      40.045  27.993  27.303  1.00  0.00     0.029 A 
ATOM     45  C   UNL A   1      40.890  27.945  28.492  1.00  0.00     0.049 A 
ATOM     46  H   UNL A   1      40.584  28.927  30.304  1.00  0.00     0.167 HD
ATOM     47  C   UNL A   1      39.828  31.102  34.020  1.00  0.00     0.034 A 
ATOM     48  C   UNL A   1      42.028  27.232  28.612  1.00  0.00     0.034 A 
ATOM     49  C   UNL A   1      40.969  30.273  34.290  1.00  0.00     0.049 A 
ATOM     50  C   UNL A   1      42.750  27.229  29.932  1.00  0.00     0.074 A 
ATOM     51  C   UNL A   1      41.679  30.146  35.468  1.00  0.00     0.029 A 
ATOM     52  N   UNL A   1      41.563  29.424  33.368  1.00  0.00    -0.354 N 
ATOM     53  N   UNL A   1      42.421  27.832  31.049  1.00  0.00    -0.248 NA
ATOM     54  C   UNL A   1      43.976  26.423  30.024  1.00  0.00     0.031 C 
ATOM     55  C   UNL A   1      42.707  29.221  35.260  1.00  0.00     0.029 A 
ATOM     56  C   UNL A   1      42.635  28.772  33.950  1.00  0.00     0.049 A 
ATOM     57  H   UNL A   1      41.266  29.304  32.437  1.00  0.00     0.167 HD
ATOM     58  C   UNL A   1      43.379  27.456  31.983  1.00  0.00     0.074 A 
ATOM     59  C   UNL A   1      44.293  26.560  31.306  1.00  0.00     0.031 C 
ATOM     60  C   UNL A   1      43.499  27.835  33.278  1.00  0.00     0.034 A 
BRANCH  47  61
ATOM     61  C   UNL A   1      39.307  31.976  35.128  1.00  0.00     0.023 A 
ATOM     62  C   UNL A   1      38.335  31.452  36.004  1.00  0.00     0.012 A 
ATOM     63  C   UNL A   1      39.813  33.270  35.347  1.00  0.00     0.148 A 
ATOM     64  C   UNL A   1      37.856  32.211  37.070  1.00  0.00     0.002 A 
ATOM     65  C   UNL A   1      39.355  34.009  36.433  1.00  0.00     0.091 A 
ATOM     66  F   UNL A   1      40.718  33.760  34.487  1.00  0.00    -0.205 F 
ATOM     67  C   UNL A   1      38.374  33.484  37.290  1.00  0.00     0.022 A 
BRANCH  65  68
ATOM     68  S   UNL A   1      40.008  35.633  36.838  1.00  0.00     0.127 S 
ATOM     69  O   UNL A   1      39.308  35.929  38.087  1.00  0.00    -0.237 OA
ATOM     70  O   UNL A   1      41.439  35.364  36.992  1.00  0.00    -0.237 OA
ATOM     71  O   UNL A   1      39.672  36.490  35.710  1.00  0.00    -0.744 OA
ENDBRANCH  65  68
ENDBRANCH  47  61
BRANCH  48  72
ATOM     72  C   UNL A   1      42.470  26.358  27.488  1.00  0.00     0.023 A 
ATOM     73  C   UNL A   1      43.413  26.859  26.570  1.00  0.00     0.012 A 
ATOM     74  C   UNL A   1      42.028  25.028  27.360  1.00  0.00     0.148 A 
ATOM     75  C   UNL A   1      43.897  26.058  25.535  1.00  0.00     0.002 A 
ATOM     76  C   UNL A   1      42.550  24.219  26.355  1.00  0.00     0.091 A 
ATOM     77  F   UNL A   1      41.118  24.572  28.234  1.00  0.00    -0.205 F 
ATOM     78  C   UNL A   1      43.475  24.735  25.435  1.00  0.00     0.022 A 
BRANCH  76  79
ATOM     79  S   UNL A   1      42.164  22.467  26.240  1.00  0.00     0.127 S 
ATOM     80  O   UNL A   1      42.905  22.074  25.045  1.00  0.00    -0.237 OA
ATOM     81  O   UNL A   1      42.704  21.949  27.498  1.00  0.00    -0.237 OA
ATOM     82  O   UNL A   1      40.711  22.398  26.144  1.00  0.00    -0.744 OA
ENDBRANCH  76  79
ENDBRANCH  48  72
BRANCH  60  83
ATOM     83  C   UNL A   1      44.652  27.289  34.075  1.00  0.00     0.023 A 
ATOM     84  C   UNL A   1      45.867  28.001  34.095  1.00  0.00     0.012 A 
ATOM     85  C   UNL A   1      44.487  26.168  34.912  1.00  0.00     0.148 A 
ATOM     86  C   UNL A   1      46.904  27.604  34.938  1.00  0.00     0.002 A 
ATOM     87  C   UNL A   1      45.511  25.801  35.777  1.00  0.00     0.091 A 
ATOM     88  F   UNL A   1      43.326  25.500  34.862  1.00  0.00    -0.205 F 
ATOM     89  C   UNL A   1      46.721  26.515  35.787  1.00  0.00     0.022 A 
BRANCH  87  90
ATOM     90  S   UNL A   1      45.335  24.475  36.976  1.00  0.00     0.127 S 
ATOM     91  O   UNL A   1      46.602  24.561  37.702  1.00  0.00    -0.237 OA
ATOM     92  O   UNL A   1      44.163  24.902  37.742  1.00  0.00    -0.237 OA
ATOM     93  O   UNL A   1      45.142  23.256  36.204  1.00  0.00    -0.744 OA
ENDBRANCH  87  90
ENDBRANCH  60  83
ENDBRANCH  34  35
ENDBRANCH  26  29
ENDBRANCH  24  25
ENDBRANCH   1  24
TORSDOF 15
ENDMDL
MODEL 3
REMARK VINA RESULT:     -12.8      2.138      3.730
REMARK SMILES Cc1cc(C)c2c(c1)C=C(C(=O)NCCCCNC(=O)c1ccc(-c3c4nc(c(-c5cccc(S(=O)(=O)[O-])c5F)c5ccc([nH]5)c(-c5cccc(S(=O)(=O)[O-])c5F)c5nc(c(-c6cccc(S(=O)(=O)[O-])c6F)c6ccc3[nH]6)C=C5)C=C4)cc1)[C@@H](C(F)(F)F)O2
REMARK SMILES IDX 16 1 15 2 14 3 13 4 11 5 12 6 10 8 1 9 2 10 3 11 8 12 4 13
REMARK SMILES IDX 7 14 5 15 6 16 9 17 89 18 84 19 85 20 86 21 87 22 88 23
REMARK SMILES IDX 17 24 18 25 19 26 20 28 21 29 22 30 83 31 23 32 82 33 24 34
REMARK SMILES IDX 25 35 26 36 76 37 27 38 81 39 75 40 77 41 28 42 80 43 74 44
REMARK SMILES IDX 73 45 29 47 61 48 41 49 60 50 42 51 45 52 59 53 78 54 43 55
REMARK SMILES IDX 44 56 58 58 79 59 46 60 30 61 31 62 39 63 32 64 34 65 40 66
REMARK SMILES IDX 33 67 35 68 36 69 37 70 38 71 62 72 63 73 71 74 64 75 66 76
REMARK SMILES IDX 72 77 65 78 67 79 68 80 69 81 70 82 47 83 48 84 56 85 49 86
REMARK SMILES IDX 51 87 57 88 50 89 52 90 53 91 54 92 55 93
REMARK H PARENT 13 7 18 27 77 46 45 57
REMARK Flexibility Score: inf
ROOT
ATOM      1  C   UNL A   1      31.770  29.524  25.475  1.00  0.00     0.023 C 
ENDROOT
BRANCH   1   2
ATOM      2  C   UNL A   1      32.202  28.925  24.133  1.00  0.00     0.023 C 
BRANCH   2   3
ATOM      3  C   UNL A   1      31.461  27.646  23.749  1.00  0.00     0.116 C 
BRANCH   3   4
ATOM      4  N   UNL A   1      30.718  27.086  24.863  1.00  0.00    -0.352 N 
ATOM      5  C   UNL A   1      30.766  25.963  25.614  1.00  0.00     0.251 C 
ATOM      6  O   UNL A   1      29.914  25.885  26.505  1.00  0.00    -0.270 OA
ATOM      7  H   UNL A   1      29.987  27.682  25.146  1.00  0.00     0.163 HD
BRANCH   5   8
ATOM      8  C   UNL A   1      31.750  24.851  25.445  1.00  0.00     0.067 C 
ATOM      9  C   UNL A   1      37.829  23.779  25.889  1.00  0.00     0.044 C 
ATOM     10  C   UNL A   1      36.382  23.453  25.673  1.00  0.00    -0.050 A 
ATOM     11  C   UNL A   1      35.996  22.138  25.375  1.00  0.00     0.010 A 
ATOM     12  C   UNL A   1      35.397  24.439  25.817  1.00  0.00     0.015 A 
ATOM     13  C   UNL A   1      34.645  21.806  25.204  1.00  0.00    -0.008 A 
ATOM     14  C   UNL A   1      34.045  24.123  25.642  1.00  0.00     0.018 A 
ATOM     15  C   UNL A   1      34.246  20.393  24.885  1.00  0.00     0.048 C 
ATOM     16  C   UNL A   1      33.679  22.812  25.332  1.00  0.00     0.130 A 
ATOM     17  C   UNL A   1      33.012  25.135  25.816  1.00  0.00     0.025 C 
ATOM     18  O   UNL A   1      32.367  22.446  25.195  1.00  0.00    -0.475 OA
ATOM     19  C   UNL A   1      31.428  23.506  24.859  1.00  0.00     0.314 C 
BRANCH  19  20
ATOM     20  C   UNL A   1      31.246  23.548  23.331  1.00  0.00     0.429 C 
ATOM     21  F   UNL A   1      29.975  23.908  23.016  1.00  0.00    -0.167 F 
ATOM     22  F   UNL A   1      32.057  24.453  22.734  1.00  0.00    -0.167 F 
ATOM     23  F   UNL A   1      31.483  22.355  22.741  1.00  0.00    -0.167 F 
ENDBRANCH  19  20
ENDBRANCH   5   8
ENDBRANCH   3   4
ENDBRANCH   2   3
ENDBRANCH   1   2
BRANCH   1  24
ATOM     24  C   UNL A   1      32.903  30.025  26.370  1.00  0.00     0.116 C 
BRANCH  24  25
ATOM     25  N   UNL A   1      32.714  31.381  26.871  1.00  0.00    -0.352 N 
ATOM     26  C   UNL A   1      33.604  32.133  27.604  1.00  0.00     0.251 C 
ATOM     27  H   UNL A   1      31.852  31.807  26.660  1.00  0.00     0.163 HD
ATOM     28  O   UNL A   1      33.299  33.250  28.013  1.00  0.00    -0.269 OA
BRANCH  26  29
ATOM     29  C   UNL A   1      34.912  31.541  27.933  1.00  0.00     0.039 A 
ATOM     30  C   UNL A   1      36.033  32.372  27.978  1.00  0.00     0.014 A 
ATOM     31  C   UNL A   1      34.996  30.199  28.318  1.00  0.00     0.014 A 
ATOM     32  C   UNL A   1      37.228  31.876  28.497  1.00  0.00     0.010 A 
ATOM     33  C   UNL A   1      36.172  29.726  28.890  1.00  0.00     0.010 A 
ATOM     34  C   UNL A   1      37.291  30.564  29.001  1.00  0.00    -0.014 A 
BRANCH  34  35
ATOM     35  C   UNL A   1      38.507  30.083  29.700  1.00  0.00     0.031 A 
ATOM     36  C   UNL A   1      38.843  30.580  31.075  1.00  0.00     0.074 A 
ATOM     37  C   UNL A   1      39.344  29.243  29.057  1.00  0.00     0.049 A 
ATOM     38  N   UNL A   1      39.838  30.235  31.849  1.00  0.00    -0.248 NA
ATOM     39  C   UNL A   1      37.964  31.613  31.648  1.00  0.00     0.031 C 
ATOM     40  C   UNL A   1      39.172  28.770  27.682  1.00  0.00     0.029 A 
ATOM     41  N   UNL A   1      40.507  28.644  29.470  1.00  0.00    -0.354 N 
ATOM     42  C   UNL A   1      39.715  31.014  32.991  1.00  0.00     0.074 A 
ATOM     43  C   UNL A   1      38.578  31.885  32.792  1.00  0.00     0.031 C 
ATOM     44  C   UNL A   1      40.176  27.931  27.377  1.00  0.00     0.029 A 
ATOM     45  C   UNL A   1      41.066  27.814  28.527  1.00  0.00     0.049 A 
ATOM     46  H   UNL A   1      40.904  28.794  30.359  1.00  0.00     0.167 HD
ATOM     47  C   UNL A   1      40.455  30.973  34.123  1.00  0.00     0.034 A 
ATOM     48  C   UNL A   1      42.158  27.025  28.593  1.00  0.00     0.034 A 
ATOM     49  C   UNL A   1      41.547  30.066  34.336  1.00  0.00     0.049 A 
ATOM     50  C   UNL A   1      42.933  26.960  29.880  1.00  0.00     0.074 A 
ATOM     51  C   UNL A   1      42.297  29.880  35.481  1.00  0.00     0.029 A 
ATOM     52  N   UNL A   1      42.044  29.191  33.382  1.00  0.00    -0.354 N 
ATOM     53  N   UNL A   1      42.693  27.571  31.015  1.00  0.00    -0.248 NA
ATOM     54  C   UNL A   1      44.105  26.072  29.912  1.00  0.00     0.031 C 
ATOM     55  C   UNL A   1      43.250  28.890  35.221  1.00  0.00     0.029 A 
ATOM     56  C   UNL A   1      43.093  28.462  33.912  1.00  0.00     0.049 A 
ATOM     57  H   UNL A   1      41.700  29.100  32.463  1.00  0.00     0.167 HD
ATOM     58  C   UNL A   1      43.663  27.121  31.904  1.00  0.00     0.074 A 
ATOM     59  C   UNL A   1      44.485  26.174  31.180  1.00  0.00     0.031 C 
ATOM     60  C   UNL A   1      43.863  27.477  33.196  1.00  0.00     0.034 A 
BRANCH  47  61
ATOM     61  C   UNL A   1      40.041  31.867  35.259  1.00  0.00     0.023 A 
ATOM     62  C   UNL A   1      40.556  33.179  35.311  1.00  0.00     0.012 A 
ATOM     63  C   UNL A   1      39.106  31.449  36.224  1.00  0.00     0.148 A 
ATOM     64  C   UNL A   1      40.166  34.055  36.322  1.00  0.00     0.002 A 
ATOM     65  C   UNL A   1      38.696  32.341  37.210  1.00  0.00     0.091 A 
ATOM     66  F   UNL A   1      38.648  30.191  36.171  1.00  0.00    -0.205 F 
ATOM     67  C   UNL A   1      39.229  33.640  37.263  1.00  0.00     0.022 A 
BRANCH  65  68
ATOM     68  S   UNL A   1      37.444  31.922  38.428  1.00  0.00     0.127 S 
ATOM     69  O   UNL A   1      36.394  32.890  38.117  1.00  0.00    -0.237 OA
ATOM     70  O   UNL A   1      37.119  30.538  38.077  1.00  0.00    -0.237 OA
ATOM     71  O   UNL A   1      38.084  32.081  39.727  1.00  0.00    -0.744 OA
ENDBRANCH  65  68
ENDBRANCH  47  61
BRANCH  48  72
ATOM     72  C   UNL A   1      42.492  26.136  27.443  1.00  0.00     0.023 A 
ATOM     73  C   UNL A   1      43.298  26.644  26.406  1.00  0.00     0.012 A 
ATOM     74  C   UNL A   1      42.087  24.789  27.401  1.00  0.00     0.148 A 
ATOM     75  C   UNL A   1      43.681  25.831  25.339  1.00  0.00     0.002 A 
ATOM     76  C   UNL A   1      42.512  23.971  26.359  1.00  0.00     0.091 A 
ATOM     77  F   UNL A   1      41.307  24.326  28.389  1.00  0.00    -0.205 F 
ATOM     78  C   UNL A   1      43.300  24.492  25.321  1.00  0.00     0.022 A 
BRANCH  76  79
ATOM     79  S   UNL A   1      42.179  22.204  26.332  1.00  0.00     0.127 S 
ATOM     80  O   UNL A   1      42.666  21.788  27.644  1.00  0.00    -0.237 OA
ATOM     81  O   UNL A   1      40.725  22.167  26.174  1.00  0.00    -0.237 OA
ATOM     82  O   UNL A   1      42.916  21.690  25.184  1.00  0.00    -0.744 OA
ENDBRANCH  76  79
ENDBRANCH  48  72
BRANCH  60  83
ATOM     83  C   UNL A   1      45.010  26.847  33.937  1.00  0.00     0.023 A 
ATOM     84  C   UNL A   1      46.269  27.478  33.914  1.00  0.00     0.012 A 
ATOM     85  C   UNL A   1      44.806  25.728  34.769  1.00  0.00     0.148 A 
ATOM     86  C   UNL A   1      47.311  27.002  34.708  1.00  0.00     0.002 A 
ATOM     87  C   UNL A   1      45.839  25.283  35.586  1.00  0.00     0.091 A 
ATOM     88  F   UNL A   1      43.603  25.137  34.761  1.00  0.00    -0.205 F 
ATOM     89  C   UNL A   1      47.093  25.917  35.553  1.00  0.00     0.022 A 
BRANCH  87  90
ATOM     90  S   UNL A   1      45.626  23.956  36.778  1.00  0.00     0.127 S 
ATOM     91  O   UNL A   1      46.973  23.839  37.336  1.00  0.00    -0.237 OA
ATOM     92  O   UNL A   1      44.633  24.517  37.693  1.00  0.00    -0.237 OA
ATOM     93  O   UNL A   1      45.166  22.802  36.018  1.00  0.00    -0.744 OA
ENDBRANCH  87  90
ENDBRANCH  60  83
ENDBRANCH  34  35
ENDBRANCH  26  29
ENDBRANCH  24  25
ENDBRANCH   1  24
TORSDOF 15
ENDMDL
