MODEL 1
REMARK VINA RESULT:     -13.3      0.000      0.000
REMARK SMILES COc1cc([C@@H]2CC(=O)Nc3c(C(=O)NCCCCNC(=O)c4ccc(-c5c6nc(c(-c7cccc(S(=O)(=O)[O-])c7F)c7ccc([nH]7)c(-c7cccc(S(=O)(=O)[O-])c7F)c7nc(c(-c8cccc(S(=O)(=O)[O-])c8F)c8ccc5[nH]8)C=C7)C=C6)cc4)cn(-c4ccccc4)c32)ccc1O
REMARK SMILES IDX 18 1 17 2 16 3 15 4 13 5 14 6 12 8 6 9 7 10 94 11 8 12 11 13
REMARK SMILES IDX 87 14 9 15 10 16 86 17 5 19 3 20 4 21 97 22 96 23 95 24 2 25
REMARK SMILES IDX 1 26 98 27 88 29 89 30 93 31 90 32 92 33 91 34 19 35 20 36
REMARK SMILES IDX 21 37 22 39 23 40 24 41 85 42 25 43 84 44 26 45 27 46 28 47
REMARK SMILES IDX 78 48 29 49 83 50 77 51 79 52 30 53 82 54 76 55 75 56 31 58
REMARK SMILES IDX 63 59 43 60 62 61 44 62 47 63 61 64 80 65 45 66 46 67 60 69
REMARK SMILES IDX 81 70 48 71 32 72 33 73 41 74 34 75 36 76 42 77 35 78 37 79
REMARK SMILES IDX 38 80 39 81 40 82 64 83 65 84 73 85 66 86 68 87 74 88 67 89
REMARK SMILES IDX 69 90 70 91 71 92 72 93 49 94 50 95 58 96 51 97 53 98 59 99
REMARK SMILES IDX 52 100 54 101 55 102 56 103 57 104
REMARK H PARENT 15 7 10 18 98 28 20 38 79 57 47 68
REMARK Flexibility Score: inf
ROOT
ATOM      1  C   UNL A   1      37.011  20.560  25.036  1.00  0.00     0.023 C 
ENDROOT
BRANCH   1   2
ATOM      2  C   UNL A   1      36.225  21.689  24.360  1.00  0.00     0.023 C 
BRANCH   2   3
ATOM      3  C   UNL A   1      35.719  22.786  25.310  1.00  0.00     0.116 C 
BRANCH   3   4
ATOM      4  N   UNL A   1      34.349  22.547  25.688  1.00  0.00    -0.352 N 
ATOM      5  C   UNL A   1      33.216  23.314  25.693  1.00  0.00     0.254 C 
ATOM      6  O   UNL A   1      32.211  22.744  26.132  1.00  0.00    -0.269 OA
ATOM      7  H   UNL A   1      34.194  21.631  26.013  1.00  0.00     0.163 HD
BRANCH   5   8
ATOM      8  C   UNL A   1      33.118  24.706  25.222  1.00  0.00     0.081 A 
ATOM      9  C   UNL A   1      32.849  27.836  23.192  1.00  0.00     0.078 C 
ATOM     10  C   UNL A   1      33.479  27.320  21.897  1.00  0.00     0.115 C 
ATOM     11  C   UNL A   1      32.924  26.767  24.246  1.00  0.00     0.055 A 
ATOM     12  C   UNL A   1      33.124  25.880  21.601  1.00  0.00     0.225 C 
ATOM     13  C   UNL A   1      33.024  25.413  23.983  1.00  0.00     0.076 A 
ATOM     14  N   UNL A   1      33.030  26.959  25.603  1.00  0.00    -0.317 N 
ATOM     15  O   UNL A   1      33.056  25.453  20.450  1.00  0.00    -0.275 OA
ATOM     16  N   UNL A   1      33.024  25.022  22.665  1.00  0.00    -0.324 N 
ATOM     17  C   UNL A   1      33.197  25.726  26.177  1.00  0.00     0.107 A 
ATOM     18  H   UNL A   1      32.947  24.060  22.472  1.00  0.00     0.170 HD
BRANCH   9  19
ATOM     19  C   UNL A   1      31.442  28.357  22.938  1.00  0.00    -0.034 A 
ATOM     20  C   UNL A   1      29.026  27.970  23.141  1.00  0.00     0.160 A 
ATOM     21  C   UNL A   1      30.349  27.607  23.414  1.00  0.00     0.054 A 
ATOM     22  C   UNL A   1      28.798  29.142  22.421  1.00  0.00     0.157 A 
ATOM     23  C   UNL A   1      29.864  29.931  21.984  1.00  0.00     0.050 A 
ATOM     24  C   UNL A   1      31.180  29.538  22.233  1.00  0.00     0.008 A 
BRANCH  20  25
ATOM     25  O   UNL A   1      28.120  27.070  23.630  1.00  0.00    -0.493 OA
ATOM     26  C   UNL A   1      28.585  26.038  24.482  1.00  0.00     0.278 C 
ENDBRANCH  20  25
BRANCH  22  27
ATOM     27  O   UNL A   1      27.549  29.574  22.083  1.00  0.00    -0.504 OA
ATOM     28  H   UNL A   1      26.906  29.714  22.750  1.00  0.00     0.293 HD
ENDBRANCH  22  27
ENDBRANCH   9  19
BRANCH  14  29
ATOM     29  C   UNL A   1      33.085  28.194  26.291  1.00  0.00     0.045 A 
ATOM     30  C   UNL A   1      31.935  28.977  26.412  1.00  0.00     0.026 A 
ATOM     31  C   UNL A   1      34.307  28.652  26.790  1.00  0.00     0.026 A 
ATOM     32  C   UNL A   1      32.019  30.260  26.948  1.00  0.00     0.002 A 
ATOM     33  C   UNL A   1      34.385  29.941  27.323  1.00  0.00     0.002 A 
ATOM     34  C   UNL A   1      33.248  30.750  27.385  1.00  0.00     0.000 A 
ENDBRANCH  14  29
ENDBRANCH   5   8
ENDBRANCH   3   4
ENDBRANCH   2   3
ENDBRANCH   1   2
BRANCH   1  35
ATOM     35  C   UNL A   1      38.471  20.910  25.305  1.00  0.00     0.116 C 
BRANCH  35  36
ATOM     36  N   UNL A   1      39.298  19.724  25.538  1.00  0.00    -0.352 N 
ATOM     37  C   UNL A   1      40.627  19.687  25.897  1.00  0.00     0.251 C 
ATOM     38  H   UNL A   1      38.852  18.854  25.425  1.00  0.00     0.163 HD
ATOM     39  O   UNL A   1      41.316  18.690  25.678  1.00  0.00    -0.269 OA
BRANCH  37  40
ATOM     40  C   UNL A   1      41.210  20.864  26.555  1.00  0.00     0.039 A 
ATOM     41  C   UNL A   1      41.792  21.887  25.805  1.00  0.00     0.014 A 
ATOM     42  C   UNL A   1      41.105  20.954  27.944  1.00  0.00     0.014 A 
ATOM     43  C   UNL A   1      42.192  23.050  26.456  1.00  0.00     0.010 A 
ATOM     44  C   UNL A   1      41.401  22.142  28.570  1.00  0.00     0.010 A 
ATOM     45  C   UNL A   1      41.969  23.183  27.836  1.00  0.00    -0.014 A 
BRANCH  45  46
ATOM     46  C   UNL A   1      42.180  24.474  28.488  1.00  0.00     0.031 A 
ATOM     47  C   UNL A   1      41.056  25.440  28.316  1.00  0.00     0.074 A 
ATOM     48  C   UNL A   1      43.189  24.704  29.355  1.00  0.00     0.049 A 
ATOM     49  N   UNL A   1      41.070  26.561  27.672  1.00  0.00    -0.248 NA
ATOM     50  C   UNL A   1      39.718  25.049  28.793  1.00  0.00     0.031 C 
ATOM     51  C   UNL A   1      44.170  23.736  29.863  1.00  0.00     0.029 A 
ATOM     52  N   UNL A   1      43.457  25.817  30.093  1.00  0.00    -0.354 N 
ATOM     53  C   UNL A   1      39.814  27.132  27.877  1.00  0.00     0.074 A 
ATOM     54  C   UNL A   1      38.975  26.077  28.376  1.00  0.00     0.031 C 
ATOM     55  C   UNL A   1      44.728  24.217  30.995  1.00  0.00     0.029 A 
ATOM     56  C   UNL A   1      44.277  25.580  31.195  1.00  0.00     0.049 A 
ATOM     57  H   UNL A   1      43.104  26.708  29.869  1.00  0.00     0.167 HD
ATOM     58  C   UNL A   1      39.645  28.484  27.872  1.00  0.00     0.034 A 
ATOM     59  C   UNL A   1      44.519  26.423  32.228  1.00  0.00     0.034 A 
ATOM     60  C   UNL A   1      40.793  29.148  27.303  1.00  0.00     0.049 A 
ATOM     61  C   UNL A   1      44.179  27.787  31.772  1.00  0.00     0.074 A 
ATOM     62  C   UNL A   1      41.462  29.100  26.097  1.00  0.00     0.029 A 
ATOM     63  N   UNL A   1      41.655  29.747  28.190  1.00  0.00    -0.354 N 
ATOM     64  N   UNL A   1      44.840  28.419  30.845  1.00  0.00    -0.248 NA
ATOM     65  C   UNL A   1      42.842  28.287  32.044  1.00  0.00     0.031 C 
ATOM     66  C   UNL A   1      42.840  29.227  26.439  1.00  0.00     0.029 A 
ATOM     67  C   UNL A   1      42.928  29.419  27.819  1.00  0.00     0.049 A 
ATOM     68  H   UNL A   1      41.400  30.311  28.955  1.00  0.00     0.167 HD
ATOM     69  C   UNL A   1      43.855  29.052  30.100  1.00  0.00     0.074 A 
ATOM     70  C   UNL A   1      42.669  29.041  30.954  1.00  0.00     0.031 C 
ATOM     71  C   UNL A   1      44.014  29.253  28.758  1.00  0.00     0.034 A 
BRANCH  58  72
ATOM     72  C   UNL A   1      38.659  29.257  28.732  1.00  0.00     0.023 A 
ATOM     73  C   UNL A   1      38.007  30.358  28.125  1.00  0.00     0.012 A 
ATOM     74  C   UNL A   1      38.562  29.162  30.138  1.00  0.00     0.148 A 
ATOM     75  C   UNL A   1      37.377  31.354  28.880  1.00  0.00     0.002 A 
ATOM     76  C   UNL A   1      37.868  30.113  30.879  1.00  0.00     0.091 A 
ATOM     77  F   UNL A   1      39.244  28.224  30.798  1.00  0.00    -0.205 F 
ATOM     78  C   UNL A   1      37.307  31.232  30.260  1.00  0.00     0.022 A 
BRANCH  76  79
ATOM     79  S   UNL A   1      37.703  29.982  32.665  1.00  0.00     0.127 S 
ATOM     80  O   UNL A   1      39.060  30.293  33.106  1.00  0.00    -0.237 OA
ATOM     81  O   UNL A   1      36.705  31.014  32.948  1.00  0.00    -0.237 OA
ATOM     82  O   UNL A   1      37.243  28.622  32.919  1.00  0.00    -0.744 OA
ENDBRANCH  76  79
ENDBRANCH  58  72
BRANCH  59  83
ATOM     83  C   UNL A   1      44.785  26.128  33.655  1.00  0.00     0.023 A 
ATOM     84  C   UNL A   1      46.112  26.142  34.135  1.00  0.00     0.012 A 
ATOM     85  C   UNL A   1      43.736  26.129  34.599  1.00  0.00     0.148 A 
ATOM     86  C   UNL A   1      46.383  26.200  35.506  1.00  0.00     0.002 A 
ATOM     87  C   UNL A   1      44.010  26.181  35.963  1.00  0.00     0.091 A 
ATOM     88  F   UNL A   1      42.472  26.176  34.159  1.00  0.00    -0.205 F 
ATOM     89  C   UNL A   1      45.333  26.231  36.420  1.00  0.00     0.022 A 
BRANCH  87  90
ATOM     90  S   UNL A   1      42.705  26.257  37.197  1.00  0.00     0.127 S 
ATOM     91  O   UNL A   1      43.470  26.307  38.444  1.00  0.00    -0.237 OA
ATOM     92  O   UNL A   1      42.027  27.502  36.843  1.00  0.00    -0.237 OA
ATOM     93  O   UNL A   1      41.922  25.039  37.024  1.00  0.00    -0.744 OA
ENDBRANCH  87  90
ENDBRANCH  59  83
BRANCH  71  94
ATOM     94  C   UNL A   1      45.384  29.050  28.166  1.00  0.00     0.023 A 
ATOM     95  C   UNL A   1      46.398  30.029  28.223  1.00  0.00     0.012 A 
ATOM     96  C   UNL A   1      45.703  27.772  27.680  1.00  0.00     0.148 A 
ATOM     97  C   UNL A   1      47.692  29.746  27.777  1.00  0.00     0.002 A 
ATOM     98  C   UNL A   1      47.000  27.479  27.283  1.00  0.00     0.091 A 
ATOM     99  F   UNL A   1      44.728  26.850  27.633  1.00  0.00    -0.205 F 
ATOM    100  C   UNL A   1      47.997  28.466  27.319  1.00  0.00     0.022 A 
BRANCH  98 101
ATOM    101  S   UNL A   1      47.472  25.815  26.807  1.00  0.00     0.127 S 
ATOM    102  O   UNL A   1      46.598  25.567  25.663  1.00  0.00    -0.237 OA
ATOM    103  O   UNL A   1      48.888  25.970  26.473  1.00  0.00    -0.237 OA
ATOM    104  O   UNL A   1      47.227  24.983  27.978  1.00  0.00    -0.744 OA
ENDBRANCH  98 101
ENDBRANCH  71  94
ENDBRANCH  45  46
ENDBRANCH  37  40
ENDBRANCH  35  36
ENDBRANCH   1  35
TORSDOF 18
ENDMDL
MODEL 2
REMARK VINA RESULT:     -12.6      3.026      7.971
REMARK SMILES COc1cc([C@@H]2CC(=O)Nc3c(C(=O)NCCCCNC(=O)c4ccc(-c5c6nc(c(-c7cccc(S(=O)(=O)[O-])c7F)c7ccc([nH]7)c(-c7cccc(S(=O)(=O)[O-])c7F)c7nc(c(-c8cccc(S(=O)(=O)[O-])c8F)c8ccc5[nH]8)C=C7)C=C6)cc4)cn(-c4ccccc4)c32)ccc1O
REMARK SMILES IDX 18 1 17 2 16 3 15 4 13 5 14 6 12 8 6 9 7 10 94 11 8 12 11 13
REMARK SMILES IDX 87 14 9 15 10 16 86 17 5 19 3 20 4 21 97 22 96 23 95 24 2 25
REMARK SMILES IDX 1 26 98 27 88 29 89 30 93 31 90 32 92 33 91 34 19 35 20 36
REMARK SMILES IDX 21 37 22 39 23 40 24 41 85 42 25 43 84 44 26 45 27 46 28 47
REMARK SMILES IDX 78 48 29 49 83 50 77 51 79 52 30 53 82 54 76 55 75 56 31 58
REMARK SMILES IDX 63 59 43 60 62 61 44 62 47 63 61 64 80 65 45 66 46 67 60 69
REMARK SMILES IDX 81 70 48 71 32 72 33 73 41 74 34 75 36 76 42 77 35 78 37 79
REMARK SMILES IDX 38 80 39 81 40 82 64 83 65 84 73 85 66 86 68 87 74 88 67 89
REMARK SMILES IDX 69 90 70 91 71 92 72 93 49 94 50 95 58 96 51 97 53 98 59 99
REMARK SMILES IDX 52 100 54 101 55 102 56 103 57 104
REMARK H PARENT 15 7 10 18 98 28 20 38 79 57 47 68
REMARK Flexibility Score: inf
ROOT
ATOM      1  C   UNL A   1      32.510  30.716  26.837  1.00  0.00     0.023 C 
ENDROOT
BRANCH   1   2
ATOM      2  C   UNL A   1      32.445  29.770  25.633  1.00  0.00     0.023 C 
BRANCH   2   3
ATOM      3  C   UNL A   1      31.616  28.494  25.855  1.00  0.00     0.116 C 
BRANCH   3   4
ATOM      4  N   UNL A   1      31.036  28.038  24.617  1.00  0.00    -0.352 N 
ATOM      5  C   UNL A   1      31.067  26.855  23.931  1.00  0.00     0.254 C 
ATOM      6  O   UNL A   1      30.452  26.865  22.859  1.00  0.00    -0.269 OA
ATOM      7  H   UNL A   1      30.499  28.729  24.167  1.00  0.00     0.163 HD
BRANCH   5   8
ATOM      8  C   UNL A   1      31.746  25.624  24.371  1.00  0.00     0.081 A 
ATOM      9  C   UNL A   1      32.638  22.305  25.847  1.00  0.00     0.078 C 
ATOM     10  C   UNL A   1      31.599  22.271  26.970  1.00  0.00     0.115 C 
ATOM     11  C   UNL A   1      32.560  23.625  25.133  1.00  0.00     0.055 A 
ATOM     12  C   UNL A   1      30.277  22.885  26.568  1.00  0.00     0.225 C 
ATOM     13  C   UNL A   1      31.440  24.434  25.102  1.00  0.00     0.076 A 
ATOM     14  N   UNL A   1      33.596  24.287  24.517  1.00  0.00    -0.317 N 
ATOM     15  O   UNL A   1      29.213  22.511  27.058  1.00  0.00    -0.275 OA
ATOM     16  N   UNL A   1      30.312  23.981  25.745  1.00  0.00    -0.324 N 
ATOM     17  C   UNL A   1      33.116  25.503  24.108  1.00  0.00     0.107 A 
ATOM     18  H   UNL A   1      29.473  24.476  25.606  1.00  0.00     0.170 HD
BRANCH   9  19
ATOM     19  C   UNL A   1      32.486  21.097  24.934  1.00  0.00    -0.034 A 
ATOM     20  C   UNL A   1      32.539  18.653  24.713  1.00  0.00     0.160 A 
ATOM     21  C   UNL A   1      32.576  19.810  25.498  1.00  0.00     0.054 A 
ATOM     22  C   UNL A   1      32.353  18.794  23.338  1.00  0.00     0.157 A 
ATOM     23  C   UNL A   1      32.208  20.057  22.762  1.00  0.00     0.050 A 
ATOM     24  C   UNL A   1      32.283  21.204  23.553  1.00  0.00     0.008 A 
BRANCH  20  25
ATOM     25  O   UNL A   1      32.716  17.512  25.445  1.00  0.00    -0.493 OA
ATOM     26  C   UNL A   1      33.865  16.722  25.197  1.00  0.00     0.278 C 
ENDBRANCH  20  25
BRANCH  22  27
ATOM     27  O   UNL A   1      32.324  17.732  22.481  1.00  0.00    -0.504 OA
ATOM     28  H   UNL A   1      33.092  17.210  22.356  1.00  0.00     0.293 HD
ENDBRANCH  22  27
ENDBRANCH   9  19
BRANCH  14  29
ATOM     29  C   UNL A   1      34.943  23.867  24.421  1.00  0.00     0.045 A 
ATOM     30  C   UNL A   1      35.372  23.146  23.305  1.00  0.00     0.026 A 
ATOM     31  C   UNL A   1      35.822  24.122  25.477  1.00  0.00     0.026 A 
ATOM     32  C   UNL A   1      36.652  22.596  23.279  1.00  0.00     0.002 A 
ATOM     33  C   UNL A   1      37.103  23.565  25.447  1.00  0.00     0.002 A 
ATOM     34  C   UNL A   1      37.511  22.789  24.359  1.00  0.00     0.000 A 
ENDBRANCH  14  29
ENDBRANCH   5   8
ENDBRANCH   3   4
ENDBRANCH   2   3
ENDBRANCH   1   2
BRANCH   1  35
ATOM     35  C   UNL A   1      33.904  30.836  27.444  1.00  0.00     0.116 C 
BRANCH  35  36
ATOM     36  N   UNL A   1      33.943  31.755  28.583  1.00  0.00    -0.352 N 
ATOM     37  C   UNL A   1      34.890  31.813  29.581  1.00  0.00     0.251 C 
ATOM     38  H   UNL A   1      33.207  32.405  28.642  1.00  0.00     0.163 HD
ATOM     39  O   UNL A   1      34.632  32.321  30.673  1.00  0.00    -0.269 OA
BRANCH  37  40
ATOM     40  C   UNL A   1      36.225  31.258  29.316  1.00  0.00     0.039 A 
ATOM     41  C   UNL A   1      37.341  32.092  29.230  1.00  0.00     0.014 A 
ATOM     42  C   UNL A   1      36.346  29.871  29.216  1.00  0.00     0.014 A 
ATOM     43  C   UNL A   1      38.602  31.513  29.132  1.00  0.00     0.010 A 
ATOM     44  C   UNL A   1      37.597  29.299  29.226  1.00  0.00     0.010 A 
ATOM     45  C   UNL A   1      38.727  30.114  29.157  1.00  0.00    -0.014 A 
BRANCH  45  46
ATOM     46  C   UNL A   1      40.048  29.501  29.276  1.00  0.00     0.031 A 
ATOM     47  C   UNL A   1      40.502  29.286  30.682  1.00  0.00     0.074 A 
ATOM     48  C   UNL A   1      40.709  28.969  28.226  1.00  0.00     0.049 A 
ATOM     49  N   UNL A   1      41.491  29.856  31.288  1.00  0.00    -0.248 NA
ATOM     50  C   UNL A   1      39.673  28.447  31.563  1.00  0.00     0.031 C 
ATOM     51  C   UNL A   1      40.227  28.821  26.847  1.00  0.00     0.029 A 
ATOM     52  N   UNL A   1      41.895  28.299  28.201  1.00  0.00    -0.354 N 
ATOM     53  C   UNL A   1      41.559  29.259  32.546  1.00  0.00     0.074 A 
ATOM     54  C   UNL A   1      40.308  28.576  32.730  1.00  0.00     0.031 C 
ATOM     55  C   UNL A   1      40.969  27.890  26.210  1.00  0.00     0.029 A 
ATOM     56  C   UNL A   1      42.072  27.505  27.070  1.00  0.00     0.049 A 
ATOM     57  H   UNL A   1      42.567  28.368  28.919  1.00  0.00     0.167 HD
ATOM     58  C   UNL A   1      42.743  29.155  33.214  1.00  0.00     0.034 A 
ATOM     59  C   UNL A   1      43.021  26.558  26.878  1.00  0.00     0.034 A 
ATOM     60  C   UNL A   1      43.744  30.014  32.630  1.00  0.00     0.049 A 
ATOM     61  C   UNL A   1      44.116  26.832  27.832  1.00  0.00     0.074 A 
ATOM     62  C   UNL A   1      43.858  31.367  32.380  1.00  0.00     0.029 A 
ATOM     63  N   UNL A   1      44.691  29.403  31.845  1.00  0.00    -0.354 N 
ATOM     64  N   UNL A   1      44.876  27.887  27.767  1.00  0.00    -0.248 NA
ATOM     65  C   UNL A   1      44.094  26.150  29.115  1.00  0.00     0.031 C 
ATOM     66  C   UNL A   1      44.523  31.450  31.121  1.00  0.00     0.029 A 
ATOM     67  C   UNL A   1      44.842  30.153  30.713  1.00  0.00     0.049 A 
ATOM     68  H   UNL A   1      45.176  28.573  32.060  1.00  0.00     0.167 HD
ATOM     69  C   UNL A   1      45.031  28.274  29.092  1.00  0.00     0.074 A 
ATOM     70  C   UNL A   1      44.638  27.103  29.875  1.00  0.00     0.031 C 
ATOM     71  C   UNL A   1      45.171  29.591  29.423  1.00  0.00     0.034 A 
BRANCH  58  72
ATOM     72  C   UNL A   1      43.150  28.007  34.122  1.00  0.00     0.023 A 
ATOM     73  C   UNL A   1      43.429  28.328  35.473  1.00  0.00     0.012 A 
ATOM     74  C   UNL A   1      43.557  26.728  33.679  1.00  0.00     0.148 A 
ATOM     75  C   UNL A   1      44.153  27.466  36.304  1.00  0.00     0.002 A 
ATOM     76  C   UNL A   1      44.208  25.843  34.531  1.00  0.00     0.091 A 
ATOM     77  F   UNL A   1      43.439  26.393  32.393  1.00  0.00    -0.205 F 
ATOM     78  C   UNL A   1      44.543  26.220  35.834  1.00  0.00     0.022 A 
BRANCH  76  79
ATOM     79  S   UNL A   1      44.696  24.198  33.991  1.00  0.00     0.127 S 
ATOM     80  O   UNL A   1      45.404  24.498  32.749  1.00  0.00    -0.237 OA
ATOM     81  O   UNL A   1      45.544  23.761  35.100  1.00  0.00    -0.237 OA
ATOM     82  O   UNL A   1      43.456  23.445  33.856  1.00  0.00    -0.744 OA
ENDBRANCH  76  79
ENDBRANCH  58  72
BRANCH  59  83
ATOM     83  C   UNL A   1      42.961  25.291  26.113  1.00  0.00     0.023 A 
ATOM     84  C   UNL A   1      43.896  25.051  25.084  1.00  0.00     0.012 A 
ATOM     85  C   UNL A   1      42.193  24.203  26.580  1.00  0.00     0.148 A 
ATOM     86  C   UNL A   1      44.089  23.765  24.569  1.00  0.00     0.002 A 
ATOM     87  C   UNL A   1      42.384  22.926  26.061  1.00  0.00     0.091 A 
ATOM     88  F   UNL A   1      41.343  24.402  27.597  1.00  0.00    -0.205 F 
ATOM     89  C   UNL A   1      43.342  22.700  25.065  1.00  0.00     0.022 A 
BRANCH  87  90
ATOM     90  S   UNL A   1      41.479  21.499  26.676  1.00  0.00     0.127 S 
ATOM     91  O   UNL A   1      40.090  21.943  26.546  1.00  0.00    -0.237 OA
ATOM     92  O   UNL A   1      41.881  20.458  25.734  1.00  0.00    -0.237 OA
ATOM     93  O   UNL A   1      41.920  21.311  28.053  1.00  0.00    -0.744 OA
ENDBRANCH  87  90
ENDBRANCH  59  83
BRANCH  71  94
ATOM     94  C   UNL A   1      45.456  30.576  28.319  1.00  0.00     0.023 A 
ATOM     95  C   UNL A   1      44.439  31.246  27.607  1.00  0.00     0.012 A 
ATOM     96  C   UNL A   1      46.792  30.949  28.103  1.00  0.00     0.148 A 
ATOM     97  C   UNL A   1      44.752  32.246  26.682  1.00  0.00     0.002 A 
ATOM     98  C   UNL A   1      47.097  31.975  27.220  1.00  0.00     0.091 A 
ATOM     99  F   UNL A   1      47.749  30.302  28.787  1.00  0.00    -0.205 F 
ATOM    100  C   UNL A   1      46.082  32.620  26.498  1.00  0.00     0.022 A 
BRANCH  98 101
ATOM    101  S   UNL A   1      48.777  32.577  27.043  1.00  0.00     0.127 S 
ATOM    102  O   UNL A   1      49.113  32.953  28.414  1.00  0.00    -0.237 OA
ATOM    103  O   UNL A   1      49.485  31.400  26.539  1.00  0.00    -0.237 OA
ATOM    104  O   UNL A   1      48.705  33.677  26.088  1.00  0.00    -0.744 OA
ENDBRANCH  98 101
ENDBRANCH  71  94
ENDBRANCH  45  46
ENDBRANCH  37  40
ENDBRANCH  35  36
ENDBRANCH   1  35
TORSDOF 18
ENDMDL
MODEL 3
REMARK VINA RESULT:     -12.6      2.781      7.941
REMARK SMILES COc1cc([C@@H]2CC(=O)Nc3c(C(=O)NCCCCNC(=O)c4ccc(-c5c6nc(c(-c7cccc(S(=O)(=O)[O-])c7F)c7ccc([nH]7)c(-c7cccc(S(=O)(=O)[O-])c7F)c7nc(c(-c8cccc(S(=O)(=O)[O-])c8F)c8ccc5[nH]8)C=C7)C=C6)cc4)cn(-c4ccccc4)c32)ccc1O
REMARK SMILES IDX 18 1 17 2 16 3 15 4 13 5 14 6 12 8 6 9 7 10 94 11 8 12 11 13
REMARK SMILES IDX 87 14 9 15 10 16 86 17 5 19 3 20 4 21 97 22 96 23 95 24 2 25
REMARK SMILES IDX 1 26 98 27 88 29 89 30 93 31 90 32 92 33 91 34 19 35 20 36
REMARK SMILES IDX 21 37 22 39 23 40 24 41 85 42 25 43 84 44 26 45 27 46 28 47
REMARK SMILES IDX 78 48 29 49 83 50 77 51 79 52 30 53 82 54 76 55 75 56 31 58
REMARK SMILES IDX 63 59 43 60 62 61 44 62 47 63 61 64 80 65 45 66 46 67 60 69
REMARK SMILES IDX 81 70 48 71 32 72 33 73 41 74 34 75 36 76 42 77 35 78 37 79
REMARK SMILES IDX 38 80 39 81 40 82 64 83 65 84 73 85 66 86 68 87 74 88 67 89
REMARK SMILES IDX 69 90 70 91 71 92 72 93 49 94 50 95 58 96 51 97 53 98 59 99
REMARK SMILES IDX 52 100 54 101 55 102 56 103 57 104
REMARK H PARENT 15 7 10 18 98 28 20 38 79 57 47 68
REMARK Flexibility Score: inf
ROOT
ATOM      1  C   UNL A   1      33.044  28.562  27.323  1.00  0.00     0.023 C 
ENDROOT
BRANCH   1   2
ATOM      2  C   UNL A   1      31.753  28.814  26.535  1.00  0.00     0.023 C 
BRANCH   2   3
ATOM      3  C   UNL A   1      31.255  27.620  25.706  1.00  0.00     0.116 C 
BRANCH   3   4
ATOM      4  N   UNL A   1      31.941  27.552  24.440  1.00  0.00    -0.352 N 
ATOM      5  C   UNL A   1      32.743  26.619  23.841  1.00  0.00     0.254 C 
ATOM      6  O   UNL A   1      33.179  26.950  22.733  1.00  0.00    -0.269 OA
ATOM      7  H   UNL A   1      31.801  28.352  23.884  1.00  0.00     0.163 HD
BRANCH   5   8
ATOM      8  C   UNL A   1      33.097  25.304  24.401  1.00  0.00     0.081 A 
ATOM      9  C   UNL A   1      33.103  21.956  26.070  1.00  0.00     0.078 C 
ATOM     10  C   UNL A   1      31.943  22.187  27.041  1.00  0.00     0.115 C 
ATOM     11  C   UNL A   1      33.386  23.226  25.318  1.00  0.00     0.055 A 
ATOM     12  C   UNL A   1      30.835  23.027  26.447  1.00  0.00     0.225 C 
ATOM     13  C   UNL A   1      32.465  24.238  25.114  1.00  0.00     0.076 A 
ATOM     14  N   UNL A   1      34.604  23.639  24.833  1.00  0.00    -0.317 N 
ATOM     15  O   UNL A   1      29.663  22.896  26.797  1.00  0.00    -0.275 OA
ATOM     16  N   UNL A   1      31.196  24.049  25.609  1.00  0.00    -0.324 N 
ATOM     17  C   UNL A   1      34.436  24.902  24.331  1.00  0.00     0.107 A 
ATOM     18  H   UNL A   1      30.499  24.692  25.343  1.00  0.00     0.170 HD
BRANCH   9  19
ATOM     19  C   UNL A   1      32.829  20.756  25.176  1.00  0.00    -0.034 A 
ATOM     20  C   UNL A   1      32.755  18.312  24.962  1.00  0.00     0.160 A 
ATOM     21  C   UNL A   1      32.903  19.467  25.737  1.00  0.00     0.054 A 
ATOM     22  C   UNL A   1      32.473  18.459  23.604  1.00  0.00     0.157 A 
ATOM     23  C   UNL A   1      32.342  19.727  23.036  1.00  0.00     0.050 A 
ATOM     24  C   UNL A   1      32.527  20.871  23.814  1.00  0.00     0.008 A 
BRANCH  20  25
ATOM     25  O   UNL A   1      32.936  17.165  25.684  1.00  0.00    -0.493 OA
ATOM     26  C   UNL A   1      34.047  16.341  25.377  1.00  0.00     0.278 C 
ENDBRANCH  20  25
BRANCH  22  27
ATOM     27  O   UNL A   1      32.332  17.400  22.757  1.00  0.00    -0.504 OA
ATOM     28  H   UNL A   1      31.493  17.202  22.390  1.00  0.00     0.293 HD
ENDBRANCH  22  27
ENDBRANCH   9  19
BRANCH  14  29
ATOM     29  C   UNL A   1      35.839  22.957  24.933  1.00  0.00     0.045 A 
ATOM     30  C   UNL A   1      35.977  21.678  24.390  1.00  0.00     0.026 A 
ATOM     31  C   UNL A   1      36.898  23.545  25.630  1.00  0.00     0.026 A 
ATOM     32  C   UNL A   1      37.137  20.942  24.623  1.00  0.00     0.002 A 
ATOM     33  C   UNL A   1      38.057  22.802  25.863  1.00  0.00     0.002 A 
ATOM     34  C   UNL A   1      38.169  21.497  25.377  1.00  0.00     0.000 A 
ENDBRANCH  14  29
ENDBRANCH   5   8
ENDBRANCH   3   4
ENDBRANCH   2   3
ENDBRANCH   1   2
BRANCH   1  35
ATOM     35  C   UNL A   1      34.269  29.240  26.719  1.00  0.00     0.116 C 
BRANCH  35  36
ATOM     36  N   UNL A   1      34.241  30.695  26.880  1.00  0.00    -0.352 N 
ATOM     37  C   UNL A   1      34.896  31.445  27.832  1.00  0.00     0.251 C 
ATOM     38  H   UNL A   1      33.691  31.194  26.234  1.00  0.00     0.163 HD
ATOM     39  O   UNL A   1      34.503  32.573  28.131  1.00  0.00    -0.269 OA
BRANCH  37  40
ATOM     40  C   UNL A   1      36.082  30.873  28.483  1.00  0.00     0.039 A 
ATOM     41  C   UNL A   1      36.157  29.507  28.757  1.00  0.00     0.014 A 
ATOM     42  C   UNL A   1      37.151  31.728  28.758  1.00  0.00     0.014 A 
ATOM     43  C   UNL A   1      37.356  28.985  29.232  1.00  0.00     0.010 A 
ATOM     44  C   UNL A   1      38.365  31.196  29.125  1.00  0.00     0.010 A 
ATOM     45  C   UNL A   1      38.467  29.830  29.389  1.00  0.00    -0.014 A 
BRANCH  45  46
ATOM     46  C   UNL A   1      39.782  29.262  29.673  1.00  0.00     0.031 A 
ATOM     47  C   UNL A   1      40.190  29.342  31.106  1.00  0.00     0.074 A 
ATOM     48  C   UNL A   1      40.476  28.529  28.776  1.00  0.00     0.049 A 
ATOM     49  N   UNL A   1      41.160  30.029  31.614  1.00  0.00    -0.248 NA
ATOM     50  C   UNL A   1      39.332  28.696  32.114  1.00  0.00     0.031 C 
ATOM     51  C   UNL A   1      40.038  28.099  27.442  1.00  0.00     0.029 A 
ATOM     52  N   UNL A   1      41.661  27.874  28.927  1.00  0.00    -0.354 N 
ATOM     53  C   UNL A   1      41.187  29.703  32.970  1.00  0.00     0.074 A 
ATOM     54  C   UNL A   1      39.929  29.065  33.250  1.00  0.00     0.031 C 
ATOM     55  C   UNL A   1      40.800  27.061  27.034  1.00  0.00     0.029 A 
ATOM     56  C   UNL A   1      41.874  26.867  27.988  1.00  0.00     0.049 A 
ATOM     57  H   UNL A   1      42.309  28.093  29.636  1.00  0.00     0.167 HD
ATOM     58  C   UNL A   1      42.348  29.744  33.682  1.00  0.00     0.034 A 
ATOM     59  C   UNL A   1      42.827  25.905  28.025  1.00  0.00     0.034 A 
ATOM     60  C   UNL A   1      43.369  30.470  32.967  1.00  0.00     0.049 A 
ATOM     61  C   UNL A   1      43.891  26.375  28.937  1.00  0.00     0.074 A 
ATOM     62  C   UNL A   1      43.493  31.744  32.448  1.00  0.00     0.029 A 
ATOM     63  N   UNL A   1      44.340  29.717  32.354  1.00  0.00    -0.354 N 
ATOM     64  N   UNL A   1      44.654  27.398  28.681  1.00  0.00    -0.248 NA
ATOM     65  C   UNL A   1      43.826  25.970  30.331  1.00  0.00     0.031 C 
ATOM     66  C   UNL A   1      44.198  31.571  31.221  1.00  0.00     0.029 A 
ATOM     67  C   UNL A   1      44.528  30.219  31.097  1.00  0.00     0.049 A 
ATOM     68  H   UNL A   1      44.816  28.951  32.750  1.00  0.00     0.167 HD
ATOM     69  C   UNL A   1      44.767  28.049  29.902  1.00  0.00     0.074 A 
ATOM     70  C   UNL A   1      44.348  27.062  30.897  1.00  0.00     0.031 C 
ATOM     71  C   UNL A   1      44.898  29.407  29.962  1.00  0.00     0.034 A 
BRANCH  58  72
ATOM     72  C   UNL A   1      42.724  28.809  34.818  1.00  0.00     0.023 A 
ATOM     73  C   UNL A   1      43.336  29.394  35.954  1.00  0.00     0.012 A 
ATOM     74  C   UNL A   1      42.791  27.401  34.720  1.00  0.00     0.148 A 
ATOM     75  C   UNL A   1      44.052  28.633  36.884  1.00  0.00     0.002 A 
ATOM     76  C   UNL A   1      43.437  26.640  35.689  1.00  0.00     0.091 A 
ATOM     77  F   UNL A   1      42.346  26.780  33.627  1.00  0.00    -0.205 F 
ATOM     78  C   UNL A   1      44.103  27.253  36.753  1.00  0.00     0.022 A 
BRANCH  76  79
ATOM     79  S   UNL A   1      43.496  24.845  35.597  1.00  0.00     0.127 S 
ATOM     80  O   UNL A   1      42.079  24.513  35.474  1.00  0.00    -0.237 OA
ATOM     81  O   UNL A   1      44.290  24.636  34.385  1.00  0.00    -0.237 OA
ATOM     82  O   UNL A   1      44.152  24.409  36.823  1.00  0.00    -0.744 OA
ENDBRANCH  76  79
ENDBRANCH  58  72
BRANCH  59  83
ATOM     83  C   UNL A   1      42.790  24.508  27.534  1.00  0.00     0.023 A 
ATOM     84  C   UNL A   1      41.603  23.757  27.655  1.00  0.00     0.012 A 
ATOM     85  C   UNL A   1      43.806  24.015  26.686  1.00  0.00     0.148 A 
ATOM     86  C   UNL A   1      41.417  22.578  26.925  1.00  0.00     0.002 A 
ATOM     87  C   UNL A   1      43.619  22.840  25.965  1.00  0.00     0.091 A 
ATOM     88  F   UNL A   1      44.914  24.748  26.514  1.00  0.00    -0.205 F 
ATOM     89  C   UNL A   1      42.419  22.125  26.071  1.00  0.00     0.022 A 
BRANCH  87  90
ATOM     90  S   UNL A   1      44.856  22.214  24.820  1.00  0.00     0.127 S 
ATOM     91  O   UNL A   1      44.993  23.330  23.882  1.00  0.00    -0.237 OA
ATOM     92  O   UNL A   1      46.004  22.008  25.700  1.00  0.00    -0.237 OA
ATOM     93  O   UNL A   1      44.282  21.008  24.235  1.00  0.00    -0.744 OA
ENDBRANCH  87  90
ENDBRANCH  59  83
BRANCH  71  94
ATOM     94  C   UNL A   1      45.219  30.146  28.688  1.00  0.00     0.023 A 
ATOM     95  C   UNL A   1      44.228  30.605  27.796  1.00  0.00     0.012 A 
ATOM     96  C   UNL A   1      46.554  30.522  28.469  1.00  0.00     0.148 A 
ATOM     97  C   UNL A   1      44.566  31.399  26.696  1.00  0.00     0.002 A 
ATOM     98  C   UNL A   1      46.881  31.349  27.404  1.00  0.00     0.091 A 
ATOM     99  F   UNL A   1      47.487  30.076  29.326  1.00  0.00    -0.205 F 
ATOM    100  C   UNL A   1      45.893  31.782  26.508  1.00  0.00     0.022 A 
BRANCH  98 101
ATOM    101  S   UNL A   1      48.550  31.972  27.191  1.00  0.00     0.127 S 
ATOM    102  O   UNL A   1      48.843  32.517  28.514  1.00  0.00    -0.237 OA
ATOM    103  O   UNL A   1      49.299  30.762  26.848  1.00  0.00    -0.237 OA
ATOM    104  O   UNL A   1      48.474  32.947  26.110  1.00  0.00    -0.744 OA
ENDBRANCH  98 101
ENDBRANCH  71  94
ENDBRANCH  45  46
ENDBRANCH  37  40
ENDBRANCH  35  36
ENDBRANCH   1  35
TORSDOF 18
ENDMDL
