MODEL 1
REMARK VINA RESULT:     -10.2      0.000      0.000
REMARK SMILES C[C@]([NH3+])(Cc1ccc(I)cc1)C(=O)NCCCCNC(=O)c1ccc(-c2c3nc(c(-c4cccc(S(=O)(=O)[O-])c4F)c4ccc([nH]4)c(-c4cccc(S(=O)(=O)[O-])c4F)c4nc(c(-c5cccc(S(=O)(=O)[O-])c5F)c5ccc2[nH]5)C=C4)C=C3)cc1
REMARK SMILES IDX 17 1 16 2 15 3 14 4 12 5 13 6 2 8 1 9 4 10 5 11 6 12 11 13
REMARK SMILES IDX 7 14 10 15 8 16 9 17 3 18 18 22 19 23 20 24 21 26 22 27
REMARK SMILES IDX 23 28 84 29 24 30 83 31 25 32 26 33 27 34 77 35 28 36 82 37
REMARK SMILES IDX 76 38 78 39 29 40 81 41 75 42 74 43 30 45 62 46 42 47 61 48
REMARK SMILES IDX 43 49 46 50 60 51 79 52 44 53 45 54 59 56 80 57 47 58 31 59
REMARK SMILES IDX 32 60 40 61 33 62 35 63 41 64 34 65 36 66 37 67 38 68 39 69
REMARK SMILES IDX 63 70 64 71 72 72 65 73 67 74 73 75 66 76 68 77 69 78 70 79
REMARK SMILES IDX 71 80 48 81 49 82 57 83 50 84 52 85 58 86 51 87 53 88 54 89
REMARK SMILES IDX 55 90 56 91
REMARK H PARENT 14 7 3 19 3 20 3 21 19 25 78 44 46 55
REMARK Flexibility Score: inf
ROOT
ATOM      1  C   UNL A   1      34.565  33.818  28.007  1.00  0.00     0.023 C 
ENDROOT
BRANCH   1   2
ATOM      2  C   UNL A   1      34.315  35.061  28.861  1.00  0.00     0.023 C 
BRANCH   2   3
ATOM      3  C   UNL A   1      33.610  34.813  30.191  1.00  0.00     0.116 C 
BRANCH   3   4
ATOM      4  N   UNL A   1      34.100  35.651  31.269  1.00  0.00    -0.351 N 
ATOM      5  C   UNL A   1      34.664  35.353  32.472  1.00  0.00     0.281 C 
ATOM      6  O   UNL A   1      35.171  36.301  33.089  1.00  0.00    -0.268 OA
ATOM      7  H   UNL A   1      34.007  36.616  31.098  1.00  0.00     0.163 HD
BRANCH   5   8
ATOM      8  C   UNL A   1      34.755  33.901  33.045  1.00  0.00     0.175 C 
ATOM      9  C   UNL A   1      35.313  33.952  34.479  1.00  0.00     0.090 C 
BRANCH   8  10
ATOM     10  C   UNL A   1      35.566  32.932  32.144  1.00  0.00     0.114 C 
BRANCH  10  11
ATOM     11  C   UNL A   1      36.904  33.355  31.553  1.00  0.00    -0.041 A 
ATOM     12  C   UNL A   1      37.266  33.170  30.212  1.00  0.00     0.005 A 
ATOM     13  C   UNL A   1      37.862  33.915  32.420  1.00  0.00     0.005 A 
ATOM     14  C   UNL A   1      38.536  33.529  29.747  1.00  0.00     0.015 A 
ATOM     15  C   UNL A   1      39.133  34.275  31.961  1.00  0.00     0.015 A 
ATOM     16  C   UNL A   1      39.467  34.076  30.624  1.00  0.00     0.013 A 
ATOM     17  I   UNL A   1      41.366  34.572  29.942  1.00  0.00    -0.044 I 
ENDBRANCH  10  11
ENDBRANCH   8  10
BRANCH   8  18
ATOM     18  N   UNL A   1      33.369  33.355  33.190  1.00  0.00    -0.345 N 
ATOM     19  H   UNL A   1      33.378  32.579  33.852  1.00  0.00     0.345 HD
ATOM     20  H   UNL A   1      33.036  33.026  32.284  1.00  0.00     0.345 HD
ATOM     21  H   UNL A   1      32.750  34.088  33.535  1.00  0.00     0.345 HD
ENDBRANCH   8  18
ENDBRANCH   5   8
ENDBRANCH   3   4
ENDBRANCH   2   3
ENDBRANCH   1   2
BRANCH   1  22
ATOM     22  C   UNL A   1      34.276  32.479  28.678  1.00  0.00     0.116 C 
BRANCH  22  23
ATOM     23  N   UNL A   1      33.872  31.431  27.748  1.00  0.00    -0.352 N 
ATOM     24  C   UNL A   1      34.564  30.292  27.400  1.00  0.00     0.251 C 
ATOM     25  H   UNL A   1      32.997  31.552  27.316  1.00  0.00     0.163 HD
ATOM     26  O   UNL A   1      34.125  29.535  26.538  1.00  0.00    -0.269 OA
BRANCH  24  27
ATOM     27  C   UNL A   1      35.863  30.016  28.047  1.00  0.00     0.039 A 
ATOM     28  C   UNL A   1      35.880  29.490  29.342  1.00  0.00     0.014 A 
ATOM     29  C   UNL A   1      37.054  30.207  27.342  1.00  0.00     0.014 A 
ATOM     30  C   UNL A   1      37.091  29.069  29.899  1.00  0.00     0.010 A 
ATOM     31  C   UNL A   1      38.247  29.732  27.874  1.00  0.00     0.010 A 
ATOM     32  C   UNL A   1      38.275  29.145  29.150  1.00  0.00    -0.014 A 
BRANCH  32  33
ATOM     33  C   UNL A   1      39.564  28.605  29.650  1.00  0.00     0.031 A 
ATOM     34  C   UNL A   1      40.306  29.340  30.731  1.00  0.00     0.074 A 
ATOM     35  C   UNL A   1      40.132  27.548  29.035  1.00  0.00     0.049 A 
ATOM     36  N   UNL A   1      41.526  29.160  31.166  1.00  0.00    -0.248 NA
ATOM     37  C   UNL A   1      39.590  30.448  31.386  1.00  0.00     0.031 C 
ATOM     38  C   UNL A   1      39.536  26.786  27.935  1.00  0.00     0.029 A 
ATOM     39  N   UNL A   1      41.357  26.956  29.221  1.00  0.00    -0.354 N 
ATOM     40  C   UNL A   1      41.743  30.161  32.103  1.00  0.00     0.074 A 
ATOM     41  C   UNL A   1      40.535  30.956  32.166  1.00  0.00     0.031 C 
ATOM     42  C   UNL A   1      40.401  25.838  27.538  1.00  0.00     0.029 A 
ATOM     43  C   UNL A   1      41.624  25.945  28.327  1.00  0.00     0.049 A 
ATOM     44  H   UNL A   1      41.986  27.231  29.928  1.00  0.00     0.167 HD
ATOM     45  C   UNL A   1      42.841  30.383  32.863  1.00  0.00     0.034 A 
ATOM     46  C   UNL A   1      42.735  25.202  28.152  1.00  0.00     0.034 A 
ATOM     47  C   UNL A   1      44.013  29.554  32.845  1.00  0.00     0.049 A 
ATOM     48  C   UNL A   1      43.921  25.437  29.048  1.00  0.00     0.074 A 
ATOM     49  C   UNL A   1      45.150  29.654  33.627  1.00  0.00     0.029 A 
ATOM     50  N   UNL A   1      44.195  28.462  32.011  1.00  0.00    -0.354 N 
ATOM     51  N   UNL A   1      44.063  26.310  30.015  1.00  0.00    -0.248 NA
ATOM     52  C   UNL A   1      45.091  24.567  28.849  1.00  0.00     0.031 C 
ATOM     53  C   UNL A   1      46.018  28.618  33.267  1.00  0.00     0.029 A 
ATOM     54  C   UNL A   1      45.419  27.872  32.266  1.00  0.00     0.049 A 
ATOM     55  H   UNL A   1      43.548  28.153  31.336  1.00  0.00     0.167 HD
ATOM     56  C   UNL A   1      45.314  26.068  30.569  1.00  0.00     0.074 A 
ATOM     57  C   UNL A   1      45.890  24.960  29.834  1.00  0.00     0.031 C 
ATOM     58  C   UNL A   1      45.937  26.715  31.582  1.00  0.00     0.034 A 
BRANCH  45  59
ATOM     59  C   UNL A   1      42.798  31.537  33.828  1.00  0.00     0.023 A 
ATOM     60  C   UNL A   1      43.252  32.803  33.407  1.00  0.00     0.012 A 
ATOM     61  C   UNL A   1      42.266  31.387  35.123  1.00  0.00     0.148 A 
ATOM     62  C   UNL A   1      43.205  33.897  34.269  1.00  0.00     0.002 A 
ATOM     63  C   UNL A   1      42.187  32.492  35.965  1.00  0.00     0.091 A 
ATOM     64  F   UNL A   1      41.864  30.170  35.516  1.00  0.00    -0.205 F 
ATOM     65  C   UNL A   1      42.664  33.744  35.542  1.00  0.00     0.022 A 
BRANCH  63  66
ATOM     66  S   UNL A   1      41.441  32.406  37.596  1.00  0.00     0.127 S 
ATOM     67  O   UNL A   1      41.491  33.805  38.019  1.00  0.00    -0.237 OA
ATOM     68  O   UNL A   1      40.098  31.907  37.302  1.00  0.00    -0.237 OA
ATOM     69  O   UNL A   1      42.270  31.485  38.363  1.00  0.00    -0.744 OA
ENDBRANCH  63  66
ENDBRANCH  45  59
BRANCH  46  70
ATOM     70  C   UNL A   1      42.748  24.110  27.137  1.00  0.00     0.023 A 
ATOM     71  C   UNL A   1      43.403  24.329  25.909  1.00  0.00     0.012 A 
ATOM     72  C   UNL A   1      42.150  22.860  27.380  1.00  0.00     0.148 A 
ATOM     73  C   UNL A   1      43.442  23.334  24.934  1.00  0.00     0.002 A 
ATOM     74  C   UNL A   1      42.235  21.854  26.424  1.00  0.00     0.091 A 
ATOM     75  F   UNL A   1      41.514  22.674  28.546  1.00  0.00    -0.205 F 
ATOM     76  C   UNL A   1      42.867  22.092  25.194  1.00  0.00     0.022 A 
BRANCH  74  77
ATOM     77  S   UNL A   1      41.633  20.188  26.733  1.00  0.00     0.127 S 
ATOM     78  O   UNL A   1      42.528  19.739  27.796  1.00  0.00    -0.237 OA
ATOM     79  O   UNL A   1      40.252  20.432  27.152  1.00  0.00    -0.237 OA
ATOM     80  O   UNL A   1      41.754  19.495  25.457  1.00  0.00    -0.744 OA
ENDBRANCH  74  77
ENDBRANCH  46  70
BRANCH  58  81
ATOM     81  C   UNL A   1      47.292  26.220  32.009  1.00  0.00     0.023 A 
ATOM     82  C   UNL A   1      48.450  26.787  31.446  1.00  0.00     0.012 A 
ATOM     83  C   UNL A   1      47.413  25.280  33.051  1.00  0.00     0.148 A 
ATOM     84  C   UNL A   1      49.713  26.416  31.905  1.00  0.00     0.002 A 
ATOM     85  C   UNL A   1      48.673  24.943  33.530  1.00  0.00     0.091 A 
ATOM     86  F   UNL A   1      46.295  24.739  33.558  1.00  0.00    -0.205 F 
ATOM     87  C   UNL A   1      49.825  25.506  32.954  1.00  0.00     0.022 A 
BRANCH  85  88
ATOM     88  S   UNL A   1      48.907  23.851  34.938  1.00  0.00     0.127 S 
ATOM     89  O   UNL A   1      48.222  24.584  36.001  1.00  0.00    -0.237 OA
ATOM     90  O   UNL A   1      48.227  22.631  34.502  1.00  0.00    -0.237 OA
ATOM     91  O   UNL A   1      50.348  23.713  35.102  1.00  0.00    -0.744 OA
ENDBRANCH  85  88
ENDBRANCH  58  81
ENDBRANCH  32  33
ENDBRANCH  24  27
ENDBRANCH  22  23
ENDBRANCH   1  22
TORSDOF 17
ENDMDL
MODEL 2
REMARK VINA RESULT:      -9.8      3.975     11.368
REMARK SMILES C[C@]([NH3+])(Cc1ccc(I)cc1)C(=O)NCCCCNC(=O)c1ccc(-c2c3nc(c(-c4cccc(S(=O)(=O)[O-])c4F)c4ccc([nH]4)c(-c4cccc(S(=O)(=O)[O-])c4F)c4nc(c(-c5cccc(S(=O)(=O)[O-])c5F)c5ccc2[nH]5)C=C4)C=C3)cc1
REMARK SMILES IDX 17 1 16 2 15 3 14 4 12 5 13 6 2 8 1 9 4 10 5 11 6 12 11 13
REMARK SMILES IDX 7 14 10 15 8 16 9 17 3 18 18 22 19 23 20 24 21 26 22 27
REMARK SMILES IDX 23 28 84 29 24 30 83 31 25 32 26 33 27 34 77 35 28 36 82 37
REMARK SMILES IDX 76 38 78 39 29 40 81 41 75 42 74 43 30 45 62 46 42 47 61 48
REMARK SMILES IDX 43 49 46 50 60 51 79 52 44 53 45 54 59 56 80 57 47 58 31 59
REMARK SMILES IDX 32 60 40 61 33 62 35 63 41 64 34 65 36 66 37 67 38 68 39 69
REMARK SMILES IDX 63 70 64 71 72 72 65 73 67 74 73 75 66 76 68 77 69 78 70 79
REMARK SMILES IDX 71 80 48 81 49 82 57 83 50 84 52 85 58 86 51 87 53 88 54 89
REMARK SMILES IDX 55 90 56 91
REMARK H PARENT 14 7 3 19 3 20 3 21 19 25 78 44 46 55
REMARK Flexibility Score: inf
ROOT
ATOM      1  C   UNL A   1      40.845  19.883  27.057  1.00  0.00     0.023 C 
ENDROOT
BRANCH   1   2
ATOM      2  C   UNL A   1      42.224  19.447  26.563  1.00  0.00     0.023 C 
BRANCH   2   3
ATOM      3  C   UNL A   1      42.899  20.396  25.578  1.00  0.00     0.116 C 
BRANCH   3   4
ATOM      4  N   UNL A   1      44.347  20.337  25.621  1.00  0.00    -0.351 N 
ATOM      5  C   UNL A   1      45.309  21.221  25.234  1.00  0.00     0.281 C 
ATOM      6  O   UNL A   1      46.466  20.965  25.595  1.00  0.00    -0.268 OA
ATOM      7  H   UNL A   1      44.702  19.502  26.003  1.00  0.00     0.163 HD
BRANCH   5   8
ATOM      8  C   UNL A   1      45.002  22.535  24.442  1.00  0.00     0.175 C 
ATOM      9  C   UNL A   1      46.326  23.243  24.098  1.00  0.00     0.090 C 
BRANCH   8  10
ATOM     10  C   UNL A   1      44.015  23.481  25.175  1.00  0.00     0.114 C 
BRANCH  10  11
ATOM     11  C   UNL A   1      44.135  23.721  26.674  1.00  0.00    -0.041 A 
ATOM     12  C   UNL A   1      43.080  23.567  27.582  1.00  0.00     0.005 A 
ATOM     13  C   UNL A   1      45.368  24.181  27.173  1.00  0.00     0.005 A 
ATOM     14  C   UNL A   1      43.243  23.862  28.941  1.00  0.00     0.015 A 
ATOM     15  C   UNL A   1      45.537  24.478  28.529  1.00  0.00     0.015 A 
ATOM     16  C   UNL A   1      44.470  24.322  29.409  1.00  0.00     0.013 A 
ATOM     17  I   UNL A   1      44.700  24.797  31.418  1.00  0.00    -0.044 I 
ENDBRANCH  10  11
ENDBRANCH   8  10
BRANCH   8  18
ATOM     18  N   UNL A   1      44.406  22.170  23.119  1.00  0.00    -0.345 N 
ATOM     19  H   UNL A   1      44.049  23.010  22.665  1.00  0.00     0.345 HD
ATOM     20  H   UNL A   1      43.642  21.508  23.261  1.00  0.00     0.345 HD
ATOM     21  H   UNL A   1      45.120  21.742  22.531  1.00  0.00     0.345 HD
ENDBRANCH   8  18
ENDBRANCH   5   8
ENDBRANCH   3   4
ENDBRANCH   2   3
ENDBRANCH   1   2
BRANCH   1  22
ATOM     22  C   UNL A   1      40.540  21.374  26.951  1.00  0.00     0.116 C 
BRANCH  22  23
ATOM     23  N   UNL A   1      39.236  21.667  26.368  1.00  0.00    -0.352 N 
ATOM     24  C   UNL A   1      38.607  22.888  26.263  1.00  0.00     0.251 C 
ATOM     25  H   UNL A   1      38.744  20.896  26.004  1.00  0.00     0.163 HD
ATOM     26  O   UNL A   1      37.467  22.965  25.811  1.00  0.00    -0.269 OA
BRANCH  24  27
ATOM     27  C   UNL A   1      39.307  24.098  26.741  1.00  0.00     0.039 A 
ATOM     28  C   UNL A   1      40.016  24.880  25.825  1.00  0.00     0.014 A 
ATOM     29  C   UNL A   1      39.193  24.493  28.076  1.00  0.00     0.014 A 
ATOM     30  C   UNL A   1      40.539  26.112  26.230  1.00  0.00     0.010 A 
ATOM     31  C   UNL A   1      39.661  25.744  28.460  1.00  0.00     0.010 A 
ATOM     32  C   UNL A   1      40.325  26.571  27.538  1.00  0.00    -0.014 A 
BRANCH  32  33
ATOM     33  C   UNL A   1      40.758  27.919  27.984  1.00  0.00     0.031 A 
ATOM     34  C   UNL A   1      42.223  28.247  28.038  1.00  0.00     0.074 A 
ATOM     35  C   UNL A   1      39.850  28.786  28.475  1.00  0.00     0.049 A 
ATOM     36  N   UNL A   1      42.821  29.276  28.579  1.00  0.00    -0.248 NA
ATOM     37  C   UNL A   1      43.141  27.269  27.430  1.00  0.00     0.031 C 
ATOM     38  C   UNL A   1      38.404  28.560  28.531  1.00  0.00     0.029 A 
ATOM     39  N   UNL A   1      40.014  30.018  29.060  1.00  0.00    -0.354 N 
ATOM     40  C   UNL A   1      44.182  29.045  28.427  1.00  0.00     0.074 A 
ATOM     41  C   UNL A   1      44.325  27.771  27.755  1.00  0.00     0.031 C 
ATOM     42  C   UNL A   1      37.817  29.610  29.127  1.00  0.00     0.029 A 
ATOM     43  C   UNL A   1      38.842  30.568  29.528  1.00  0.00     0.049 A 
ATOM     44  H   UNL A   1      40.888  30.465  29.139  1.00  0.00     0.167 HD
ATOM     45  C   UNL A   1      45.220  29.833  28.791  1.00  0.00     0.034 A 
ATOM     46  C   UNL A   1      38.623  31.706  30.218  1.00  0.00     0.034 A 
ATOM     47  C   UNL A   1      45.073  31.126  29.399  1.00  0.00     0.049 A 
ATOM     48  C   UNL A   1      39.792  32.589  30.563  1.00  0.00     0.074 A 
ATOM     49  C   UNL A   1      46.060  32.033  29.742  1.00  0.00     0.029 A 
ATOM     50  N   UNL A   1      43.860  31.702  29.745  1.00  0.00    -0.354 N 
ATOM     51  N   UNL A   1      41.064  32.412  30.300  1.00  0.00    -0.248 NA
ATOM     52  C   UNL A   1      39.495  33.842  31.273  1.00  0.00     0.031 C 
ATOM     53  C   UNL A   1      45.442  33.161  30.292  1.00  0.00     0.029 A 
ATOM     54  C   UNL A   1      44.072  32.957  30.286  1.00  0.00     0.049 A 
ATOM     55  H   UNL A   1      42.979  31.280  29.623  1.00  0.00     0.167 HD
ATOM     56  C   UNL A   1      41.713  33.547  30.770  1.00  0.00     0.074 A 
ATOM     57  C   UNL A   1      40.693  34.411  31.329  1.00  0.00     0.031 C 
ATOM     58  C   UNL A   1      43.035  33.839  30.757  1.00  0.00     0.034 A 
BRANCH  45  59
ATOM     59  C   UNL A   1      46.608  29.346  28.479  1.00  0.00     0.023 A 
ATOM     60  C   UNL A   1      47.250  29.802  27.310  1.00  0.00     0.012 A 
ATOM     61  C   UNL A   1      47.297  28.488  29.357  1.00  0.00     0.148 A 
ATOM     62  C   UNL A   1      48.546  29.388  27.003  1.00  0.00     0.002 A 
ATOM     63  C   UNL A   1      48.603  28.109  29.064  1.00  0.00     0.091 A 
ATOM     64  F   UNL A   1      46.661  28.043  30.450  1.00  0.00    -0.205 F 
ATOM     65  C   UNL A   1      49.224  28.551  27.884  1.00  0.00     0.022 A 
BRANCH  63  66
ATOM     66  S   UNL A   1      49.581  27.090  30.174  1.00  0.00     0.127 S 
ATOM     67  O   UNL A   1      50.854  27.012  29.459  1.00  0.00    -0.237 OA
ATOM     68  O   UNL A   1      49.616  27.898  31.393  1.00  0.00    -0.237 OA
ATOM     69  O   UNL A   1      48.852  25.835  30.305  1.00  0.00    -0.744 OA
ENDBRANCH  63  66
ENDBRANCH  45  59
BRANCH  46  70
ATOM     70  C   UNL A   1      37.230  32.113  30.559  1.00  0.00     0.023 A 
ATOM     71  C   UNL A   1      36.742  31.855  31.855  1.00  0.00     0.012 A 
ATOM     72  C   UNL A   1      36.400  32.772  29.633  1.00  0.00     0.148 A 
ATOM     73  C   UNL A   1      35.447  32.223  32.215  1.00  0.00     0.002 A 
ATOM     74  C   UNL A   1      35.127  33.182  30.014  1.00  0.00     0.091 A 
ATOM     75  F   UNL A   1      36.873  32.993  28.398  1.00  0.00    -0.205 F 
ATOM     76  C   UNL A   1      34.642  32.895  31.299  1.00  0.00     0.022 A 
BRANCH  74  77
ATOM     77  S   UNL A   1      34.077  34.165  28.936  1.00  0.00     0.127 S 
ATOM     78  O   UNL A   1      33.609  33.165  27.980  1.00  0.00    -0.237 OA
ATOM     79  O   UNL A   1      33.057  34.656  29.864  1.00  0.00    -0.237 OA
ATOM     80  O   UNL A   1      34.946  35.206  28.402  1.00  0.00    -0.744 OA
ENDBRANCH  74  77
ENDBRANCH  46  70
BRANCH  58  81
ATOM     81  C   UNL A   1      43.470  35.170  31.309  1.00  0.00     0.023 A 
ATOM     82  C   UNL A   1      43.622  36.267  30.441  1.00  0.00     0.012 A 
ATOM     83  C   UNL A   1      43.610  35.356  32.698  1.00  0.00     0.148 A 
ATOM     84  C   UNL A   1      43.921  37.532  30.947  1.00  0.00     0.002 A 
ATOM     85  C   UNL A   1      43.870  36.626  33.198  1.00  0.00     0.091 A 
ATOM     86  F   UNL A   1      43.480  34.291  33.503  1.00  0.00    -0.205 F 
ATOM     87  C   UNL A   1      44.031  37.714  32.324  1.00  0.00     0.022 A 
BRANCH  85  88
ATOM     88  S   UNL A   1      43.937  36.970  34.961  1.00  0.00     0.127 S 
ATOM     89  O   UNL A   1      43.697  38.413  34.992  1.00  0.00    -0.237 OA
ATOM     90  O   UNL A   1      42.838  36.157  35.480  1.00  0.00    -0.237 OA
ATOM     91  O   UNL A   1      45.260  36.548  35.401  1.00  0.00    -0.744 OA
ENDBRANCH  85  88
ENDBRANCH  58  81
ENDBRANCH  32  33
ENDBRANCH  24  27
ENDBRANCH  22  23
ENDBRANCH   1  22
TORSDOF 17
ENDMDL
MODEL 3
REMARK VINA RESULT:      -9.8      4.386     10.073
REMARK SMILES C[C@]([NH3+])(Cc1ccc(I)cc1)C(=O)NCCCCNC(=O)c1ccc(-c2c3nc(c(-c4cccc(S(=O)(=O)[O-])c4F)c4ccc([nH]4)c(-c4cccc(S(=O)(=O)[O-])c4F)c4nc(c(-c5cccc(S(=O)(=O)[O-])c5F)c5ccc2[nH]5)C=C4)C=C3)cc1
REMARK SMILES IDX 17 1 16 2 15 3 14 4 12 5 13 6 2 8 1 9 4 10 5 11 6 12 11 13
REMARK SMILES IDX 7 14 10 15 8 16 9 17 3 18 18 22 19 23 20 24 21 26 22 27
REMARK SMILES IDX 23 28 84 29 24 30 83 31 25 32 26 33 27 34 77 35 28 36 82 37
REMARK SMILES IDX 76 38 78 39 29 40 81 41 75 42 74 43 30 45 62 46 42 47 61 48
REMARK SMILES IDX 43 49 46 50 60 51 79 52 44 53 45 54 59 56 80 57 47 58 31 59
REMARK SMILES IDX 32 60 40 61 33 62 35 63 41 64 34 65 36 66 37 67 38 68 39 69
REMARK SMILES IDX 63 70 64 71 72 72 65 73 67 74 73 75 66 76 68 77 69 78 70 79
REMARK SMILES IDX 71 80 48 81 49 82 57 83 50 84 52 85 58 86 51 87 53 88 54 89
REMARK SMILES IDX 55 90 56 91
REMARK H PARENT 14 7 3 19 3 20 3 21 19 25 78 44 46 55
REMARK Flexibility Score: inf
ROOT
ATOM      1  C   UNL A   1      31.485  29.242  26.725  1.00  0.00     0.023 C 
ENDROOT
BRANCH   1   2
ATOM      2  C   UNL A   1      32.003  27.906  27.256  1.00  0.00     0.023 C 
BRANCH   2   3
ATOM      3  C   UNL A   1      31.742  26.698  26.363  1.00  0.00     0.116 C 
BRANCH   3   4
ATOM      4  N   UNL A   1      32.733  26.529  25.318  1.00  0.00    -0.351 N 
ATOM      5  C   UNL A   1      32.630  26.477  23.961  1.00  0.00     0.281 C 
ATOM      6  O   UNL A   1      33.693  26.531  23.327  1.00  0.00    -0.268 OA
ATOM      7  H   UNL A   1      33.654  26.434  25.653  1.00  0.00     0.163 HD
BRANCH   5   8
ATOM      8  C   UNL A   1      31.262  26.427  23.203  1.00  0.00     0.175 C 
ATOM      9  C   UNL A   1      30.466  27.711  23.501  1.00  0.00     0.090 C 
BRANCH   8  10
ATOM     10  C   UNL A   1      30.434  25.151  23.508  1.00  0.00     0.114 C 
BRANCH  10  11
ATOM     11  C   UNL A   1      31.126  23.827  23.807  1.00  0.00    -0.041 A 
ATOM     12  C   UNL A   1      31.865  23.096  22.868  1.00  0.00     0.005 A 
ATOM     13  C   UNL A   1      30.966  23.274  25.091  1.00  0.00     0.005 A 
ATOM     14  C   UNL A   1      32.426  21.855  23.193  1.00  0.00     0.015 A 
ATOM     15  C   UNL A   1      31.523  22.035  25.422  1.00  0.00     0.015 A 
ATOM     16  C   UNL A   1      32.249  21.326  24.468  1.00  0.00     0.013 A 
ATOM     17  I   UNL A   1      33.048  19.467  24.938  1.00  0.00    -0.044 I 
ENDBRANCH  10  11
ENDBRANCH   8  10
BRANCH   8  18
ATOM     18  N   UNL A   1      31.528  26.472  21.731  1.00  0.00    -0.345 N 
ATOM     19  H   UNL A   1      30.644  26.554  21.229  1.00  0.00     0.345 HD
ATOM     20  H   UNL A   1      32.004  25.616  21.444  1.00  0.00     0.345 HD
ATOM     21  H   UNL A   1      32.118  27.276  21.516  1.00  0.00     0.345 HD
ENDBRANCH   8  18
ENDBRANCH   5   8
ENDBRANCH   3   4
ENDBRANCH   2   3
ENDBRANCH   1   2
BRANCH   1  22
ATOM     22  C   UNL A   1      32.548  30.238  26.272  1.00  0.00     0.116 C 
BRANCH  22  23
ATOM     23  N   UNL A   1      32.257  31.618  26.642  1.00  0.00    -0.352 N 
ATOM     24  C   UNL A   1      33.032  32.479  27.387  1.00  0.00     0.251 C 
ATOM     25  H   UNL A   1      31.400  31.978  26.320  1.00  0.00     0.163 HD
ATOM     26  O   UNL A   1      32.615  33.596  27.682  1.00  0.00    -0.269 OA
BRANCH  24  27
ATOM     27  C   UNL A   1      34.355  32.025  27.861  1.00  0.00     0.039 A 
ATOM     28  C   UNL A   1      35.401  32.948  27.947  1.00  0.00     0.014 A 
ATOM     29  C   UNL A   1      34.533  30.707  28.290  1.00  0.00     0.014 A 
ATOM     30  C   UNL A   1      36.605  32.571  28.550  1.00  0.00     0.010 A 
ATOM     31  C   UNL A   1      35.708  30.353  28.942  1.00  0.00     0.010 A 
ATOM     32  C   UNL A   1      36.749  31.285  29.092  1.00  0.00    -0.014 A 
BRANCH  32  33
ATOM     33  C   UNL A   1      37.961  30.874  29.844  1.00  0.00     0.031 A 
ATOM     34  C   UNL A   1      38.919  29.894  29.226  1.00  0.00     0.074 A 
ATOM     35  C   UNL A   1      38.120  31.264  31.124  1.00  0.00     0.049 A 
ATOM     36  N   UNL A   1      39.917  29.255  29.778  1.00  0.00    -0.248 NA
ATOM     37  C   UNL A   1      38.703  29.566  27.807  1.00  0.00     0.031 C 
ATOM     38  C   UNL A   1      37.227  32.167  31.853  1.00  0.00     0.029 A 
ATOM     39  N   UNL A   1      39.069  30.916  32.054  1.00  0.00    -0.354 N 
ATOM     40  C   UNL A   1      40.413  28.410  28.793  1.00  0.00     0.074 A 
ATOM     41  C   UNL A   1      39.599  28.607  27.613  1.00  0.00     0.031 C 
ATOM     42  C   UNL A   1      37.663  32.292  33.118  1.00  0.00     0.029 A 
ATOM     43  C   UNL A   1      38.843  31.453  33.301  1.00  0.00     0.049 A 
ATOM     44  H   UNL A   1      39.838  30.336  31.848  1.00  0.00     0.167 HD
ATOM     45  C   UNL A   1      41.468  27.565  28.858  1.00  0.00     0.034 A 
ATOM     46  C   UNL A   1      39.503  31.275  34.464  1.00  0.00     0.034 A 
ATOM     47  C   UNL A   1      42.314  27.420  30.010  1.00  0.00     0.049 A 
ATOM     48  C   UNL A   1      40.705  30.369  34.492  1.00  0.00     0.074 A 
ATOM     49  C   UNL A   1      43.449  26.642  30.151  1.00  0.00     0.029 A 
ATOM     50  N   UNL A   1      42.124  28.076  31.216  1.00  0.00    -0.354 N 
ATOM     51  N   UNL A   1      41.234  29.673  33.516  1.00  0.00    -0.248 NA
ATOM     52  C   UNL A   1      41.418  30.246  35.772  1.00  0.00     0.031 C 
ATOM     53  C   UNL A   1      43.949  26.833  31.444  1.00  0.00     0.029 A 
ATOM     54  C   UNL A   1      43.127  27.733  32.103  1.00  0.00     0.049 A 
ATOM     55  H   UNL A   1      41.384  28.696  31.411  1.00  0.00     0.167 HD
ATOM     56  C   UNL A   1      42.365  29.066  34.049  1.00  0.00     0.074 A 
ATOM     57  C   UNL A   1      42.450  29.482  35.434  1.00  0.00     0.031 C 
ATOM     58  C   UNL A   1      43.243  28.225  33.451  1.00  0.00     0.034 A 
BRANCH  45  59
ATOM     59  C   UNL A   1      41.807  26.778  27.621  1.00  0.00     0.023 A 
ATOM     60  C   UNL A   1      42.366  27.447  26.513  1.00  0.00     0.012 A 
ATOM     61  C   UNL A   1      41.627  25.382  27.569  1.00  0.00     0.148 A 
ATOM     62  C   UNL A   1      42.713  26.743  25.360  1.00  0.00     0.002 A 
ATOM     63  C   UNL A   1      42.010  24.682  26.430  1.00  0.00     0.091 A 
ATOM     64  F   UNL A   1      41.069  24.768  28.622  1.00  0.00    -0.205 F 
ATOM     65  C   UNL A   1      42.544  25.362  25.323  1.00  0.00     0.022 A 
BRANCH  63  66
ATOM     66  S   UNL A   1      41.896  22.894  26.318  1.00  0.00     0.127 S 
ATOM     67  O   UNL A   1      42.536  22.637  25.028  1.00  0.00    -0.237 OA
ATOM     68  O   UNL A   1      42.671  22.456  27.479  1.00  0.00    -0.237 OA
ATOM     69  O   UNL A   1      40.475  22.582  26.390  1.00  0.00    -0.744 OA
ENDBRANCH  63  66
ENDBRANCH  45  59
BRANCH  46  70
ATOM     70  C   UNL A   1      39.087  32.032  35.679  1.00  0.00     0.023 A 
ATOM     71  C   UNL A   1      39.436  33.392  35.788  1.00  0.00     0.012 A 
ATOM     72  C   UNL A   1      38.331  31.434  36.705  1.00  0.00     0.148 A 
ATOM     73  C   UNL A   1      39.064  34.137  36.906  1.00  0.00     0.002 A 
ATOM     74  C   UNL A   1      37.920  32.195  37.794  1.00  0.00     0.091 A 
ATOM     75  F   UNL A   1      38.023  30.134  36.595  1.00  0.00    -0.205 F 
ATOM     76  C   UNL A   1      38.297  33.542  37.904  1.00  0.00     0.022 A 
BRANCH  74  77
ATOM     77  S   UNL A   1      36.823  31.540  39.058  1.00  0.00     0.127 S 
ATOM     78  O   UNL A   1      36.495  30.223  38.517  1.00  0.00    -0.237 OA
ATOM     79  O   UNL A   1      37.687  31.523  40.239  1.00  0.00    -0.237 OA
ATOM     80  O   UNL A   1      35.722  32.491  39.140  1.00  0.00    -0.744 OA
ENDBRANCH  74  77
ENDBRANCH  46  70
BRANCH  58  81
ATOM     81  C   UNL A   1      44.412  27.734  34.260  1.00  0.00     0.023 A 
ATOM     82  C   UNL A   1      45.579  28.516  34.342  1.00  0.00     0.012 A 
ATOM     83  C   UNL A   1      44.306  26.559  35.029  1.00  0.00     0.148 A 
ATOM     84  C   UNL A   1      46.632  28.129  35.170  1.00  0.00     0.002 A 
ATOM     85  C   UNL A   1      45.342  26.199  35.881  1.00  0.00     0.091 A 
ATOM     86  F   UNL A   1      43.191  25.820  34.918  1.00  0.00    -0.205 F 
ATOM     87  C   UNL A   1      46.509  26.980  35.949  1.00  0.00     0.022 A 
BRANCH  85  88
ATOM     88  S   UNL A   1      45.233  24.788  36.988  1.00  0.00     0.127 S 
ATOM     89  O   UNL A   1      46.593  24.721  37.521  1.00  0.00    -0.237 OA
ATOM     90  O   UNL A   1      44.221  25.224  37.950  1.00  0.00    -0.237 OA
ATOM     91  O   UNL A   1      44.830  23.659  36.159  1.00  0.00    -0.744 OA
ENDBRANCH  85  88
ENDBRANCH  58  81
ENDBRANCH  32  33
ENDBRANCH  24  27
ENDBRANCH  22  23
ENDBRANCH   1  22
TORSDOF 17
ENDMDL
