MODEL 1
REMARK VINA RESULT:     -11.4      0.000      0.000
REMARK SMILES O=C(NCCCCNC(=O)[C@H]1CC[N@@H+]1CCc1ccccc1)c1ccc(-c2c3nc(c(-c4cccc(S(=O)(=O)[O-])c4F)c4ccc([nH]4)c(-c4cccc(S(=O)(=O)[O-])c4F)c4nc(c(-c5cccc(S(=O)(=O)[O-])c5F)c5ccc2[nH]5)C=C4)C=C3)cc1
REMARK SMILES IDX 5 1 4 2 3 3 1 4 2 5 23 7 24 8 85 9 25 10 84 11 26 12 27 13
REMARK SMILES IDX 28 14 78 15 29 16 83 17 77 18 79 19 30 20 82 21 76 22 75 23
REMARK SMILES IDX 31 25 63 26 43 27 62 28 44 29 47 30 61 31 80 32 45 33 46 34
REMARK SMILES IDX 60 36 81 37 48 38 32 39 33 40 41 41 34 42 36 43 42 44 35 45
REMARK SMILES IDX 37 46 38 47 39 48 40 49 64 50 65 51 73 52 66 53 68 54 74 55
REMARK SMILES IDX 67 56 69 57 70 58 71 59 72 60 49 61 50 62 58 63 51 64 53 65
REMARK SMILES IDX 59 66 52 67 54 68 55 69 56 70 57 71 6 72 7 73 8 74 9 75
REMARK SMILES IDX 10 77 11 78 12 79 14 80 13 81 15 83 16 84 17 85 18 86 22 87
REMARK SMILES IDX 19 88 21 89 20 90
REMARK H PARENT 3 6 79 24 47 35 8 76 14 82
REMARK Flexibility Score: inf
ROOT
ATOM      1  C   UNL A   1      37.810  19.954  25.005  1.00  0.00     0.023 C 
ENDROOT
BRANCH   1   2
ATOM      2  C   UNL A   1      39.065  20.351  25.766  1.00  0.00     0.116 C 
BRANCH   2   3
ATOM      3  N   UNL A   1      40.072  19.306  25.852  1.00  0.00    -0.352 N 
ATOM      4  O   UNL A   1      42.197  18.558  26.097  1.00  0.00    -0.269 OA
ATOM      5  C   UNL A   1      41.413  19.484  26.142  1.00  0.00     0.251 C 
ATOM      6  H   UNL A   1      39.771  18.382  25.689  1.00  0.00     0.163 HD
BRANCH   5   7
ATOM      7  C   UNL A   1      41.856  20.860  26.464  1.00  0.00     0.039 A 
ATOM      8  C   UNL A   1      42.015  21.242  27.798  1.00  0.00     0.014 A 
ATOM      9  C   UNL A   1      42.006  21.789  25.432  1.00  0.00     0.014 A 
ATOM     10  C   UNL A   1      42.200  22.581  28.111  1.00  0.00     0.010 A 
ATOM     11  C   UNL A   1      42.276  23.123  25.747  1.00  0.00     0.010 A 
ATOM     12  C   UNL A   1      42.353  23.532  27.089  1.00  0.00    -0.014 A 
BRANCH  12  13
ATOM     13  C   UNL A   1      42.737  24.920  27.445  1.00  0.00     0.031 A 
ATOM     14  C   UNL A   1      41.761  25.879  28.062  1.00  0.00     0.074 A 
ATOM     15  C   UNL A   1      43.995  25.309  27.160  1.00  0.00     0.049 A 
ATOM     16  N   UNL A   1      41.951  27.126  28.406  1.00  0.00    -0.248 NA
ATOM     17  C   UNL A   1      40.398  25.389  28.322  1.00  0.00     0.031 C 
ATOM     18  C   UNL A   1      45.006  24.468  26.510  1.00  0.00     0.029 A 
ATOM     19  N   UNL A   1      44.636  26.503  27.358  1.00  0.00    -0.354 N 
ATOM     20  C   UNL A   1      40.728  27.587  28.878  1.00  0.00     0.074 A 
ATOM     21  C   UNL A   1      39.800  26.480  28.789  1.00  0.00     0.031 C 
ATOM     22  C   UNL A   1      46.137  25.170  26.364  1.00  0.00     0.029 A 
ATOM     23  C   UNL A   1      45.916  26.523  26.855  1.00  0.00     0.049 A 
ATOM     24  H   UNL A   1      44.222  27.271  27.814  1.00  0.00     0.167 HD
ATOM     25  C   UNL A   1      40.419  28.818  29.350  1.00  0.00     0.034 A 
ATOM     26  C   UNL A   1      46.806  27.529  26.764  1.00  0.00     0.034 A 
ATOM     27  C   UNL A   1      41.367  29.895  29.475  1.00  0.00     0.049 A 
ATOM     28  C   UNL A   1      46.432  28.873  27.312  1.00  0.00     0.074 A 
ATOM     29  C   UNL A   1      41.179  31.141  30.052  1.00  0.00     0.029 A 
ATOM     30  N   UNL A   1      42.668  29.867  29.001  1.00  0.00    -0.354 N 
ATOM     31  N   UNL A   1      45.328  29.235  27.916  1.00  0.00    -0.248 NA
ATOM     32  C   UNL A   1      47.432  29.942  27.184  1.00  0.00     0.031 C 
ATOM     33  C   UNL A   1      42.360  31.875  29.900  1.00  0.00     0.029 A 
ATOM     34  C   UNL A   1      43.287  31.083  29.242  1.00  0.00     0.049 A 
ATOM     35  H   UNL A   1      43.091  29.097  28.558  1.00  0.00     0.167 HD
ATOM     36  C   UNL A   1      45.499  30.572  28.248  1.00  0.00     0.074 A 
ATOM     37  C   UNL A   1      46.832  30.943  27.814  1.00  0.00     0.031 C 
ATOM     38  C   UNL A   1      44.625  31.425  28.833  1.00  0.00     0.034 A 
BRANCH  25  39
ATOM     39  C   UNL A   1      39.009  29.082  29.809  1.00  0.00     0.023 A 
ATOM     40  C   UNL A   1      38.634  28.749  31.125  1.00  0.00     0.012 A 
ATOM     41  C   UNL A   1      38.101  29.777  28.984  1.00  0.00     0.148 A 
ATOM     42  C   UNL A   1      37.374  29.096  31.612  1.00  0.00     0.002 A 
ATOM     43  C   UNL A   1      36.860  30.149  29.486  1.00  0.00     0.091 A 
ATOM     44  F   UNL A   1      38.475  30.070  27.730  1.00  0.00    -0.205 F 
ATOM     45  C   UNL A   1      36.493  29.806  30.799  1.00  0.00     0.022 A 
BRANCH  43  46
ATOM     46  S   UNL A   1      35.679  31.123  28.545  1.00  0.00     0.127 S 
ATOM     47  O   UNL A   1      36.528  32.195  28.028  1.00  0.00    -0.237 OA
ATOM     48  O   UNL A   1      35.226  30.165  27.536  1.00  0.00    -0.237 OA
ATOM     49  O   UNL A   1      34.656  31.542  29.492  1.00  0.00    -0.744 OA
ENDBRANCH  43  46
ENDBRANCH  25  39
BRANCH  26  50
ATOM     50  C   UNL A   1      48.132  27.283  26.135  1.00  0.00     0.023 A 
ATOM     51  C   UNL A   1      49.196  26.803  26.921  1.00  0.00     0.012 A 
ATOM     52  C   UNL A   1      48.328  27.469  24.752  1.00  0.00     0.148 A 
ATOM     53  C   UNL A   1      50.438  26.535  26.344  1.00  0.00     0.002 A 
ATOM     54  C   UNL A   1      49.548  27.141  24.175  1.00  0.00     0.091 A 
ATOM     55  F   UNL A   1      47.311  27.948  24.021  1.00  0.00    -0.205 F 
ATOM     56  C   UNL A   1      50.611  26.689  24.971  1.00  0.00     0.022 A 
BRANCH  54  57
ATOM     57  S   UNL A   1      49.775  27.166  22.393  1.00  0.00     0.127 S 
ATOM     58  O   UNL A   1      48.738  26.242  21.944  1.00  0.00    -0.237 OA
ATOM     59  O   UNL A   1      49.531  28.572  22.065  1.00  0.00    -0.237 OA
ATOM     60  O   UNL A   1      51.154  26.742  22.184  1.00  0.00    -0.744 OA
ENDBRANCH  54  57
ENDBRANCH  26  50
BRANCH  38  61
ATOM     61  C   UNL A   1      45.076  32.846  29.028  1.00  0.00     0.023 A 
ATOM     62  C   UNL A   1      45.799  33.184  30.188  1.00  0.00     0.012 A 
ATOM     63  C   UNL A   1      44.837  33.826  28.047  1.00  0.00     0.148 A 
ATOM     64  C   UNL A   1      46.254  34.487  30.384  1.00  0.00     0.002 A 
ATOM     65  C   UNL A   1      45.332  35.111  28.227  1.00  0.00     0.091 A 
ATOM     66  F   UNL A   1      44.129  33.485  26.960  1.00  0.00    -0.205 F 
ATOM     67  C   UNL A   1      46.031  35.447  29.400  1.00  0.00     0.022 A 
BRANCH  65  68
ATOM     68  S   UNL A   1      45.167  36.391  26.977  1.00  0.00     0.127 S 
ATOM     69  O   UNL A   1      45.985  35.853  25.891  1.00  0.00    -0.237 OA
ATOM     70  O   UNL A   1      43.727  36.387  26.717  1.00  0.00    -0.237 OA
ATOM     71  O   UNL A   1      45.667  37.614  27.589  1.00  0.00    -0.744 OA
ENDBRANCH  65  68
ENDBRANCH  38  61
ENDBRANCH  12  13
ENDBRANCH   5   7
ENDBRANCH   2   3
ENDBRANCH   1   2
BRANCH   1  72
ATOM     72  C   UNL A   1      36.901  21.126  24.657  1.00  0.00     0.023 C 
BRANCH  72  73
ATOM     73  C   UNL A   1      36.157  21.741  25.850  1.00  0.00     0.116 C 
BRANCH  73  74
ATOM     74  N   UNL A   1      35.843  23.154  25.680  1.00  0.00    -0.351 N 
ATOM     75  C   UNL A   1      34.677  23.856  25.415  1.00  0.00     0.278 C 
ATOM     76  H   UNL A   1      36.632  23.737  25.773  1.00  0.00     0.163 HD
ATOM     77  O   UNL A   1      34.811  25.092  25.428  1.00  0.00    -0.268 OA
BRANCH  75  78
ATOM     78  C   UNL A   1      33.290  23.150  25.076  1.00  0.00     0.279 C 
ATOM     79  C   UNL A   1      32.321  23.817  24.101  1.00  0.00     0.137 C 
ATOM     80  N   UNL A   1      33.412  22.033  24.043  1.00  0.00    -0.324 N 
ATOM     81  C   UNL A   1      33.123  23.034  23.012  1.00  0.00     0.269 C 
ATOM     82  H   UNL A   1      34.239  21.437  24.070  1.00  0.00     0.348 HD
BRANCH  80  83
ATOM     83  C   UNL A   1      32.353  20.989  24.038  1.00  0.00     0.267 C 
BRANCH  83  84
ATOM     84  C   UNL A   1      32.449  19.489  23.574  1.00  0.00     0.097 C 
BRANCH  84  85
ATOM     85  C   UNL A   1      33.144  18.327  24.304  1.00  0.00    -0.042 A 
ATOM     86  C   UNL A   1      32.335  17.434  25.033  1.00  0.00     0.004 A 
ATOM     87  C   UNL A   1      34.487  17.940  24.174  1.00  0.00     0.004 A 
ATOM     88  C   UNL A   1      32.841  16.242  25.578  1.00  0.00     0.000 A 
ATOM     89  C   UNL A   1      35.002  16.751  24.704  1.00  0.00     0.000 A 
ATOM     90  C   UNL A   1      34.175  15.895  25.404  1.00  0.00     0.000 A 
ENDBRANCH  84  85
ENDBRANCH  83  84
ENDBRANCH  80  83
ENDBRANCH  75  78
ENDBRANCH  73  74
ENDBRANCH  72  73
ENDBRANCH   1  72
TORSDOF 17
ENDMDL
MODEL 2
REMARK VINA RESULT:     -11.2      6.603     12.024
REMARK SMILES O=C(NCCCCNC(=O)[C@H]1CC[N@@H+]1CCc1ccccc1)c1ccc(-c2c3nc(c(-c4cccc(S(=O)(=O)[O-])c4F)c4ccc([nH]4)c(-c4cccc(S(=O)(=O)[O-])c4F)c4nc(c(-c5cccc(S(=O)(=O)[O-])c5F)c5ccc2[nH]5)C=C4)C=C3)cc1
REMARK SMILES IDX 5 1 4 2 3 3 1 4 2 5 23 7 24 8 85 9 25 10 84 11 26 12 27 13
REMARK SMILES IDX 28 14 78 15 29 16 83 17 77 18 79 19 30 20 82 21 76 22 75 23
REMARK SMILES IDX 31 25 63 26 43 27 62 28 44 29 47 30 61 31 80 32 45 33 46 34
REMARK SMILES IDX 60 36 81 37 48 38 32 39 33 40 41 41 34 42 36 43 42 44 35 45
REMARK SMILES IDX 37 46 38 47 39 48 40 49 64 50 65 51 73 52 66 53 68 54 74 55
REMARK SMILES IDX 67 56 69 57 70 58 71 59 72 60 49 61 50 62 58 63 51 64 53 65
REMARK SMILES IDX 59 66 52 67 54 68 55 69 56 70 57 71 6 72 7 73 8 74 9 75
REMARK SMILES IDX 10 77 11 78 12 79 14 80 13 81 15 83 16 84 17 85 18 86 22 87
REMARK SMILES IDX 19 88 21 89 20 90
REMARK H PARENT 3 6 79 24 47 35 8 76 14 82
REMARK Flexibility Score: inf
ROOT
ATOM      1  C   UNL A   1      31.286  31.770  26.767  1.00  0.00     0.023 C 
ENDROOT
BRANCH   1   2
ATOM      2  C   UNL A   1      32.527  32.638  26.902  1.00  0.00     0.116 C 
BRANCH   2   3
ATOM      3  N   UNL A   1      32.279  33.960  27.454  1.00  0.00    -0.352 N 
ATOM      4  O   UNL A   1      32.663  35.647  28.916  1.00  0.00    -0.269 OA
ATOM      5  C   UNL A   1      33.006  34.579  28.455  1.00  0.00     0.251 C 
ATOM      6  H   UNL A   1      31.519  34.464  27.079  1.00  0.00     0.163 HD
BRANCH   5   7
ATOM      7  C   UNL A   1      34.194  33.858  28.968  1.00  0.00     0.039 A 
ATOM      8  C   UNL A   1      34.030  32.825  29.893  1.00  0.00     0.014 A 
ATOM      9  C   UNL A   1      35.469  34.292  28.600  1.00  0.00     0.014 A 
ATOM     10  C   UNL A   1      35.139  32.308  30.549  1.00  0.00     0.010 A 
ATOM     11  C   UNL A   1      36.589  33.711  29.201  1.00  0.00     0.010 A 
ATOM     12  C   UNL A   1      36.431  32.731  30.194  1.00  0.00    -0.014 A 
BRANCH  12  13
ATOM     13  C   UNL A   1      37.604  32.031  30.773  1.00  0.00     0.031 A 
ATOM     14  C   UNL A   1      38.352  30.974  30.013  1.00  0.00     0.074 A 
ATOM     15  C   UNL A   1      37.960  32.353  32.032  1.00  0.00     0.049 A 
ATOM     16  N   UNL A   1      39.381  30.267  30.400  1.00  0.00    -0.248 NA
ATOM     17  C   UNL A   1      37.889  30.661  28.651  1.00  0.00     0.031 C 
ATOM     18  C   UNL A   1      37.264  33.329  32.876  1.00  0.00     0.029 A 
ATOM     19  N   UNL A   1      38.973  31.888  32.829  1.00  0.00    -0.354 N 
ATOM     20  C   UNL A   1      39.663  29.393  29.356  1.00  0.00     0.074 A 
ATOM     21  C   UNL A   1      38.703  29.667  28.308  1.00  0.00     0.031 C 
ATOM     22  C   UNL A   1      37.869  33.392  34.069  1.00  0.00     0.029 A 
ATOM     23  C   UNL A   1      38.957  32.423  34.096  1.00  0.00     0.049 A 
ATOM     24  H   UNL A   1      39.646  31.237  32.525  1.00  0.00     0.167 HD
ATOM     25  C   UNL A   1      40.641  28.460  29.283  1.00  0.00     0.034 A 
ATOM     26  C   UNL A   1      39.710  32.141  35.175  1.00  0.00     0.034 A 
ATOM     27  C   UNL A   1      41.618  28.232  30.316  1.00  0.00     0.049 A 
ATOM     28  C   UNL A   1      40.793  31.113  35.049  1.00  0.00     0.074 A 
ATOM     29  C   UNL A   1      42.720  27.392  30.286  1.00  0.00     0.029 A 
ATOM     30  N   UNL A   1      41.602  28.824  31.568  1.00  0.00    -0.354 N 
ATOM     31  N   UNL A   1      41.155  30.426  33.994  1.00  0.00    -0.248 NA
ATOM     32  C   UNL A   1      41.584  30.833  36.255  1.00  0.00     0.031 C 
ATOM     33  C   UNL A   1      43.353  27.457  31.532  1.00  0.00     0.029 A 
ATOM     34  C   UNL A   1      42.654  28.347  32.332  1.00  0.00     0.049 A 
ATOM     35  H   UNL A   1      40.941  29.487  31.871  1.00  0.00     0.167 HD
ATOM     36  C   UNL A   1      42.220  29.636  34.404  1.00  0.00     0.074 A 
ATOM     37  C   UNL A   1      42.471  29.962  35.793  1.00  0.00     0.031 C 
ATOM     38  C   UNL A   1      42.911  28.706  33.703  1.00  0.00     0.034 A 
BRANCH  25  39
ATOM     39  C   UNL A   1      40.748  27.624  28.035  1.00  0.00     0.023 A 
ATOM     40  C   UNL A   1      41.390  28.154  26.898  1.00  0.00     0.012 A 
ATOM     41  C   UNL A   1      40.334  26.276  28.033  1.00  0.00     0.148 A 
ATOM     42  C   UNL A   1      41.612  27.358  25.774  1.00  0.00     0.002 A 
ATOM     43  C   UNL A   1      40.588  25.480  26.922  1.00  0.00     0.091 A 
ATOM     44  F   UNL A   1      39.713  25.799  29.120  1.00  0.00    -0.205 F 
ATOM     45  C   UNL A   1      41.224  26.020  25.791  1.00  0.00     0.022 A 
BRANCH  43  46
ATOM     46  S   UNL A   1      40.190  23.728  26.867  1.00  0.00     0.127 S 
ATOM     47  O   UNL A   1      41.108  23.250  25.835  1.00  0.00    -0.237 OA
ATOM     48  O   UNL A   1      40.521  23.295  28.225  1.00  0.00    -0.237 OA
ATOM     49  O   UNL A   1      38.776  23.647  26.528  1.00  0.00    -0.744 OA
ENDBRANCH  43  46
ENDBRANCH  25  39
BRANCH  26  50
ATOM     50  C   UNL A   1      39.457  32.858  36.455  1.00  0.00     0.023 A 
ATOM     51  C   UNL A   1      40.057  34.110  36.680  1.00  0.00     0.012 A 
ATOM     52  C   UNL A   1      38.583  32.329  37.425  1.00  0.00     0.148 A 
ATOM     53  C   UNL A   1      39.808  34.814  37.860  1.00  0.00     0.002 A 
ATOM     54  C   UNL A   1      38.292  33.063  38.568  1.00  0.00     0.091 A 
ATOM     55  F   UNL A   1      38.038  31.124  37.207  1.00  0.00    -0.205 F 
ATOM     56  C   UNL A   1      38.915  34.298  38.796  1.00  0.00     0.022 A 
BRANCH  54  57
ATOM     57  S   UNL A   1      37.029  32.524  39.728  1.00  0.00     0.127 S 
ATOM     58  O   UNL A   1      35.838  32.494  38.884  1.00  0.00    -0.237 OA
ATOM     59  O   UNL A   1      37.524  31.209  40.141  1.00  0.00    -0.237 OA
ATOM     60  O   UNL A   1      37.044  33.522  40.789  1.00  0.00    -0.744 OA
ENDBRANCH  54  57
ENDBRANCH  26  50
BRANCH  38  61
ATOM     61  C   UNL A   1      43.997  27.964  34.431  1.00  0.00     0.023 A 
ATOM     62  C   UNL A   1      45.303  28.491  34.439  1.00  0.00     0.012 A 
ATOM     63  C   UNL A   1      43.718  26.785  35.148  1.00  0.00     0.148 A 
ATOM     64  C   UNL A   1      46.325  27.840  35.128  1.00  0.00     0.002 A 
ATOM     65  C   UNL A   1      44.731  26.166  35.869  1.00  0.00     0.091 A 
ATOM     66  F   UNL A   1      42.472  26.291  35.109  1.00  0.00    -0.205 F 
ATOM     67  C   UNL A   1      46.037  26.685  35.851  1.00  0.00     0.022 A 
BRANCH  65  68
ATOM     68  S   UNL A   1      44.437  24.723  36.898  1.00  0.00     0.127 S 
ATOM     69  O   UNL A   1      43.388  25.206  37.795  1.00  0.00    -0.237 OA
ATOM     70  O   UNL A   1      43.994  23.729  35.920  1.00  0.00    -0.237 OA
ATOM     71  O   UNL A   1      45.712  24.419  37.534  1.00  0.00    -0.744 OA
ENDBRANCH  65  68
ENDBRANCH  38  61
ENDBRANCH  12  13
ENDBRANCH   5   7
ENDBRANCH   2   3
ENDBRANCH   1   2
BRANCH   1  72
ATOM     72  C   UNL A   1      31.283  30.884  25.527  1.00  0.00     0.023 C 
BRANCH  72  73
ATOM     73  C   UNL A   1      32.056  29.566  25.674  1.00  0.00     0.116 C 
BRANCH  73  74
ATOM     74  N   UNL A   1      33.093  29.381  24.667  1.00  0.00    -0.351 N 
ATOM     75  C   UNL A   1      33.109  28.840  23.389  1.00  0.00     0.278 C 
ATOM     76  H   UNL A   1      33.975  29.709  24.958  1.00  0.00     0.163 HD
ATOM     77  O   UNL A   1      34.201  28.944  22.805  1.00  0.00    -0.268 OA
BRANCH  75  78
ATOM     78  C   UNL A   1      31.856  28.107  22.736  1.00  0.00     0.279 C 
ATOM     79  C   UNL A   1      32.040  26.743  22.072  1.00  0.00     0.137 C 
ATOM     80  N   UNL A   1      30.973  27.388  23.752  1.00  0.00    -0.324 N 
ATOM     81  C   UNL A   1      31.772  26.183  23.506  1.00  0.00     0.269 C 
ATOM     82  H   UNL A   1      30.829  27.823  24.663  1.00  0.00     0.348 HD
BRANCH  80  83
ATOM     83  C   UNL A   1      29.557  27.136  23.370  1.00  0.00     0.267 C 
BRANCH  83  84
ATOM     84  C   UNL A   1      28.349  28.144  23.346  1.00  0.00     0.097 C 
BRANCH  84  85
ATOM     85  C   UNL A   1      28.376  29.626  22.935  1.00  0.00    -0.042 A 
ATOM     86  C   UNL A   1      28.852  29.939  21.647  1.00  0.00     0.004 A 
ATOM     87  C   UNL A   1      27.798  30.698  23.632  1.00  0.00     0.004 A 
ATOM     88  C   UNL A   1      28.745  31.231  21.105  1.00  0.00     0.000 A 
ATOM     89  C   UNL A   1      27.678  31.987  23.101  1.00  0.00     0.000 A 
ATOM     90  C   UNL A   1      28.148  32.255  21.830  1.00  0.00     0.000 A 
ENDBRANCH  84  85
ENDBRANCH  83  84
ENDBRANCH  80  83
ENDBRANCH  75  78
ENDBRANCH  73  74
ENDBRANCH  72  73
ENDBRANCH   1  72
TORSDOF 17
ENDMDL
MODEL 3
REMARK VINA RESULT:     -11.2      1.428      3.262
REMARK SMILES O=C(NCCCCNC(=O)[C@H]1CC[N@@H+]1CCc1ccccc1)c1ccc(-c2c3nc(c(-c4cccc(S(=O)(=O)[O-])c4F)c4ccc([nH]4)c(-c4cccc(S(=O)(=O)[O-])c4F)c4nc(c(-c5cccc(S(=O)(=O)[O-])c5F)c5ccc2[nH]5)C=C4)C=C3)cc1
REMARK SMILES IDX 5 1 4 2 3 3 1 4 2 5 23 7 24 8 85 9 25 10 84 11 26 12 27 13
REMARK SMILES IDX 28 14 78 15 29 16 83 17 77 18 79 19 30 20 82 21 76 22 75 23
REMARK SMILES IDX 31 25 63 26 43 27 62 28 44 29 47 30 61 31 80 32 45 33 46 34
REMARK SMILES IDX 60 36 81 37 48 38 32 39 33 40 41 41 34 42 36 43 42 44 35 45
REMARK SMILES IDX 37 46 38 47 39 48 40 49 64 50 65 51 73 52 66 53 68 54 74 55
REMARK SMILES IDX 67 56 69 57 70 58 71 59 72 60 49 61 50 62 58 63 51 64 53 65
REMARK SMILES IDX 59 66 52 67 54 68 55 69 56 70 57 71 6 72 7 73 8 74 9 75
REMARK SMILES IDX 10 77 11 78 12 79 14 80 13 81 15 83 16 84 17 85 18 86 22 87
REMARK SMILES IDX 19 88 21 89 20 90
REMARK H PARENT 3 6 79 24 47 35 8 76 14 82
REMARK Flexibility Score: inf
ROOT
ATOM      1  C   UNL A   1      37.847  19.945  24.997  1.00  0.00     0.023 C 
ENDROOT
BRANCH   1   2
ATOM      2  C   UNL A   1      39.070  20.295  25.830  1.00  0.00     0.116 C 
BRANCH   2   3
ATOM      3  N   UNL A   1      40.086  19.256  25.873  1.00  0.00    -0.352 N 
ATOM      4  O   UNL A   1      42.223  18.521  26.042  1.00  0.00    -0.269 OA
ATOM      5  C   UNL A   1      41.435  19.441  26.122  1.00  0.00     0.251 C 
ATOM      6  H   UNL A   1      39.786  18.332  25.709  1.00  0.00     0.163 HD
BRANCH   5   7
ATOM      7  C   UNL A   1      41.879  20.817  26.444  1.00  0.00     0.039 A 
ATOM      8  C   UNL A   1      42.062  21.190  27.777  1.00  0.00     0.014 A 
ATOM      9  C   UNL A   1      42.005  21.752  25.416  1.00  0.00     0.014 A 
ATOM     10  C   UNL A   1      42.248  22.529  28.095  1.00  0.00     0.010 A 
ATOM     11  C   UNL A   1      42.275  23.086  25.733  1.00  0.00     0.010 A 
ATOM     12  C   UNL A   1      42.378  23.487  27.076  1.00  0.00    -0.014 A 
BRANCH  12  13
ATOM     13  C   UNL A   1      42.762  24.873  27.433  1.00  0.00     0.031 A 
ATOM     14  C   UNL A   1      41.790  25.831  28.059  1.00  0.00     0.074 A 
ATOM     15  C   UNL A   1      44.019  25.264  27.143  1.00  0.00     0.049 A 
ATOM     16  N   UNL A   1      41.982  27.077  28.405  1.00  0.00    -0.248 NA
ATOM     17  C   UNL A   1      40.428  25.339  28.326  1.00  0.00     0.031 C 
ATOM     18  C   UNL A   1      45.026  24.425  26.485  1.00  0.00     0.029 A 
ATOM     19  N   UNL A   1      44.661  26.458  27.339  1.00  0.00    -0.354 N 
ATOM     20  C   UNL A   1      40.761  27.536  28.885  1.00  0.00     0.074 A 
ATOM     21  C   UNL A   1      39.833  26.429  28.799  1.00  0.00     0.031 C 
ATOM     22  C   UNL A   1      46.156  25.128  26.333  1.00  0.00     0.029 A 
ATOM     23  C   UNL A   1      45.938  26.480  26.830  1.00  0.00     0.049 A 
ATOM     24  H   UNL A   1      44.249  27.225  27.801  1.00  0.00     0.167 HD
ATOM     25  C   UNL A   1      40.454  28.766  29.362  1.00  0.00     0.034 A 
ATOM     26  C   UNL A   1      46.827  27.486  26.736  1.00  0.00     0.034 A 
ATOM     27  C   UNL A   1      41.402  29.843  29.485  1.00  0.00     0.049 A 
ATOM     28  C   UNL A   1      46.456  28.828  27.290  1.00  0.00     0.074 A 
ATOM     29  C   UNL A   1      41.218  31.087  30.066  1.00  0.00     0.029 A 
ATOM     30  N   UNL A   1      42.701  29.817  29.003  1.00  0.00    -0.354 N 
ATOM     31  N   UNL A   1      45.355  29.189  27.901  1.00  0.00    -0.248 NA
ATOM     32  C   UNL A   1      47.454  29.898  27.159  1.00  0.00     0.031 C 
ATOM     33  C   UNL A   1      42.398  31.823  29.909  1.00  0.00     0.029 A 
ATOM     34  C   UNL A   1      43.320  31.032  29.244  1.00  0.00     0.049 A 
ATOM     35  H   UNL A   1      43.122  29.048  28.555  1.00  0.00     0.167 HD
ATOM     36  C   UNL A   1      45.528  30.525  28.236  1.00  0.00     0.074 A 
ATOM     37  C   UNL A   1      46.857  30.897  27.795  1.00  0.00     0.031 C 
ATOM     38  C   UNL A   1      44.656  31.376  28.828  1.00  0.00     0.034 A 
BRANCH  25  39
ATOM     39  C   UNL A   1      39.047  29.028  29.830  1.00  0.00     0.023 A 
ATOM     40  C   UNL A   1      38.678  28.686  31.146  1.00  0.00     0.012 A 
ATOM     41  C   UNL A   1      38.136  29.730  29.015  1.00  0.00     0.148 A 
ATOM     42  C   UNL A   1      37.421  29.031  31.642  1.00  0.00     0.002 A 
ATOM     43  C   UNL A   1      36.897  30.099  29.526  1.00  0.00     0.091 A 
ATOM     44  F   UNL A   1      38.504  30.031  27.761  1.00  0.00    -0.205 F 
ATOM     45  C   UNL A   1      36.537  29.747  30.839  1.00  0.00     0.022 A 
BRANCH  43  46
ATOM     46  S   UNL A   1      35.713  31.081  28.598  1.00  0.00     0.127 S 
ATOM     47  O   UNL A   1      35.116  30.073  27.723  1.00  0.00    -0.237 OA
ATOM     48  O   UNL A   1      34.827  31.573  29.654  1.00  0.00    -0.237 OA
ATOM     49  O   UNL A   1      36.487  32.112  27.922  1.00  0.00    -0.744 OA
ENDBRANCH  43  46
ENDBRANCH  25  39
BRANCH  26  50
ATOM     50  C   UNL A   1      48.150  27.242  26.098  1.00  0.00     0.023 A 
ATOM     51  C   UNL A   1      49.205  26.720  26.867  1.00  0.00     0.012 A 
ATOM     52  C   UNL A   1      48.348  27.473  24.723  1.00  0.00     0.148 A 
ATOM     53  C   UNL A   1      50.444  26.454  26.282  1.00  0.00     0.002 A 
ATOM     54  C   UNL A   1      49.563  27.147  24.134  1.00  0.00     0.091 A 
ATOM     55  F   UNL A   1      47.339  27.991  24.008  1.00  0.00    -0.205 F 
ATOM     56  C   UNL A   1      50.619  26.653  24.914  1.00  0.00     0.022 A 
BRANCH  54  57
ATOM     57  S   UNL A   1      49.791  27.229  22.354  1.00  0.00     0.127 S 
ATOM     58  O   UNL A   1      49.598  28.652  22.091  1.00  0.00    -0.237 OA
ATOM     59  O   UNL A   1      51.166  26.752  22.191  1.00  0.00    -0.237 OA
ATOM     60  O   UNL A   1      48.785  26.329  21.805  1.00  0.00    -0.744 OA
ENDBRANCH  54  57
ENDBRANCH  26  50
BRANCH  38  61
ATOM     61  C   UNL A   1      45.108  32.796  29.024  1.00  0.00     0.023 A 
ATOM     62  C   UNL A   1      45.807  33.139  30.197  1.00  0.00     0.012 A 
ATOM     63  C   UNL A   1      44.893  33.772  28.032  1.00  0.00     0.148 A 
ATOM     64  C   UNL A   1      46.262  34.442  30.395  1.00  0.00     0.002 A 
ATOM     65  C   UNL A   1      45.389  35.056  28.215  1.00  0.00     0.091 A 
ATOM     66  F   UNL A   1      44.207  33.426  26.933  1.00  0.00    -0.205 F 
ATOM     67  C   UNL A   1      46.063  35.396  29.401  1.00  0.00     0.022 A 
BRANCH  65  68
ATOM     68  S   UNL A   1      45.255  36.328  26.954  1.00  0.00     0.127 S 
ATOM     69  O   UNL A   1      45.870  37.475  27.621  1.00  0.00    -0.237 OA
ATOM     70  O   UNL A   1      46.042  35.764  25.858  1.00  0.00    -0.237 OA
ATOM     71  O   UNL A   1      43.832  36.460  26.669  1.00  0.00    -0.744 OA
ENDBRANCH  65  68
ENDBRANCH  38  61
ENDBRANCH  12  13
ENDBRANCH   5   7
ENDBRANCH   2   3
ENDBRANCH   1   2
BRANCH   1  72
ATOM     72  C   UNL A   1      36.963  21.140  24.662  1.00  0.00     0.023 C 
BRANCH  72  73
ATOM     73  C   UNL A   1      36.015  21.576  25.788  1.00  0.00     0.116 C 
BRANCH  73  74
ATOM     74  N   UNL A   1      34.755  20.843  25.809  1.00  0.00    -0.351 N 
ATOM     75  C   UNL A   1      33.612  20.870  25.023  1.00  0.00     0.278 C 
ATOM     76  H   UNL A   1      34.705  20.186  26.541  1.00  0.00     0.163 HD
ATOM     77  O   UNL A   1      32.768  20.009  25.322  1.00  0.00    -0.268 OA
BRANCH  75  78
ATOM     78  C   UNL A   1      33.374  21.939  23.867  1.00  0.00     0.279 C 
ATOM     79  C   UNL A   1      31.992  22.064  23.227  1.00  0.00     0.137 C 
ATOM     80  N   UNL A   1      33.159  23.358  24.384  1.00  0.00    -0.324 N 
ATOM     81  C   UNL A   1      31.720  23.078  24.385  1.00  0.00     0.269 C 
ATOM     82  H   UNL A   1      33.699  23.666  25.192  1.00  0.00     0.348 HD
BRANCH  80  83
ATOM     83  C   UNL A   1      33.450  24.478  23.449  1.00  0.00     0.267 C 
BRANCH  83  84
ATOM     84  C   UNL A   1      33.925  25.941  23.779  1.00  0.00     0.097 C 
BRANCH  84  85
ATOM     85  C   UNL A   1      33.283  26.931  24.767  1.00  0.00    -0.042 A 
ATOM     86  C   UNL A   1      32.571  28.021  24.230  1.00  0.00     0.004 A 
ATOM     87  C   UNL A   1      33.165  26.770  26.156  1.00  0.00     0.004 A 
ATOM     88  C   UNL A   1      31.794  28.873  25.033  1.00  0.00     0.000 A 
ATOM     89  C   UNL A   1      32.388  27.606  26.965  1.00  0.00     0.000 A 
ATOM     90  C   UNL A   1      31.695  28.660  26.402  1.00  0.00     0.000 A 
ENDBRANCH  84  85
ENDBRANCH  83  84
ENDBRANCH  80  83
ENDBRANCH  75  78
ENDBRANCH  73  74
ENDBRANCH  72  73
ENDBRANCH   1  72
TORSDOF 17
ENDMDL
