MODEL 1
REMARK VINA RESULT:     -12.4      0.000      0.000
REMARK SMILES CNC(=O)c1cccc(-c2cnc(O)c(C(=O)NCCCCNC(=O)c3ccc(-c4c5nc(c(-c6cccc(S(=O)(=O)[O-])c6F)c6ccc([nH]6)c(-c6cccc(S(=O)(=O)[O-])c6F)c6nc(c(-c7cccc(S(=O)(=O)[O-])c7F)c7ccc4[nH]7)C=C6)C=C5)cc3)c2)c1
REMARK SMILES IDX 21 1 20 2 19 3 18 4 16 5 17 6 15 8 10 9 11 10 89 11 12 12
REMARK SMILES IDX 13 13 9 14 5 15 6 16 90 17 7 18 8 19 3 20 1 21 2 22 4 24
REMARK SMILES IDX 14 25 22 27 23 28 24 29 25 31 26 32 27 33 88 34 28 35 87 36
REMARK SMILES IDX 29 37 30 38 31 39 81 40 32 41 86 42 80 43 82 44 33 45 85 46
REMARK SMILES IDX 79 47 78 48 34 50 66 51 46 52 65 53 47 54 50 55 64 56 83 57
REMARK SMILES IDX 48 58 49 59 63 61 84 62 51 63 35 64 36 65 44 66 37 67 39 68
REMARK SMILES IDX 45 69 38 70 40 71 41 72 42 73 43 74 67 75 68 76 76 77 69 78
REMARK SMILES IDX 71 79 77 80 70 81 72 82 73 83 74 84 75 85 52 86 53 87 61 88
REMARK SMILES IDX 54 89 56 90 62 91 55 92 57 93 58 94 59 95 60 96
REMARK H PARENT 18 7 2 23 14 26 23 30 82 49 50 60
REMARK Flexibility Score: inf
ROOT
ATOM      1  C   UNL A   1      31.886  31.147  26.889  1.00  0.00     0.023 C 
ENDROOT
BRANCH   1   2
ATOM      2  C   UNL A   1      32.197  29.654  27.019  1.00  0.00     0.023 C 
BRANCH   2   3
ATOM      3  C   UNL A   1      33.495  29.221  26.331  1.00  0.00     0.116 C 
BRANCH   3   4
ATOM      4  N   UNL A   1      33.739  27.800  26.519  1.00  0.00    -0.352 N 
ATOM      5  C   UNL A   1      33.386  26.691  25.791  1.00  0.00     0.256 C 
ATOM      6  O   UNL A   1      33.817  25.594  26.159  1.00  0.00    -0.269 OA
ATOM      7  H   UNL A   1      34.261  27.592  27.327  1.00  0.00     0.163 HD
BRANCH   5   8
ATOM      8  C   UNL A   1      32.571  26.722  24.552  1.00  0.00     0.102 A 
ATOM      9  C   UNL A   1      30.657  27.443  23.233  1.00  0.00     0.001 A 
ATOM     10  C   UNL A   1      31.264  26.857  22.131  1.00  0.00     0.124 A 
ATOM     11  C   UNL A   1      31.306  27.300  24.465  1.00  0.00     0.029 A 
ATOM     12  N   UNL A   1      32.446  26.205  22.181  1.00  0.00    -0.221 NA
ATOM     13  C   UNL A   1      33.079  26.162  23.377  1.00  0.00     0.223 A 
BRANCH   9  14
ATOM     14  C   UNL A   1      29.475  28.299  23.132  1.00  0.00    -0.016 A 
ATOM     15  C   UNL A   1      28.565  30.544  22.827  1.00  0.00     0.040 A 
ATOM     16  C   UNL A   1      27.276  30.044  23.031  1.00  0.00     0.014 A 
ATOM     17  C   UNL A   1      29.657  29.676  22.906  1.00  0.00     0.022 A 
ATOM     18  C   UNL A   1      27.082  28.681  23.261  1.00  0.00     0.001 A 
ATOM     19  C   UNL A   1      28.175  27.810  23.301  1.00  0.00     0.009 A 
BRANCH  15  20
ATOM     20  C   UNL A   1      28.747  32.001  22.635  1.00  0.00     0.251 C 
ATOM     21  C   UNL A   1      28.009  32.034  20.193  1.00  0.00     0.143 C 
ATOM     22  N   UNL A   1      28.580  32.582  21.404  1.00  0.00    -0.355 N 
ATOM     23  H   UNL A   1      28.895  33.512  21.333  1.00  0.00     0.163 HD
ATOM     24  O   UNL A   1      29.052  32.698  23.599  1.00  0.00    -0.269 OA
ENDBRANCH  15  20
ENDBRANCH   9  14
BRANCH  13  25
ATOM     25  O   UNL A   1      34.288  25.526  23.318  1.00  0.00    -0.493 OA
ATOM     26  H   UNL A   1      34.737  25.449  22.498  1.00  0.00     0.295 HD
ENDBRANCH  13  25
ENDBRANCH   5   8
ENDBRANCH   3   4
ENDBRANCH   2   3
ENDBRANCH   1   2
BRANCH   1  27
ATOM     27  C   UNL A   1      33.029  32.079  27.282  1.00  0.00     0.116 C 
BRANCH  27  28
ATOM     28  N   UNL A   1      32.601  33.450  27.515  1.00  0.00    -0.352 N 
ATOM     29  C   UNL A   1      33.107  34.360  28.418  1.00  0.00     0.251 C 
ATOM     30  H   UNL A   1      31.855  33.769  26.956  1.00  0.00     0.163 HD
ATOM     31  O   UNL A   1      32.575  35.448  28.566  1.00  0.00    -0.269 OA
BRANCH  29  32
ATOM     32  C   UNL A   1      34.277  33.979  29.239  1.00  0.00     0.039 A 
ATOM     33  C   UNL A   1      34.062  33.265  30.420  1.00  0.00     0.014 A 
ATOM     34  C   UNL A   1      35.574  34.281  28.818  1.00  0.00     0.014 A 
ATOM     35  C   UNL A   1      35.157  32.785  31.143  1.00  0.00     0.010 A 
ATOM     36  C   UNL A   1      36.661  33.749  29.505  1.00  0.00     0.010 A 
ATOM     37  C   UNL A   1      36.463  32.989  30.668  1.00  0.00    -0.014 A 
BRANCH  37  38
ATOM     38  C   UNL A   1      37.633  32.380  31.347  1.00  0.00     0.031 A 
ATOM     39  C   UNL A   1      38.362  31.227  30.717  1.00  0.00     0.074 A 
ATOM     40  C   UNL A   1      37.967  32.797  32.585  1.00  0.00     0.049 A 
ATOM     41  N   UNL A   1      39.356  30.524  31.193  1.00  0.00    -0.248 NA
ATOM     42  C   UNL A   1      37.898  30.789  29.390  1.00  0.00     0.031 C 
ATOM     43  C   UNL A   1      37.277  33.846  33.340  1.00  0.00     0.029 A 
ATOM     44  N   UNL A   1      38.950  32.368  33.441  1.00  0.00    -0.354 N 
ATOM     45  C   UNL A   1      39.614  29.540  30.246  1.00  0.00     0.074 A 
ATOM     46  C   UNL A   1      38.653  29.720  29.179  1.00  0.00     0.031 C 
ATOM     47  C   UNL A   1      37.853  33.974  34.546  1.00  0.00     0.029 A 
ATOM     48  C   UNL A   1      38.938  33.004  34.660  1.00  0.00     0.049 A 
ATOM     49  H   UNL A   1      39.603  31.669  33.205  1.00  0.00     0.167 HD
ATOM     50  C   UNL A   1      40.580  28.593  30.251  1.00  0.00     0.034 A 
ATOM     51  C   UNL A   1      39.709  32.823  35.751  1.00  0.00     0.034 A 
ATOM     52  C   UNL A   1      41.568  28.454  31.286  1.00  0.00     0.049 A 
ATOM     53  C   UNL A   1      40.814  31.802  35.703  1.00  0.00     0.074 A 
ATOM     54  C   UNL A   1      42.653  27.597  31.329  1.00  0.00     0.029 A 
ATOM     55  N   UNL A   1      41.590  29.188  32.461  1.00  0.00    -0.354 N 
ATOM     56  N   UNL A   1      41.154  31.003  34.722  1.00  0.00    -0.248 NA
ATOM     57  C   UNL A   1      41.663  31.683  36.898  1.00  0.00     0.031 C 
ATOM     58  C   UNL A   1      43.325  27.804  32.540  1.00  0.00     0.029 A 
ATOM     59  C   UNL A   1      42.666  28.799  33.242  1.00  0.00     0.049 A 
ATOM     60  H   UNL A   1      40.939  29.884  32.706  1.00  0.00     0.167 HD
ATOM     61  C   UNL A   1      42.273  30.308  35.168  1.00  0.00     0.074 A 
ATOM     62  C   UNL A   1      42.568  30.800  36.498  1.00  0.00     0.031 C 
ATOM     63  C   UNL A   1      42.981  29.337  34.540  1.00  0.00     0.034 A 
BRANCH  50  64
ATOM     64  C   UNL A   1      40.664  27.670  29.064  1.00  0.00     0.023 A 
ATOM     65  C   UNL A   1      39.770  26.584  28.972  1.00  0.00     0.012 A 
ATOM     66  C   UNL A   1      41.569  27.914  28.014  1.00  0.00     0.148 A 
ATOM     67  C   UNL A   1      39.793  25.737  27.865  1.00  0.00     0.002 A 
ATOM     68  C   UNL A   1      41.559  27.088  26.895  1.00  0.00     0.091 A 
ATOM     69  F   UNL A   1      42.426  28.937  28.131  1.00  0.00    -0.205 F 
ATOM     70  C   UNL A   1      40.679  25.995  26.824  1.00  0.00     0.022 A 
BRANCH  68  71
ATOM     71  S   UNL A   1      42.612  27.377  25.468  1.00  0.00     0.127 S 
ATOM     72  O   UNL A   1      42.369  26.174  24.674  1.00  0.00    -0.237 OA
ATOM     73  O   UNL A   1      42.042  28.603  24.907  1.00  0.00    -0.237 OA
ATOM     74  O   UNL A   1      43.964  27.520  25.990  1.00  0.00    -0.744 OA
ENDBRANCH  68  71
ENDBRANCH  50  64
BRANCH  51  75
ATOM     75  C   UNL A   1      39.511  33.681  36.953  1.00  0.00     0.023 A 
ATOM     76  C   UNL A   1      39.944  35.021  36.922  1.00  0.00     0.012 A 
ATOM     77  C   UNL A   1      38.875  33.192  38.110  1.00  0.00     0.148 A 
ATOM     78  C   UNL A   1      39.774  35.850  38.032  1.00  0.00     0.002 A 
ATOM     79  C   UNL A   1      38.661  34.038  39.192  1.00  0.00     0.091 A 
ATOM     80  F   UNL A   1      38.484  31.910  38.128  1.00  0.00    -0.205 F 
ATOM     81  C   UNL A   1      39.124  35.362  39.162  1.00  0.00     0.022 A 
BRANCH  79  82
ATOM     82  S   UNL A   1      37.711  33.526  40.629  1.00  0.00     0.127 S 
ATOM     83  O   UNL A   1      38.567  32.491  41.201  1.00  0.00    -0.237 OA
ATOM     84  O   UNL A   1      37.638  34.764  41.406  1.00  0.00    -0.237 OA
ATOM     85  O   UNL A   1      36.429  33.078  40.103  1.00  0.00    -0.744 OA
ENDBRANCH  79  82
ENDBRANCH  51  75
BRANCH  63  86
ATOM     86  C   UNL A   1      44.159  28.750  35.269  1.00  0.00     0.023 A 
ATOM     87  C   UNL A   1      45.438  29.313  35.089  1.00  0.00     0.012 A 
ATOM     88  C   UNL A   1      43.988  27.699  36.191  1.00  0.00     0.148 A 
ATOM     89  C   UNL A   1      46.534  28.822  35.797  1.00  0.00     0.002 A 
ATOM     90  C   UNL A   1      45.077  27.243  36.926  1.00  0.00     0.091 A 
ATOM     91  F   UNL A   1      42.767  27.163  36.333  1.00  0.00    -0.205 F 
ATOM     92  C   UNL A   1      46.352  27.796  36.723  1.00  0.00     0.022 A 
BRANCH  90  93
ATOM     93  S   UNL A   1      44.916  25.992  38.205  1.00  0.00     0.127 S 
ATOM     94  O   UNL A   1      46.257  25.985  38.785  1.00  0.00    -0.237 OA
ATOM     95  O   UNL A   1      43.881  26.562  39.070  1.00  0.00    -0.237 OA
ATOM     96  O   UNL A   1      44.521  24.770  37.520  1.00  0.00    -0.744 OA
ENDBRANCH  90  93
ENDBRANCH  63  86
ENDBRANCH  37  38
ENDBRANCH  29  32
ENDBRANCH  27  28
ENDBRANCH   1  27
TORSDOF 17
ENDMDL
MODEL 2
REMARK VINA RESULT:     -12.2      3.657      9.396
REMARK SMILES CNC(=O)c1cccc(-c2cnc(O)c(C(=O)NCCCCNC(=O)c3ccc(-c4c5nc(c(-c6cccc(S(=O)(=O)[O-])c6F)c6ccc([nH]6)c(-c6cccc(S(=O)(=O)[O-])c6F)c6nc(c(-c7cccc(S(=O)(=O)[O-])c7F)c7ccc4[nH]7)C=C6)C=C5)cc3)c2)c1
REMARK SMILES IDX 21 1 20 2 19 3 18 4 16 5 17 6 15 8 10 9 11 10 89 11 12 12
REMARK SMILES IDX 13 13 9 14 5 15 6 16 90 17 7 18 8 19 3 20 1 21 2 22 4 24
REMARK SMILES IDX 14 25 22 27 23 28 24 29 25 31 26 32 27 33 88 34 28 35 87 36
REMARK SMILES IDX 29 37 30 38 31 39 81 40 32 41 86 42 80 43 82 44 33 45 85 46
REMARK SMILES IDX 79 47 78 48 34 50 66 51 46 52 65 53 47 54 50 55 64 56 83 57
REMARK SMILES IDX 48 58 49 59 63 61 84 62 51 63 35 64 36 65 44 66 37 67 39 68
REMARK SMILES IDX 45 69 38 70 40 71 41 72 42 73 43 74 67 75 68 76 76 77 69 78
REMARK SMILES IDX 71 79 77 80 70 81 72 82 73 83 74 84 75 85 52 86 53 87 61 88
REMARK SMILES IDX 54 89 56 90 62 91 55 92 57 93 58 94 59 95 60 96
REMARK H PARENT 18 7 2 23 14 26 23 30 82 49 50 60
REMARK Flexibility Score: inf
ROOT
ATOM      1  C   UNL A   1      33.372  28.612  25.878  1.00  0.00     0.023 C 
ENDROOT
BRANCH   1   2
ATOM      2  C   UNL A   1      31.956  28.515  25.305  1.00  0.00     0.023 C 
BRANCH   2   3
ATOM      3  C   UNL A   1      31.754  29.284  23.996  1.00  0.00     0.116 C 
BRANCH   3   4
ATOM      4  N   UNL A   1      32.917  29.164  23.133  1.00  0.00    -0.352 N 
ATOM      5  C   UNL A   1      33.524  28.087  22.534  1.00  0.00     0.256 C 
ATOM      6  O   UNL A   1      34.468  28.305  21.769  1.00  0.00    -0.269 OA
ATOM      7  H   UNL A   1      33.357  30.023  22.939  1.00  0.00     0.163 HD
BRANCH   5   8
ATOM      8  C   UNL A   1      33.084  26.679  22.690  1.00  0.00     0.102 A 
ATOM      9  C   UNL A   1      33.235  24.456  23.669  1.00  0.00     0.001 A 
ATOM     10  C   UNL A   1      32.039  24.154  23.033  1.00  0.00     0.124 A 
ATOM     11  C   UNL A   1      33.782  25.721  23.422  1.00  0.00     0.029 A 
ATOM     12  N   UNL A   1      31.371  25.017  22.237  1.00  0.00    -0.221 NA
ATOM     13  C   UNL A   1      31.893  26.258  22.093  1.00  0.00     0.223 A 
BRANCH   9  14
ATOM     14  C   UNL A   1      33.851  23.583  24.667  1.00  0.00    -0.016 A 
ATOM     15  C   UNL A   1      35.791  22.270  25.355  1.00  0.00     0.040 A 
ATOM     16  C   UNL A   1      35.083  21.813  26.469  1.00  0.00     0.014 A 
ATOM     17  C   UNL A   1      35.164  23.127  24.448  1.00  0.00     0.022 A 
ATOM     18  C   UNL A   1      33.777  22.254  26.697  1.00  0.00     0.001 A 
ATOM     19  C   UNL A   1      33.167  23.142  25.806  1.00  0.00     0.009 A 
BRANCH  15  20
ATOM     20  C   UNL A   1      37.156  21.748  25.109  1.00  0.00     0.251 C 
ATOM     21  C   UNL A   1      38.377  23.673  26.255  1.00  0.00     0.143 C 
ATOM     22  N   UNL A   1      38.267  22.479  25.447  1.00  0.00    -0.355 N 
ATOM     23  H   UNL A   1      39.117  22.139  25.087  1.00  0.00     0.163 HD
ATOM     24  O   UNL A   1      37.291  20.641  24.596  1.00  0.00    -0.269 OA
ENDBRANCH  15  20
ENDBRANCH   9  14
BRANCH  13  25
ATOM     25  O   UNL A   1      31.122  27.073  21.312  1.00  0.00    -0.493 OA
ATOM     26  H   UNL A   1      31.112  26.960  20.382  1.00  0.00     0.295 HD
ENDBRANCH  13  25
ENDBRANCH   5   8
ENDBRANCH   3   4
ENDBRANCH   2   3
ENDBRANCH   1   2
BRANCH   1  27
ATOM     27  C   UNL A   1      33.444  28.987  27.355  1.00  0.00     0.116 C 
BRANCH  27  28
ATOM     28  N   UNL A   1      33.554  30.421  27.582  1.00  0.00    -0.352 N 
ATOM     29  C   UNL A   1      34.613  31.121  28.117  1.00  0.00     0.251 C 
ATOM     30  H   UNL A   1      32.772  30.959  27.320  1.00  0.00     0.163 HD
ATOM     31  O   UNL A   1      34.518  32.317  28.337  1.00  0.00    -0.269 OA
BRANCH  29  32
ATOM     32  C   UNL A   1      35.852  30.391  28.463  1.00  0.00     0.039 A 
ATOM     33  C   UNL A   1      36.934  30.454  27.581  1.00  0.00     0.014 A 
ATOM     34  C   UNL A   1      35.960  29.697  29.670  1.00  0.00     0.014 A 
ATOM     35  C   UNL A   1      38.155  29.880  27.947  1.00  0.00     0.010 A 
ATOM     36  C   UNL A   1      37.192  29.182  30.059  1.00  0.00     0.010 A 
ATOM     37  C   UNL A   1      38.302  29.276  29.207  1.00  0.00    -0.014 A 
BRANCH  37  38
ATOM     38  C   UNL A   1      39.621  28.776  29.670  1.00  0.00     0.031 A 
ATOM     39  C   UNL A   1      40.365  29.493  30.761  1.00  0.00     0.074 A 
ATOM     40  C   UNL A   1      40.194  27.738  29.028  1.00  0.00     0.049 A 
ATOM     41  N   UNL A   1      41.554  29.246  31.244  1.00  0.00    -0.248 NA
ATOM     42  C   UNL A   1      39.699  30.656  31.370  1.00  0.00     0.031 C 
ATOM     43  C   UNL A   1      39.610  27.017  27.894  1.00  0.00     0.029 A 
ATOM     44  N   UNL A   1      41.410  27.129  29.215  1.00  0.00    -0.354 N 
ATOM     45  C   UNL A   1      41.796  30.240  32.185  1.00  0.00     0.074 A 
ATOM     46  C   UNL A   1      40.640  31.110  32.186  1.00  0.00     0.031 C 
ATOM     47  C   UNL A   1      40.469  26.070  27.484  1.00  0.00     0.029 A 
ATOM     48  C   UNL A   1      41.672  26.129  28.309  1.00  0.00     0.049 A 
ATOM     49  H   UNL A   1      42.036  27.385  29.931  1.00  0.00     0.167 HD
ATOM     50  C   UNL A   1      42.869  30.396  32.995  1.00  0.00     0.034 A 
ATOM     51  C   UNL A   1      42.761  25.350  28.154  1.00  0.00     0.034 A 
ATOM     52  C   UNL A   1      43.990  29.495  33.031  1.00  0.00     0.049 A 
ATOM     53  C   UNL A   1      43.913  25.508  29.109  1.00  0.00     0.074 A 
ATOM     54  C   UNL A   1      45.073  29.506  33.891  1.00  0.00     0.029 A 
ATOM     55  N   UNL A   1      44.174  28.427  32.168  1.00  0.00    -0.354 N 
ATOM     56  N   UNL A   1      44.043  26.341  30.112  1.00  0.00    -0.248 NA
ATOM     57  C   UNL A   1      45.054  24.597  28.933  1.00  0.00     0.031 C 
ATOM     58  C   UNL A   1      45.921  28.450  33.538  1.00  0.00     0.029 A 
ATOM     59  C   UNL A   1      45.357  27.775  32.468  1.00  0.00     0.049 A 
ATOM     60  H   UNL A   1      43.554  28.169  31.448  1.00  0.00     0.167 HD
ATOM     61  C   UNL A   1      45.262  26.035  30.706  1.00  0.00     0.074 A 
ATOM     62  C   UNL A   1      45.821  24.923  29.965  1.00  0.00     0.031 C 
ATOM     63  C   UNL A   1      45.874  26.633  31.758  1.00  0.00     0.034 A 
BRANCH  50  64
ATOM     64  C   UNL A   1      42.854  31.547  33.965  1.00  0.00     0.023 A 
ATOM     65  C   UNL A   1      43.401  32.785  33.572  1.00  0.00     0.012 A 
ATOM     66  C   UNL A   1      42.242  31.429  35.227  1.00  0.00     0.148 A 
ATOM     67  C   UNL A   1      43.364  33.883  34.430  1.00  0.00     0.002 A 
ATOM     68  C   UNL A   1      42.174  32.539  36.063  1.00  0.00     0.091 A 
ATOM     69  F   UNL A   1      41.749  30.238  35.592  1.00  0.00    -0.205 F 
ATOM     70  C   UNL A   1      42.742  33.762  35.670  1.00  0.00     0.022 A 
BRANCH  68  71
ATOM     71  S   UNL A   1      41.331  32.507  37.649  1.00  0.00     0.127 S 
ATOM     72  O   UNL A   1      41.354  33.921  38.023  1.00  0.00    -0.237 OA
ATOM     73  O   UNL A   1      40.010  31.992  37.287  1.00  0.00    -0.237 OA
ATOM     74  O   UNL A   1      42.115  31.623  38.501  1.00  0.00    -0.744 OA
ENDBRANCH  68  71
ENDBRANCH  50  64
BRANCH  51  75
ATOM     75  C   UNL A   1      42.780  24.299  27.098  1.00  0.00     0.023 A 
ATOM     76  C   UNL A   1      43.456  24.551  25.888  1.00  0.00     0.012 A 
ATOM     77  C   UNL A   1      42.164  23.048  27.292  1.00  0.00     0.148 A 
ATOM     78  C   UNL A   1      43.492  23.588  24.879  1.00  0.00     0.002 A 
ATOM     79  C   UNL A   1      42.249  22.074  26.304  1.00  0.00     0.091 A 
ATOM     80  F   UNL A   1      41.512  22.832  28.444  1.00  0.00    -0.205 F 
ATOM     81  C   UNL A   1      42.898  22.346  25.090  1.00  0.00     0.022 A 
BRANCH  79  82
ATOM     82  S   UNL A   1      41.630  20.406  26.555  1.00  0.00     0.127 S 
ATOM     83  O   UNL A   1      42.262  20.037  27.818  1.00  0.00    -0.237 OA
ATOM     84  O   UNL A   1      40.185  20.622  26.629  1.00  0.00    -0.237 OA
ATOM     85  O   UNL A   1      42.058  19.656  25.382  1.00  0.00    -0.744 OA
ENDBRANCH  79  82
ENDBRANCH  51  75
BRANCH  63  86
ATOM     86  C   UNL A   1      47.208  26.090  32.191  1.00  0.00     0.023 A 
ATOM     87  C   UNL A   1      48.385  26.578  31.589  1.00  0.00     0.012 A 
ATOM     88  C   UNL A   1      47.304  25.162  33.247  1.00  0.00     0.148 A 
ATOM     89  C   UNL A   1      49.636  26.131  32.013  1.00  0.00     0.002 A 
ATOM     90  C   UNL A   1      48.555  24.754  33.694  1.00  0.00     0.091 A 
ATOM     91  F   UNL A   1      46.171  24.695  33.793  1.00  0.00    -0.205 F 
ATOM     92  C   UNL A   1      49.721  25.229  33.072  1.00  0.00     0.022 A 
BRANCH  90  93
ATOM     93  S   UNL A   1      48.760  23.669  35.110  1.00  0.00     0.127 S 
ATOM     94  O   UNL A   1      48.072  22.460  34.662  1.00  0.00    -0.237 OA
ATOM     95  O   UNL A   1      50.217  23.543  35.199  1.00  0.00    -0.237 OA
ATOM     96  O   UNL A   1      48.147  24.360  36.235  1.00  0.00    -0.744 OA
ENDBRANCH  90  93
ENDBRANCH  63  86
ENDBRANCH  37  38
ENDBRANCH  29  32
ENDBRANCH  27  28
ENDBRANCH   1  27
TORSDOF 17
ENDMDL
MODEL 3
REMARK VINA RESULT:     -12.2      1.951      4.068
REMARK SMILES CNC(=O)c1cccc(-c2cnc(O)c(C(=O)NCCCCNC(=O)c3ccc(-c4c5nc(c(-c6cccc(S(=O)(=O)[O-])c6F)c6ccc([nH]6)c(-c6cccc(S(=O)(=O)[O-])c6F)c6nc(c(-c7cccc(S(=O)(=O)[O-])c7F)c7ccc4[nH]7)C=C6)C=C5)cc3)c2)c1
REMARK SMILES IDX 21 1 20 2 19 3 18 4 16 5 17 6 15 8 10 9 11 10 89 11 12 12
REMARK SMILES IDX 13 13 9 14 5 15 6 16 90 17 7 18 8 19 3 20 1 21 2 22 4 24
REMARK SMILES IDX 14 25 22 27 23 28 24 29 25 31 26 32 27 33 88 34 28 35 87 36
REMARK SMILES IDX 29 37 30 38 31 39 81 40 32 41 86 42 80 43 82 44 33 45 85 46
REMARK SMILES IDX 79 47 78 48 34 50 66 51 46 52 65 53 47 54 50 55 64 56 83 57
REMARK SMILES IDX 48 58 49 59 63 61 84 62 51 63 35 64 36 65 44 66 37 67 39 68
REMARK SMILES IDX 45 69 38 70 40 71 41 72 42 73 43 74 67 75 68 76 76 77 69 78
REMARK SMILES IDX 71 79 77 80 70 81 72 82 73 83 74 84 75 85 52 86 53 87 61 88
REMARK SMILES IDX 54 89 56 90 62 91 55 92 57 93 58 94 59 95 60 96
REMARK H PARENT 18 7 2 23 14 26 23 30 82 49 50 60
REMARK Flexibility Score: inf
ROOT
ATOM      1  C   UNL A   1      32.094  31.415  26.660  1.00  0.00     0.023 C 
ENDROOT
BRANCH   1   2
ATOM      2  C   UNL A   1      32.340  29.904  26.699  1.00  0.00     0.023 C 
BRANCH   2   3
ATOM      3  C   UNL A   1      31.858  29.158  25.452  1.00  0.00     0.116 C 
BRANCH   3   4
ATOM      4  N   UNL A   1      32.757  29.374  24.331  1.00  0.00    -0.352 N 
ATOM      5  C   UNL A   1      33.251  28.539  23.359  1.00  0.00     0.256 C 
ATOM      6  O   UNL A   1      33.944  29.034  22.466  1.00  0.00    -0.269 OA
ATOM      7  H   UNL A   1      33.075  30.303  24.252  1.00  0.00     0.163 HD
BRANCH   5   8
ATOM      8  C   UNL A   1      32.958  27.087  23.269  1.00  0.00     0.102 A 
ATOM      9  C   UNL A   1      33.182  24.781  24.011  1.00  0.00     0.001 A 
ATOM     10  C   UNL A   1      32.173  24.452  23.117  1.00  0.00     0.124 A 
ATOM     11  C   UNL A   1      33.613  26.113  24.019  1.00  0.00     0.029 A 
ATOM     12  N   UNL A   1      31.570  25.345  22.300  1.00  0.00    -0.221 NA
ATOM     13  C   UNL A   1      31.961  26.637  22.401  1.00  0.00     0.223 A 
BRANCH   9  14
ATOM     14  C   UNL A   1      33.695  23.846  25.012  1.00  0.00    -0.016 A 
ATOM     15  C   UNL A   1      34.842  21.743  25.486  1.00  0.00     0.040 A 
ATOM     16  C   UNL A   1      34.620  21.935  26.852  1.00  0.00     0.014 A 
ATOM     17  C   UNL A   1      34.355  22.683  24.574  1.00  0.00     0.022 A 
ATOM     18  C   UNL A   1      33.962  23.083  27.300  1.00  0.00     0.001 A 
ATOM     19  C   UNL A   1      33.511  24.039  26.386  1.00  0.00     0.009 A 
BRANCH  15  20
ATOM     20  C   UNL A   1      35.496  20.494  25.034  1.00  0.00     0.251 C 
ATOM     21  C   UNL A   1      33.335  19.183  24.687  1.00  0.00     0.143 C 
ATOM     22  N   UNL A   1      34.767  19.357  24.794  1.00  0.00    -0.355 N 
ATOM     23  H   UNL A   1      35.297  18.536  24.675  1.00  0.00     0.163 HD
ATOM     24  O   UNL A   1      36.713  20.480  24.872  1.00  0.00    -0.269 OA
ENDBRANCH  15  20
ENDBRANCH   9  14
BRANCH  13  25
ATOM     25  O   UNL A   1      31.262  27.471  21.573  1.00  0.00    -0.493 OA
ATOM     26  H   UNL A   1      30.398  27.238  21.294  1.00  0.00     0.295 HD
ENDBRANCH  13  25
ENDBRANCH   5   8
ENDBRANCH   3   4
ENDBRANCH   2   3
ENDBRANCH   1   2
BRANCH   1  27
ATOM     27  C   UNL A   1      33.120  32.254  27.416  1.00  0.00     0.116 C 
BRANCH  27  28
ATOM     28  N   UNL A   1      32.681  33.619  27.663  1.00  0.00    -0.352 N 
ATOM     29  C   UNL A   1      33.179  34.524  28.575  1.00  0.00     0.251 C 
ATOM     30  H   UNL A   1      31.932  33.937  27.108  1.00  0.00     0.163 HD
ATOM     31  O   UNL A   1      32.637  35.605  28.734  1.00  0.00    -0.269 OA
BRANCH  29  32
ATOM     32  C   UNL A   1      34.353  34.145  29.392  1.00  0.00     0.039 A 
ATOM     33  C   UNL A   1      34.138  33.505  30.615  1.00  0.00     0.014 A 
ATOM     34  C   UNL A   1      35.650  34.374  28.929  1.00  0.00     0.014 A 
ATOM     35  C   UNL A   1      35.230  33.025  31.342  1.00  0.00     0.010 A 
ATOM     36  C   UNL A   1      36.731  33.840  29.622  1.00  0.00     0.010 A 
ATOM     37  C   UNL A   1      36.532  33.154  30.829  1.00  0.00    -0.014 A 
BRANCH  37  38
ATOM     38  C   UNL A   1      37.694  32.539  31.518  1.00  0.00     0.031 A 
ATOM     39  C   UNL A   1      38.432  31.393  30.886  1.00  0.00     0.074 A 
ATOM     40  C   UNL A   1      38.012  32.945  32.763  1.00  0.00     0.049 A 
ATOM     41  N   UNL A   1      39.421  30.685  31.368  1.00  0.00    -0.248 NA
ATOM     42  C   UNL A   1      37.985  30.966  29.549  1.00  0.00     0.031 C 
ATOM     43  C   UNL A   1      37.312  33.986  33.519  1.00  0.00     0.029 A 
ATOM     44  N   UNL A   1      38.985  32.508  33.627  1.00  0.00    -0.354 N 
ATOM     45  C   UNL A   1      39.690  29.710  30.416  1.00  0.00     0.074 A 
ATOM     46  C   UNL A   1      38.743  29.899  29.338  1.00  0.00     0.031 C 
ATOM     47  C   UNL A   1      37.873  34.104  34.733  1.00  0.00     0.029 A 
ATOM     48  C   UNL A   1      38.957  33.133  34.852  1.00  0.00     0.049 A 
ATOM     49  H   UNL A   1      39.641  31.812  33.393  1.00  0.00     0.167 HD
ATOM     50  C   UNL A   1      40.658  28.764  30.423  1.00  0.00     0.034 A 
ATOM     51  C   UNL A   1      39.714  32.943  35.950  1.00  0.00     0.034 A 
ATOM     52  C   UNL A   1      41.633  28.616  31.470  1.00  0.00     0.049 A 
ATOM     53  C   UNL A   1      40.821  31.923  35.907  1.00  0.00     0.074 A 
ATOM     54  C   UNL A   1      42.718  27.759  31.519  1.00  0.00     0.029 A 
ATOM     55  N   UNL A   1      41.640  29.339  32.652  1.00  0.00    -0.354 N 
ATOM     56  N   UNL A   1      41.173  31.133  34.923  1.00  0.00    -0.248 NA
ATOM     57  C   UNL A   1      41.654  31.794  37.111  1.00  0.00     0.031 C 
ATOM     58  C   UNL A   1      43.374  27.956  32.739  1.00  0.00     0.029 A 
ATOM     59  C   UNL A   1      42.705  28.944  33.442  1.00  0.00     0.049 A 
ATOM     60  H   UNL A   1      40.985  30.033  32.894  1.00  0.00     0.167 HD
ATOM     61  C   UNL A   1      42.288  30.435  35.377  1.00  0.00     0.074 A 
ATOM     62  C   UNL A   1      42.565  30.915  36.715  1.00  0.00     0.031 C 
ATOM     63  C   UNL A   1      43.004  29.470  34.749  1.00  0.00     0.034 A 
BRANCH  50  64
ATOM     64  C   UNL A   1      40.757  27.852  29.229  1.00  0.00     0.023 A 
ATOM     65  C   UNL A   1      39.915  26.724  29.153  1.00  0.00     0.012 A 
ATOM     66  C   UNL A   1      41.623  28.145  28.159  1.00  0.00     0.148 A 
ATOM     67  C   UNL A   1      39.952  25.885  28.041  1.00  0.00     0.002 A 
ATOM     68  C   UNL A   1      41.626  27.325  27.036  1.00  0.00     0.091 A 
ATOM     69  F   UNL A   1      42.431  29.209  28.261  1.00  0.00    -0.205 F 
ATOM     70  C   UNL A   1      40.799  26.190  26.979  1.00  0.00     0.022 A 
BRANCH  68  71
ATOM     71  S   UNL A   1      42.627  27.673  25.585  1.00  0.00     0.127 S 
ATOM     72  O   UNL A   1      41.998  28.891  25.077  1.00  0.00    -0.237 OA
ATOM     73  O   UNL A   1      43.956  27.870  26.166  1.00  0.00    -0.237 OA
ATOM     74  O   UNL A   1      42.507  26.503  24.726  1.00  0.00    -0.744 OA
ENDBRANCH  68  71
ENDBRANCH  50  64
BRANCH  51  75
ATOM     75  C   UNL A   1      39.501  33.790  37.158  1.00  0.00     0.023 A 
ATOM     76  C   UNL A   1      39.960  35.121  37.156  1.00  0.00     0.012 A 
ATOM     77  C   UNL A   1      38.824  33.299  38.291  1.00  0.00     0.148 A 
ATOM     78  C   UNL A   1      39.777  35.939  38.271  1.00  0.00     0.002 A 
ATOM     79  C   UNL A   1      38.597  34.136  39.378  1.00  0.00     0.091 A 
ATOM     80  F   UNL A   1      38.408  32.025  38.282  1.00  0.00    -0.205 F 
ATOM     81  C   UNL A   1      39.087  35.451  39.377  1.00  0.00     0.022 A 
BRANCH  79  82
ATOM     82  S   UNL A   1      37.600  33.625  40.782  1.00  0.00     0.127 S 
ATOM     83  O   UNL A   1      36.409  33.091  40.127  1.00  0.00    -0.237 OA
ATOM     84  O   UNL A   1      38.454  32.622  41.419  1.00  0.00    -0.237 OA
ATOM     85  O   UNL A   1      37.406  34.831  41.576  1.00  0.00    -0.744 OA
ENDBRANCH  79  82
ENDBRANCH  51  75
BRANCH  63  86
ATOM     86  C   UNL A   1      44.173  28.877  35.487  1.00  0.00     0.023 A 
ATOM     87  C   UNL A   1      45.452  29.450  35.337  1.00  0.00     0.012 A 
ATOM     88  C   UNL A   1      43.993  27.810  36.390  1.00  0.00     0.148 A 
ATOM     89  C   UNL A   1      46.539  28.952  36.054  1.00  0.00     0.002 A 
ATOM     90  C   UNL A   1      45.072  27.349  37.134  1.00  0.00     0.091 A 
ATOM     91  F   UNL A   1      42.772  27.267  36.503  1.00  0.00    -0.205 F 
ATOM     92  C   UNL A   1      46.347  27.911  36.961  1.00  0.00     0.022 A 
BRANCH  90  93
ATOM     93  S   UNL A   1      44.897  26.076  38.390  1.00  0.00     0.127 S 
ATOM     94  O   UNL A   1      46.286  25.863  38.793  1.00  0.00    -0.237 OA
ATOM     95  O   UNL A   1      44.066  26.742  39.395  1.00  0.00    -0.237 OA
ATOM     96  O   UNL A   1      44.254  24.949  37.729  1.00  0.00    -0.744 OA
ENDBRANCH  90  93
ENDBRANCH  63  86
ENDBRANCH  37  38
ENDBRANCH  29  32
ENDBRANCH  27  28
ENDBRANCH   1  27
TORSDOF 17
ENDMDL
