MODEL 1
REMARK VINA RESULT:     -13.1      0.000      0.000
REMARK SMILES Cc1ccccc1/C=C1\SC(=O)N(CC(=O)Nc2ccccc2C(=O)NCCCCNC(=O)c2ccc(-c3c4nc(c(-c5cccc(S(=O)(=O)[O-])c5F)c5ccc([nH]5)c(-c5cccc(S(=O)(=O)[O-])c5F)c5nc(c(-c6cccc(S(=O)(=O)[O-])c6F)c6ccc3[nH]6)C=C5)C=C4)cc2)C1=O
REMARK SMILES IDX 28 1 27 2 26 3 24 4 25 5 23 7 18 8 19 9 20 10 22 11 21 12
REMARK SMILES IDX 17 13 15 14 16 15 14 17 13 18 8 19 9 20 10 21 97 22 11 23
REMARK SMILES IDX 98 24 12 25 7 26 1 27 2 28 3 29 4 30 6 31 5 32 29 33 30 34
REMARK SMILES IDX 31 35 32 36 33 38 34 39 35 40 96 41 36 42 95 43 37 44 38 45
REMARK SMILES IDX 39 46 89 47 40 48 94 49 88 50 90 51 41 52 93 53 87 54 86 55
REMARK SMILES IDX 42 57 74 58 54 59 73 60 55 61 58 62 72 63 91 64 56 65 57 66
REMARK SMILES IDX 71 68 92 69 59 70 43 71 44 72 52 73 45 74 47 75 53 76 46 77
REMARK SMILES IDX 48 78 49 79 50 80 51 81 75 82 76 83 84 84 77 85 79 86 85 87
REMARK SMILES IDX 78 88 80 89 81 90 82 91 83 92 60 93 61 94 69 95 62 96 64 97
REMARK SMILES IDX 70 98 63 99 65 100 66 101 67 102 68 103
REMARK H PARENT 26 6 17 16 31 37 90 56 58 67
REMARK Flexibility Score: inf
ROOT
ATOM      1  C   UNL A   1      38.918  22.294  26.071  1.00  0.00     0.023 C 
ENDROOT
BRANCH   1   2
ATOM      2  C   UNL A   1      37.497  21.852  25.680  1.00  0.00     0.116 C 
BRANCH   2   3
ATOM      3  N   UNL A   1      36.372  22.733  26.007  1.00  0.00    -0.352 N 
ATOM      4  C   UNL A   1      34.991  22.592  26.041  1.00  0.00     0.253 C 
ATOM      5  O   UNL A   1      34.331  23.506  26.533  1.00  0.00    -0.269 OA
ATOM      6  H   UNL A   1      36.664  23.638  26.262  1.00  0.00     0.163 HD
BRANCH   4   7
ATOM      7  C   UNL A   1      34.250  21.419  25.507  1.00  0.00     0.063 A 
ATOM      8  C   UNL A   1      32.857  21.222  25.679  1.00  0.00     0.054 A 
ATOM      9  C   UNL A   1      32.283  20.004  25.251  1.00  0.00     0.027 A 
ATOM     10  C   UNL A   1      33.043  19.000  24.655  1.00  0.00     0.002 A 
ATOM     11  C   UNL A   1      35.005  20.336  25.021  1.00  0.00     0.016 A 
ATOM     12  C   UNL A   1      34.413  19.160  24.558  1.00  0.00     0.001 A 
BRANCH   8  13
ATOM     13  N   UNL A   1      31.996  21.947  26.529  1.00  0.00    -0.324 N 
ATOM     14  C   UNL A   1      31.015  22.865  26.336  1.00  0.00     0.244 C 
ATOM     15  O   UNL A   1      30.276  23.082  27.308  1.00  0.00    -0.273 OA
ATOM     16  H   UNL A   1      32.139  21.738  27.481  1.00  0.00     0.170 HD
BRANCH  14  17
ATOM     17  C   UNL A   1      30.696  23.512  25.001  1.00  0.00     0.230 C 
BRANCH  17  18
ATOM     18  N   UNL A   1      31.228  24.838  24.858  1.00  0.00    -0.259 N 
ATOM     19  C   UNL A   1      31.548  28.018  26.191  1.00  0.00     0.029 C 
ATOM     20  C   UNL A   1      31.492  27.117  25.205  1.00  0.00     0.083 C 
ATOM     21  S   UNL A   1      32.607  26.782  23.961  1.00  0.00    -0.022 SA
ATOM     22  C   UNL A   1      30.569  25.957  25.329  1.00  0.00     0.268 C 
ATOM     23  C   UNL A   1      32.296  25.070  24.051  1.00  0.00     0.294 C 
ATOM     24  O   UNL A   1      29.434  26.014  25.770  1.00  0.00    -0.268 OA
ATOM     25  O   UNL A   1      32.946  24.238  23.423  1.00  0.00    -0.261 OA
BRANCH  19  26
ATOM     26  C   UNL A   1      32.628  28.947  26.574  1.00  0.00    -0.021 A 
ATOM     27  C   UNL A   1      31.391  31.190  26.265  1.00  0.00     0.045 C 
ATOM     28  C   UNL A   1      32.540  30.340  26.721  1.00  0.00    -0.044 A 
ATOM     29  C   UNL A   1      33.626  31.016  27.297  1.00  0.00     0.004 A 
ATOM     30  C   UNL A   1      34.804  30.357  27.641  1.00  0.00     0.000 A 
ATOM     31  C   UNL A   1      33.844  28.301  26.907  1.00  0.00     0.008 A 
ATOM     32  C   UNL A   1      34.931  29.001  27.414  1.00  0.00     0.001 A 
ENDBRANCH  19  26
ENDBRANCH  17  18
ENDBRANCH  14  17
ENDBRANCH   8  13
ENDBRANCH   4   7
ENDBRANCH   2   3
ENDBRANCH   1   2
BRANCH   1  33
ATOM     33  C   UNL A   1      40.013  21.267  26.396  1.00  0.00     0.023 C 
BRANCH  33  34
ATOM     34  C   UNL A   1      40.806  21.490  27.666  1.00  0.00     0.116 C 
BRANCH  34  35
ATOM     35  N   UNL A   1      42.226  21.768  27.436  1.00  0.00    -0.352 N 
ATOM     36  C   UNL A   1      42.799  22.921  26.895  1.00  0.00     0.251 C 
ATOM     37  H   UNL A   1      42.853  21.054  27.694  1.00  0.00     0.163 HD
ATOM     38  O   UNL A   1      43.917  22.850  26.397  1.00  0.00    -0.269 OA
BRANCH  36  39
ATOM     39  C   UNL A   1      42.056  24.205  26.980  1.00  0.00     0.039 A 
ATOM     40  C   UNL A   1      41.843  25.123  25.941  1.00  0.00     0.014 A 
ATOM     41  C   UNL A   1      41.793  24.657  28.252  1.00  0.00     0.014 A 
ATOM     42  C   UNL A   1      41.590  26.477  26.289  1.00  0.00     0.010 A 
ATOM     43  C   UNL A   1      40.942  25.698  28.380  1.00  0.00     0.010 A 
ATOM     44  C   UNL A   1      41.375  26.756  27.626  1.00  0.00    -0.014 A 
BRANCH  44  45
ATOM     45  C   UNL A   1      41.463  27.948  28.455  1.00  0.00     0.031 A 
ATOM     46  C   UNL A   1      40.411  28.972  28.374  1.00  0.00     0.074 A 
ATOM     47  C   UNL A   1      42.156  27.791  29.616  1.00  0.00     0.049 A 
ATOM     48  N   UNL A   1      40.359  30.001  29.140  1.00  0.00    -0.248 NA
ATOM     49  C   UNL A   1      39.275  28.865  27.473  1.00  0.00     0.031 C 
ATOM     50  C   UNL A   1      41.957  28.422  30.920  1.00  0.00     0.029 A 
ATOM     51  N   UNL A   1      43.266  26.974  29.840  1.00  0.00    -0.354 N 
ATOM     52  C   UNL A   1      39.097  30.544  29.044  1.00  0.00     0.074 A 
ATOM     53  C   UNL A   1      38.493  29.849  27.932  1.00  0.00     0.031 C 
ATOM     54  C   UNL A   1      43.035  28.199  31.694  1.00  0.00     0.029 A 
ATOM     55  C   UNL A   1      44.036  27.577  30.851  1.00  0.00     0.049 A 
ATOM     56  H   UNL A   1      43.472  26.131  29.375  1.00  0.00     0.167 HD
ATOM     57  C   UNL A   1      38.709  31.433  30.005  1.00  0.00     0.034 A 
ATOM     58  C   UNL A   1      45.234  28.128  30.484  1.00  0.00     0.034 A 
ATOM     59  C   UNL A   1      39.844  31.727  30.915  1.00  0.00     0.049 A 
ATOM     60  C   UNL A   1      45.195  29.653  30.497  1.00  0.00     0.074 A 
ATOM     61  C   UNL A   1      40.202  31.354  32.200  1.00  0.00     0.029 A 
ATOM     62  N   UNL A   1      40.983  32.299  30.368  1.00  0.00    -0.354 N 
ATOM     63  N   UNL A   1      44.209  30.377  30.961  1.00  0.00    -0.248 NA
ATOM     64  C   UNL A   1      46.253  30.477  29.919  1.00  0.00     0.031 C 
ATOM     65  C   UNL A   1      41.602  31.623  32.365  1.00  0.00     0.029 A 
ATOM     66  C   UNL A   1      42.084  32.204  31.202  1.00  0.00     0.049 A 
ATOM     67  H   UNL A   1      41.005  32.726  29.481  1.00  0.00     0.167 HD
ATOM     68  C   UNL A   1      44.366  31.679  30.562  1.00  0.00     0.074 A 
ATOM     69  C   UNL A   1      45.692  31.697  29.956  1.00  0.00     0.031 C 
ATOM     70  C   UNL A   1      43.390  32.638  30.693  1.00  0.00     0.034 A 
BRANCH  57  71
ATOM     71  C   UNL A   1      37.301  31.965  30.265  1.00  0.00     0.023 A 
ATOM     72  C   UNL A   1      36.618  31.430  31.384  1.00  0.00     0.012 A 
ATOM     73  C   UNL A   1      36.566  32.907  29.501  1.00  0.00     0.148 A 
ATOM     74  C   UNL A   1      35.291  31.759  31.696  1.00  0.00     0.002 A 
ATOM     75  C   UNL A   1      35.238  33.235  29.808  1.00  0.00     0.091 A 
ATOM     76  F   UNL A   1      37.132  33.524  28.469  1.00  0.00    -0.205 F 
ATOM     77  C   UNL A   1      34.596  32.654  30.901  1.00  0.00     0.022 A 
BRANCH  75  78
ATOM     78  S   UNL A   1      34.255  34.385  28.820  1.00  0.00     0.127 S 
ATOM     79  O   UNL A   1      32.902  33.856  28.994  1.00  0.00    -0.237 OA
ATOM     80  O   UNL A   1      34.497  35.661  29.493  1.00  0.00    -0.237 OA
ATOM     81  O   UNL A   1      34.764  34.305  27.457  1.00  0.00    -0.744 OA
ENDBRANCH  75  78
ENDBRANCH  57  71
BRANCH  58  82
ATOM     82  C   UNL A   1      45.898  27.249  29.448  1.00  0.00     0.023 A 
ATOM     83  C   UNL A   1      46.100  25.894  29.828  1.00  0.00     0.012 A 
ATOM     84  C   UNL A   1      45.805  27.549  28.076  1.00  0.00     0.148 A 
ATOM     85  C   UNL A   1      45.964  24.862  28.893  1.00  0.00     0.002 A 
ATOM     86  C   UNL A   1      45.713  26.513  27.146  1.00  0.00     0.091 A 
ATOM     87  F   UNL A   1      45.723  28.832  27.699  1.00  0.00    -0.205 F 
ATOM     88  C   UNL A   1      45.720  25.172  27.559  1.00  0.00     0.022 A 
BRANCH  86  89
ATOM     89  S   UNL A   1      45.510  26.879  25.397  1.00  0.00     0.127 S 
ATOM     90  O   UNL A   1      45.114  25.577  24.869  1.00  0.00    -0.237 OA
ATOM     91  O   UNL A   1      44.448  27.885  25.380  1.00  0.00    -0.237 OA
ATOM     92  O   UNL A   1      46.809  27.379  24.966  1.00  0.00    -0.744 OA
ENDBRANCH  86  89
ENDBRANCH  58  82
BRANCH  70  93
ATOM     93  C   UNL A   1      43.623  34.098  30.320  1.00  0.00     0.023 A 
ATOM     94  C   UNL A   1      43.637  35.088  31.324  1.00  0.00     0.012 A 
ATOM     95  C   UNL A   1      43.703  34.561  28.981  1.00  0.00     0.148 A 
ATOM     96  C   UNL A   1      43.838  36.442  31.031  1.00  0.00     0.002 A 
ATOM     97  C   UNL A   1      43.789  35.918  28.687  1.00  0.00     0.091 A 
ATOM     98  F   UNL A   1      43.738  33.691  27.968  1.00  0.00    -0.205 F 
ATOM     99  C   UNL A   1      43.904  36.859  29.711  1.00  0.00     0.022 A 
BRANCH  97 100
ATOM    100  S   UNL A   1      43.641  36.555  27.010  1.00  0.00     0.127 S 
ATOM    101  O   UNL A   1      44.865  36.039  26.392  1.00  0.00    -0.237 OA
ATOM    102  O   UNL A   1      42.410  35.913  26.553  1.00  0.00    -0.237 OA
ATOM    103  O   UNL A   1      43.590  38.005  27.127  1.00  0.00    -0.744 OA
ENDBRANCH  97 100
ENDBRANCH  70  93
ENDBRANCH  44  45
ENDBRANCH  36  39
ENDBRANCH  34  35
ENDBRANCH  33  34
ENDBRANCH   1  33
TORSDOF 18
ENDMDL
MODEL 2
REMARK VINA RESULT:     -12.8      3.972      9.726
REMARK SMILES Cc1ccccc1/C=C1\SC(=O)N(CC(=O)Nc2ccccc2C(=O)NCCCCNC(=O)c2ccc(-c3c4nc(c(-c5cccc(S(=O)(=O)[O-])c5F)c5ccc([nH]5)c(-c5cccc(S(=O)(=O)[O-])c5F)c5nc(c(-c6cccc(S(=O)(=O)[O-])c6F)c6ccc3[nH]6)C=C5)C=C4)cc2)C1=O
REMARK SMILES IDX 28 1 27 2 26 3 24 4 25 5 23 7 18 8 19 9 20 10 22 11 21 12
REMARK SMILES IDX 17 13 15 14 16 15 14 17 13 18 8 19 9 20 10 21 97 22 11 23
REMARK SMILES IDX 98 24 12 25 7 26 1 27 2 28 3 29 4 30 6 31 5 32 29 33 30 34
REMARK SMILES IDX 31 35 32 36 33 38 34 39 35 40 96 41 36 42 95 43 37 44 38 45
REMARK SMILES IDX 39 46 89 47 40 48 94 49 88 50 90 51 41 52 93 53 87 54 86 55
REMARK SMILES IDX 42 57 74 58 54 59 73 60 55 61 58 62 72 63 91 64 56 65 57 66
REMARK SMILES IDX 71 68 92 69 59 70 43 71 44 72 52 73 45 74 47 75 53 76 46 77
REMARK SMILES IDX 48 78 49 79 50 80 51 81 75 82 76 83 84 84 77 85 79 86 85 87
REMARK SMILES IDX 78 88 80 89 81 90 82 91 83 92 60 93 61 94 69 95 62 96 64 97
REMARK SMILES IDX 70 98 63 99 65 100 66 101 67 102 68 103
REMARK H PARENT 26 6 17 16 31 37 90 56 58 67
REMARK Flexibility Score: inf
ROOT
ATOM      1  C   UNL A   1      33.118  29.220  26.758  1.00  0.00     0.023 C 
ENDROOT
BRANCH   1   2
ATOM      2  C   UNL A   1      32.938  29.713  25.311  1.00  0.00     0.116 C 
BRANCH   2   3
ATOM      3  N   UNL A   1      33.033  28.739  24.220  1.00  0.00    -0.352 N 
ATOM      4  C   UNL A   1      32.135  28.182  23.320  1.00  0.00     0.253 C 
ATOM      5  O   UNL A   1      32.590  27.500  22.401  1.00  0.00    -0.269 OA
ATOM      6  H   UNL A   1      33.949  28.399  24.097  1.00  0.00     0.163 HD
BRANCH   4   7
ATOM      7  C   UNL A   1      30.659  28.334  23.397  1.00  0.00     0.063 A 
ATOM      8  C   UNL A   1      29.759  27.246  23.525  1.00  0.00     0.054 A 
ATOM      9  C   UNL A   1      28.371  27.497  23.447  1.00  0.00     0.027 A 
ATOM     10  C   UNL A   1      27.863  28.781  23.263  1.00  0.00     0.002 A 
ATOM     11  C   UNL A   1      30.116  29.594  23.083  1.00  0.00     0.016 A 
ATOM     12  C   UNL A   1      28.740  29.830  23.059  1.00  0.00     0.001 A 
BRANCH   8  13
ATOM     13  N   UNL A   1      30.062  25.875  23.390  1.00  0.00    -0.324 N 
ATOM     14  C   UNL A   1      30.840  24.998  24.074  1.00  0.00     0.244 C 
ATOM     15  O   UNL A   1      30.646  23.797  23.832  1.00  0.00    -0.273 OA
ATOM     16  H   UNL A   1      29.602  25.459  22.626  1.00  0.00     0.170 HD
BRANCH  14  17
ATOM     17  C   UNL A   1      31.802  25.387  25.182  1.00  0.00     0.230 C 
BRANCH  17  18
ATOM     18  N   UNL A   1      32.865  24.443  25.384  1.00  0.00    -0.259 N 
ATOM     19  C   UNL A   1      36.187  23.623  24.849  1.00  0.00     0.029 C 
ATOM     20  C   UNL A   1      34.893  23.362  25.069  1.00  0.00     0.083 C 
ATOM     21  S   UNL A   1      34.154  22.446  26.300  1.00  0.00    -0.022 SA
ATOM     22  C   UNL A   1      33.859  24.233  24.448  1.00  0.00     0.268 C 
ATOM     23  C   UNL A   1      32.810  23.551  26.408  1.00  0.00     0.294 C 
ATOM     24  O   UNL A   1      33.905  24.667  23.310  1.00  0.00    -0.268 OA
ATOM     25  O   UNL A   1      31.944  23.468  27.274  1.00  0.00    -0.261 OA
BRANCH  19  26
ATOM     26  C   UNL A   1      37.378  23.280  25.649  1.00  0.00    -0.021 A 
ATOM     27  C   UNL A   1      37.624  20.794  25.004  1.00  0.00     0.045 C 
ATOM     28  C   UNL A   1      38.090  22.071  25.639  1.00  0.00    -0.044 A 
ATOM     29  C   UNL A   1      39.318  22.019  26.316  1.00  0.00     0.004 A 
ATOM     30  C   UNL A   1      39.797  23.098  27.054  1.00  0.00     0.000 A 
ATOM     31  C   UNL A   1      37.871  24.357  26.427  1.00  0.00     0.008 A 
ATOM     32  C   UNL A   1      39.058  24.260  27.143  1.00  0.00     0.001 A 
ENDBRANCH  19  26
ENDBRANCH  17  18
ENDBRANCH  14  17
ENDBRANCH   8  13
ENDBRANCH   4   7
ENDBRANCH   2   3
ENDBRANCH   1   2
BRANCH   1  33
ATOM     33  C   UNL A   1      34.507  29.142  27.409  1.00  0.00     0.023 C 
BRANCH  33  34
ATOM     34  C   UNL A   1      35.269  30.441  27.558  1.00  0.00     0.116 C 
BRANCH  34  35
ATOM     35  N   UNL A   1      34.448  31.556  28.036  1.00  0.00    -0.352 N 
ATOM     36  C   UNL A   1      34.670  32.373  29.147  1.00  0.00     0.251 C 
ATOM     37  H   UNL A   1      33.639  31.754  27.510  1.00  0.00     0.163 HD
ATOM     38  O   UNL A   1      33.722  32.970  29.643  1.00  0.00    -0.269 OA
BRANCH  36  39
ATOM     39  C   UNL A   1      36.055  32.527  29.663  1.00  0.00     0.039 A 
ATOM     40  C   UNL A   1      37.080  33.302  29.101  1.00  0.00     0.014 A 
ATOM     41  C   UNL A   1      36.440  31.615  30.617  1.00  0.00     0.014 A 
ATOM     42  C   UNL A   1      38.423  32.945  29.391  1.00  0.00     0.010 A 
ATOM     43  C   UNL A   1      37.602  31.843  31.265  1.00  0.00     0.010 A 
ATOM     44  C   UNL A   1      38.624  31.983  30.365  1.00  0.00    -0.014 A 
BRANCH  44  45
ATOM     45  C   UNL A   1      39.708  31.074  30.704  1.00  0.00     0.031 A 
ATOM     46  C   UNL A   1      39.850  29.805  29.977  1.00  0.00     0.074 A 
ATOM     47  C   UNL A   1      40.811  31.668  31.236  1.00  0.00     0.049 A 
ATOM     48  N   UNL A   1      40.833  28.995  30.141  1.00  0.00    -0.248 NA
ATOM     49  C   UNL A   1      38.931  29.390  28.928  1.00  0.00     0.031 C 
ATOM     50  C   UNL A   1      42.222  31.307  31.111  1.00  0.00     0.029 A 
ATOM     51  N   UNL A   1      40.856  32.791  32.064  1.00  0.00    -0.354 N 
ATOM     52  C   UNL A   1      40.845  28.114  29.083  1.00  0.00     0.074 A 
ATOM     53  C   UNL A   1      39.593  28.352  28.405  1.00  0.00     0.031 C 
ATOM     54  C   UNL A   1      42.940  31.985  32.024  1.00  0.00     0.029 A 
ATOM     55  C   UNL A   1      41.992  32.664  32.885  1.00  0.00     0.049 A 
ATOM     56  H   UNL A   1      40.212  33.535  32.073  1.00  0.00     0.167 HD
ATOM     57  C   UNL A   1      41.981  27.384  28.874  1.00  0.00     0.034 A 
ATOM     58  C   UNL A   1      41.781  32.403  34.213  1.00  0.00     0.034 A 
ATOM     59  C   UNL A   1      42.951  27.626  29.970  1.00  0.00     0.049 A 
ATOM     60  C   UNL A   1      42.146  30.969  34.584  1.00  0.00     0.074 A 
ATOM     61  C   UNL A   1      44.120  28.355  30.112  1.00  0.00     0.029 A 
ATOM     62  N   UNL A   1      42.570  27.289  31.260  1.00  0.00    -0.354 N 
ATOM     63  N   UNL A   1      42.750  30.118  33.795  1.00  0.00    -0.248 NA
ATOM     64  C   UNL A   1      41.792  30.368  35.866  1.00  0.00     0.031 C 
ATOM     65  C   UNL A   1      44.364  28.530  31.515  1.00  0.00     0.029 A 
ATOM     66  C   UNL A   1      43.375  27.868  32.226  1.00  0.00     0.049 A 
ATOM     67  H   UNL A   1      41.806  26.703  31.467  1.00  0.00     0.167 HD
ATOM     68  C   UNL A   1      42.666  28.857  34.326  1.00  0.00     0.074 A 
ATOM     69  C   UNL A   1      42.101  29.078  35.652  1.00  0.00     0.031 C 
ATOM     70  C   UNL A   1      43.001  27.716  33.637  1.00  0.00     0.034 A 
BRANCH  57  71
ATOM     71  C   UNL A   1      42.335  26.550  27.644  1.00  0.00     0.023 A 
ATOM     72  C   UNL A   1      42.159  27.172  26.384  1.00  0.00     0.012 A 
ATOM     73  C   UNL A   1      42.786  25.206  27.598  1.00  0.00     0.148 A 
ATOM     74  C   UNL A   1      42.362  26.503  25.169  1.00  0.00     0.002 A 
ATOM     75  C   UNL A   1      42.985  24.533  26.384  1.00  0.00     0.091 A 
ATOM     76  F   UNL A   1      43.050  24.547  28.721  1.00  0.00    -0.205 F 
ATOM     77  C   UNL A   1      42.765  25.178  25.168  1.00  0.00     0.022 A 
BRANCH  75  78
ATOM     78  S   UNL A   1      43.501  22.803  26.292  1.00  0.00     0.127 S 
ATOM     79  O   UNL A   1      42.808  22.344  25.088  1.00  0.00    -0.237 OA
ATOM     80  O   UNL A   1      44.952  22.918  26.149  1.00  0.00    -0.237 OA
ATOM     81  O   UNL A   1      43.054  22.168  27.525  1.00  0.00    -0.744 OA
ENDBRANCH  75  78
ENDBRANCH  57  71
BRANCH  58  82
ATOM     82  C   UNL A   1      40.580  33.184  34.696  1.00  0.00     0.023 A 
ATOM     83  C   UNL A   1      39.326  32.526  34.573  1.00  0.00     0.012 A 
ATOM     84  C   UNL A   1      40.714  34.186  35.676  1.00  0.00     0.148 A 
ATOM     85  C   UNL A   1      38.337  32.687  35.549  1.00  0.00     0.002 A 
ATOM     86  C   UNL A   1      39.702  34.370  36.620  1.00  0.00     0.091 A 
ATOM     87  F   UNL A   1      41.853  34.888  35.732  1.00  0.00    -0.205 F 
ATOM     88  C   UNL A   1      38.547  33.573  36.601  1.00  0.00     0.022 A 
BRANCH  86  89
ATOM     89  S   UNL A   1      39.893  35.587  37.929  1.00  0.00     0.127 S 
ATOM     90  O   UNL A   1      41.220  35.261  38.442  1.00  0.00    -0.237 OA
ATOM     91  O   UNL A   1      39.818  36.865  37.221  1.00  0.00    -0.237 OA
ATOM     92  O   UNL A   1      38.777  35.342  38.834  1.00  0.00    -0.744 OA
ENDBRANCH  86  89
ENDBRANCH  58  82
BRANCH  70  93
ATOM     93  C   UNL A   1      42.980  26.335  34.282  1.00  0.00     0.023 A 
ATOM     94  C   UNL A   1      41.841  25.908  34.996  1.00  0.00     0.012 A 
ATOM     95  C   UNL A   1      44.106  25.472  34.322  1.00  0.00     0.148 A 
ATOM     96  C   UNL A   1      41.777  24.653  35.612  1.00  0.00     0.002 A 
ATOM     97  C   UNL A   1      44.077  24.275  35.031  1.00  0.00     0.091 A 
ATOM     98  F   UNL A   1      45.213  25.777  33.642  1.00  0.00    -0.205 F 
ATOM     99  C   UNL A   1      42.899  23.840  35.639  1.00  0.00     0.022 A 
BRANCH  97 100
ATOM    100  S   UNL A   1      45.552  23.283  35.313  1.00  0.00     0.127 S 
ATOM    101  O   UNL A   1      46.486  24.287  35.829  1.00  0.00    -0.237 OA
ATOM    102  O   UNL A   1      45.082  22.321  36.307  1.00  0.00    -0.237 OA
ATOM    103  O   UNL A   1      45.921  22.725  34.020  1.00  0.00    -0.744 OA
ENDBRANCH  97 100
ENDBRANCH  70  93
ENDBRANCH  44  45
ENDBRANCH  36  39
ENDBRANCH  34  35
ENDBRANCH  33  34
ENDBRANCH   1  33
TORSDOF 18
ENDMDL
MODEL 3
REMARK VINA RESULT:     -12.5      5.098      8.653
REMARK SMILES Cc1ccccc1/C=C1\SC(=O)N(CC(=O)Nc2ccccc2C(=O)NCCCCNC(=O)c2ccc(-c3c4nc(c(-c5cccc(S(=O)(=O)[O-])c5F)c5ccc([nH]5)c(-c5cccc(S(=O)(=O)[O-])c5F)c5nc(c(-c6cccc(S(=O)(=O)[O-])c6F)c6ccc3[nH]6)C=C5)C=C4)cc2)C1=O
REMARK SMILES IDX 28 1 27 2 26 3 24 4 25 5 23 7 18 8 19 9 20 10 22 11 21 12
REMARK SMILES IDX 17 13 15 14 16 15 14 17 13 18 8 19 9 20 10 21 97 22 11 23
REMARK SMILES IDX 98 24 12 25 7 26 1 27 2 28 3 29 4 30 6 31 5 32 29 33 30 34
REMARK SMILES IDX 31 35 32 36 33 38 34 39 35 40 96 41 36 42 95 43 37 44 38 45
REMARK SMILES IDX 39 46 89 47 40 48 94 49 88 50 90 51 41 52 93 53 87 54 86 55
REMARK SMILES IDX 42 57 74 58 54 59 73 60 55 61 58 62 72 63 91 64 56 65 57 66
REMARK SMILES IDX 71 68 92 69 59 70 43 71 44 72 52 73 45 74 47 75 53 76 46 77
REMARK SMILES IDX 48 78 49 79 50 80 51 81 75 82 76 83 84 84 77 85 79 86 85 87
REMARK SMILES IDX 78 88 80 89 81 90 82 91 83 92 60 93 61 94 69 95 62 96 64 97
REMARK SMILES IDX 70 98 63 99 65 100 66 101 67 102 68 103
REMARK H PARENT 26 6 17 16 31 37 90 56 58 67
REMARK Flexibility Score: inf
ROOT
ATOM      1  C   UNL A   1      33.018  30.115  27.252  1.00  0.00     0.023 C 
ENDROOT
BRANCH   1   2
ATOM      2  C   UNL A   1      32.110  30.377  26.037  1.00  0.00     0.116 C 
BRANCH   2   3
ATOM      3  N   UNL A   1      32.398  29.679  24.781  1.00  0.00    -0.352 N 
ATOM      4  C   UNL A   1      31.654  29.312  23.667  1.00  0.00     0.253 C 
ATOM      5  O   UNL A   1      32.259  28.871  22.690  1.00  0.00    -0.269 OA
ATOM      6  H   UNL A   1      33.341  29.404  24.710  1.00  0.00     0.163 HD
BRANCH   4   7
ATOM      7  C   UNL A   1      30.173  29.397  23.578  1.00  0.00     0.063 A 
ATOM      8  C   UNL A   1      29.323  28.267  23.473  1.00  0.00     0.054 A 
ATOM      9  C   UNL A   1      27.943  28.471  23.252  1.00  0.00     0.027 A 
ATOM     10  C   UNL A   1      27.393  29.747  23.148  1.00  0.00     0.002 A 
ATOM     11  C   UNL A   1      29.605  30.662  23.338  1.00  0.00     0.016 A 
ATOM     12  C   UNL A   1      28.232  30.846  23.171  1.00  0.00     0.001 A 
BRANCH   8  13
ATOM     13  N   UNL A   1      29.711  26.934  23.227  1.00  0.00    -0.324 N 
ATOM     14  C   UNL A   1      30.247  25.941  23.983  1.00  0.00     0.244 C 
ATOM     15  O   UNL A   1      30.197  24.802  23.495  1.00  0.00    -0.273 OA
ATOM     16  H   UNL A   1      29.558  26.660  22.294  1.00  0.00     0.170 HD
BRANCH  14  17
ATOM     17  C   UNL A   1      30.756  26.121  25.400  1.00  0.00     0.230 C 
BRANCH  17  18
ATOM     18  N   UNL A   1      31.868  25.274  25.729  1.00  0.00    -0.259 N 
ATOM     19  C   UNL A   1      33.012  22.068  26.364  1.00  0.00     0.029 C 
ATOM     20  C   UNL A   1      33.024  23.402  26.463  1.00  0.00     0.083 C 
ATOM     21  S   UNL A   1      34.267  24.516  26.124  1.00  0.00    -0.022 SA
ATOM     22  C   UNL A   1      31.734  24.140  26.506  1.00  0.00     0.268 C 
ATOM     23  C   UNL A   1      33.141  25.678  25.477  1.00  0.00     0.294 C 
ATOM     24  O   UNL A   1      30.748  23.786  27.129  1.00  0.00    -0.268 OA
ATOM     25  O   UNL A   1      33.495  26.715  24.923  1.00  0.00    -0.261 OA
BRANCH  19  26
ATOM     26  C   UNL A   1      34.036  21.142  25.844  1.00  0.00    -0.021 A 
ATOM     27  C   UNL A   1      32.529  19.140  25.232  1.00  0.00     0.045 C 
ATOM     28  C   UNL A   1      33.825  19.894  25.237  1.00  0.00    -0.044 A 
ATOM     29  C   UNL A   1      34.916  19.264  24.620  1.00  0.00     0.004 A 
ATOM     30  C   UNL A   1      36.200  19.800  24.671  1.00  0.00     0.000 A 
ATOM     31  C   UNL A   1      35.354  21.657  25.906  1.00  0.00     0.008 A 
ATOM     32  C   UNL A   1      36.432  20.983  25.345  1.00  0.00     0.001 A 
ENDBRANCH  19  26
ENDBRANCH  17  18
ENDBRANCH  14  17
ENDBRANCH   8  13
ENDBRANCH   4   7
ENDBRANCH   2   3
ENDBRANCH   1   2
BRANCH   1  33
ATOM     33  C   UNL A   1      34.538  29.966  27.096  1.00  0.00     0.023 C 
BRANCH  33  34
ATOM     34  C   UNL A   1      35.399  31.068  27.675  1.00  0.00     0.116 C 
BRANCH  34  35
ATOM     35  N   UNL A   1      34.707  31.900  28.663  1.00  0.00    -0.352 N 
ATOM     36  C   UNL A   1      35.197  32.373  29.883  1.00  0.00     0.251 C 
ATOM     37  H   UNL A   1      33.783  32.158  28.440  1.00  0.00     0.163 HD
ATOM     38  O   UNL A   1      34.401  32.694  30.757  1.00  0.00    -0.269 OA
BRANCH  36  39
ATOM     39  C   UNL A   1      36.665  32.513  30.065  1.00  0.00     0.039 A 
ATOM     40  C   UNL A   1      37.580  31.485  30.334  1.00  0.00     0.014 A 
ATOM     41  C   UNL A   1      37.121  33.796  30.259  1.00  0.00     0.014 A 
ATOM     42  C   UNL A   1      38.800  31.828  30.976  1.00  0.00     0.010 A 
ATOM     43  C   UNL A   1      38.455  33.996  30.215  1.00  0.00     0.010 A 
ATOM     44  C   UNL A   1      39.085  33.175  31.111  1.00  0.00    -0.014 A 
BRANCH  44  45
ATOM     45  C   UNL A   1      39.948  33.961  31.979  1.00  0.00     0.031 A 
ATOM     46  C   UNL A   1      39.405  34.546  33.213  1.00  0.00     0.074 A 
ATOM     47  C   UNL A   1      41.270  33.643  31.915  1.00  0.00     0.049 A 
ATOM     48  N   UNL A   1      40.118  35.164  34.082  1.00  0.00    -0.248 NA
ATOM     49  C   UNL A   1      38.013  34.397  33.609  1.00  0.00     0.031 C 
ATOM     50  C   UNL A   1      42.294  33.676  32.958  1.00  0.00     0.029 A 
ATOM     51  N   UNL A   1      41.987  33.208  30.798  1.00  0.00    -0.354 N 
ATOM     52  C   UNL A   1      39.387  35.264  35.245  1.00  0.00     0.074 A 
ATOM     53  C   UNL A   1      38.058  34.845  34.869  1.00  0.00     0.031 C 
ATOM     54  C   UNL A   1      43.511  33.561  32.395  1.00  0.00     0.029 A 
ATOM     55  C   UNL A   1      43.318  33.635  30.960  1.00  0.00     0.049 A 
ATOM     56  H   UNL A   1      41.628  32.698  30.037  1.00  0.00     0.167 HD
ATOM     57  C   UNL A   1      40.055  35.582  36.393  1.00  0.00     0.034 A 
ATOM     58  C   UNL A   1      43.761  34.639  30.140  1.00  0.00     0.034 A 
ATOM     59  C   UNL A   1      41.474  35.892  36.089  1.00  0.00     0.049 A 
ATOM     60  C   UNL A   1      43.924  35.961  30.883  1.00  0.00     0.074 A 
ATOM     61  C   UNL A   1      42.682  35.231  36.236  1.00  0.00     0.029 A 
ATOM     62  N   UNL A   1      41.738  36.957  35.241  1.00  0.00    -0.354 N 
ATOM     63  N   UNL A   1      43.828  36.113  32.179  1.00  0.00    -0.248 NA
ATOM     64  C   UNL A   1      44.146  37.231  30.199  1.00  0.00     0.031 C 
ATOM     65  C   UNL A   1      43.640  35.867  35.376  1.00  0.00     0.029 A 
ATOM     66  C   UNL A   1      43.031  36.941  34.747  1.00  0.00     0.049 A 
ATOM     67  H   UNL A   1      41.076  37.649  35.014  1.00  0.00     0.167 HD
ATOM     68  C   UNL A   1      43.740  37.448  32.481  1.00  0.00     0.074 A 
ATOM     69  C   UNL A   1      43.998  38.107  31.207  1.00  0.00     0.031 C 
ATOM     70  C   UNL A   1      43.405  37.926  33.725  1.00  0.00     0.034 A 
BRANCH  57  71
ATOM     71  C   UNL A   1      39.531  35.499  37.826  1.00  0.00     0.023 A 
ATOM     72  C   UNL A   1      39.651  36.669  38.614  1.00  0.00     0.012 A 
ATOM     73  C   UNL A   1      38.968  34.378  38.488  1.00  0.00     0.148 A 
ATOM     74  C   UNL A   1      39.292  36.716  39.968  1.00  0.00     0.002 A 
ATOM     75  C   UNL A   1      38.613  34.420  39.844  1.00  0.00     0.091 A 
ATOM     76  F   UNL A   1      38.746  33.248  37.826  1.00  0.00    -0.205 F 
ATOM     77  C   UNL A   1      38.782  35.588  40.588  1.00  0.00     0.022 A 
BRANCH  75  78
ATOM     78  S   UNL A   1      37.950  32.993  40.732  1.00  0.00     0.127 S 
ATOM     79  O   UNL A   1      37.737  33.542  42.072  1.00  0.00    -0.237 OA
ATOM     80  O   UNL A   1      36.721  32.708  39.993  1.00  0.00    -0.237 OA
ATOM     81  O   UNL A   1      38.965  31.950  40.662  1.00  0.00    -0.744 OA
ENDBRANCH  75  78
ENDBRANCH  57  71
BRANCH  58  82
ATOM     82  C   UNL A   1      43.190  34.445  28.753  1.00  0.00     0.023 A 
ATOM     83  C   UNL A   1      42.151  35.342  28.383  1.00  0.00     0.012 A 
ATOM     84  C   UNL A   1      43.957  33.854  27.731  1.00  0.00     0.148 A 
ATOM     85  C   UNL A   1      42.050  35.816  27.071  1.00  0.00     0.002 A 
ATOM     86  C   UNL A   1      43.819  34.303  26.416  1.00  0.00     0.091 A 
ATOM     87  F   UNL A   1      44.866  32.926  28.057  1.00  0.00    -0.205 F 
ATOM     88  C   UNL A   1      42.919  35.332  26.097  1.00  0.00     0.022 A 
BRANCH  86  89
ATOM     89  S   UNL A   1      44.849  33.618  25.111  1.00  0.00     0.127 S 
ATOM     90  O   UNL A   1      46.131  34.259  25.383  1.00  0.00    -0.237 OA
ATOM     91  O   UNL A   1      44.825  32.180  25.377  1.00  0.00    -0.237 OA
ATOM     92  O   UNL A   1      44.188  34.005  23.871  1.00  0.00    -0.744 OA
ENDBRANCH  86  89
ENDBRANCH  58  82
BRANCH  70  93
ATOM     93  C   UNL A   1      43.400  39.414  34.055  1.00  0.00     0.023 A 
ATOM     94  C   UNL A   1      42.726  40.321  33.210  1.00  0.00     0.012 A 
ATOM     95  C   UNL A   1      44.152  39.985  35.115  1.00  0.00     0.148 A 
ATOM     96  C   UNL A   1      42.700  41.696  33.465  1.00  0.00     0.002 A 
ATOM     97  C   UNL A   1      44.216  41.363  35.298  1.00  0.00     0.091 A 
ATOM     98  F   UNL A   1      44.789  39.200  35.987  1.00  0.00    -0.205 F 
ATOM     99  C   UNL A   1      43.454  42.220  34.504  1.00  0.00     0.022 A 
BRANCH  97 100
ATOM    100  S   UNL A   1      45.351  42.129  36.466  1.00  0.00     0.127 S 
ATOM    101  O   UNL A   1      44.702  41.830  37.745  1.00  0.00    -0.237 OA
ATOM    102  O   UNL A   1      46.584  41.385  36.219  1.00  0.00    -0.237 OA
ATOM    103  O   UNL A   1      45.390  43.544  36.127  1.00  0.00    -0.744 OA
ENDBRANCH  97 100
ENDBRANCH  70  93
ENDBRANCH  44  45
ENDBRANCH  36  39
ENDBRANCH  34  35
ENDBRANCH  33  34
ENDBRANCH   1  33
TORSDOF 18
ENDMDL
