MODEL 1
REMARK VINA RESULT:     -10.2      0.000      0.000
REMARK SMILES C[C@H](CCC(=O)NCCCCNC(=O)c1ccc(-c2c3nc(c(-c4cccc(S(=O)(=O)[O-])c4F)c4ccc([nH]4)c(-c4cccc(S(=O)(=O)[O-])c4F)c4nc(c(-c5cccc(S(=O)(=O)[O-])c5F)c5ccc2[nH]5)C=C4)C=C3)cc1)NC(=O)N(C)CCc1cccs1
REMARK SMILES IDX 5 1 6 2 7 3 4 5 3 6 2 7 1 8 78 9 79 10 80 12 81 13 82 14
REMARK SMILES IDX 83 15 84 16 85 17 86 18 89 19 87 20 88 21 8 22 9 23 10 24
REMARK SMILES IDX 11 25 12 26 13 27 14 29 15 30 16 31 77 32 17 33 76 34 18 35
REMARK SMILES IDX 19 36 20 37 70 38 21 39 75 40 69 41 71 42 22 43 74 44 68 45
REMARK SMILES IDX 67 46 23 48 55 49 35 50 54 51 36 52 39 53 53 54 72 55 37 56
REMARK SMILES IDX 38 57 52 59 73 60 40 61 24 62 25 63 33 64 26 65 28 66 34 67
REMARK SMILES IDX 27 68 29 69 30 70 31 71 32 72 56 73 57 74 65 75 58 76 60 77
REMARK SMILES IDX 66 78 59 79 61 80 62 81 63 82 64 83 41 84 42 85 50 86 43 87
REMARK SMILES IDX 45 88 51 89 44 90 46 91 47 92 48 93 49 94
REMARK H PARENT 7 4 78 11 12 28 71 47 39 58
REMARK Flexibility Score: inf
ROOT
ATOM      1  C   UNL A   1      34.458  21.699  26.143  1.00  0.00     0.220 C 
ATOM      2  O   UNL A   1      34.382  22.526  27.052  1.00  0.00    -0.275 OA
ATOM      3  N   UNL A   1      35.590  20.951  26.031  1.00  0.00    -0.356 N 
ATOM      4  H   UNL A   1      36.217  21.026  26.787  1.00  0.00     0.163 HD
ENDROOT
BRANCH   1   5
ATOM      5  C   UNL A   1      33.300  21.492  25.186  1.00  0.00     0.102 C 
BRANCH   5   6
ATOM      6  C   UNL A   1      31.939  21.949  25.723  1.00  0.00     0.034 C 
BRANCH   6   7
ATOM      7  C   UNL A   1      31.455  23.354  25.314  1.00  0.00     0.081 C 
ATOM      8  C   UNL A   1      30.526  23.989  26.357  1.00  0.00     0.031 C 
BRANCH   7   9
ATOM      9  N   UNL A   1      32.611  24.241  25.133  1.00  0.00    -0.336 N 
ATOM     10  C   UNL A   1      32.688  25.546  24.774  1.00  0.00     0.317 C 
ATOM     11  H   UNL A   1      33.481  23.813  25.299  1.00  0.00     0.165 HD
ATOM     12  O   UNL A   1      33.605  26.196  25.278  1.00  0.00    -0.249 OA
BRANCH  10  13
ATOM     13  N   UNL A   1      31.795  26.086  23.885  1.00  0.00    -0.328 N 
ATOM     14  C   UNL A   1      31.786  25.800  22.461  1.00  0.00     0.148 C 
BRANCH  13  15
ATOM     15  C   UNL A   1      31.055  27.297  24.277  1.00  0.00     0.126 C 
BRANCH  15  16
ATOM     16  C   UNL A   1      29.569  27.256  23.888  1.00  0.00     0.068 C 
BRANCH  16  17
ATOM     17  C   UNL A   1      29.159  28.436  23.055  1.00  0.00     0.006 A 
ATOM     18  C   UNL A   1      27.883  28.869  22.758  1.00  0.00     0.015 A 
ATOM     19  S   UNL A   1      30.347  29.446  22.341  1.00  0.00    -0.149 S 
ATOM     20  C   UNL A   1      27.882  30.064  21.985  1.00  0.00     0.012 A 
ATOM     21  C   UNL A   1      29.158  30.487  21.688  1.00  0.00     0.065 A 
ENDBRANCH  16  17
ENDBRANCH  15  16
ENDBRANCH  13  15
ENDBRANCH  10  13
ENDBRANCH   7   9
ENDBRANCH   6   7
ENDBRANCH   5   6
ENDBRANCH   1   5
BRANCH   3  22
ATOM     22  C   UNL A   1      36.007  20.063  24.966  1.00  0.00     0.116 C 
BRANCH  22  23
ATOM     23  C   UNL A   1      37.524  20.121  24.804  1.00  0.00     0.023 C 
BRANCH  23  24
ATOM     24  C   UNL A   1      38.184  21.405  25.285  1.00  0.00     0.023 C 
BRANCH  24  25
ATOM     25  C   UNL A   1      39.356  21.188  26.227  1.00  0.00     0.116 C 
BRANCH  25  26
ATOM     26  N   UNL A   1      40.064  19.929  26.024  1.00  0.00    -0.352 N 
ATOM     27  C   UNL A   1      41.429  19.723  26.047  1.00  0.00     0.251 C 
ATOM     28  H   UNL A   1      39.505  19.137  25.851  1.00  0.00     0.163 HD
ATOM     29  O   UNL A   1      41.907  18.625  25.816  1.00  0.00    -0.269 OA
BRANCH  27  30
ATOM     30  C   UNL A   1      42.292  20.894  26.303  1.00  0.00     0.039 A 
ATOM     31  C   UNL A   1      42.653  21.713  25.232  1.00  0.00     0.014 A 
ATOM     32  C   UNL A   1      42.595  21.255  27.617  1.00  0.00     0.014 A 
ATOM     33  C   UNL A   1      43.237  22.954  25.491  1.00  0.00     0.010 A 
ATOM     34  C   UNL A   1      43.085  22.527  27.874  1.00  0.00     0.010 A 
ATOM     35  C   UNL A   1      43.406  23.393  26.816  1.00  0.00    -0.014 A 
BRANCH  35  36
ATOM     36  C   UNL A   1      43.896  24.759  27.127  1.00  0.00     0.031 A 
ATOM     37  C   UNL A   1      42.951  25.780  27.697  1.00  0.00     0.074 A 
ATOM     38  C   UNL A   1      45.152  25.115  26.786  1.00  0.00     0.049 A 
ATOM     39  N   UNL A   1      43.156  27.047  27.942  1.00  0.00    -0.248 NA
ATOM     40  C   UNL A   1      41.579  25.328  27.989  1.00  0.00     0.031 C 
ATOM     41  C   UNL A   1      46.132  24.248  26.124  1.00  0.00     0.029 A 
ATOM     42  N   UNL A   1      45.810  26.313  26.920  1.00  0.00    -0.354 N 
ATOM     43  C   UNL A   1      41.934  27.552  28.369  1.00  0.00     0.074 A 
ATOM     44  C   UNL A   1      40.981  26.466  28.306  1.00  0.00     0.031 C 
ATOM     45  C   UNL A   1      47.266  24.939  25.922  1.00  0.00     0.029 A 
ATOM     46  C   UNL A   1      47.090  26.301  26.415  1.00  0.00     0.049 A 
ATOM     47  H   UNL A   1      45.404  27.105  27.339  1.00  0.00     0.167 HD
ATOM     48  C   UNL A   1      41.638  28.795  28.815  1.00  0.00     0.034 A 
ATOM     49  C   UNL A   1      48.017  27.277  26.362  1.00  0.00     0.034 A 
ATOM     50  C   UNL A   1      42.606  29.847  28.952  1.00  0.00     0.049 A 
ATOM     51  C   UNL A   1      47.694  28.622  26.954  1.00  0.00     0.074 A 
ATOM     52  C   UNL A   1      42.435  31.109  29.491  1.00  0.00     0.029 A 
ATOM     53  N   UNL A   1      43.930  29.757  28.554  1.00  0.00    -0.354 N 
ATOM     54  N   UNL A   1      46.579  29.030  27.512  1.00  0.00    -0.248 NA
ATOM     55  C   UNL A   1      48.766  29.628  26.951  1.00  0.00     0.031 C 
ATOM     56  C   UNL A   1      43.659  31.782  29.421  1.00  0.00     0.029 A 
ATOM     57  C   UNL A   1      44.592  30.936  28.843  1.00  0.00     0.049 A 
ATOM     58  H   UNL A   1      44.340  28.969  28.130  1.00  0.00     0.167 HD
ATOM     59  C   UNL A   1      46.825  30.325  27.954  1.00  0.00     0.074 A 
ATOM     60  C   UNL A   1      48.202  30.626  27.619  1.00  0.00     0.031 C 
ATOM     61  C   UNL A   1      45.982  31.194  28.563  1.00  0.00     0.034 A 
BRANCH  48  62
ATOM     62  C   UNL A   1      40.226  29.050  29.267  1.00  0.00     0.023 A 
ATOM     63  C   UNL A   1      39.252  29.410  28.313  1.00  0.00     0.012 A 
ATOM     64  C   UNL A   1      39.852  28.907  30.616  1.00  0.00     0.148 A 
ATOM     65  C   UNL A   1      37.937  29.662  28.699  1.00  0.00     0.002 A 
ATOM     66  C   UNL A   1      38.528  29.118  30.988  1.00  0.00     0.091 A 
ATOM     67  F   UNL A   1      40.796  28.590  31.515  1.00  0.00    -0.205 F 
ATOM     68  C   UNL A   1      37.574  29.507  30.033  1.00  0.00     0.022 A 
BRANCH  66  69
ATOM     69  S   UNL A   1      37.947  28.872  32.669  1.00  0.00     0.127 S 
ATOM     70  O   UNL A   1      36.577  29.373  32.584  1.00  0.00    -0.237 OA
ATOM     71  O   UNL A   1      38.056  27.421  32.826  1.00  0.00    -0.237 OA
ATOM     72  O   UNL A   1      38.847  29.640  33.517  1.00  0.00    -0.744 OA
ENDBRANCH  66  69
ENDBRANCH  48  62
BRANCH  49  73
ATOM     73  C   UNL A   1      49.372  26.987  25.811  1.00  0.00     0.023 A 
ATOM     74  C   UNL A   1      50.267  26.204  26.567  1.00  0.00     0.012 A 
ATOM     75  C   UNL A   1      49.767  27.443  24.538  1.00  0.00     0.148 A 
ATOM     76  C   UNL A   1      51.540  25.907  26.080  1.00  0.00     0.002 A 
ATOM     77  C   UNL A   1      51.018  27.099  24.037  1.00  0.00     0.091 A 
ATOM     78  F   UNL A   1      48.908  28.197  23.838  1.00  0.00    -0.205 F 
ATOM     79  C   UNL A   1      51.912  26.345  24.812  1.00  0.00     0.022 A 
BRANCH  77  80
ATOM     80  S   UNL A   1      51.523  27.507  22.362  1.00  0.00     0.127 S 
ATOM     81  O   UNL A   1      50.803  26.506  21.578  1.00  0.00    -0.237 OA
ATOM     82  O   UNL A   1      51.026  28.877  22.217  1.00  0.00    -0.237 OA
ATOM     83  O   UNL A   1      52.976  27.399  22.358  1.00  0.00    -0.744 OA
ENDBRANCH  77  80
ENDBRANCH  49  73
BRANCH  61  84
ATOM     84  C   UNL A   1      46.522  32.546  28.938  1.00  0.00     0.023 A 
ATOM     85  C   UNL A   1      47.145  32.723  30.189  1.00  0.00     0.012 A 
ATOM     86  C   UNL A   1      46.495  33.614  28.020  1.00  0.00     0.148 A 
ATOM     87  C   UNL A   1      47.714  33.949  30.530  1.00  0.00     0.002 A 
ATOM     88  C   UNL A   1      47.102  34.820  28.349  1.00  0.00     0.091 A 
ATOM     89  F   UNL A   1      45.879  33.432  26.843  1.00  0.00    -0.205 F 
ATOM     90  C   UNL A   1      47.704  34.992  29.607  1.00  0.00     0.022 A 
BRANCH  88  91
ATOM     91  S   UNL A   1      47.218  36.182  27.184  1.00  0.00     0.127 S 
ATOM     92  O   UNL A   1      47.984  37.165  27.949  1.00  0.00    -0.237 OA
ATOM     93  O   UNL A   1      47.943  35.579  26.066  1.00  0.00    -0.237 OA
ATOM     94  O   UNL A   1      45.844  36.559  26.876  1.00  0.00    -0.744 OA
ENDBRANCH  88  91
ENDBRANCH  61  84
ENDBRANCH  35  36
ENDBRANCH  27  30
ENDBRANCH  25  26
ENDBRANCH  24  25
ENDBRANCH  23  24
ENDBRANCH  22  23
ENDBRANCH   3  22
TORSDOF 21
ENDMDL
MODEL 2
REMARK VINA RESULT:     -10.1      2.130      7.877
REMARK SMILES C[C@H](CCC(=O)NCCCCNC(=O)c1ccc(-c2c3nc(c(-c4cccc(S(=O)(=O)[O-])c4F)c4ccc([nH]4)c(-c4cccc(S(=O)(=O)[O-])c4F)c4nc(c(-c5cccc(S(=O)(=O)[O-])c5F)c5ccc2[nH]5)C=C4)C=C3)cc1)NC(=O)N(C)CCc1cccs1
REMARK SMILES IDX 5 1 6 2 7 3 4 5 3 6 2 7 1 8 78 9 79 10 80 12 81 13 82 14
REMARK SMILES IDX 83 15 84 16 85 17 86 18 89 19 87 20 88 21 8 22 9 23 10 24
REMARK SMILES IDX 11 25 12 26 13 27 14 29 15 30 16 31 77 32 17 33 76 34 18 35
REMARK SMILES IDX 19 36 20 37 70 38 21 39 75 40 69 41 71 42 22 43 74 44 68 45
REMARK SMILES IDX 67 46 23 48 55 49 35 50 54 51 36 52 39 53 53 54 72 55 37 56
REMARK SMILES IDX 38 57 52 59 73 60 40 61 24 62 25 63 33 64 26 65 28 66 34 67
REMARK SMILES IDX 27 68 29 69 30 70 31 71 32 72 56 73 57 74 65 75 58 76 60 77
REMARK SMILES IDX 66 78 59 79 61 80 62 81 63 82 64 83 41 84 42 85 50 86 43 87
REMARK SMILES IDX 45 88 51 89 44 90 46 91 47 92 48 93 49 94
REMARK H PARENT 7 4 78 11 12 28 71 47 39 58
REMARK Flexibility Score: inf
ROOT
ATOM      1  C   UNL A   1      35.045  22.378  26.265  1.00  0.00     0.220 C 
ATOM      2  O   UNL A   1      34.432  21.537  26.924  1.00  0.00    -0.275 OA
ATOM      3  N   UNL A   1      36.367  22.573  26.521  1.00  0.00    -0.356 N 
ATOM      4  H   UNL A   1      36.778  21.913  27.125  1.00  0.00     0.163 HD
ENDROOT
BRANCH   1   5
ATOM      5  C   UNL A   1      34.348  23.158  25.167  1.00  0.00     0.102 C 
BRANCH   5   6
ATOM      6  C   UNL A   1      33.942  22.322  23.948  1.00  0.00     0.034 C 
BRANCH   6   7
ATOM      7  C   UNL A   1      32.524  21.721  23.946  1.00  0.00     0.081 C 
ATOM      8  C   UNL A   1      32.521  20.205  23.704  1.00  0.00     0.031 C 
BRANCH   7   9
ATOM      9  N   UNL A   1      31.877  21.977  25.239  1.00  0.00    -0.336 N 
ATOM     10  C   UNL A   1      30.836  22.778  25.574  1.00  0.00     0.317 C 
ATOM     11  H   UNL A   1      32.267  21.482  25.994  1.00  0.00     0.165 HD
ATOM     12  O   UNL A   1      30.110  22.378  26.485  1.00  0.00    -0.249 OA
BRANCH  10  13
ATOM     13  N   UNL A   1      30.631  23.972  24.931  1.00  0.00    -0.328 N 
ATOM     14  C   UNL A   1      30.677  24.143  23.490  1.00  0.00     0.148 C 
BRANCH  13  15
ATOM     15  C   UNL A   1      30.751  25.219  25.705  1.00  0.00     0.126 C 
BRANCH  15  16
ATOM     16  C   UNL A   1      30.731  26.483  24.832  1.00  0.00     0.068 C 
BRANCH  16  17
ATOM     17  C   UNL A   1      31.217  27.699  25.566  1.00  0.00     0.006 A 
ATOM     18  C   UNL A   1      31.498  27.829  26.911  1.00  0.00     0.015 A 
ATOM     19  S   UNL A   1      31.503  29.163  24.720  1.00  0.00    -0.149 S 
ATOM     20  C   UNL A   1      31.997  29.122  27.238  1.00  0.00     0.012 A 
ATOM     21  C   UNL A   1      32.052  29.947  26.137  1.00  0.00     0.065 A 
ENDBRANCH  16  17
ENDBRANCH  15  16
ENDBRANCH  13  15
ENDBRANCH  10  13
ENDBRANCH   7   9
ENDBRANCH   6   7
ENDBRANCH   5   6
ENDBRANCH   1   5
BRANCH   3  22
ATOM     22  C   UNL A   1      37.257  23.607  26.036  1.00  0.00     0.116 C 
BRANCH  22  23
ATOM     23  C   UNL A   1      38.704  23.128  26.118  1.00  0.00     0.023 C 
BRANCH  23  24
ATOM     24  C   UNL A   1      38.937  21.679  25.718  1.00  0.00     0.023 C 
BRANCH  24  25
ATOM     25  C   UNL A   1      39.584  20.830  26.801  1.00  0.00     0.116 C 
BRANCH  25  26
ATOM     26  N   UNL A   1      40.487  19.802  26.296  1.00  0.00    -0.352 N 
ATOM     27  C   UNL A   1      41.844  19.918  26.072  1.00  0.00     0.251 C 
ATOM     28  H   UNL A   1      40.083  18.927  26.094  1.00  0.00     0.163 HD
ATOM     29  O   UNL A   1      42.489  18.994  25.602  1.00  0.00    -0.269 OA
BRANCH  27  30
ATOM     30  C   UNL A   1      42.477  21.219  26.366  1.00  0.00     0.039 A 
ATOM     31  C   UNL A   1      42.649  22.135  25.326  1.00  0.00     0.014 A 
ATOM     32  C   UNL A   1      42.740  21.577  27.689  1.00  0.00     0.014 A 
ATOM     33  C   UNL A   1      42.995  23.453  25.631  1.00  0.00     0.010 A 
ATOM     34  C   UNL A   1      42.987  22.908  27.994  1.00  0.00     0.010 A 
ATOM     35  C   UNL A   1      43.112  23.861  26.971  1.00  0.00    -0.014 A 
BRANCH  35  36
ATOM     36  C   UNL A   1      43.343  25.281  27.334  1.00  0.00     0.031 A 
ATOM     37  C   UNL A   1      44.730  25.859  27.249  1.00  0.00     0.074 A 
ATOM     38  C   UNL A   1      42.336  26.013  27.854  1.00  0.00     0.049 A 
ATOM     39  N   UNL A   1      45.155  27.038  27.614  1.00  0.00    -0.248 NA
ATOM     40  C   UNL A   1      45.787  24.976  26.724  1.00  0.00     0.031 C 
ATOM     41  C   UNL A   1      40.972  25.534  28.093  1.00  0.00     0.029 A 
ATOM     42  N   UNL A   1      42.313  27.310  28.307  1.00  0.00    -0.354 N 
ATOM     43  C   UNL A   1      46.529  27.025  27.410  1.00  0.00     0.074 A 
ATOM     44  C   UNL A   1      46.874  25.704  26.932  1.00  0.00     0.031 C 
ATOM     45  C   UNL A   1      40.245  26.524  28.635  1.00  0.00     0.029 A 
ATOM     46  C   UNL A   1      41.093  27.700  28.807  1.00  0.00     0.049 A 
ATOM     47  H   UNL A   1      43.098  27.904  28.276  1.00  0.00     0.167 HD
ATOM     48  C   UNL A   1      47.421  28.031  27.564  1.00  0.00     0.034 A 
ATOM     49  C   UNL A   1      40.701  28.875  29.337  1.00  0.00     0.034 A 
ATOM     50  C   UNL A   1      47.062  29.364  27.962  1.00  0.00     0.049 A 
ATOM     51  C   UNL A   1      41.688  30.008  29.406  1.00  0.00     0.074 A 
ATOM     52  C   UNL A   1      47.870  30.483  28.046  1.00  0.00     0.029 A 
ATOM     53  N   UNL A   1      45.787  29.759  28.332  1.00  0.00    -0.354 N 
ATOM     54  N   UNL A   1      42.949  30.025  29.045  1.00  0.00    -0.248 NA
ATOM     55  C   UNL A   1      41.192  31.296  29.911  1.00  0.00     0.031 C 
ATOM     56  C   UNL A   1      47.080  31.558  28.467  1.00  0.00     0.029 A 
ATOM     57  C   UNL A   1      45.781  31.108  28.638  1.00  0.00     0.049 A 
ATOM     58  H   UNL A   1      45.001  29.169  28.370  1.00  0.00     0.167 HD
ATOM     59  C   UNL A   1      43.388  31.329  29.250  1.00  0.00     0.074 A 
ATOM     60  C   UNL A   1      42.251  32.078  29.744  1.00  0.00     0.031 C 
ATOM     61  C   UNL A   1      44.624  31.852  29.066  1.00  0.00     0.034 A 
BRANCH  48  62
ATOM     62  C   UNL A   1      48.856  27.744  27.215  1.00  0.00     0.023 A 
ATOM     63  C   UNL A   1      49.747  27.353  28.236  1.00  0.00     0.012 A 
ATOM     64  C   UNL A   1      49.318  27.828  25.889  1.00  0.00     0.148 A 
ATOM     65  C   UNL A   1      51.085  27.088  27.949  1.00  0.00     0.002 A 
ATOM     66  C   UNL A   1      50.645  27.519  25.603  1.00  0.00     0.091 A 
ATOM     67  F   UNL A   1      48.464  28.226  24.934  1.00  0.00    -0.205 F 
ATOM     68  C   UNL A   1      51.531  27.162  26.633  1.00  0.00     0.022 A 
BRANCH  66  69
ATOM     69  S   UNL A   1      51.295  27.515  23.929  1.00  0.00     0.127 S 
ATOM     70  O   UNL A   1      50.297  26.711  23.226  1.00  0.00    -0.237 OA
ATOM     71  O   UNL A   1      51.282  28.938  23.588  1.00  0.00    -0.237 OA
ATOM     72  O   UNL A   1      52.624  26.929  24.021  1.00  0.00    -0.744 OA
ENDBRANCH  66  69
ENDBRANCH  48  62
BRANCH  49  73
ATOM     73  C   UNL A   1      39.283  29.067  29.756  1.00  0.00     0.023 A 
ATOM     74  C   UNL A   1      38.885  28.651  31.042  1.00  0.00     0.012 A 
ATOM     75  C   UNL A   1      38.339  29.687  28.914  1.00  0.00     0.148 A 
ATOM     76  C   UNL A   1      37.568  28.821  31.470  1.00  0.00     0.002 A 
ATOM     77  C   UNL A   1      37.042  29.901  29.366  1.00  0.00     0.091 A 
ATOM     78  F   UNL A   1      38.732  30.064  27.689  1.00  0.00    -0.205 F 
ATOM     79  C   UNL A   1      36.649  29.454  30.638  1.00  0.00     0.022 A 
BRANCH  77  80
ATOM     80  S   UNL A   1      35.836  30.828  28.411  1.00  0.00     0.127 S 
ATOM     81  O   UNL A   1      34.844  31.168  29.428  1.00  0.00    -0.237 OA
ATOM     82  O   UNL A   1      36.632  31.956  27.924  1.00  0.00    -0.237 OA
ATOM     83  O   UNL A   1      35.390  29.918  27.363  1.00  0.00    -0.744 OA
ENDBRANCH  77  80
ENDBRANCH  49  73
BRANCH  61  84
ATOM     84  C   UNL A   1      44.817  33.313  29.368  1.00  0.00     0.023 A 
ATOM     85  C   UNL A   1      45.282  33.704  30.640  1.00  0.00     0.012 A 
ATOM     86  C   UNL A   1      44.627  34.288  28.369  1.00  0.00     0.148 A 
ATOM     87  C   UNL A   1      45.533  35.046  30.920  1.00  0.00     0.002 A 
ATOM     88  C   UNL A   1      44.922  35.619  28.642  1.00  0.00     0.091 A 
ATOM     89  F   UNL A   1      44.165  33.898  27.173  1.00  0.00    -0.205 F 
ATOM     90  C   UNL A   1      45.366  36.000  29.919  1.00  0.00     0.022 A 
BRANCH  88  91
ATOM     91  S   UNL A   1      44.825  36.897  27.383  1.00  0.00     0.127 S 
ATOM     92  O   UNL A   1      45.216  38.087  28.137  1.00  0.00    -0.237 OA
ATOM     93  O   UNL A   1      45.811  36.446  26.400  1.00  0.00    -0.237 OA
ATOM     94  O   UNL A   1      43.449  36.880  26.905  1.00  0.00    -0.744 OA
ENDBRANCH  88  91
ENDBRANCH  61  84
ENDBRANCH  35  36
ENDBRANCH  27  30
ENDBRANCH  25  26
ENDBRANCH  24  25
ENDBRANCH  23  24
ENDBRANCH  22  23
ENDBRANCH   3  22
TORSDOF 21
ENDMDL
MODEL 3
REMARK VINA RESULT:     -10.1      5.592      8.750
REMARK SMILES C[C@H](CCC(=O)NCCCCNC(=O)c1ccc(-c2c3nc(c(-c4cccc(S(=O)(=O)[O-])c4F)c4ccc([nH]4)c(-c4cccc(S(=O)(=O)[O-])c4F)c4nc(c(-c5cccc(S(=O)(=O)[O-])c5F)c5ccc2[nH]5)C=C4)C=C3)cc1)NC(=O)N(C)CCc1cccs1
REMARK SMILES IDX 5 1 6 2 7 3 4 5 3 6 2 7 1 8 78 9 79 10 80 12 81 13 82 14
REMARK SMILES IDX 83 15 84 16 85 17 86 18 89 19 87 20 88 21 8 22 9 23 10 24
REMARK SMILES IDX 11 25 12 26 13 27 14 29 15 30 16 31 77 32 17 33 76 34 18 35
REMARK SMILES IDX 19 36 20 37 70 38 21 39 75 40 69 41 71 42 22 43 74 44 68 45
REMARK SMILES IDX 67 46 23 48 55 49 35 50 54 51 36 52 39 53 53 54 72 55 37 56
REMARK SMILES IDX 38 57 52 59 73 60 40 61 24 62 25 63 33 64 26 65 28 66 34 67
REMARK SMILES IDX 27 68 29 69 30 70 31 71 32 72 56 73 57 74 65 75 58 76 60 77
REMARK SMILES IDX 66 78 59 79 61 80 62 81 63 82 64 83 41 84 42 85 50 86 43 87
REMARK SMILES IDX 45 88 51 89 44 90 46 91 47 92 48 93 49 94
REMARK H PARENT 7 4 78 11 12 28 71 47 39 58
REMARK Flexibility Score: inf
ROOT
ATOM      1  C   UNL A   1      34.016  25.856  24.808  1.00  0.00     0.220 C 
ATOM      2  O   UNL A   1      33.992  25.530  23.620  1.00  0.00    -0.275 OA
ATOM      3  N   UNL A   1      33.605  27.107  25.151  1.00  0.00    -0.356 N 
ATOM      4  H   UNL A   1      33.175  27.620  24.429  1.00  0.00     0.163 HD
ENDROOT
BRANCH   1   5
ATOM      5  C   UNL A   1      34.462  24.871  25.872  1.00  0.00     0.102 C 
BRANCH   5   6
ATOM      6  C   UNL A   1      33.451  23.760  26.178  1.00  0.00     0.034 C 
BRANCH   6   7
ATOM      7  C   UNL A   1      33.438  22.540  25.238  1.00  0.00     0.081 C 
ATOM      8  C   UNL A   1      33.404  21.206  25.996  1.00  0.00     0.031 C 
BRANCH   7   9
ATOM      9  N   UNL A   1      32.258  22.600  24.367  1.00  0.00    -0.336 N 
ATOM     10  C   UNL A   1      31.214  23.465  24.333  1.00  0.00     0.317 C 
ATOM     11  H   UNL A   1      32.216  21.887  23.690  1.00  0.00     0.165 HD
ATOM     12  O   UNL A   1      30.737  23.701  23.223  1.00  0.00    -0.249 OA
BRANCH  10  13
ATOM     13  N   UNL A   1      30.723  24.021  25.487  1.00  0.00    -0.328 N 
ATOM     14  C   UNL A   1      30.118  23.261  26.566  1.00  0.00     0.148 C 
BRANCH  13  15
ATOM     15  C   UNL A   1      30.425  25.462  25.503  1.00  0.00     0.126 C 
BRANCH  15  16
ATOM     16  C   UNL A   1      29.142  25.828  24.741  1.00  0.00     0.068 C 
BRANCH  16  17
ATOM     17  C   UNL A   1      29.318  27.028  23.857  1.00  0.00     0.006 A 
ATOM     18  C   UNL A   1      28.368  27.954  23.474  1.00  0.00     0.015 A 
ATOM     19  S   UNL A   1      30.856  27.394  23.192  1.00  0.00    -0.149 S 
ATOM     20  C   UNL A   1      28.917  28.995  22.674  1.00  0.00     0.012 A 
ATOM     21  C   UNL A   1      30.262  28.813  22.444  1.00  0.00     0.065 A 
ENDBRANCH  16  17
ENDBRANCH  15  16
ENDBRANCH  13  15
ENDBRANCH  10  13
ENDBRANCH   7   9
ENDBRANCH   6   7
ENDBRANCH   5   6
ENDBRANCH   1   5
BRANCH   3  22
ATOM     22  C   UNL A   1      33.709  27.795  26.421  1.00  0.00     0.116 C 
BRANCH  22  23
ATOM     23  C   UNL A   1      32.315  28.065  26.983  1.00  0.00     0.023 C 
BRANCH  23  24
ATOM     24  C   UNL A   1      31.754  29.450  26.701  1.00  0.00     0.023 C 
BRANCH  24  25
ATOM     25  C   UNL A   1      32.797  30.469  26.271  1.00  0.00     0.116 C 
BRANCH  25  26
ATOM     26  N   UNL A   1      32.606  31.798  26.840  1.00  0.00    -0.352 N 
ATOM     27  C   UNL A   1      33.482  32.496  27.648  1.00  0.00     0.251 C 
ATOM     28  H   UNL A   1      31.758  32.248  26.623  1.00  0.00     0.163 HD
ATOM     29  O   UNL A   1      33.189  33.590  28.102  1.00  0.00    -0.269 OA
BRANCH  27  30
ATOM     30  C   UNL A   1      34.763  31.845  27.990  1.00  0.00     0.039 A 
ATOM     31  C   UNL A   1      35.918  32.625  28.059  1.00  0.00     0.014 A 
ATOM     32  C   UNL A   1      34.773  30.510  28.397  1.00  0.00     0.014 A 
ATOM     33  C   UNL A   1      37.070  32.086  28.634  1.00  0.00     0.010 A 
ATOM     34  C   UNL A   1      35.888  30.011  29.055  1.00  0.00     0.010 A 
ATOM     35  C   UNL A   1      37.046  30.794  29.186  1.00  0.00    -0.014 A 
BRANCH  35  36
ATOM     36  C   UNL A   1      38.209  30.241  29.925  1.00  0.00     0.031 A 
ATOM     37  C   UNL A   1      38.500  30.715  31.322  1.00  0.00     0.074 A 
ATOM     38  C   UNL A   1      39.067  29.409  29.299  1.00  0.00     0.049 A 
ATOM     39  N   UNL A   1      39.516  30.432  32.093  1.00  0.00    -0.248 NA
ATOM     40  C   UNL A   1      37.545  31.669  31.914  1.00  0.00     0.031 C 
ATOM     41  C   UNL A   1      38.956  28.961  27.908  1.00  0.00     0.029 A 
ATOM     42  N   UNL A   1      40.223  28.815  29.745  1.00  0.00    -0.354 N 
ATOM     43  C   UNL A   1      39.350  31.205  33.235  1.00  0.00     0.074 A 
ATOM     44  C   UNL A   1      38.160  32.003  33.039  1.00  0.00     0.031 C 
ATOM     45  C   UNL A   1      39.992  28.157  27.620  1.00  0.00     0.029 A 
ATOM     46  C   UNL A   1      40.854  28.049  28.793  1.00  0.00     0.049 A 
ATOM     47  H   UNL A   1      40.566  28.928  30.661  1.00  0.00     0.167 HD
ATOM     48  C   UNL A   1      40.093  31.220  34.366  1.00  0.00     0.034 A 
ATOM     49  C   UNL A   1      41.995  27.336  28.861  1.00  0.00     0.034 A 
ATOM     50  C   UNL A   1      41.227  30.367  34.590  1.00  0.00     0.049 A 
ATOM     51  C   UNL A   1      42.750  27.292  30.162  1.00  0.00     0.074 A 
ATOM     52  C   UNL A   1      41.986  30.227  35.737  1.00  0.00     0.029 A 
ATOM     53  N   UNL A   1      41.760  29.502  33.647  1.00  0.00    -0.354 N 
ATOM     54  N   UNL A   1      42.479  27.900  31.292  1.00  0.00    -0.248 NA
ATOM     55  C   UNL A   1      43.941  26.432  30.214  1.00  0.00     0.031 C 
ATOM     56  C   UNL A   1      42.978  29.273  35.489  1.00  0.00     0.029 A 
ATOM     57  C   UNL A   1      42.833  28.817  34.189  1.00  0.00     0.049 A 
ATOM     58  H   UNL A   1      41.424  29.390  32.729  1.00  0.00     0.167 HD
ATOM     59  C   UNL A   1      43.445  27.473  32.196  1.00  0.00     0.074 A 
ATOM     60  C   UNL A   1      44.294  26.536  31.489  1.00  0.00     0.031 C 
ATOM     61  C   UNL A   1      43.626  27.838  33.489  1.00  0.00     0.034 A 
BRANCH  48  62
ATOM     62  C   UNL A   1      39.645  32.130  35.478  1.00  0.00     0.023 A 
ATOM     63  C   UNL A   1      38.853  31.605  36.520  1.00  0.00     0.012 A 
ATOM     64  C   UNL A   1      40.025  33.485  35.513  1.00  0.00     0.148 A 
ATOM     65  C   UNL A   1      38.414  32.423  37.559  1.00  0.00     0.002 A 
ATOM     66  C   UNL A   1      39.618  34.284  36.577  1.00  0.00     0.091 A 
ATOM     67  F   UNL A   1      40.755  33.974  34.500  1.00  0.00    -0.205 F 
ATOM     68  C   UNL A   1      38.803  33.757  37.592  1.00  0.00     0.022 A 
BRANCH  66  69
ATOM     69  S   UNL A   1      40.129  35.998  36.746  1.00  0.00     0.127 S 
ATOM     70  O   UNL A   1      39.387  36.411  37.935  1.00  0.00    -0.237 OA
ATOM     71  O   UNL A   1      41.574  35.872  36.943  1.00  0.00    -0.237 OA
ATOM     72  O   UNL A   1      39.743  36.652  35.504  1.00  0.00    -0.744 OA
ENDBRANCH  66  69
ENDBRANCH  48  62
BRANCH  49  73
ATOM     73  C   UNL A   1      42.439  26.529  27.689  1.00  0.00     0.023 A 
ATOM     74  C   UNL A   1      43.275  27.125  26.722  1.00  0.00     0.012 A 
ATOM     75  C   UNL A   1      42.078  25.176  27.541  1.00  0.00     0.148 A 
ATOM     76  C   UNL A   1      43.716  26.398  25.617  1.00  0.00     0.002 A 
ATOM     77  C   UNL A   1      42.564  24.443  26.463  1.00  0.00     0.091 A 
ATOM     78  F   UNL A   1      41.273  24.629  28.462  1.00  0.00    -0.205 F 
ATOM     79  C   UNL A   1      43.370  25.056  25.491  1.00  0.00     0.022 A 
BRANCH  77  80
ATOM     80  S   UNL A   1      42.277  22.677  26.300  1.00  0.00     0.127 S 
ATOM     81  O   UNL A   1      42.891  22.391  25.006  1.00  0.00    -0.237 OA
ATOM     82  O   UNL A   1      42.999  22.141  27.456  1.00  0.00    -0.237 OA
ATOM     83  O   UNL A   1      40.831  22.511  26.373  1.00  0.00    -0.744 OA
ENDBRANCH  77  80
ENDBRANCH  49  73
BRANCH  61  84
ATOM     84  C   UNL A   1      44.765  27.207  34.241  1.00  0.00     0.023 A 
ATOM     85  C   UNL A   1      46.004  27.874  34.314  1.00  0.00     0.012 A 
ATOM     86  C   UNL A   1      44.582  26.004  34.951  1.00  0.00     0.148 A 
ATOM     87  C   UNL A   1      47.052  27.342  35.064  1.00  0.00     0.002 A 
ATOM     88  C   UNL A   1      45.617  25.502  35.731  1.00  0.00     0.091 A 
ATOM     89  F   UNL A   1      43.402  25.374  34.852  1.00  0.00    -0.205 F 
ATOM     90  C   UNL A   1      46.854  26.164  35.781  1.00  0.00     0.022 A 
BRANCH  88  91
ATOM     91  S   UNL A   1      45.417  24.043  36.760  1.00  0.00     0.127 S 
ATOM     92  O   UNL A   1      45.074  23.024  35.770  1.00  0.00    -0.237 OA
ATOM     93  O   UNL A   1      46.745  23.893  37.355  1.00  0.00    -0.237 OA
ATOM     94  O   UNL A   1      44.365  24.371  37.714  1.00  0.00    -0.744 OA
ENDBRANCH  88  91
ENDBRANCH  61  84
ENDBRANCH  35  36
ENDBRANCH  27  30
ENDBRANCH  25  26
ENDBRANCH  24  25
ENDBRANCH  23  24
ENDBRANCH  22  23
ENDBRANCH   3  22
TORSDOF 21
ENDMDL
