MODEL 1
REMARK VINA RESULT:     -12.3      0.000      0.000
REMARK SMILES NS(=O)(=O)c1ccc(-n2nc(C(=O)NCCCCNC(=O)c3ccc(-c4c5nc(c(-c6cccc(S(=O)(=O)[O-])c6F)c6ccc([nH]6)c(-c6cccc(S(=O)(=O)[O-])c6F)c6nc(c(-c7cccc(S(=O)(=O)[O-])c7F)c7ccc4[nH]7)C=C6)C=C5)cc3)cc2-c2ccc(Cl)s2)cc1
REMARK SMILES IDX 16 1 15 2 14 3 12 4 13 5 11 7 9 8 10 9 86 10 85 11 8 12 5 13
REMARK SMILES IDX 6 14 94 15 7 16 93 17 2 18 3 19 4 20 1 21 87 24 88 25 92 26
REMARK SMILES IDX 89 27 90 28 91 29 17 30 18 31 19 32 20 33 21 35 22 36 23 37
REMARK SMILES IDX 84 38 24 39 83 40 25 41 26 42 27 43 77 44 28 45 82 46 76 47
REMARK SMILES IDX 78 48 29 49 81 50 75 51 74 52 30 54 62 55 42 56 61 57 43 58
REMARK SMILES IDX 46 59 60 60 79 61 44 62 45 63 59 65 80 66 47 67 31 68 32 69
REMARK SMILES IDX 40 70 33 71 35 72 41 73 34 74 36 75 37 76 38 77 39 78 63 79
REMARK SMILES IDX 64 80 72 81 65 82 67 83 73 84 66 85 68 86 69 87 70 88 71 89
REMARK SMILES IDX 48 90 49 91 57 92 50 93 52 94 58 95 51 96 53 97 54 98 55 99
REMARK SMILES IDX 56 100
REMARK H PARENT 14 6 1 22 1 23 19 34 78 53 46 64
REMARK Flexibility Score: inf
ROOT
ATOM      1  C   UNL A   1      32.596  29.139  27.146  1.00  0.00     0.023 C 
ENDROOT
BRANCH   1   2
ATOM      2  C   UNL A   1      31.702  27.896  27.038  1.00  0.00     0.116 C 
BRANCH   2   3
ATOM      3  N   UNL A   1      31.023  27.820  25.760  1.00  0.00    -0.351 N 
ATOM      4  C   UNL A   1      31.186  27.043  24.634  1.00  0.00     0.271 C 
ATOM      5  O   UNL A   1      30.519  27.382  23.652  1.00  0.00    -0.267 OA
ATOM      6  H   UNL A   1      30.282  28.464  25.680  1.00  0.00     0.163 HD
BRANCH   4   7
ATOM      7  C   UNL A   1      32.110  25.884  24.579  1.00  0.00     0.151 A 
ATOM      8  N   UNL A   1      32.666  23.803  24.440  1.00  0.00    -0.231 N 
ATOM      9  N   UNL A   1      31.644  24.661  24.229  1.00  0.00    -0.162 NA
ATOM     10  C   UNL A   1      33.852  24.473  24.658  1.00  0.00     0.085 A 
ATOM     11  C   UNL A   1      33.503  25.796  24.808  1.00  0.00     0.066 A 
BRANCH   8  12
ATOM     12  C   UNL A   1      32.482  22.402  24.324  1.00  0.00     0.065 A 
ATOM     13  C   UNL A   1      32.492  19.642  24.038  1.00  0.00     0.082 A 
ATOM     14  C   UNL A   1      32.592  20.198  25.316  1.00  0.00     0.024 A 
ATOM     15  C   UNL A   1      32.325  20.455  22.909  1.00  0.00     0.024 A 
ATOM     16  C   UNL A   1      32.598  21.583  25.458  1.00  0.00     0.030 A 
ATOM     17  C   UNL A   1      32.284  21.842  23.057  1.00  0.00     0.030 A 
BRANCH  13  18
ATOM     18  S   UNL A   1      32.611  17.893  23.832  1.00  0.00     0.238 S 
ATOM     19  O   UNL A   1      31.741  17.233  24.792  1.00  0.00    -0.207 OA
ATOM     20  O   UNL A   1      33.991  17.530  23.674  1.00  0.00    -0.207 OA
BRANCH  18  21
ATOM     21  N   UNL A   1      31.878  17.657  22.344  1.00  0.00    -0.225 NA
ATOM     22  H   UNL A   1      32.540  17.218  21.704  1.00  0.00     0.137 HD
ATOM     23  H   UNL A   1      31.584  18.557  21.963  1.00  0.00     0.137 HD
ENDBRANCH  18  21
ENDBRANCH  13  18
ENDBRANCH   8  12
BRANCH  10  24
ATOM     24  C   UNL A   1      35.185  23.952  24.597  1.00  0.00     0.054 A 
ATOM     25  C   UNL A   1      35.814  23.423  23.485  1.00  0.00     0.024 A 
ATOM     26  S   UNL A   1      36.136  23.751  26.012  1.00  0.00    -0.122 S 
ATOM     27  C   UNL A   1      37.069  22.826  23.809  1.00  0.00     0.033 A 
ATOM     28  C   UNL A   1      37.339  22.939  25.147  1.00  0.00     0.094 A 
ATOM     29  Cl  UNL A   1      38.714  22.328  25.973  1.00  0.00    -0.072 Cl
ENDBRANCH  10  24
ENDBRANCH   4   7
ENDBRANCH   2   3
ENDBRANCH   1   2
BRANCH   1  30
ATOM     30  C   UNL A   1      33.942  29.035  26.406  1.00  0.00     0.023 C 
BRANCH  30  31
ATOM     31  C   UNL A   1      35.152  29.526  27.196  1.00  0.00     0.116 C 
BRANCH  31  32
ATOM     32  N   UNL A   1      34.974  30.867  27.776  1.00  0.00    -0.352 N 
ATOM     33  C   UNL A   1      35.447  31.335  28.995  1.00  0.00     0.251 C 
ATOM     34  H   UNL A   1      34.458  31.509  27.236  1.00  0.00     0.163 HD
ATOM     35  O   UNL A   1      34.943  32.302  29.554  1.00  0.00    -0.269 OA
BRANCH  33  36
ATOM     36  C   UNL A   1      36.618  30.659  29.573  1.00  0.00     0.039 A 
ATOM     37  C   UNL A   1      36.583  29.374  30.124  1.00  0.00     0.014 A 
ATOM     38  C   UNL A   1      37.812  31.353  29.444  1.00  0.00     0.014 A 
ATOM     39  C   UNL A   1      37.792  28.773  30.477  1.00  0.00     0.010 A 
ATOM     40  C   UNL A   1      38.981  30.664  29.527  1.00  0.00     0.010 A 
ATOM     41  C   UNL A   1      38.990  29.431  30.162  1.00  0.00    -0.014 A 
BRANCH  41  42
ATOM     42  C   UNL A   1      40.305  28.857  30.403  1.00  0.00     0.031 A 
ATOM     43  C   UNL A   1      40.760  28.962  31.812  1.00  0.00     0.074 A 
ATOM     44  C   UNL A   1      40.897  28.062  29.479  1.00  0.00     0.049 A 
ATOM     45  N   UNL A   1      41.676  29.739  32.291  1.00  0.00    -0.248 NA
ATOM     46  C   UNL A   1      39.984  28.258  32.846  1.00  0.00     0.031 C 
ATOM     47  C   UNL A   1      40.345  27.620  28.181  1.00  0.00     0.029 A 
ATOM     48  N   UNL A   1      42.049  27.347  29.557  1.00  0.00    -0.354 N 
ATOM     49  C   UNL A   1      41.785  29.384  33.634  1.00  0.00     0.074 A 
ATOM     50  C   UNL A   1      40.568  28.696  33.965  1.00  0.00     0.031 C 
ATOM     51  C   UNL A   1      41.014  26.531  27.746  1.00  0.00     0.029 A 
ATOM     52  C   UNL A   1      42.161  26.336  28.604  1.00  0.00     0.049 A 
ATOM     53  H   UNL A   1      42.746  27.528  30.230  1.00  0.00     0.167 HD
ATOM     54  C   UNL A   1      43.002  29.364  34.250  1.00  0.00     0.034 A 
ATOM     55  C   UNL A   1      43.129  25.392  28.541  1.00  0.00     0.034 A 
ATOM     56  C   UNL A   1      43.997  29.994  33.418  1.00  0.00     0.049 A 
ATOM     57  C   UNL A   1      44.288  25.934  29.277  1.00  0.00     0.074 A 
ATOM     58  C   UNL A   1      44.286  31.266  32.976  1.00  0.00     0.029 A 
ATOM     59  N   UNL A   1      44.633  29.113  32.582  1.00  0.00    -0.354 N 
ATOM     60  N   UNL A   1      44.925  27.011  28.907  1.00  0.00    -0.248 NA
ATOM     61  C   UNL A   1      44.518  25.507  30.649  1.00  0.00     0.031 C 
ATOM     62  C   UNL A   1      44.902  31.100  31.700  1.00  0.00     0.029 A 
ATOM     63  C   UNL A   1      45.017  29.735  31.427  1.00  0.00     0.049 A 
ATOM     64  H   UNL A   1      44.792  28.162  32.784  1.00  0.00     0.167 HD
ATOM     65  C   UNL A   1      45.246  27.635  30.100  1.00  0.00     0.074 A 
ATOM     66  C   UNL A   1      45.152  26.588  31.113  1.00  0.00     0.031 C 
ATOM     67  C   UNL A   1      45.238  28.996  30.201  1.00  0.00     0.034 A 
BRANCH  54  68
ATOM     68  C   UNL A   1      43.442  28.367  35.311  1.00  0.00     0.023 A 
ATOM     69  C   UNL A   1      44.102  28.896  36.447  1.00  0.00     0.012 A 
ATOM     70  C   UNL A   1      43.530  26.968  35.125  1.00  0.00     0.148 A 
ATOM     71  C   UNL A   1      44.849  28.086  37.312  1.00  0.00     0.002 A 
ATOM     72  C   UNL A   1      44.213  26.159  36.027  1.00  0.00     0.091 A 
ATOM     73  F   UNL A   1      43.079  26.411  34.000  1.00  0.00    -0.205 F 
ATOM     74  C   UNL A   1      44.901  26.715  37.105  1.00  0.00     0.022 A 
BRANCH  72  75
ATOM     75  S   UNL A   1      44.291  24.375  35.816  1.00  0.00     0.127 S 
ATOM     76  O   UNL A   1      45.114  24.261  34.617  1.00  0.00    -0.237 OA
ATOM     77  O   UNL A   1      44.940  23.957  37.059  1.00  0.00    -0.237 OA
ATOM     78  O   UNL A   1      42.906  23.937  35.691  1.00  0.00    -0.744 OA
ENDBRANCH  72  75
ENDBRANCH  54  68
BRANCH  55  79
ATOM     79  C   UNL A   1      43.052  23.976  28.120  1.00  0.00     0.023 A 
ATOM     80  C   UNL A   1      41.953  23.185  28.512  1.00  0.00     0.012 A 
ATOM     81  C   UNL A   1      43.884  23.500  27.083  1.00  0.00     0.148 A 
ATOM     82  C   UNL A   1      41.662  21.983  27.855  1.00  0.00     0.002 A 
ATOM     83  C   UNL A   1      43.588  22.306  26.432  1.00  0.00     0.091 A 
ATOM     84  F   UNL A   1      44.908  24.265  26.682  1.00  0.00    -0.205 F 
ATOM     85  C   UNL A   1      42.467  21.552  26.805  1.00  0.00     0.022 A 
BRANCH  83  86
ATOM     86  S   UNL A   1      44.560  21.700  25.046  1.00  0.00     0.127 S 
ATOM     87  O   UNL A   1      45.890  21.586  25.645  1.00  0.00    -0.237 OA
ATOM     88  O   UNL A   1      43.906  20.427  24.755  1.00  0.00    -0.237 OA
ATOM     89  O   UNL A   1      44.451  22.722  24.013  1.00  0.00    -0.744 OA
ENDBRANCH  83  86
ENDBRANCH  55  79
BRANCH  67  90
ATOM     90  C   UNL A   1      45.276  29.790  28.924  1.00  0.00     0.023 A 
ATOM     91  C   UNL A   1      44.125  30.086  28.166  1.00  0.00     0.012 A 
ATOM     92  C   UNL A   1      46.501  30.366  28.552  1.00  0.00     0.148 A 
ATOM     93  C   UNL A   1      44.198  30.927  27.052  1.00  0.00     0.002 A 
ATOM     94  C   UNL A   1      46.563  31.233  27.470  1.00  0.00     0.091 A 
ATOM     95  F   UNL A   1      47.582  30.074  29.291  1.00  0.00    -0.205 F 
ATOM     96  C   UNL A   1      45.416  31.510  26.711  1.00  0.00     0.022 A 
BRANCH  94  97
ATOM     97  S   UNL A   1      48.072  32.105  27.051  1.00  0.00     0.127 S 
ATOM     98  O   UNL A   1      47.631  32.972  25.960  1.00  0.00    -0.237 OA
ATOM     99  O   UNL A   1      48.384  32.801  28.300  1.00  0.00    -0.237 OA
ATOM    100  O   UNL A   1      49.042  31.081  26.680  1.00  0.00    -0.744 OA
ENDBRANCH  94  97
ENDBRANCH  67  90
ENDBRANCH  41  42
ENDBRANCH  33  36
ENDBRANCH  31  32
ENDBRANCH  30  31
ENDBRANCH   1  30
TORSDOF 18
ENDMDL
MODEL 2
REMARK VINA RESULT:     -12.0      3.290      8.610
REMARK SMILES NS(=O)(=O)c1ccc(-n2nc(C(=O)NCCCCNC(=O)c3ccc(-c4c5nc(c(-c6cccc(S(=O)(=O)[O-])c6F)c6ccc([nH]6)c(-c6cccc(S(=O)(=O)[O-])c6F)c6nc(c(-c7cccc(S(=O)(=O)[O-])c7F)c7ccc4[nH]7)C=C6)C=C5)cc3)cc2-c2ccc(Cl)s2)cc1
REMARK SMILES IDX 16 1 15 2 14 3 12 4 13 5 11 7 9 8 10 9 86 10 85 11 8 12 5 13
REMARK SMILES IDX 6 14 94 15 7 16 93 17 2 18 3 19 4 20 1 21 87 24 88 25 92 26
REMARK SMILES IDX 89 27 90 28 91 29 17 30 18 31 19 32 20 33 21 35 22 36 23 37
REMARK SMILES IDX 84 38 24 39 83 40 25 41 26 42 27 43 77 44 28 45 82 46 76 47
REMARK SMILES IDX 78 48 29 49 81 50 75 51 74 52 30 54 62 55 42 56 61 57 43 58
REMARK SMILES IDX 46 59 60 60 79 61 44 62 45 63 59 65 80 66 47 67 31 68 32 69
REMARK SMILES IDX 40 70 33 71 35 72 41 73 34 74 36 75 37 76 38 77 39 78 63 79
REMARK SMILES IDX 64 80 72 81 65 82 67 83 73 84 66 85 68 86 69 87 70 88 71 89
REMARK SMILES IDX 48 90 49 91 57 92 50 93 52 94 58 95 51 96 53 97 54 98 55 99
REMARK SMILES IDX 56 100
REMARK H PARENT 14 6 1 22 1 23 19 34 78 53 46 64
REMARK Flexibility Score: inf
ROOT
ATOM      1  C   UNL A   1      40.962  21.041  27.770  1.00  0.00     0.023 C 
ENDROOT
BRANCH   1   2
ATOM      2  C   UNL A   1      39.974  21.636  26.758  1.00  0.00     0.116 C 
BRANCH   2   3
ATOM      3  N   UNL A   1      39.652  23.017  27.052  1.00  0.00    -0.351 N 
ATOM      4  C   UNL A   1      38.614  23.853  26.701  1.00  0.00     0.271 C 
ATOM      5  O   UNL A   1      38.763  25.041  27.002  1.00  0.00    -0.267 OA
ATOM      6  H   UNL A   1      40.320  23.453  27.629  1.00  0.00     0.163 HD
BRANCH   4   7
ATOM      7  C   UNL A   1      37.398  23.380  25.995  1.00  0.00     0.151 A 
ATOM      8  N   UNL A   1      35.962  21.936  25.280  1.00  0.00    -0.231 N 
ATOM      9  N   UNL A   1      36.960  22.112  26.174  1.00  0.00    -0.162 NA
ATOM     10  C   UNL A   1      35.569  23.134  24.720  1.00  0.00     0.085 A 
ATOM     11  C   UNL A   1      36.512  24.053  25.121  1.00  0.00     0.066 A 
BRANCH   8  12
ATOM     12  C   UNL A   1      35.372  20.662  25.081  1.00  0.00     0.065 A 
ATOM     13  C   UNL A   1      34.219  18.255  24.327  1.00  0.00     0.082 A 
ATOM     14  C   UNL A   1      35.604  18.329  24.486  1.00  0.00     0.024 A 
ATOM     15  C   UNL A   1      33.400  19.358  24.602  1.00  0.00     0.024 A 
ATOM     16  C   UNL A   1      36.184  19.541  24.854  1.00  0.00     0.030 A 
ATOM     17  C   UNL A   1      33.978  20.560  25.016  1.00  0.00     0.030 A 
BRANCH  13  18
ATOM     18  S   UNL A   1      33.484  16.761  23.738  1.00  0.00     0.238 S 
ATOM     19  O   UNL A   1      32.811  16.088  24.836  1.00  0.00    -0.207 OA
ATOM     20  O   UNL A   1      34.415  16.084  22.881  1.00  0.00    -0.207 OA
BRANCH  18  21
ATOM     21  N   UNL A   1      32.253  17.331  22.755  1.00  0.00    -0.225 NA
ATOM     22  H   UNL A   1      31.745  18.071  23.241  1.00  0.00     0.137 HD
ATOM     23  H   UNL A   1      31.613  16.568  22.534  1.00  0.00     0.137 HD
ENDBRANCH  18  21
ENDBRANCH  13  18
ENDBRANCH   8  12
BRANCH  10  24
ATOM     24  C   UNL A   1      34.364  23.418  24.000  1.00  0.00     0.054 A 
ATOM     25  C   UNL A   1      34.167  23.288  22.638  1.00  0.00     0.024 A 
ATOM     26  S   UNL A   1      33.015  24.160  24.762  1.00  0.00    -0.122 S 
ATOM     27  C   UNL A   1      32.914  23.828  22.220  1.00  0.00     0.033 A 
ATOM     28  C   UNL A   1      32.214  24.332  23.285  1.00  0.00     0.094 A 
ATOM     29  Cl  UNL A   1      30.685  25.109  23.233  1.00  0.00    -0.072 Cl
ENDBRANCH  10  24
ENDBRANCH   4   7
ENDBRANCH   2   3
ENDBRANCH   1   2
BRANCH   1  30
ATOM     30  C   UNL A   1      41.957  20.024  27.183  1.00  0.00     0.023 C 
BRANCH  30  31
ATOM     31  C   UNL A   1      41.969  19.941  25.659  1.00  0.00     0.116 C 
BRANCH  31  32
ATOM     32  N   UNL A   1      43.251  19.480  25.102  1.00  0.00    -0.352 N 
ATOM     33  C   UNL A   1      44.292  20.257  24.612  1.00  0.00     0.251 C 
ATOM     34  H   UNL A   1      43.386  18.505  25.072  1.00  0.00     0.163 HD
ATOM     35  O   UNL A   1      45.127  19.803  23.838  1.00  0.00    -0.269 OA
BRANCH  33  36
ATOM     36  C   UNL A   1      44.393  21.642  25.098  1.00  0.00     0.039 A 
ATOM     37  C   UNL A   1      43.524  22.667  24.714  1.00  0.00     0.014 A 
ATOM     38  C   UNL A   1      45.368  21.849  26.062  1.00  0.00     0.014 A 
ATOM     39  C   UNL A   1      43.611  23.892  25.379  1.00  0.00     0.010 A 
ATOM     40  C   UNL A   1      45.259  22.931  26.879  1.00  0.00     0.010 A 
ATOM     41  C   UNL A   1      44.483  24.005  26.471  1.00  0.00    -0.014 A 
BRANCH  41  42
ATOM     42  C   UNL A   1      44.588  25.204  27.290  1.00  0.00     0.031 A 
ATOM     43  C   UNL A   1      45.707  26.100  26.906  1.00  0.00     0.074 A 
ATOM     44  C   UNL A   1      43.580  25.571  28.117  1.00  0.00     0.049 A 
ATOM     45  N   UNL A   1      46.815  26.297  27.542  1.00  0.00    -0.248 NA
ATOM     46  C   UNL A   1      45.680  26.710  25.566  1.00  0.00     0.031 C 
ATOM     47  C   UNL A   1      42.269  24.912  28.294  1.00  0.00     0.029 A 
ATOM     48  N   UNL A   1      43.435  26.697  28.864  1.00  0.00    -0.354 N 
ATOM     49  C   UNL A   1      47.474  27.291  26.821  1.00  0.00     0.074 A 
ATOM     50  C   UNL A   1      46.878  27.297  25.514  1.00  0.00     0.031 C 
ATOM     51  C   UNL A   1      41.395  25.772  28.855  1.00  0.00     0.029 A 
ATOM     52  C   UNL A   1      42.127  26.947  29.275  1.00  0.00     0.049 A 
ATOM     53  H   UNL A   1      44.190  27.285  29.096  1.00  0.00     0.167 HD
ATOM     54  C   UNL A   1      48.190  28.257  27.465  1.00  0.00     0.034 A 
ATOM     55  C   UNL A   1      41.678  28.058  29.904  1.00  0.00     0.034 A 
ATOM     56  C   UNL A   1      48.357  27.916  28.856  1.00  0.00     0.049 A 
ATOM     57  C   UNL A   1      42.855  28.674  30.549  1.00  0.00     0.074 A 
ATOM     58  C   UNL A   1      49.044  26.974  29.590  1.00  0.00     0.029 A 
ATOM     59  N   UNL A   1      47.357  28.411  29.654  1.00  0.00    -0.354 N 
ATOM     60  N   UNL A   1      43.543  28.084  31.486  1.00  0.00    -0.248 NA
ATOM     61  C   UNL A   1      43.513  29.796  29.896  1.00  0.00     0.031 C 
ATOM     62  C   UNL A   1      48.255  26.745  30.757  1.00  0.00     0.029 A 
ATOM     63  C   UNL A   1      47.143  27.590  30.725  1.00  0.00     0.049 A 
ATOM     64  H   UNL A   1      46.861  29.244  29.480  1.00  0.00     0.167 HD
ATOM     65  C   UNL A   1      44.852  28.446  31.217  1.00  0.00     0.074 A 
ATOM     66  C   UNL A   1      44.751  29.632  30.373  1.00  0.00     0.031 C 
ATOM     67  C   UNL A   1      45.877  27.570  31.429  1.00  0.00     0.034 A 
BRANCH  54  68
ATOM     68  C   UNL A   1      48.299  29.713  27.038  1.00  0.00     0.023 A 
ATOM     69  C   UNL A   1      49.588  30.298  27.092  1.00  0.00     0.012 A 
ATOM     70  C   UNL A   1      47.209  30.602  26.896  1.00  0.00     0.148 A 
ATOM     71  C   UNL A   1      49.772  31.686  27.061  1.00  0.00     0.002 A 
ATOM     72  C   UNL A   1      47.402  31.976  26.795  1.00  0.00     0.091 A 
ATOM     73  F   UNL A   1      45.958  30.152  27.002  1.00  0.00    -0.205 F 
ATOM     74  C   UNL A   1      48.679  32.527  26.908  1.00  0.00     0.022 A 
BRANCH  72  75
ATOM     75  S   UNL A   1      46.022  33.106  26.571  1.00  0.00     0.127 S 
ATOM     76  O   UNL A   1      46.715  34.350  26.255  1.00  0.00    -0.237 OA
ATOM     77  O   UNL A   1      45.310  32.488  25.452  1.00  0.00    -0.237 OA
ATOM     78  O   UNL A   1      45.289  33.078  27.831  1.00  0.00    -0.744 OA
ENDBRANCH  72  75
ENDBRANCH  54  68
BRANCH  55  79
ATOM     79  C   UNL A   1      40.381  28.760  29.787  1.00  0.00     0.023 A 
ATOM     80  C   UNL A   1      39.730  28.830  28.540  1.00  0.00     0.012 A 
ATOM     81  C   UNL A   1      39.644  29.080  30.948  1.00  0.00     0.148 A 
ATOM     82  C   UNL A   1      38.370  29.156  28.455  1.00  0.00     0.002 A 
ATOM     83  C   UNL A   1      38.292  29.400  30.859  1.00  0.00     0.091 A 
ATOM     84  F   UNL A   1      40.248  28.980  32.139  1.00  0.00    -0.205 F 
ATOM     85  C   UNL A   1      37.647  29.423  29.615  1.00  0.00     0.022 A 
BRANCH  83  86
ATOM     86  S   UNL A   1      37.283  29.724  32.311  1.00  0.00     0.127 S 
ATOM     87  O   UNL A   1      35.995  30.067  31.706  1.00  0.00    -0.237 OA
ATOM     88  O   UNL A   1      37.315  28.433  32.993  1.00  0.00    -0.237 OA
ATOM     89  O   UNL A   1      37.935  30.826  33.005  1.00  0.00    -0.744 OA
ENDBRANCH  83  86
ENDBRANCH  55  79
BRANCH  67  90
ATOM     90  C   UNL A   1      45.612  26.389  32.322  1.00  0.00     0.023 A 
ATOM     91  C   UNL A   1      45.106  25.162  31.846  1.00  0.00     0.012 A 
ATOM     92  C   UNL A   1      46.013  26.484  33.663  1.00  0.00     0.148 A 
ATOM     93  C   UNL A   1      44.988  24.058  32.695  1.00  0.00     0.002 A 
ATOM     94  C   UNL A   1      45.934  25.375  34.494  1.00  0.00     0.091 A 
ATOM     95  F   UNL A   1      46.496  27.660  34.093  1.00  0.00    -0.205 F 
ATOM     96  C   UNL A   1      45.414  24.161  34.017  1.00  0.00     0.022 A 
BRANCH  94  97
ATOM     97  S   UNL A   1      46.572  25.409  36.169  1.00  0.00     0.127 S 
ATOM     98  O   UNL A   1      47.990  25.688  35.950  1.00  0.00    -0.237 OA
ATOM     99  O   UNL A   1      45.815  26.511  36.765  1.00  0.00    -0.237 OA
ATOM    100  O   UNL A   1      46.276  24.102  36.742  1.00  0.00    -0.744 OA
ENDBRANCH  94  97
ENDBRANCH  67  90
ENDBRANCH  41  42
ENDBRANCH  33  36
ENDBRANCH  31  32
ENDBRANCH  30  31
ENDBRANCH   1  30
TORSDOF 18
ENDMDL
MODEL 3
REMARK VINA RESULT:     -11.9      3.880      8.146
REMARK SMILES NS(=O)(=O)c1ccc(-n2nc(C(=O)NCCCCNC(=O)c3ccc(-c4c5nc(c(-c6cccc(S(=O)(=O)[O-])c6F)c6ccc([nH]6)c(-c6cccc(S(=O)(=O)[O-])c6F)c6nc(c(-c7cccc(S(=O)(=O)[O-])c7F)c7ccc4[nH]7)C=C6)C=C5)cc3)cc2-c2ccc(Cl)s2)cc1
REMARK SMILES IDX 16 1 15 2 14 3 12 4 13 5 11 7 9 8 10 9 86 10 85 11 8 12 5 13
REMARK SMILES IDX 6 14 94 15 7 16 93 17 2 18 3 19 4 20 1 21 87 24 88 25 92 26
REMARK SMILES IDX 89 27 90 28 91 29 17 30 18 31 19 32 20 33 21 35 22 36 23 37
REMARK SMILES IDX 84 38 24 39 83 40 25 41 26 42 27 43 77 44 28 45 82 46 76 47
REMARK SMILES IDX 78 48 29 49 81 50 75 51 74 52 30 54 62 55 42 56 61 57 43 58
REMARK SMILES IDX 46 59 60 60 79 61 44 62 45 63 59 65 80 66 47 67 31 68 32 69
REMARK SMILES IDX 40 70 33 71 35 72 41 73 34 74 36 75 37 76 38 77 39 78 63 79
REMARK SMILES IDX 64 80 72 81 65 82 67 83 73 84 66 85 68 86 69 87 70 88 71 89
REMARK SMILES IDX 48 90 49 91 57 92 50 93 52 94 58 95 51 96 53 97 54 98 55 99
REMARK SMILES IDX 56 100
REMARK H PARENT 14 6 1 22 1 23 19 34 78 53 46 64
REMARK Flexibility Score: inf
ROOT
ATOM      1  C   UNL A   1      33.514  21.356  24.987  1.00  0.00     0.023 C 
ENDROOT
BRANCH   1   2
ATOM      2  C   UNL A   1      32.425  21.886  24.045  1.00  0.00     0.116 C 
BRANCH   2   3
ATOM      3  N   UNL A   1      32.971  22.374  22.795  1.00  0.00    -0.351 N 
ATOM      4  C   UNL A   1      33.027  23.613  22.194  1.00  0.00     0.271 C 
ATOM      5  O   UNL A   1      33.425  23.620  21.026  1.00  0.00    -0.267 OA
ATOM      6  H   UNL A   1      33.395  21.666  22.259  1.00  0.00     0.163 HD
BRANCH   4   7
ATOM      7  C   UNL A   1      32.622  24.864  22.881  1.00  0.00     0.151 A 
ATOM      8  N   UNL A   1      31.551  26.719  23.143  1.00  0.00    -0.231 N 
ATOM      9  N   UNL A   1      31.554  25.568  22.437  1.00  0.00    -0.162 NA
ATOM     10  C   UNL A   1      32.422  26.659  24.211  1.00  0.00     0.085 A 
ATOM     11  C   UNL A   1      33.154  25.509  24.023  1.00  0.00     0.066 A 
BRANCH   8  12
ATOM     12  C   UNL A   1      30.652  27.770  22.828  1.00  0.00     0.065 A 
ATOM     13  C   UNL A   1      29.003  29.981  22.535  1.00  0.00     0.082 A 
ATOM     14  C   UNL A   1      30.272  29.993  21.953  1.00  0.00     0.024 A 
ATOM     15  C   UNL A   1      28.529  28.848  23.210  1.00  0.00     0.024 A 
ATOM     16  C   UNL A   1      31.104  28.887  22.109  1.00  0.00     0.030 A 
ATOM     17  C   UNL A   1      29.346  27.722  23.326  1.00  0.00     0.030 A 
BRANCH  13  18
ATOM     18  S   UNL A   1      27.988  31.423  22.452  1.00  0.00     0.238 S 
ATOM     19  O   UNL A   1      27.041  31.412  23.555  1.00  0.00    -0.207 OA
ATOM     20  O   UNL A   1      27.578  31.634  21.093  1.00  0.00    -0.207 OA
BRANCH  18  21
ATOM     21  N   UNL A   1      29.073  32.646  22.822  1.00  0.00    -0.225 NA
ATOM     22  H   UNL A   1      29.952  32.481  22.329  1.00  0.00     0.137 HD
ATOM     23  H   UNL A   1      29.245  32.656  23.827  1.00  0.00     0.137 HD
ENDBRANCH  18  21
ENDBRANCH  13  18
ENDBRANCH   8  12
BRANCH  10  24
ATOM     24  C   UNL A   1      32.473  27.516  25.358  1.00  0.00     0.054 A 
ATOM     25  C   UNL A   1      31.780  27.349  26.543  1.00  0.00     0.024 A 
ATOM     26  S   UNL A   1      33.305  29.017  25.322  1.00  0.00    -0.122 S 
ATOM     27  C   UNL A   1      31.914  28.476  27.408  1.00  0.00     0.033 A 
ATOM     28  C   UNL A   1      32.710  29.439  26.846  1.00  0.00     0.094 A 
ATOM     29  Cl  UNL A   1      33.103  30.968  27.518  1.00  0.00    -0.072 Cl
ENDBRANCH  10  24
ENDBRANCH   4   7
ENDBRANCH   2   3
ENDBRANCH   1   2
BRANCH   1  30
ATOM     30  C   UNL A   1      34.897  22.008  24.811  1.00  0.00     0.023 C 
BRANCH  30  31
ATOM     31  C   UNL A   1      35.960  21.542  25.802  1.00  0.00     0.116 C 
BRANCH  31  32
ATOM     32  N   UNL A   1      36.787  20.432  25.303  1.00  0.00    -0.352 N 
ATOM     33  C   UNL A   1      38.172  20.378  25.213  1.00  0.00     0.251 C 
ATOM     34  H   UNL A   1      36.301  19.632  24.996  1.00  0.00     0.163 HD
ATOM     35  O   UNL A   1      38.739  19.603  24.453  1.00  0.00    -0.269 OA
BRANCH  33  36
ATOM     36  C   UNL A   1      38.944  21.256  26.107  1.00  0.00     0.039 A 
ATOM     37  C   UNL A   1      40.090  20.850  26.797  1.00  0.00     0.014 A 
ATOM     38  C   UNL A   1      38.510  22.572  26.145  1.00  0.00     0.014 A 
ATOM     39  C   UNL A   1      40.834  21.820  27.471  1.00  0.00     0.010 A 
ATOM     40  C   UNL A   1      39.378  23.534  26.559  1.00  0.00     0.010 A 
ATOM     41  C   UNL A   1      40.467  23.166  27.334  1.00  0.00    -0.014 A 
BRANCH  41  42
ATOM     42  C   UNL A   1      41.223  24.265  27.917  1.00  0.00     0.031 A 
ATOM     43  C   UNL A   1      40.492  25.556  27.938  1.00  0.00     0.074 A 
ATOM     44  C   UNL A   1      42.359  24.032  28.619  1.00  0.00     0.049 A 
ATOM     45  N   UNL A   1      40.705  26.597  27.201  1.00  0.00    -0.248 NA
ATOM     46  C   UNL A   1      39.260  25.643  28.739  1.00  0.00     0.031 C 
ATOM     47  C   UNL A   1      42.968  22.725  28.946  1.00  0.00     0.029 A 
ATOM     48  N   UNL A   1      43.133  24.893  29.330  1.00  0.00    -0.354 N 
ATOM     49  C   UNL A   1      39.820  27.564  27.676  1.00  0.00     0.074 A 
ATOM     50  C   UNL A   1      38.804  26.853  28.401  1.00  0.00     0.031 C 
ATOM     51  C   UNL A   1      43.818  22.863  29.984  1.00  0.00     0.029 A 
ATOM     52  C   UNL A   1      43.980  24.276  30.249  1.00  0.00     0.049 A 
ATOM     53  H   UNL A   1      43.099  25.869  29.206  1.00  0.00     0.167 HD
ATOM     54  C   UNL A   1      40.195  28.873  27.742  1.00  0.00     0.034 A 
ATOM     55  C   UNL A   1      44.751  24.892  31.175  1.00  0.00     0.034 A 
ATOM     56  C   UNL A   1      41.432  29.080  27.031  1.00  0.00     0.049 A 
ATOM     57  C   UNL A   1      44.957  26.272  30.693  1.00  0.00     0.074 A 
ATOM     58  C   UNL A   1      41.859  29.066  25.722  1.00  0.00     0.029 A 
ATOM     59  N   UNL A   1      42.540  28.934  27.827  1.00  0.00    -0.354 N 
ATOM     60  N   UNL A   1      45.581  26.551  29.583  1.00  0.00    -0.248 NA
ATOM     61  C   UNL A   1      44.139  27.343  31.242  1.00  0.00     0.031 C 
ATOM     62  C   UNL A   1      43.223  28.648  25.766  1.00  0.00     0.029 A 
ATOM     63  C   UNL A   1      43.600  28.473  27.099  1.00  0.00     0.049 A 
ATOM     64  H   UNL A   1      42.567  29.134  28.791  1.00  0.00     0.167 HD
ATOM     65  C   UNL A   1      44.879  27.628  29.067  1.00  0.00     0.074 A 
ATOM     66  C   UNL A   1      44.150  28.183  30.203  1.00  0.00     0.031 C 
ATOM     67  C   UNL A   1      44.701  27.766  27.721  1.00  0.00     0.034 A 
BRANCH  54  68
ATOM     68  C   UNL A   1      39.788  29.857  28.829  1.00  0.00     0.023 A 
ATOM     69  C   UNL A   1      40.503  29.791  30.049  1.00  0.00     0.012 A 
ATOM     70  C   UNL A   1      38.585  30.600  28.843  1.00  0.00     0.148 A 
ATOM     71  C   UNL A   1      40.020  30.382  31.223  1.00  0.00     0.002 A 
ATOM     72  C   UNL A   1      38.145  31.245  29.994  1.00  0.00     0.091 A 
ATOM     73  F   UNL A   1      37.770  30.578  27.787  1.00  0.00    -0.205 F 
ATOM     74  C   UNL A   1      38.841  31.115  31.195  1.00  0.00     0.022 A 
BRANCH  72  75
ATOM     75  S   UNL A   1      36.638  32.226  30.004  1.00  0.00     0.127 S 
ATOM     76  O   UNL A   1      35.618  31.188  29.893  1.00  0.00    -0.237 OA
ATOM     77  O   UNL A   1      36.719  32.882  31.310  1.00  0.00    -0.237 OA
ATOM     78  O   UNL A   1      36.758  33.136  28.872  1.00  0.00    -0.744 OA
ENDBRANCH  72  75
ENDBRANCH  54  68
BRANCH  55  79
ATOM     79  C   UNL A   1      45.109  24.471  32.547  1.00  0.00     0.023 A 
ATOM     80  C   UNL A   1      44.300  23.543  33.232  1.00  0.00     0.012 A 
ATOM     81  C   UNL A   1      46.401  24.736  33.052  1.00  0.00     0.148 A 
ATOM     82  C   UNL A   1      44.782  22.859  34.355  1.00  0.00     0.002 A 
ATOM     83  C   UNL A   1      46.877  24.051  34.167  1.00  0.00     0.091 A 
ATOM     84  F   UNL A   1      47.188  25.590  32.384  1.00  0.00    -0.205 F 
ATOM     85  C   UNL A   1      46.075  23.099  34.812  1.00  0.00     0.022 A 
BRANCH  83  86
ATOM     86  S   UNL A   1      48.545  24.280  34.797  1.00  0.00     0.127 S 
ATOM     87  O   UNL A   1      48.548  25.709  35.112  1.00  0.00    -0.237 OA
ATOM     88  O   UNL A   1      48.551  23.396  35.959  1.00  0.00    -0.237 OA
ATOM     89  O   UNL A   1      49.432  23.902  33.706  1.00  0.00    -0.744 OA
ENDBRANCH  83  86
ENDBRANCH  55  79
BRANCH  67  90
ATOM     90  C   UNL A   1      45.605  26.977  26.813  1.00  0.00     0.023 A 
ATOM     91  C   UNL A   1      46.945  27.334  26.561  1.00  0.00     0.012 A 
ATOM     92  C   UNL A   1      45.117  25.764  26.304  1.00  0.00     0.148 A 
ATOM     93  C   UNL A   1      47.777  26.504  25.805  1.00  0.00     0.002 A 
ATOM     94  C   UNL A   1      45.957  24.921  25.589  1.00  0.00     0.091 A 
ATOM     95  F   UNL A   1      43.840  25.442  26.561  1.00  0.00    -0.205 F 
ATOM     96  C   UNL A   1      47.286  25.291  25.328  1.00  0.00     0.022 A 
BRANCH  94  97
ATOM     97  S   UNL A   1      45.420  23.299  25.049  1.00  0.00     0.127 S 
ATOM     98  O   UNL A   1      43.977  23.485  24.911  1.00  0.00    -0.237 OA
ATOM     99  O   UNL A   1      46.142  23.139  23.786  1.00  0.00    -0.237 OA
ATOM    100  O   UNL A   1      45.831  22.367  26.093  1.00  0.00    -0.744 OA
ENDBRANCH  94  97
ENDBRANCH  67  90
ENDBRANCH  41  42
ENDBRANCH  33  36
ENDBRANCH  31  32
ENDBRANCH  30  31
ENDBRANCH   1  30
TORSDOF 18
ENDMDL
