MODEL 1
REMARK VINA RESULT:     -10.7      0.000      0.000
REMARK SMILES Cc1ccc(S(=O)(=O)Nc2ccc(C(=O)CCC(=O)NCCCCNC(=O)c3ccc(-c4c5nc(c(-c6cccc(S(=O)(=O)[O-])c6F)c6ccc([nH]6)c(-c6cccc(S(=O)(=O)[O-])c6F)c6nc(c(-c7cccc(S(=O)(=O)[O-])c7F)c7ccc4[nH]7)C=C6)C=C5)cc3)cc2)c(C)c1
REMARK SMILES IDX 21 1 20 2 18 3 19 4 17 6 16 7 14 8 15 9 13 10 10 11 11 12
REMARK SMILES IDX 92 13 12 14 91 15 9 16 6 18 7 19 8 20 5 21 1 22 2 23 3 24
REMARK SMILES IDX 95 25 4 26 93 27 94 28 22 29 23 30 24 31 25 32 26 33 27 35
REMARK SMILES IDX 28 36 29 37 90 38 30 39 89 40 31 41 32 42 33 43 83 44 34 45
REMARK SMILES IDX 88 46 82 47 84 48 35 49 87 50 81 51 80 52 36 54 68 55 48 56
REMARK SMILES IDX 67 57 49 58 52 59 66 60 85 61 50 62 51 63 65 65 86 66 53 67
REMARK SMILES IDX 37 68 38 69 46 70 39 71 41 72 47 73 40 74 42 75 43 76 44 77
REMARK SMILES IDX 45 78 69 79 70 80 78 81 71 82 73 83 79 84 72 85 74 86 75 87
REMARK SMILES IDX 76 88 77 89 54 90 55 91 63 92 56 93 58 94 64 95 57 96 59 97
REMARK SMILES IDX 60 98 61 99 62 100
REMARK H PARENT 20 5 9 17 25 34 84 53 52 64
REMARK Flexibility Score: inf
ROOT
ATOM      1  C   UNL A   1      34.949  32.343  27.949  1.00  0.00     0.116 C 
ENDROOT
BRANCH   1   2
ATOM      2  N   UNL A   1      35.569  31.082  28.325  1.00  0.00    -0.356 N 
ATOM      3  C   UNL A   1      35.741  29.934  27.624  1.00  0.00     0.220 C 
ATOM      4  O   UNL A   1      36.666  29.182  27.935  1.00  0.00    -0.275 OA
ATOM      5  H   UNL A   1      35.924  31.058  29.243  1.00  0.00     0.163 HD
BRANCH   3   6
ATOM      6  C   UNL A   1      34.733  29.532  26.588  1.00  0.00     0.108 C 
BRANCH   6   7
ATOM      7  C   UNL A   1      33.460  29.057  27.297  1.00  0.00     0.091 C 
BRANCH   7   8
ATOM      8  C   UNL A   1      32.193  29.530  26.601  1.00  0.00     0.163 C 
ATOM      9  O   UNL A   1      31.640  30.561  26.990  1.00  0.00    -0.294 OA
BRANCH   8  10
ATOM     10  C   UNL A   1      31.524  28.694  25.542  1.00  0.00     0.018 A 
ATOM     11  C   UNL A   1      31.103  26.895  23.406  1.00  0.00     0.049 A 
ATOM     12  C   UNL A   1      31.170  26.432  24.726  1.00  0.00     0.027 A 
ATOM     13  C   UNL A   1      31.033  28.271  23.195  1.00  0.00     0.027 A 
ATOM     14  C   UNL A   1      31.381  27.323  25.789  1.00  0.00     0.014 A 
ATOM     15  C   UNL A   1      31.218  29.168  24.263  1.00  0.00     0.014 A 
BRANCH  11  16
ATOM     16  N   UNL A   1      31.480  25.958  22.394  1.00  0.00    -0.280 N 
ATOM     17  H   UNL A   1      30.748  25.521  21.901  1.00  0.00     0.180 HD
BRANCH  16  18
ATOM     18  S   UNL A   1      33.046  25.527  21.960  1.00  0.00     0.262 S 
ATOM     19  O   UNL A   1      33.892  26.688  22.140  1.00  0.00    -0.201 OA
ATOM     20  O   UNL A   1      32.896  24.851  20.694  1.00  0.00    -0.201 OA
BRANCH  18  21
ATOM     21  C   UNL A   1      33.629  24.274  23.101  1.00  0.00     0.090 A 
ATOM     22  C   UNL A   1      35.398  20.810  24.945  1.00  0.00     0.044 C 
ATOM     23  C   UNL A   1      34.742  22.045  24.402  1.00  0.00    -0.051 A 
ATOM     24  C   UNL A   1      35.443  23.246  24.331  1.00  0.00     0.005 A 
ATOM     25  C   UNL A   1      33.409  22.030  23.990  1.00  0.00     0.008 A 
ATOM     26  C   UNL A   1      34.908  24.346  23.651  1.00  0.00     0.023 A 
ATOM     27  C   UNL A   1      32.824  23.151  23.372  1.00  0.00    -0.030 A 
ATOM     28  C   UNL A   1      31.339  23.108  23.134  1.00  0.00     0.046 C 
ENDBRANCH  18  21
ENDBRANCH  16  18
ENDBRANCH  11  16
ENDBRANCH   8  10
ENDBRANCH   7   8
ENDBRANCH   6   7
ENDBRANCH   3   6
ENDBRANCH   1   2
BRANCH   1  29
ATOM     29  C   UNL A   1      34.041  32.969  29.010  1.00  0.00     0.023 C 
BRANCH  29  30
ATOM     30  C   UNL A   1      33.267  34.197  28.536  1.00  0.00     0.023 C 
BRANCH  30  31
ATOM     31  C   UNL A   1      33.689  35.556  29.087  1.00  0.00     0.116 C 
BRANCH  31  32
ATOM     32  N   UNL A   1      32.912  35.906  30.261  1.00  0.00    -0.352 N 
ATOM     33  C   UNL A   1      32.969  35.449  31.558  1.00  0.00     0.251 C 
ATOM     34  H   UNL A   1      32.224  36.593  30.104  1.00  0.00     0.163 HD
ATOM     35  O   UNL A   1      31.998  35.678  32.281  1.00  0.00    -0.269 OA
BRANCH  33  36
ATOM     36  C   UNL A   1      34.136  34.712  32.126  1.00  0.00     0.039 A 
ATOM     37  C   UNL A   1      35.417  35.251  31.922  1.00  0.00     0.014 A 
ATOM     38  C   UNL A   1      34.034  33.459  32.736  1.00  0.00     0.014 A 
ATOM     39  C   UNL A   1      36.568  34.548  32.314  1.00  0.00     0.010 A 
ATOM     40  C   UNL A   1      35.179  32.795  33.199  1.00  0.00     0.010 A 
ATOM     41  C   UNL A   1      36.463  33.310  32.962  1.00  0.00    -0.014 A 
BRANCH  41  42
ATOM     42  C   UNL A   1      37.673  32.525  33.353  1.00  0.00     0.031 A 
ATOM     43  C   UNL A   1      38.451  32.887  34.599  1.00  0.00     0.074 A 
ATOM     44  C   UNL A   1      38.118  31.523  32.567  1.00  0.00     0.049 A 
ATOM     45  N   UNL A   1      39.560  32.368  35.064  1.00  0.00    -0.248 NA
ATOM     46  C   UNL A   1      37.924  33.990  35.421  1.00  0.00     0.031 C 
ATOM     47  C   UNL A   1      37.500  31.093  31.312  1.00  0.00     0.029 A 
ATOM     48  N   UNL A   1      39.213  30.700  32.693  1.00  0.00    -0.354 N 
ATOM     49  C   UNL A   1      39.893  33.113  36.192  1.00  0.00     0.074 A 
ATOM     50  C   UNL A   1      38.872  34.129  36.338  1.00  0.00     0.031 C 
ATOM     51  C   UNL A   1      38.225  30.094  30.782  1.00  0.00     0.029 A 
ATOM     52  C   UNL A   1      39.378  29.830  31.640  1.00  0.00     0.049 A 
ATOM     53  H   UNL A   1      39.824  30.732  33.466  1.00  0.00     0.167 HD
ATOM     54  C   UNL A   1      40.935  32.957  37.045  1.00  0.00     0.034 A 
ATOM     55  C   UNL A   1      40.349  28.931  31.382  1.00  0.00     0.034 A 
ATOM     56  C   UNL A   1      41.914  31.908  36.944  1.00  0.00     0.049 A 
ATOM     57  C   UNL A   1      41.474  28.755  32.368  1.00  0.00     0.074 A 
ATOM     58  C   UNL A   1      42.941  31.604  37.822  1.00  0.00     0.029 A 
ATOM     59  N   UNL A   1      41.994  30.994  35.906  1.00  0.00    -0.354 N 
ATOM     60  N   UNL A   1      41.673  29.361  33.513  1.00  0.00    -0.248 NA
ATOM     61  C   UNL A   1      42.492  27.743  32.044  1.00  0.00     0.031 C 
ATOM     62  C   UNL A   1      43.657  30.522  37.302  1.00  0.00     0.029 A 
ATOM     63  C   UNL A   1      43.059  30.134  36.114  1.00  0.00     0.049 A 
ATOM     64  H   UNL A   1      41.383  30.960  35.134  1.00  0.00     0.167 HD
ATOM     65  C   UNL A   1      42.809  28.776  34.063  1.00  0.00     0.074 A 
ATOM     66  C   UNL A   1      43.243  27.752  33.137  1.00  0.00     0.031 C 
ATOM     67  C   UNL A   1      43.444  29.071  35.223  1.00  0.00     0.034 A 
BRANCH  54  68
ATOM     68  C   UNL A   1      41.058  33.913  38.206  1.00  0.00     0.023 A 
ATOM     69  C   UNL A   1      41.904  35.035  38.097  1.00  0.00     0.012 A 
ATOM     70  C   UNL A   1      40.265  33.755  39.361  1.00  0.00     0.148 A 
ATOM     71  C   UNL A   1      41.980  35.970  39.129  1.00  0.00     0.002 A 
ATOM     72  C   UNL A   1      40.315  34.713  40.367  1.00  0.00     0.091 A 
ATOM     73  F   UNL A   1      39.477  32.675  39.451  1.00  0.00    -0.205 F 
ATOM     74  C   UNL A   1      41.179  35.815  40.257  1.00  0.00     0.022 A 
BRANCH  72  75
ATOM     75  S   UNL A   1      39.264  34.651  41.823  1.00  0.00     0.127 S 
ATOM     76  O   UNL A   1      39.761  33.451  42.495  1.00  0.00    -0.237 OA
ATOM     77  O   UNL A   1      39.597  35.907  42.496  1.00  0.00    -0.237 OA
ATOM     78  O   UNL A   1      37.896  34.568  41.332  1.00  0.00    -0.744 OA
ENDBRANCH  72  75
ENDBRANCH  54  68
BRANCH  55  79
ATOM     79  C   UNL A   1      40.278  28.073  30.163  1.00  0.00     0.023 A 
ATOM     80  C   UNL A   1      39.402  26.969  30.150  1.00  0.00     0.012 A 
ATOM     81  C   UNL A   1      41.066  28.334  29.025  1.00  0.00     0.148 A 
ATOM     82  C   UNL A   1      39.342  26.118  29.046  1.00  0.00     0.002 A 
ATOM     83  C   UNL A   1      40.960  27.515  27.906  1.00  0.00     0.091 A 
ATOM     84  F   UNL A   1      41.907  29.378  29.059  1.00  0.00    -0.205 F 
ATOM     85  C   UNL A   1      40.114  26.396  27.921  1.00  0.00     0.022 A 
BRANCH  83  86
ATOM     86  S   UNL A   1      41.817  27.873  26.368  1.00  0.00     0.127 S 
ATOM     87  O   UNL A   1      41.398  26.756  25.525  1.00  0.00    -0.237 OA
ATOM     88  O   UNL A   1      41.250  29.170  25.999  1.00  0.00    -0.237 OA
ATOM     89  O   UNL A   1      43.231  27.916  26.714  1.00  0.00    -0.744 OA
ENDBRANCH  83  86
ENDBRANCH  55  79
BRANCH  67  90
ATOM     90  C   UNL A   1      44.650  28.249  35.596  1.00  0.00     0.023 A 
ATOM     91  C   UNL A   1      45.937  28.665  35.196  1.00  0.00     0.012 A 
ATOM     92  C   UNL A   1      44.516  27.105  36.408  1.00  0.00     0.148 A 
ATOM     93  C   UNL A   1      47.066  27.938  35.571  1.00  0.00     0.002 A 
ATOM     94  C   UNL A   1      45.650  26.413  36.819  1.00  0.00     0.091 A 
ATOM     95  F   UNL A   1      43.285  26.713  36.764  1.00  0.00    -0.205 F 
ATOM     96  C   UNL A   1      46.924  26.821  36.391  1.00  0.00     0.022 A 
BRANCH  94  97
ATOM     97  S   UNL A   1      45.570  25.023  37.955  1.00  0.00     0.127 S 
ATOM     98  O   UNL A   1      46.961  24.917  38.393  1.00  0.00    -0.237 OA
ATOM     99  O   UNL A   1      44.646  25.511  38.980  1.00  0.00    -0.237 OA
ATOM    100  O   UNL A   1      45.071  23.897  37.179  1.00  0.00    -0.744 OA
ENDBRANCH  94  97
ENDBRANCH  67  90
ENDBRANCH  41  42
ENDBRANCH  33  36
ENDBRANCH  31  32
ENDBRANCH  30  31
ENDBRANCH  29  30
ENDBRANCH   1  29
TORSDOF 20
ENDMDL
MODEL 2
REMARK VINA RESULT:     -10.5      6.077     11.056
REMARK SMILES Cc1ccc(S(=O)(=O)Nc2ccc(C(=O)CCC(=O)NCCCCNC(=O)c3ccc(-c4c5nc(c(-c6cccc(S(=O)(=O)[O-])c6F)c6ccc([nH]6)c(-c6cccc(S(=O)(=O)[O-])c6F)c6nc(c(-c7cccc(S(=O)(=O)[O-])c7F)c7ccc4[nH]7)C=C6)C=C5)cc3)cc2)c(C)c1
REMARK SMILES IDX 21 1 20 2 18 3 19 4 17 6 16 7 14 8 15 9 13 10 10 11 11 12
REMARK SMILES IDX 92 13 12 14 91 15 9 16 6 18 7 19 8 20 5 21 1 22 2 23 3 24
REMARK SMILES IDX 95 25 4 26 93 27 94 28 22 29 23 30 24 31 25 32 26 33 27 35
REMARK SMILES IDX 28 36 29 37 90 38 30 39 89 40 31 41 32 42 33 43 83 44 34 45
REMARK SMILES IDX 88 46 82 47 84 48 35 49 87 50 81 51 80 52 36 54 68 55 48 56
REMARK SMILES IDX 67 57 49 58 52 59 66 60 85 61 50 62 51 63 65 65 86 66 53 67
REMARK SMILES IDX 37 68 38 69 46 70 39 71 41 72 47 73 40 74 42 75 43 76 44 77
REMARK SMILES IDX 45 78 69 79 70 80 78 81 71 82 73 83 79 84 72 85 74 86 75 87
REMARK SMILES IDX 76 88 77 89 54 90 55 91 63 92 56 93 58 94 64 95 57 96 59 97
REMARK SMILES IDX 60 98 61 99 62 100
REMARK H PARENT 20 5 9 17 25 34 84 53 52 64
REMARK Flexibility Score: inf
ROOT
ATOM      1  C   UNL A   1      35.428  22.165  26.330  1.00  0.00     0.116 C 
ENDROOT
BRANCH   1   2
ATOM      2  N   UNL A   1      34.516  22.432  27.432  1.00  0.00    -0.356 N 
ATOM      3  C   UNL A   1      33.171  22.601  27.450  1.00  0.00     0.220 C 
ATOM      4  O   UNL A   1      32.556  22.353  28.488  1.00  0.00    -0.275 OA
ATOM      5  H   UNL A   1      34.949  22.501  28.314  1.00  0.00     0.163 HD
BRANCH   3   6
ATOM      6  C   UNL A   1      32.479  23.214  26.268  1.00  0.00     0.108 C 
BRANCH   6   7
ATOM      7  C   UNL A   1      31.672  22.127  25.550  1.00  0.00     0.091 C 
BRANCH   7   8
ATOM      8  C   UNL A   1      32.097  21.944  24.102  1.00  0.00     0.163 C 
ATOM      9  O   UNL A   1      32.208  20.804  23.645  1.00  0.00    -0.294 OA
BRANCH   8  10
ATOM     10  C   UNL A   1      32.519  23.117  23.257  1.00  0.00     0.018 A 
ATOM     11  C   UNL A   1      33.320  25.705  22.459  1.00  0.00     0.049 A 
ATOM     12  C   UNL A   1      34.269  24.757  22.866  1.00  0.00     0.027 A 
ATOM     13  C   UNL A   1      32.011  25.276  22.254  1.00  0.00     0.027 A 
ATOM     14  C   UNL A   1      33.873  23.471  23.264  1.00  0.00     0.014 A 
ATOM     15  C   UNL A   1      31.615  23.979  22.628  1.00  0.00     0.014 A 
BRANCH  11  16
ATOM     16  N   UNL A   1      33.686  27.074  22.646  1.00  0.00    -0.280 N 
ATOM     17  H   UNL A   1      34.570  27.346  22.307  1.00  0.00     0.180 HD
BRANCH  16  18
ATOM     18  S   UNL A   1      32.759  28.267  23.383  1.00  0.00     0.262 S 
ATOM     19  O   UNL A   1      31.991  28.934  22.352  1.00  0.00    -0.201 OA
ATOM     20  O   UNL A   1      33.685  28.960  24.246  1.00  0.00    -0.201 OA
BRANCH  18  21
ATOM     21  C   UNL A   1      31.585  27.479  24.482  1.00  0.00     0.090 A 
ATOM     22  C   UNL A   1      29.062  24.704  26.596  1.00  0.00     0.044 C 
ATOM     23  C   UNL A   1      29.892  25.753  25.916  1.00  0.00    -0.051 A 
ATOM     24  C   UNL A   1      31.132  26.119  26.433  1.00  0.00     0.005 A 
ATOM     25  C   UNL A   1      29.429  26.410  24.775  1.00  0.00     0.008 A 
ATOM     26  C   UNL A   1      31.993  26.947  25.705  1.00  0.00     0.023 A 
ATOM     27  C   UNL A   1      30.250  27.307  24.067  1.00  0.00    -0.030 A 
ATOM     28  C   UNL A   1      29.607  28.105  22.965  1.00  0.00     0.046 C 
ENDBRANCH  18  21
ENDBRANCH  16  18
ENDBRANCH  11  16
ENDBRANCH   8  10
ENDBRANCH   7   8
ENDBRANCH   6   7
ENDBRANCH   3   6
ENDBRANCH   1   2
BRANCH   1  29
ATOM     29  C   UNL A   1      35.258  20.805  25.651  1.00  0.00     0.023 C 
BRANCH  29  30
ATOM     30  C   UNL A   1      36.321  20.482  24.604  1.00  0.00     0.023 C 
BRANCH  30  31
ATOM     31  C   UNL A   1      37.708  21.090  24.791  1.00  0.00     0.116 C 
BRANCH  31  32
ATOM     32  N   UNL A   1      38.562  20.207  25.564  1.00  0.00    -0.352 N 
ATOM     33  C   UNL A   1      39.707  20.454  26.287  1.00  0.00     0.251 C 
ATOM     34  H   UNL A   1      38.272  19.266  25.573  1.00  0.00     0.163 HD
ATOM     35  O   UNL A   1      40.407  19.485  26.586  1.00  0.00    -0.269 OA
BRANCH  33  36
ATOM     36  C   UNL A   1      40.128  21.815  26.733  1.00  0.00     0.039 A 
ATOM     37  C   UNL A   1      39.552  22.924  26.092  1.00  0.00     0.014 A 
ATOM     38  C   UNL A   1      41.149  22.041  27.659  1.00  0.00     0.014 A 
ATOM     39  C   UNL A   1      39.994  24.228  26.367  1.00  0.00     0.010 A 
ATOM     40  C   UNL A   1      41.534  23.347  27.992  1.00  0.00     0.010 A 
ATOM     41  C   UNL A   1      40.991  24.457  27.326  1.00  0.00    -0.014 A 
BRANCH  41  42
ATOM     42  C   UNL A   1      41.505  25.831  27.609  1.00  0.00     0.031 A 
ATOM     43  C   UNL A   1      42.904  26.228  27.188  1.00  0.00     0.074 A 
ATOM     44  C   UNL A   1      40.748  26.714  28.292  1.00  0.00     0.049 A 
ATOM     45  N   UNL A   1      43.548  27.348  27.402  1.00  0.00    -0.248 NA
ATOM     46  C   UNL A   1      43.689  25.227  26.446  1.00  0.00     0.031 C 
ATOM     47  C   UNL A   1      39.401  26.458  28.804  1.00  0.00     0.029 A 
ATOM     48  N   UNL A   1      41.016  28.000  28.701  1.00  0.00    -0.354 N 
ATOM     49  C   UNL A   1      44.824  27.167  26.877  1.00  0.00     0.074 A 
ATOM     50  C   UNL A   1      44.868  25.824  26.341  1.00  0.00     0.031 C 
ATOM     51  C   UNL A   1      38.963  27.544  29.461  1.00  0.00     0.029 A 
ATOM     52  C   UNL A   1      40.007  28.566  29.447  1.00  0.00     0.049 A 
ATOM     53  H   UNL A   1      41.852  28.472  28.482  1.00  0.00     0.167 HD
ATOM     54  C   UNL A   1      45.859  28.041  26.821  1.00  0.00     0.034 A 
ATOM     55  C   UNL A   1      39.930  29.763  30.063  1.00  0.00     0.034 A 
ATOM     56  C   UNL A   1      45.799  29.399  27.291  1.00  0.00     0.049 A 
ATOM     57  C   UNL A   1      41.083  30.728  29.950  1.00  0.00     0.074 A 
ATOM     58  C   UNL A   1      46.758  30.390  27.179  1.00  0.00     0.029 A 
ATOM     59  N   UNL A   1      44.726  29.959  27.965  1.00  0.00    -0.354 N 
ATOM     60  N   UNL A   1      42.215  30.591  29.304  1.00  0.00    -0.248 NA
ATOM     61  C   UNL A   1      40.932  32.027  30.624  1.00  0.00     0.031 C 
ATOM     62  C   UNL A   1      46.276  31.542  27.807  1.00  0.00     0.029 A 
ATOM     63  C   UNL A   1      45.004  31.276  28.286  1.00  0.00     0.049 A 
ATOM     64  H   UNL A   1      43.888  29.489  28.184  1.00  0.00     0.167 HD
ATOM     65  C   UNL A   1      42.889  31.798  29.457  1.00  0.00     0.074 A 
ATOM     66  C   UNL A   1      42.030  32.663  30.238  1.00  0.00     0.031 C 
ATOM     67  C   UNL A   1      44.116  32.154  29.003  1.00  0.00     0.034 A 
BRANCH  54  68
ATOM     68  C   UNL A   1      47.147  27.582  26.183  1.00  0.00     0.023 A 
ATOM     69  C   UNL A   1      47.335  27.751  24.797  1.00  0.00     0.012 A 
ATOM     70  C   UNL A   1      48.204  27.078  26.968  1.00  0.00     0.148 A 
ATOM     71  C   UNL A   1      48.544  27.400  24.196  1.00  0.00     0.002 A 
ATOM     72  C   UNL A   1      49.420  26.770  26.369  1.00  0.00     0.091 A 
ATOM     73  F   UNL A   1      48.002  26.912  28.282  1.00  0.00    -0.205 F 
ATOM     74  C   UNL A   1      49.588  26.921  24.982  1.00  0.00     0.022 A 
BRANCH  72  75
ATOM     75  S   UNL A   1      50.855  26.224  27.302  1.00  0.00     0.127 S 
ATOM     76  O   UNL A   1      50.666  24.774  27.314  1.00  0.00    -0.237 OA
ATOM     77  O   UNL A   1      51.962  26.686  26.464  1.00  0.00    -0.237 OA
ATOM     78  O   UNL A   1      50.764  26.874  28.601  1.00  0.00    -0.744 OA
ENDBRANCH  72  75
ENDBRANCH  54  68
BRANCH  55  79
ATOM     79  C   UNL A   1      38.691  30.157  30.796  1.00  0.00     0.023 A 
ATOM     80  C   UNL A   1      38.500  29.703  32.116  1.00  0.00     0.012 A 
ATOM     81  C   UNL A   1      37.705  30.968  30.202  1.00  0.00     0.148 A 
ATOM     82  C   UNL A   1      37.333  30.013  32.816  1.00  0.00     0.002 A 
ATOM     83  C   UNL A   1      36.570  31.320  30.925  1.00  0.00     0.091 A 
ATOM     84  F   UNL A   1      37.893  31.378  28.940  1.00  0.00    -0.205 F 
ATOM     85  C   UNL A   1      36.373  30.828  32.224  1.00  0.00     0.022 A 
BRANCH  83  86
ATOM     86  S   UNL A   1      35.345  32.472  30.291  1.00  0.00     0.127 S 
ATOM     87  O   UNL A   1      34.847  31.762  29.116  1.00  0.00    -0.237 OA
ATOM     88  O   UNL A   1      34.401  32.556  31.406  1.00  0.00    -0.237 OA
ATOM     89  O   UNL A   1      36.073  33.707  30.031  1.00  0.00    -0.744 OA
ENDBRANCH  83  86
ENDBRANCH  55  79
BRANCH  67  90
ATOM     90  C   UNL A   1      44.596  33.553  29.289  1.00  0.00     0.023 A 
ATOM     91  C   UNL A   1      45.346  33.816  30.454  1.00  0.00     0.012 A 
ATOM     92  C   UNL A   1      44.370  34.593  28.365  1.00  0.00     0.148 A 
ATOM     93  C   UNL A   1      45.834  35.096  30.710  1.00  0.00     0.002 A 
ATOM     94  C   UNL A   1      44.901  35.855  28.603  1.00  0.00     0.091 A 
ATOM     95  F   UNL A   1      43.640  34.330  27.272  1.00  0.00    -0.205 F 
ATOM     96  C   UNL A   1      45.622  36.112  29.781  1.00  0.00     0.022 A 
BRANCH  94  97
ATOM     97  S   UNL A   1      44.764  37.196  27.414  1.00  0.00     0.127 S 
ATOM     98  O   UNL A   1      45.064  38.362  28.245  1.00  0.00    -0.237 OA
ATOM     99  O   UNL A   1      45.805  36.858  26.442  1.00  0.00    -0.237 OA
ATOM    100  O   UNL A   1      43.407  37.132  26.891  1.00  0.00    -0.744 OA
ENDBRANCH  94  97
ENDBRANCH  67  90
ENDBRANCH  41  42
ENDBRANCH  33  36
ENDBRANCH  31  32
ENDBRANCH  30  31
ENDBRANCH  29  30
ENDBRANCH   1  29
TORSDOF 20
ENDMDL
MODEL 3
REMARK VINA RESULT:     -10.4      6.223      9.962
REMARK SMILES Cc1ccc(S(=O)(=O)Nc2ccc(C(=O)CCC(=O)NCCCCNC(=O)c3ccc(-c4c5nc(c(-c6cccc(S(=O)(=O)[O-])c6F)c6ccc([nH]6)c(-c6cccc(S(=O)(=O)[O-])c6F)c6nc(c(-c7cccc(S(=O)(=O)[O-])c7F)c7ccc4[nH]7)C=C6)C=C5)cc3)cc2)c(C)c1
REMARK SMILES IDX 21 1 20 2 18 3 19 4 17 6 16 7 14 8 15 9 13 10 10 11 11 12
REMARK SMILES IDX 92 13 12 14 91 15 9 16 6 18 7 19 8 20 5 21 1 22 2 23 3 24
REMARK SMILES IDX 95 25 4 26 93 27 94 28 22 29 23 30 24 31 25 32 26 33 27 35
REMARK SMILES IDX 28 36 29 37 90 38 30 39 89 40 31 41 32 42 33 43 83 44 34 45
REMARK SMILES IDX 88 46 82 47 84 48 35 49 87 50 81 51 80 52 36 54 68 55 48 56
REMARK SMILES IDX 67 57 49 58 52 59 66 60 85 61 50 62 51 63 65 65 86 66 53 67
REMARK SMILES IDX 37 68 38 69 46 70 39 71 41 72 47 73 40 74 42 75 43 76 44 77
REMARK SMILES IDX 45 78 69 79 70 80 78 81 71 82 73 83 79 84 72 85 74 86 75 87
REMARK SMILES IDX 76 88 77 89 54 90 55 91 63 92 56 93 58 94 64 95 57 96 59 97
REMARK SMILES IDX 60 98 61 99 62 100
REMARK H PARENT 20 5 9 17 25 34 84 53 52 64
REMARK Flexibility Score: inf
ROOT
ATOM      1  C   UNL A   1      35.410  22.424  26.359  1.00  0.00     0.116 C 
ENDROOT
BRANCH   1   2
ATOM      2  N   UNL A   1      34.478  22.697  27.441  1.00  0.00    -0.356 N 
ATOM      3  C   UNL A   1      33.123  22.743  27.456  1.00  0.00     0.220 C 
ATOM      4  O   UNL A   1      32.534  22.527  28.515  1.00  0.00    -0.275 OA
ATOM      5  H   UNL A   1      34.903  22.879  28.311  1.00  0.00     0.163 HD
BRANCH   3   6
ATOM      6  C   UNL A   1      32.377  23.188  26.232  1.00  0.00     0.108 C 
BRANCH   6   7
ATOM      7  C   UNL A   1      31.762  21.959  25.554  1.00  0.00     0.091 C 
BRANCH   7   8
ATOM      8  C   UNL A   1      31.989  21.947  24.050  1.00  0.00     0.163 C 
ATOM      9  O   UNL A   1      32.505  20.958  23.526  1.00  0.00    -0.294 OA
BRANCH   8  10
ATOM     10  C   UNL A   1      31.725  23.168  23.210  1.00  0.00     0.018 A 
ATOM     11  C   UNL A   1      31.645  25.843  22.305  1.00  0.00     0.049 A 
ATOM     12  C   UNL A   1      32.752  25.029  22.031  1.00  0.00     0.027 A 
ATOM     13  C   UNL A   1      30.506  25.244  22.841  1.00  0.00     0.027 A 
ATOM     14  C   UNL A   1      32.795  23.701  22.480  1.00  0.00     0.014 A 
ATOM     15  C   UNL A   1      30.537  23.904  23.269  1.00  0.00     0.014 A 
BRANCH  11  16
ATOM     16  N   UNL A   1      31.901  27.248  22.361  1.00  0.00    -0.280 N 
ATOM     17  H   UNL A   1      32.544  27.607  21.707  1.00  0.00     0.180 HD
BRANCH  16  18
ATOM     18  S   UNL A   1      31.214  28.351  23.427  1.00  0.00     0.262 S 
ATOM     19  O   UNL A   1      30.193  27.659  24.186  1.00  0.00    -0.201 OA
ATOM     20  O   UNL A   1      30.940  29.513  22.617  1.00  0.00    -0.201 OA
BRANCH  18  21
ATOM     21  C   UNL A   1      32.469  28.872  24.595  1.00  0.00     0.090 A 
ATOM     22  C   UNL A   1      35.033  29.374  28.016  1.00  0.00     0.044 C 
ATOM     23  C   UNL A   1      34.191  29.286  26.778  1.00  0.00    -0.051 A 
ATOM     24  C   UNL A   1      34.579  28.477  25.713  1.00  0.00     0.005 A 
ATOM     25  C   UNL A   1      33.022  30.036  26.648  1.00  0.00     0.008 A 
ATOM     26  C   UNL A   1      33.710  28.238  24.643  1.00  0.00     0.023 A 
ATOM     27  C   UNL A   1      32.167  29.869  25.542  1.00  0.00    -0.030 A 
ATOM     28  C   UNL A   1      31.034  30.848  25.394  1.00  0.00     0.046 C 
ENDBRANCH  18  21
ENDBRANCH  16  18
ENDBRANCH  11  16
ENDBRANCH   8  10
ENDBRANCH   7   8
ENDBRANCH   6   7
ENDBRANCH   3   6
ENDBRANCH   1   2
BRANCH   1  29
ATOM     29  C   UNL A   1      35.253  21.059  25.684  1.00  0.00     0.023 C 
BRANCH  29  30
ATOM     30  C   UNL A   1      36.292  20.762  24.606  1.00  0.00     0.023 C 
BRANCH  30  31
ATOM     31  C   UNL A   1      37.707  21.292  24.819  1.00  0.00     0.116 C 
BRANCH  31  32
ATOM     32  N   UNL A   1      38.500  20.359  25.598  1.00  0.00    -0.352 N 
ATOM     33  C   UNL A   1      39.652  20.535  26.330  1.00  0.00     0.251 C 
ATOM     34  H   UNL A   1      38.153  19.437  25.604  1.00  0.00     0.163 HD
ATOM     35  O   UNL A   1      40.289  19.526  26.633  1.00  0.00    -0.269 OA
BRANCH  33  36
ATOM     36  C   UNL A   1      40.151  21.868  26.780  1.00  0.00     0.039 A 
ATOM     37  C   UNL A   1      39.645  23.011  26.139  1.00  0.00     0.014 A 
ATOM     38  C   UNL A   1      41.180  22.032  27.711  1.00  0.00     0.014 A 
ATOM     39  C   UNL A   1      40.163  24.286  26.418  1.00  0.00     0.010 A 
ATOM     40  C   UNL A   1      41.640  23.313  28.048  1.00  0.00     0.010 A 
ATOM     41  C   UNL A   1      41.167  24.453  27.382  1.00  0.00    -0.014 A 
BRANCH  41  42
ATOM     42  C   UNL A   1      41.761  25.795  27.669  1.00  0.00     0.031 A 
ATOM     43  C   UNL A   1      40.981  26.826  28.454  1.00  0.00     0.074 A 
ATOM     44  C   UNL A   1      42.975  26.120  27.180  1.00  0.00     0.049 A 
ATOM     45  N   UNL A   1      41.300  28.062  28.746  1.00  0.00    -0.248 NA
ATOM     46  C   UNL A   1      39.660  26.421  28.964  1.00  0.00     0.031 C 
ATOM     47  C   UNL A   1      43.823  25.247  26.366  1.00  0.00     0.029 A 
ATOM     48  N   UNL A   1      43.699  27.286  27.273  1.00  0.00    -0.354 N 
ATOM     49  C   UNL A   1      40.204  28.597  29.417  1.00  0.00     0.074 A 
ATOM     50  C   UNL A   1      39.204  27.553  29.482  1.00  0.00     0.031 C 
ATOM     51  C   UNL A   1      44.943  25.907  26.029  1.00  0.00     0.029 A 
ATOM     52  C   UNL A   1      44.885  27.261  26.575  1.00  0.00     0.049 A 
ATOM     53  H   UNL A   1      43.396  28.068  27.791  1.00  0.00     0.167 HD
ATOM     54  C   UNL A   1      40.047  29.833  29.952  1.00  0.00     0.034 A 
ATOM     55  C   UNL A   1      45.816  28.217  26.383  1.00  0.00     0.034 A 
ATOM     56  C   UNL A   1      41.063  30.851  29.950  1.00  0.00     0.049 A 
ATOM     57  C   UNL A   1      45.630  29.569  27.023  1.00  0.00     0.074 A 
ATOM     58  C   UNL A   1      41.036  32.093  30.562  1.00  0.00     0.029 A 
ATOM     59  N   UNL A   1      42.285  30.753  29.304  1.00  0.00    -0.354 N 
ATOM     60  N   UNL A   1      44.658  29.993  27.793  1.00  0.00    -0.248 NA
ATOM     61  C   UNL A   1      46.690  30.564  26.796  1.00  0.00     0.031 C 
ATOM     62  C   UNL A   1      42.230  32.755  30.265  1.00  0.00     0.029 A 
ATOM     63  C   UNL A   1      43.014  31.915  29.492  1.00  0.00     0.049 A 
ATOM     64  H   UNL A   1      42.590  29.971  28.788  1.00  0.00     0.167 HD
ATOM     65  C   UNL A   1      45.009  31.284  28.175  1.00  0.00     0.074 A 
ATOM     66  C   UNL A   1      46.294  31.565  27.571  1.00  0.00     0.031 C 
ATOM     67  C   UNL A   1      44.322  32.162  28.945  1.00  0.00     0.034 A 
BRANCH  54  68
ATOM     68  C   UNL A   1      38.743  30.154  30.638  1.00  0.00     0.023 A 
ATOM     69  C   UNL A   1      38.448  29.563  31.884  1.00  0.00     0.012 A 
ATOM     70  C   UNL A   1      37.857  31.110  30.101  1.00  0.00     0.148 A 
ATOM     71  C   UNL A   1      37.281  29.897  32.571  1.00  0.00     0.002 A 
ATOM     72  C   UNL A   1      36.718  31.470  30.811  1.00  0.00     0.091 A 
ATOM     73  F   UNL A   1      38.148  31.651  28.909  1.00  0.00    -0.205 F 
ATOM     74  C   UNL A   1      36.424  30.857  32.041  1.00  0.00     0.022 A 
BRANCH  72  75
ATOM     75  S   UNL A   1      35.589  32.754  30.257  1.00  0.00     0.127 S 
ATOM     76  O   UNL A   1      34.407  32.480  31.073  1.00  0.00    -0.237 OA
ATOM     77  O   UNL A   1      36.310  33.974  30.620  1.00  0.00    -0.237 OA
ATOM     78  O   UNL A   1      35.418  32.551  28.826  1.00  0.00    -0.744 OA
ENDBRANCH  72  75
ENDBRANCH  54  68
BRANCH  55  79
ATOM     79  C   UNL A   1      47.049  27.922  25.597  1.00  0.00     0.023 A 
ATOM     80  C   UNL A   1      47.005  28.007  24.191  1.00  0.00     0.012 A 
ATOM     81  C   UNL A   1      48.257  27.556  26.222  1.00  0.00     0.148 A 
ATOM     82  C   UNL A   1      48.126  27.694  23.421  1.00  0.00     0.002 A 
ATOM     83  C   UNL A   1      49.386  27.300  25.452  1.00  0.00     0.091 A 
ATOM     84  F   UNL A   1      48.278  27.462  27.559  1.00  0.00    -0.205 F 
ATOM     85  C   UNL A   1      49.318  27.349  24.051  1.00  0.00     0.022 A 
BRANCH  83  86
ATOM     86  S   UNL A   1      50.996  26.977  26.182  1.00  0.00     0.127 S 
ATOM     87  O   UNL A   1      51.891  27.222  25.055  1.00  0.00    -0.237 OA
ATOM     88  O   UNL A   1      51.054  27.981  27.245  1.00  0.00    -0.237 OA
ATOM     89  O   UNL A   1      50.934  25.602  26.662  1.00  0.00    -0.744 OA
ENDBRANCH  83  86
ENDBRANCH  55  79
BRANCH  67  90
ATOM     90  C   UNL A   1      44.958  33.498  29.230  1.00  0.00     0.023 A 
ATOM     91  C   UNL A   1      45.707  33.684  30.410  1.00  0.00     0.012 A 
ATOM     92  C   UNL A   1      44.878  34.546  28.291  1.00  0.00     0.148 A 
ATOM     93  C   UNL A   1      46.336  34.901  30.666  1.00  0.00     0.002 A 
ATOM     94  C   UNL A   1      45.550  35.739  28.530  1.00  0.00     0.091 A 
ATOM     95  F   UNL A   1      44.148  34.358  27.183  1.00  0.00    -0.205 F 
ATOM     96  C   UNL A   1      46.269  35.923  29.722  1.00  0.00     0.022 A 
BRANCH  94  97
ATOM     97  S   UNL A   1      45.601  37.072  27.325  1.00  0.00     0.127 S 
ATOM     98  O   UNL A   1      44.183  37.405  27.190  1.00  0.00    -0.237 OA
ATOM     99  O   UNL A   1      46.401  38.086  28.016  1.00  0.00    -0.237 OA
ATOM    100  O   UNL A   1      46.229  36.515  26.136  1.00  0.00    -0.744 OA
ENDBRANCH  94  97
ENDBRANCH  67  90
ENDBRANCH  41  42
ENDBRANCH  33  36
ENDBRANCH  31  32
ENDBRANCH  30  31
ENDBRANCH  29  30
ENDBRANCH   1  29
TORSDOF 20
ENDMDL
