MODEL 1
REMARK VINA RESULT:     -11.0      0.000      0.000
REMARK SMILES CCC[C@H](Nc1cc(C)c(N)c(C(=O)NCCCCNC(=O)c2ccc(-c3c4nc(c(-c5cccc(S(=O)(=O)[O-])c5F)c5ccc([nH]5)c(-c5cccc(S(=O)(=O)[O-])c5F)c5nc(c(-c6cccc(S(=O)(=O)[O-])c6F)c6ccc3[nH]6)C=C5)C=C4)cc2)c1)c1cccs1
REMARK SMILES IDX 17 1 16 2 15 3 13 4 14 5 12 7 6 8 7 9 86 10 8 11 9 12 10 13
REMARK SMILES IDX 5 14 4 16 3 17 2 18 1 19 87 20 88 21 91 22 89 23 90 24 11 25
REMARK SMILES IDX 18 28 19 29 20 30 21 31 22 33 23 34 24 35 85 36 25 37 84 38
REMARK SMILES IDX 26 39 27 40 28 41 78 42 29 43 83 44 77 45 79 46 30 47 82 48
REMARK SMILES IDX 76 49 75 50 31 52 63 53 43 54 62 55 44 56 47 57 61 58 80 59
REMARK SMILES IDX 45 60 46 61 60 63 81 64 48 65 32 66 33 67 41 68 34 69 36 70
REMARK SMILES IDX 42 71 35 72 37 73 38 74 39 75 40 76 64 77 65 78 73 79 66 80
REMARK SMILES IDX 68 81 74 82 67 83 69 84 70 85 71 86 72 87 49 88 50 89 58 90
REMARK SMILES IDX 51 91 53 92 59 93 52 94 54 95 55 96 56 97 57 98
REMARK H PARENT 15 6 5 15 11 26 11 27 20 32 79 51 47 62
REMARK Flexibility Score: inf
ROOT
ATOM      1  C   UNL A   1      32.472  29.873  26.910  1.00  0.00     0.023 C 
ENDROOT
BRANCH   1   2
ATOM      2  C   UNL A   1      32.399  29.189  25.541  1.00  0.00     0.116 C 
BRANCH   2   3
ATOM      3  N   UNL A   1      31.194  28.390  25.444  1.00  0.00    -0.352 N 
ATOM      4  C   UNL A   1      30.883  27.220  24.796  1.00  0.00     0.253 C 
ATOM      5  O   UNL A   1      29.717  26.832  24.917  1.00  0.00    -0.269 OA
ATOM      6  H   UNL A   1      30.438  28.765  25.951  1.00  0.00     0.163 HD
BRANCH   4   7
ATOM      7  C   UNL A   1      31.869  26.392  24.017  1.00  0.00     0.065 A 
ATOM      8  C   UNL A   1      33.728  24.792  23.941  1.00  0.00     0.036 A 
ATOM      9  C   UNL A   1      33.598  24.756  22.556  1.00  0.00     0.031 A 
ATOM     10  C   UNL A   1      32.866  25.632  24.650  1.00  0.00     0.041 A 
ATOM     11  C   UNL A   1      32.707  25.596  21.871  1.00  0.00    -0.025 A 
ATOM     12  C   UNL A   1      32.765  25.629  20.368  1.00  0.00     0.046 C 
ATOM     13  C   UNL A   1      31.828  26.422  22.598  1.00  0.00     0.047 A 
BRANCH   8  14
ATOM     14  N   UNL A   1      34.692  24.054  24.601  1.00  0.00    -0.377 N 
ATOM     15  H   UNL A   1      35.592  24.451  24.653  1.00  0.00     0.161 HD
BRANCH  14  16
ATOM     16  C   UNL A   1      34.513  22.730  25.235  1.00  0.00     0.119 C 
BRANCH  16  17
ATOM     17  C   UNL A   1      33.240  21.946  24.817  1.00  0.00     0.030 C 
BRANCH  17  18
ATOM     18  C   UNL A   1      32.102  22.004  25.850  1.00  0.00    -0.001 C 
ATOM     19  C   UNL A   1      32.432  22.782  27.115  1.00  0.00     0.004 C 
ENDBRANCH  17  18
ENDBRANCH  16  17
BRANCH  16  20
ATOM     20  C   UNL A   1      35.744  21.831  25.131  1.00  0.00     0.027 A 
ATOM     21  C   UNL A   1      35.829  20.462  24.955  1.00  0.00     0.017 A 
ATOM     22  S   UNL A   1      37.319  22.529  25.221  1.00  0.00    -0.147 S 
ATOM     23  C   UNL A   1      37.171  19.985  24.949  1.00  0.00     0.012 A 
ATOM     24  C   UNL A   1      38.079  21.005  25.116  1.00  0.00     0.065 A 
ENDBRANCH  16  20
ENDBRANCH  14  16
ENDBRANCH   8  14
BRANCH  13  25
ATOM     25  N   UNL A   1      30.902  27.206  21.914  1.00  0.00    -0.398 N 
ATOM     26  H   UNL A   1      30.169  27.643  22.406  1.00  0.00     0.156 HD
ATOM     27  H   UNL A   1      30.980  27.324  20.940  1.00  0.00     0.156 HD
ENDBRANCH  13  25
ENDBRANCH   4   7
ENDBRANCH   2   3
ENDBRANCH   1   2
BRANCH   1  28
ATOM     28  C   UNL A   1      32.085  31.356  26.890  1.00  0.00     0.023 C 
BRANCH  28  29
ATOM     29  C   UNL A   1      33.201  32.318  27.291  1.00  0.00     0.116 C 
BRANCH  29  30
ATOM     30  N   UNL A   1      32.719  33.658  27.592  1.00  0.00    -0.352 N 
ATOM     31  C   UNL A   1      33.166  34.530  28.558  1.00  0.00     0.251 C 
ATOM     32  H   UNL A   1      31.977  33.983  27.031  1.00  0.00     0.163 HD
ATOM     33  O   UNL A   1      32.587  35.586  28.756  1.00  0.00    -0.269 OA
BRANCH  31  34
ATOM     34  C   UNL A   1      34.335  34.146  29.378  1.00  0.00     0.039 A 
ATOM     35  C   UNL A   1      34.120  33.446  30.568  1.00  0.00     0.014 A 
ATOM     36  C   UNL A   1      35.632  34.429  28.945  1.00  0.00     0.014 A 
ATOM     37  C   UNL A   1      35.213  32.967  31.291  1.00  0.00     0.010 A 
ATOM     38  C   UNL A   1      36.718  33.899  29.633  1.00  0.00     0.010 A 
ATOM     39  C   UNL A   1      36.520  33.157  30.808  1.00  0.00    -0.014 A 
BRANCH  39  40
ATOM     40  C   UNL A   1      37.691  32.556  31.493  1.00  0.00     0.031 A 
ATOM     41  C   UNL A   1      38.429  31.408  30.865  1.00  0.00     0.074 A 
ATOM     42  C   UNL A   1      38.018  32.977  32.731  1.00  0.00     0.049 A 
ATOM     43  N   UNL A   1      39.424  30.709  31.345  1.00  0.00    -0.248 NA
ATOM     44  C   UNL A   1      37.973  30.970  29.535  1.00  0.00     0.031 C 
ATOM     45  C   UNL A   1      37.320  34.025  33.480  1.00  0.00     0.029 A 
ATOM     46  N   UNL A   1      38.999  32.553  33.592  1.00  0.00    -0.354 N 
ATOM     47  C   UNL A   1      39.689  29.727  30.398  1.00  0.00     0.074 A 
ATOM     48  C   UNL A   1      38.731  29.903  29.328  1.00  0.00     0.031 C 
ATOM     49  C   UNL A   1      37.893  34.159  34.686  1.00  0.00     0.029 A 
ATOM     50  C   UNL A   1      38.980  33.193  34.808  1.00  0.00     0.049 A 
ATOM     51  H   UNL A   1      39.654  31.855  33.359  1.00  0.00     0.167 HD
ATOM     52  C   UNL A   1      40.661  28.785  30.405  1.00  0.00     0.034 A 
ATOM     53  C   UNL A   1      39.749  33.018  35.901  1.00  0.00     0.034 A 
ATOM     54  C   UNL A   1      41.643  28.648  31.446  1.00  0.00     0.049 A 
ATOM     55  C   UNL A   1      40.854  31.997  35.862  1.00  0.00     0.074 A 
ATOM     56  C   UNL A   1      42.730  27.794  31.497  1.00  0.00     0.029 A 
ATOM     57  N   UNL A   1      41.654  29.381  32.623  1.00  0.00    -0.354 N 
ATOM     58  N   UNL A   1      41.200  31.196  34.884  1.00  0.00    -0.248 NA
ATOM     59  C   UNL A   1      41.696  31.879  37.061  1.00  0.00     0.031 C 
ATOM     60  C   UNL A   1      43.392  28.000  32.712  1.00  0.00     0.029 A 
ATOM     61  C   UNL A   1      42.724  28.994  33.411  1.00  0.00     0.049 A 
ATOM     62  H   UNL A   1      40.998  30.075  32.863  1.00  0.00     0.167 HD
ATOM     63  C   UNL A   1      42.317  30.503  35.335  1.00  0.00     0.074 A 
ATOM     64  C   UNL A   1      42.602  30.995  36.667  1.00  0.00     0.031 C 
ATOM     65  C   UNL A   1      43.029  29.532  34.712  1.00  0.00     0.034 A 
BRANCH  52  66
ATOM     66  C   UNL A   1      40.753  27.868  29.214  1.00  0.00     0.023 A 
ATOM     67  C   UNL A   1      39.924  26.729  29.153  1.00  0.00     0.012 A 
ATOM     68  C   UNL A   1      41.611  28.158  28.135  1.00  0.00     0.148 A 
ATOM     69  C   UNL A   1      39.968  25.876  28.052  1.00  0.00     0.002 A 
ATOM     70  C   UNL A   1      41.619  27.324  27.022  1.00  0.00     0.091 A 
ATOM     71  F   UNL A   1      42.409  29.231  28.221  1.00  0.00    -0.205 F 
ATOM     72  C   UNL A   1      40.807  26.178  26.984  1.00  0.00     0.022 A 
BRANCH  70  73
ATOM     73  S   UNL A   1      42.611  27.668  25.564  1.00  0.00     0.127 S 
ATOM     74  O   UNL A   1      42.029  28.926  25.101  1.00  0.00    -0.237 OA
ATOM     75  O   UNL A   1      43.957  27.789  26.127  1.00  0.00    -0.237 OA
ATOM     76  O   UNL A   1      42.428  26.527  24.678  1.00  0.00    -0.744 OA
ENDBRANCH  70  73
ENDBRANCH  52  66
BRANCH  53  77
ATOM     77  C   UNL A   1      39.548  33.883  37.097  1.00  0.00     0.023 A 
ATOM     78  C   UNL A   1      39.965  35.228  37.050  1.00  0.00     0.012 A 
ATOM     79  C   UNL A   1      38.915  33.401  38.259  1.00  0.00     0.148 A 
ATOM     80  C   UNL A   1      39.783  36.069  38.148  1.00  0.00     0.002 A 
ATOM     81  C   UNL A   1      38.690  34.258  39.331  1.00  0.00     0.091 A 
ATOM     82  F   UNL A   1      38.539  32.115  38.291  1.00  0.00    -0.205 F 
ATOM     83  C   UNL A   1      39.136  35.588  39.283  1.00  0.00     0.022 A 
BRANCH  81  84
ATOM     84  S   UNL A   1      37.747  33.759  40.776  1.00  0.00     0.127 S 
ATOM     85  O   UNL A   1      38.669  32.832  41.429  1.00  0.00    -0.237 OA
ATOM     86  O   UNL A   1      37.558  35.033  41.472  1.00  0.00    -0.237 OA
ATOM     87  O   UNL A   1      36.519  33.175  40.256  1.00  0.00    -0.744 OA
ENDBRANCH  81  84
ENDBRANCH  53  77
BRANCH  65  88
ATOM     88  C   UNL A   1      44.207  28.948  35.447  1.00  0.00     0.023 A 
ATOM     89  C   UNL A   1      45.473  29.550  35.318  1.00  0.00     0.012 A 
ATOM     90  C   UNL A   1      44.041  27.861  36.327  1.00  0.00     0.148 A 
ATOM     91  C   UNL A   1      46.565  29.063  36.037  1.00  0.00     0.002 A 
ATOM     92  C   UNL A   1      45.124  27.409  37.074  1.00  0.00     0.091 A 
ATOM     93  F   UNL A   1      42.832  27.289  36.419  1.00  0.00    -0.205 F 
ATOM     94  C   UNL A   1      46.387  28.002  36.922  1.00  0.00     0.022 A 
BRANCH  92  95
ATOM     95  S   UNL A   1      44.967  26.111  38.305  1.00  0.00     0.127 S 
ATOM     96  O   UNL A   1      46.214  26.258  39.054  1.00  0.00    -0.237 OA
ATOM     97  O   UNL A   1      43.765  26.517  39.034  1.00  0.00    -0.237 OA
ATOM     98  O   UNL A   1      44.828  24.867  37.560  1.00  0.00    -0.744 OA
ENDBRANCH  92  95
ENDBRANCH  65  88
ENDBRANCH  39  40
ENDBRANCH  31  34
ENDBRANCH  29  30
ENDBRANCH  28  29
ENDBRANCH   1  28
TORSDOF 20
ENDMDL
MODEL 2
REMARK VINA RESULT:     -11.0      2.108      3.059
REMARK SMILES CCC[C@H](Nc1cc(C)c(N)c(C(=O)NCCCCNC(=O)c2ccc(-c3c4nc(c(-c5cccc(S(=O)(=O)[O-])c5F)c5ccc([nH]5)c(-c5cccc(S(=O)(=O)[O-])c5F)c5nc(c(-c6cccc(S(=O)(=O)[O-])c6F)c6ccc3[nH]6)C=C5)C=C4)cc2)c1)c1cccs1
REMARK SMILES IDX 17 1 16 2 15 3 13 4 14 5 12 7 6 8 7 9 86 10 8 11 9 12 10 13
REMARK SMILES IDX 5 14 4 16 3 17 2 18 1 19 87 20 88 21 91 22 89 23 90 24 11 25
REMARK SMILES IDX 18 28 19 29 20 30 21 31 22 33 23 34 24 35 85 36 25 37 84 38
REMARK SMILES IDX 26 39 27 40 28 41 78 42 29 43 83 44 77 45 79 46 30 47 82 48
REMARK SMILES IDX 76 49 75 50 31 52 63 53 43 54 62 55 44 56 47 57 61 58 80 59
REMARK SMILES IDX 45 60 46 61 60 63 81 64 48 65 32 66 33 67 41 68 34 69 36 70
REMARK SMILES IDX 42 71 35 72 37 73 38 74 39 75 40 76 64 77 65 78 73 79 66 80
REMARK SMILES IDX 68 81 74 82 67 83 69 84 70 85 71 86 72 87 49 88 50 89 58 90
REMARK SMILES IDX 51 91 53 92 59 93 52 94 54 95 55 96 56 97 57 98
REMARK H PARENT 15 6 5 15 11 26 11 27 20 32 79 51 47 62
REMARK Flexibility Score: inf
ROOT
ATOM      1  C   UNL A   1      32.416  27.772  26.949  1.00  0.00     0.023 C 
ENDROOT
BRANCH   1   2
ATOM      2  C   UNL A   1      32.955  27.104  25.680  1.00  0.00     0.116 C 
BRANCH   2   3
ATOM      3  N   UNL A   1      31.920  27.041  24.669  1.00  0.00    -0.352 N 
ATOM      4  C   UNL A   1      31.111  26.033  24.203  1.00  0.00     0.253 C 
ATOM      5  O   UNL A   1      30.340  26.343  23.289  1.00  0.00    -0.269 OA
ATOM      6  H   UNL A   1      31.761  27.903  24.222  1.00  0.00     0.163 HD
BRANCH   4   7
ATOM      7  C   UNL A   1      31.083  24.638  24.763  1.00  0.00     0.065 A 
ATOM      8  C   UNL A   1      31.935  22.338  24.814  1.00  0.00     0.036 A 
ATOM      9  C   UNL A   1      31.113  22.091  25.910  1.00  0.00     0.031 A 
ATOM     10  C   UNL A   1      31.889  23.612  24.245  1.00  0.00     0.041 A 
ATOM     11  C   UNL A   1      30.195  23.043  26.379  1.00  0.00    -0.025 A 
ATOM     12  C   UNL A   1      29.214  22.630  27.444  1.00  0.00     0.046 C 
ATOM     13  C   UNL A   1      30.174  24.331  25.811  1.00  0.00     0.047 A 
BRANCH   8  14
ATOM     14  N   UNL A   1      32.747  21.356  24.279  1.00  0.00    -0.377 N 
ATOM     15  H   UNL A   1      32.524  21.045  23.372  1.00  0.00     0.161 HD
BRANCH  14  16
ATOM     16  C   UNL A   1      33.915  20.723  24.929  1.00  0.00     0.119 C 
BRANCH  16  17
ATOM     17  C   UNL A   1      34.067  19.194  24.707  1.00  0.00     0.030 C 
BRANCH  17  18
ATOM     18  C   UNL A   1      33.151  18.626  23.610  1.00  0.00    -0.001 C 
ATOM     19  C   UNL A   1      33.061  17.108  23.580  1.00  0.00     0.004 C 
ENDBRANCH  17  18
ENDBRANCH  16  17
BRANCH  16  20
ATOM     20  C   UNL A   1      35.236  21.432  24.637  1.00  0.00     0.027 A 
ATOM     21  C   UNL A   1      36.494  21.215  25.169  1.00  0.00     0.017 A 
ATOM     22  S   UNL A   1      35.281  22.706  23.474  1.00  0.00    -0.147 S 
ATOM     23  C   UNL A   1      37.473  22.120  24.666  1.00  0.00     0.012 A 
ATOM     24  C   UNL A   1      36.937  23.004  23.758  1.00  0.00     0.065 A 
ENDBRANCH  16  20
ENDBRANCH  14  16
ENDBRANCH   8  14
BRANCH  13  25
ATOM     25  N   UNL A   1      29.305  25.292  26.323  1.00  0.00    -0.398 N 
ATOM     26  H   UNL A   1      29.433  25.632  27.238  1.00  0.00     0.156 HD
ATOM     27  H   UNL A   1      28.564  25.631  25.771  1.00  0.00     0.156 HD
ENDBRANCH  13  25
ENDBRANCH   4   7
ENDBRANCH   2   3
ENDBRANCH   1   2
BRANCH   1  28
ATOM     28  C   UNL A   1      31.729  29.120  26.705  1.00  0.00     0.023 C 
BRANCH  28  29
ATOM     29  C   UNL A   1      32.613  30.186  26.062  1.00  0.00     0.116 C 
BRANCH  29  30
ATOM     30  N   UNL A   1      32.276  31.537  26.485  1.00  0.00    -0.352 N 
ATOM     31  C   UNL A   1      32.986  32.374  27.316  1.00  0.00     0.251 C 
ATOM     32  H   UNL A   1      31.431  31.899  26.132  1.00  0.00     0.163 HD
ATOM     33  O   UNL A   1      32.518  33.447  27.662  1.00  0.00    -0.269 OA
BRANCH  31  34
ATOM     34  C   UNL A   1      34.307  31.932  27.813  1.00  0.00     0.039 A 
ATOM     35  C   UNL A   1      35.328  32.877  27.937  1.00  0.00     0.014 A 
ATOM     36  C   UNL A   1      34.514  30.607  28.201  1.00  0.00     0.014 A 
ATOM     37  C   UNL A   1      36.540  32.506  28.521  1.00  0.00     0.010 A 
ATOM     38  C   UNL A   1      35.699  30.254  28.837  1.00  0.00     0.010 A 
ATOM     39  C   UNL A   1      36.720  31.201  29.010  1.00  0.00    -0.014 A 
BRANCH  39  40
ATOM     40  C   UNL A   1      37.953  30.813  29.740  1.00  0.00     0.031 A 
ATOM     41  C   UNL A   1      38.933  29.859  29.118  1.00  0.00     0.074 A 
ATOM     42  C   UNL A   1      38.131  31.238  31.007  1.00  0.00     0.049 A 
ATOM     43  N   UNL A   1      40.022  29.349  29.630  1.00  0.00    -0.248 NA
ATOM     44  C   UNL A   1      38.637  29.396  27.751  1.00  0.00     0.031 C 
ATOM     45  C   UNL A   1      37.204  32.095  31.748  1.00  0.00     0.029 A 
ATOM     46  N   UNL A   1      39.134  30.977  31.906  1.00  0.00    -0.354 N 
ATOM     47  C   UNL A   1      40.521  28.478  28.668  1.00  0.00     0.074 A 
ATOM     48  C   UNL A   1      39.600  28.508  27.553  1.00  0.00     0.031 C 
ATOM     49  C   UNL A   1      37.681  32.288  32.989  1.00  0.00     0.029 A 
ATOM     50  C   UNL A   1      38.930  31.550  33.140  1.00  0.00     0.049 A 
ATOM     51  H   UNL A   1      39.924  30.432  31.689  1.00  0.00     0.167 HD
ATOM     52  C   UNL A   1      41.659  27.745  28.699  1.00  0.00     0.034 A 
ATOM     53  C   UNL A   1      39.665  31.483  34.268  1.00  0.00     0.034 A 
ATOM     54  C   UNL A   1      42.598  27.759  29.788  1.00  0.00     0.049 A 
ATOM     55  C   UNL A   1      40.950  30.700  34.257  1.00  0.00     0.074 A 
ATOM     56  C   UNL A   1      43.827  27.133  29.872  1.00  0.00     0.029 A 
ATOM     57  N   UNL A   1      42.407  28.431  30.986  1.00  0.00    -0.354 N 
ATOM     58  N   UNL A   1      41.495  30.024  33.275  1.00  0.00    -0.248 NA
ATOM     59  C   UNL A   1      41.740  30.700  35.497  1.00  0.00     0.031 C 
ATOM     60  C   UNL A   1      44.377  27.414  31.127  1.00  0.00     0.029 A 
ATOM     61  C   UNL A   1      43.493  28.227  31.820  1.00  0.00     0.049 A 
ATOM     62  H   UNL A   1      41.616  28.972  31.211  1.00  0.00     0.167 HD
ATOM     63  C   UNL A   1      42.703  29.545  33.765  1.00  0.00     0.074 A 
ATOM     64  C   UNL A   1      42.822  30.027  35.126  1.00  0.00     0.031 C 
ATOM     65  C   UNL A   1      43.623  28.759  33.152  1.00  0.00     0.034 A 
BRANCH  52  66
ATOM     66  C   UNL A   1      41.987  26.915  27.486  1.00  0.00     0.023 A 
ATOM     67  C   UNL A   1      42.530  27.543  26.346  1.00  0.00     0.012 A 
ATOM     68  C   UNL A   1      41.816  25.517  27.490  1.00  0.00     0.148 A 
ATOM     69  C   UNL A   1      42.868  26.798  25.218  1.00  0.00     0.002 A 
ATOM     70  C   UNL A   1      42.194  24.776  26.376  1.00  0.00     0.091 A 
ATOM     71  F   UNL A   1      41.277  24.941  28.574  1.00  0.00    -0.205 F 
ATOM     72  C   UNL A   1      42.709  25.415  25.236  1.00  0.00     0.022 A 
BRANCH  70  73
ATOM     73  S   UNL A   1      42.097  22.983  26.329  1.00  0.00     0.127 S 
ATOM     74  O   UNL A   1      42.672  22.690  25.018  1.00  0.00    -0.237 OA
ATOM     75  O   UNL A   1      42.939  22.598  27.464  1.00  0.00    -0.237 OA
ATOM     76  O   UNL A   1      40.687  22.655  26.484  1.00  0.00    -0.744 OA
ENDBRANCH  70  73
ENDBRANCH  52  66
BRANCH  53  77
ATOM     77  C   UNL A   1      39.239  32.241  35.478  1.00  0.00     0.023 A 
ATOM     78  C   UNL A   1      39.496  33.624  35.547  1.00  0.00     0.012 A 
ATOM     79  C   UNL A   1      38.551  31.616  36.535  1.00  0.00     0.148 A 
ATOM     80  C   UNL A   1      39.103  34.366  36.661  1.00  0.00     0.002 A 
ATOM     81  C   UNL A   1      38.116  32.372  37.619  1.00  0.00     0.091 A 
ATOM     82  F   UNL A   1      38.328  30.297  36.458  1.00  0.00    -0.205 F 
ATOM     83  C   UNL A   1      38.403  33.744  37.691  1.00  0.00     0.022 A 
BRANCH  81  84
ATOM     84  S   UNL A   1      37.094  31.677  38.923  1.00  0.00     0.127 S 
ATOM     85  O   UNL A   1      36.881  30.315  38.442  1.00  0.00    -0.237 OA
ATOM     86  O   UNL A   1      37.971  31.789  40.089  1.00  0.00    -0.237 OA
ATOM     87  O   UNL A   1      35.911  32.524  38.983  1.00  0.00    -0.744 OA
ENDBRANCH  81  84
ENDBRANCH  53  77
BRANCH  65  88
ATOM     88  C   UNL A   1      44.856  28.387  33.932  1.00  0.00     0.023 A 
ATOM     89  C   UNL A   1      46.029  29.150  33.781  1.00  0.00     0.012 A 
ATOM     90  C   UNL A   1      44.825  27.339  34.873  1.00  0.00     0.148 A 
ATOM     91  C   UNL A   1      47.165  28.860  34.538  1.00  0.00     0.002 A 
ATOM     92  C   UNL A   1      45.946  27.085  35.656  1.00  0.00     0.091 A 
ATOM     93  F   UNL A   1      43.704  26.612  34.986  1.00  0.00    -0.205 F 
ATOM     94  C   UNL A   1      47.118  27.838  35.482  1.00  0.00     0.022 A 
BRANCH  92  95
ATOM     95  S   UNL A   1      45.947  25.850  36.960  1.00  0.00     0.127 S 
ATOM     96  O   UNL A   1      44.936  26.381  37.874  1.00  0.00    -0.237 OA
ATOM     97  O   UNL A   1      45.545  24.639  36.244  1.00  0.00    -0.237 OA
ATOM     98  O   UNL A   1      47.307  25.818  37.481  1.00  0.00    -0.744 OA
ENDBRANCH  92  95
ENDBRANCH  65  88
ENDBRANCH  39  40
ENDBRANCH  31  34
ENDBRANCH  29  30
ENDBRANCH  28  29
ENDBRANCH   1  28
TORSDOF 20
ENDMDL
MODEL 3
REMARK VINA RESULT:     -10.7      2.367      3.118
REMARK SMILES CCC[C@H](Nc1cc(C)c(N)c(C(=O)NCCCCNC(=O)c2ccc(-c3c4nc(c(-c5cccc(S(=O)(=O)[O-])c5F)c5ccc([nH]5)c(-c5cccc(S(=O)(=O)[O-])c5F)c5nc(c(-c6cccc(S(=O)(=O)[O-])c6F)c6ccc3[nH]6)C=C5)C=C4)cc2)c1)c1cccs1
REMARK SMILES IDX 17 1 16 2 15 3 13 4 14 5 12 7 6 8 7 9 86 10 8 11 9 12 10 13
REMARK SMILES IDX 5 14 4 16 3 17 2 18 1 19 87 20 88 21 91 22 89 23 90 24 11 25
REMARK SMILES IDX 18 28 19 29 20 30 21 31 22 33 23 34 24 35 85 36 25 37 84 38
REMARK SMILES IDX 26 39 27 40 28 41 78 42 29 43 83 44 77 45 79 46 30 47 82 48
REMARK SMILES IDX 76 49 75 50 31 52 63 53 43 54 62 55 44 56 47 57 61 58 80 59
REMARK SMILES IDX 45 60 46 61 60 63 81 64 48 65 32 66 33 67 41 68 34 69 36 70
REMARK SMILES IDX 42 71 35 72 37 73 38 74 39 75 40 76 64 77 65 78 73 79 66 80
REMARK SMILES IDX 68 81 74 82 67 83 69 84 70 85 71 86 72 87 49 88 50 89 58 90
REMARK SMILES IDX 51 91 53 92 59 93 52 94 54 95 55 96 56 97 57 98
REMARK H PARENT 15 6 5 15 11 26 11 27 20 32 79 51 47 62
REMARK Flexibility Score: inf
ROOT
ATOM      1  C   UNL A   1      32.432  27.669  27.113  1.00  0.00     0.023 C 
ENDROOT
BRANCH   1   2
ATOM      2  C   UNL A   1      31.829  26.288  26.837  1.00  0.00     0.116 C 
BRANCH   2   3
ATOM      3  N   UNL A   1      30.672  26.409  25.975  1.00  0.00    -0.352 N 
ATOM      4  C   UNL A   1      30.295  25.798  24.804  1.00  0.00     0.253 C 
ATOM      5  O   UNL A   1      29.225  26.179  24.320  1.00  0.00    -0.269 OA
ATOM      6  H   UNL A   1      30.016  27.069  26.296  1.00  0.00     0.163 HD
BRANCH   4   7
ATOM      7  C   UNL A   1      31.066  24.694  24.134  1.00  0.00     0.065 A 
ATOM      8  C   UNL A   1      31.787  22.351  24.026  1.00  0.00     0.036 A 
ATOM      9  C   UNL A   1      32.390  22.627  22.802  1.00  0.00     0.031 A 
ATOM     10  C   UNL A   1      31.148  23.404  24.683  1.00  0.00     0.041 A 
ATOM     11  C   UNL A   1      32.449  23.927  22.279  1.00  0.00    -0.025 A 
ATOM     12  C   UNL A   1      33.282  24.169  21.049  1.00  0.00     0.046 C 
ATOM     13  C   UNL A   1      31.782  24.976  22.941  1.00  0.00     0.047 A 
BRANCH   8  14
ATOM     14  N   UNL A   1      31.839  21.094  24.596  1.00  0.00    -0.377 N 
ATOM     15  H   UNL A   1      31.062  20.507  24.444  1.00  0.00     0.161 HD
BRANCH  14  16
ATOM     16  C   UNL A   1      32.940  20.538  25.412  1.00  0.00     0.119 C 
BRANCH  16  17
ATOM     17  C   UNL A   1      33.341  19.071  25.100  1.00  0.00     0.030 C 
BRANCH  17  18
ATOM     18  C   UNL A   1      32.545  18.436  23.948  1.00  0.00    -0.001 C 
ATOM     19  C   UNL A   1      33.288  17.351  23.183  1.00  0.00     0.004 C 
ENDBRANCH  17  18
ENDBRANCH  16  17
BRANCH  16  20
ATOM     20  C   UNL A   1      34.183  21.427  25.449  1.00  0.00     0.027 A 
ATOM     21  C   UNL A   1      35.295  21.430  24.627  1.00  0.00     0.017 A 
ATOM     22  S   UNL A   1      34.315  22.656  26.652  1.00  0.00    -0.147 S 
ATOM     23  C   UNL A   1      36.269  22.395  25.015  1.00  0.00     0.012 A 
ATOM     24  C   UNL A   1      35.872  23.109  26.122  1.00  0.00     0.065 A 
ENDBRANCH  16  20
ENDBRANCH  14  16
ENDBRANCH   8  14
BRANCH  13  25
ATOM     25  N   UNL A   1      31.790  26.253  22.382  1.00  0.00    -0.398 N 
ATOM     26  H   UNL A   1      30.959  26.780  22.350  1.00  0.00     0.156 HD
ATOM     27  H   UNL A   1      32.625  26.627  22.021  1.00  0.00     0.156 HD
ENDBRANCH  13  25
ENDBRANCH   4   7
ENDBRANCH   2   3
ENDBRANCH   1   2
BRANCH   1  28
ATOM     28  C   UNL A   1      31.798  28.802  26.300  1.00  0.00     0.023 C 
BRANCH  28  29
ATOM     29  C   UNL A   1      32.764  29.902  25.865  1.00  0.00     0.116 C 
BRANCH  29  30
ATOM     30  N   UNL A   1      32.378  31.222  26.342  1.00  0.00    -0.352 N 
ATOM     31  C   UNL A   1      33.034  32.030  27.242  1.00  0.00     0.251 C 
ATOM     32  H   UNL A   1      31.540  31.583  25.972  1.00  0.00     0.163 HD
ATOM     33  O   UNL A   1      32.527  33.073  27.622  1.00  0.00    -0.269 OA
BRANCH  31  34
ATOM     34  C   UNL A   1      34.344  31.592  27.770  1.00  0.00     0.039 A 
ATOM     35  C   UNL A   1      35.355  32.542  27.933  1.00  0.00     0.014 A 
ATOM     36  C   UNL A   1      34.550  30.263  28.150  1.00  0.00     0.014 A 
ATOM     37  C   UNL A   1      36.553  32.173  28.545  1.00  0.00     0.010 A 
ATOM     38  C   UNL A   1      35.720  29.912  28.814  1.00  0.00     0.010 A 
ATOM     39  C   UNL A   1      36.729  30.864  29.025  1.00  0.00    -0.014 A 
BRANCH  39  40
ATOM     40  C   UNL A   1      37.944  30.477  29.784  1.00  0.00     0.031 A 
ATOM     41  C   UNL A   1      38.914  29.486  29.206  1.00  0.00     0.074 A 
ATOM     42  C   UNL A   1      38.112  30.937  31.040  1.00  0.00     0.049 A 
ATOM     43  N   UNL A   1      39.987  28.972  29.749  1.00  0.00    -0.248 NA
ATOM     44  C   UNL A   1      38.629  28.987  27.850  1.00  0.00     0.031 C 
ATOM     45  C   UNL A   1      37.191  31.834  31.741  1.00  0.00     0.029 A 
ATOM     46  N   UNL A   1      39.097  30.686  31.961  1.00  0.00    -0.354 N 
ATOM     47  C   UNL A   1      40.483  28.063  28.821  1.00  0.00     0.074 A 
ATOM     48  C   UNL A   1      39.578  28.076  27.693  1.00  0.00     0.031 C 
ATOM     49  C   UNL A   1      37.654  32.056  32.982  1.00  0.00     0.029 A 
ATOM     50  C   UNL A   1      38.888  31.300  33.173  1.00  0.00     0.049 A 
ATOM     51  H   UNL A   1      39.881  30.120  31.772  1.00  0.00     0.167 HD
ATOM     52  C   UNL A   1      41.606  27.311  28.891  1.00  0.00     0.034 A 
ATOM     53  C   UNL A   1      39.605  31.255  34.314  1.00  0.00     0.034 A 
ATOM     54  C   UNL A   1      42.530  27.342  29.993  1.00  0.00     0.049 A 
ATOM     55  C   UNL A   1      40.876  30.449  34.345  1.00  0.00     0.074 A 
ATOM     56  C   UNL A   1      43.747  26.697  30.114  1.00  0.00     0.029 A 
ATOM     57  N   UNL A   1      42.335  28.054  31.167  1.00  0.00    -0.354 N 
ATOM     58  N   UNL A   1      41.421  29.733  33.392  1.00  0.00    -0.248 NA
ATOM     59  C   UNL A   1      41.648  30.473  35.596  1.00  0.00     0.031 C 
ATOM     60  C   UNL A   1      44.284  27.006  31.368  1.00  0.00     0.029 A 
ATOM     61  C   UNL A   1      43.406  27.856  32.022  1.00  0.00     0.049 A 
ATOM     62  H   UNL A   1      41.551  28.616  31.364  1.00  0.00     0.167 HD
ATOM     63  C   UNL A   1      42.614  29.248  33.915  1.00  0.00     0.074 A 
ATOM     64  C   UNL A   1      42.722  29.769  35.262  1.00  0.00     0.031 C 
ATOM     65  C   UNL A   1      43.527  28.427  33.339  1.00  0.00     0.034 A 
BRANCH  52  66
ATOM     66  C   UNL A   1      41.936  26.438  27.709  1.00  0.00     0.023 A 
ATOM     67  C   UNL A   1      42.639  26.990  26.618  1.00  0.00     0.012 A 
ATOM     68  C   UNL A   1      41.606  25.069  27.699  1.00  0.00     0.148 A 
ATOM     69  C   UNL A   1      42.981  26.201  25.521  1.00  0.00     0.002 A 
ATOM     70  C   UNL A   1      41.987  24.279  26.619  1.00  0.00     0.091 A 
ATOM     71  F   UNL A   1      40.918  24.568  28.734  1.00  0.00    -0.205 F 
ATOM     72  C   UNL A   1      42.664  24.846  25.526  1.00  0.00     0.022 A 
BRANCH  70  73
ATOM     73  S   UNL A   1      41.690  22.509  26.564  1.00  0.00     0.127 S 
ATOM     74  O   UNL A   1      40.233  22.457  26.470  1.00  0.00    -0.237 OA
ATOM     75  O   UNL A   1      42.394  22.115  25.342  1.00  0.00    -0.237 OA
ATOM     76  O   UNL A   1      42.261  21.970  27.790  1.00  0.00    -0.744 OA
ENDBRANCH  70  73
ENDBRANCH  52  66
BRANCH  53  77
ATOM     77  C   UNL A   1      39.177  32.058  35.493  1.00  0.00     0.023 A 
ATOM     78  C   UNL A   1      38.285  31.489  36.424  1.00  0.00     0.012 A 
ATOM     79  C   UNL A   1      39.671  33.356  35.721  1.00  0.00     0.148 A 
ATOM     80  C   UNL A   1      37.871  32.209  37.545  1.00  0.00     0.002 A 
ATOM     81  C   UNL A   1      39.295  34.048  36.867  1.00  0.00     0.091 A 
ATOM     82  F   UNL A   1      40.507  33.887  34.817  1.00  0.00    -0.205 F 
ATOM     83  C   UNL A   1      38.383  33.483  37.772  1.00  0.00     0.022 A 
BRANCH  81  84
ATOM     84  S   UNL A   1      40.009  35.637  37.306  1.00  0.00     0.127 S 
ATOM     85  O   UNL A   1      39.657  36.454  36.147  1.00  0.00    -0.237 OA
ATOM     86  O   UNL A   1      39.286  35.968  38.535  1.00  0.00    -0.237 OA
ATOM     87  O   UNL A   1      41.430  35.384  37.499  1.00  0.00    -0.744 OA
ENDBRANCH  81  84
ENDBRANCH  53  77
BRANCH  65  88
ATOM     88  C   UNL A   1      44.742  28.057  34.148  1.00  0.00     0.023 A 
ATOM     89  C   UNL A   1      45.835  28.942  34.204  1.00  0.00     0.012 A 
ATOM     90  C   UNL A   1      44.765  26.876  34.917  1.00  0.00     0.148 A 
ATOM     91  C   UNL A   1      46.945  28.647  34.995  1.00  0.00     0.002 A 
ATOM     92  C   UNL A   1      45.856  26.611  35.737  1.00  0.00     0.091 A 
ATOM     93  F   UNL A   1      43.722  26.037  34.833  1.00  0.00    -0.205 F 
ATOM     94  C   UNL A   1      46.949  27.490  35.769  1.00  0.00     0.022 A 
BRANCH  92  95
ATOM     95  S   UNL A   1      45.906  25.193  36.839  1.00  0.00     0.127 S 
ATOM     96  O   UNL A   1      47.215  25.353  37.471  1.00  0.00    -0.237 OA
ATOM     97  O   UNL A   1      44.767  25.443  37.722  1.00  0.00    -0.237 OA
ATOM     98  O   UNL A   1      45.762  24.020  35.987  1.00  0.00    -0.744 OA
ENDBRANCH  92  95
ENDBRANCH  65  88
ENDBRANCH  39  40
ENDBRANCH  31  34
ENDBRANCH  29  30
ENDBRANCH  28  29
ENDBRANCH   1  28
TORSDOF 20
ENDMDL
