MODEL 1
REMARK VINA RESULT:     -10.9      0.000      0.000
REMARK SMILES C[C@@H](NC(=O)[C@@H](C)NC(=O)C(C)(C)C)C(=O)NCCCCNC(=O)c1ccc(-c2c3nc(c(-c4cccc(S(=O)(=O)[O-])c4F)c4ccc([nH]4)c(-c4cccc(S(=O)(=O)[O-])c4F)c4nc(c(-c5cccc(S(=O)(=O)[O-])c5F)c5ccc2[nH]5)C=C4)C=C3)cc1
REMARK SMILES IDX 19 1 18 2 17 3 15 4 16 5 2 7 1 8 3 9 4 10 5 12 6 13 7 14
REMARK SMILES IDX 8 15 9 16 10 18 11 19 12 20 13 21 14 22 20 23 21 24 22 25
REMARK SMILES IDX 23 26 24 28 25 29 26 30 87 31 27 32 86 33 28 34 29 35 30 36
REMARK SMILES IDX 80 37 31 38 85 39 79 40 81 41 32 42 84 43 78 44 77 45 33 47
REMARK SMILES IDX 65 48 45 49 64 50 46 51 49 52 63 53 82 54 47 55 48 56 62 58
REMARK SMILES IDX 83 59 50 60 34 61 35 62 43 63 36 64 38 65 44 66 37 67 39 68
REMARK SMILES IDX 40 69 41 70 42 71 66 72 67 73 75 74 68 75 70 76 76 77 69 78
REMARK SMILES IDX 71 79 72 80 73 81 74 82 51 83 52 84 60 85 53 86 55 87 61 88
REMARK SMILES IDX 54 89 56 90 57 91 58 92 59 93
REMARK H PARENT 17 6 3 11 8 17 22 27 81 46 49 57
REMARK Flexibility Score: inf
ROOT
ATOM      1  C   UNL A   1      33.896  28.318  24.799  1.00  0.00     0.023 C 
ENDROOT
BRANCH   1   2
ATOM      2  C   UNL A   1      32.679  27.770  24.048  1.00  0.00     0.116 C 
BRANCH   2   3
ATOM      3  N   UNL A   1      33.013  27.271  22.723  1.00  0.00    -0.354 N 
ATOM      4  C   UNL A   1      32.804  26.060  22.138  1.00  0.00     0.242 C 
ATOM      5  O   UNL A   1      33.170  25.922  20.967  1.00  0.00    -0.273 OA
ATOM      6  H   UNL A   1      33.472  27.924  22.147  1.00  0.00     0.163 HD
BRANCH   4   7
ATOM      7  C   UNL A   1      32.255  24.843  22.898  1.00  0.00     0.168 C 
ATOM      8  C   UNL A   1      30.770  25.080  23.209  1.00  0.00     0.041 C 
BRANCH   7   9
ATOM      9  N   UNL A   1      32.429  23.519  22.304  1.00  0.00    -0.343 N 
ATOM     10  C   UNL A   1      32.447  22.287  22.884  1.00  0.00     0.242 C 
ATOM     11  H   UNL A   1      32.552  23.518  21.327  1.00  0.00     0.164 HD
ATOM     12  O   UNL A   1      32.033  21.359  22.176  1.00  0.00    -0.273 OA
BRANCH  10  13
ATOM     13  C   UNL A   1      33.073  21.973  24.271  1.00  0.00     0.168 C 
ATOM     14  C   UNL A   1      32.117  21.145  25.105  1.00  0.00     0.041 C 
BRANCH  13  15
ATOM     15  N   UNL A   1      34.419  21.429  24.312  1.00  0.00    -0.344 N 
ATOM     16  C   UNL A   1      35.556  21.935  24.878  1.00  0.00     0.226 C 
ATOM     17  H   UNL A   1      34.530  20.561  23.863  1.00  0.00     0.164 HD
ATOM     18  O   UNL A   1      36.563  21.226  24.750  1.00  0.00    -0.275 OA
BRANCH  16  19
ATOM     19  C   UNL A   1      35.635  23.304  25.630  1.00  0.00     0.041 C 
ATOM     20  C   UNL A   1      37.060  23.653  26.086  1.00  0.00     0.021 C 
ATOM     21  C   UNL A   1      35.031  24.466  24.830  1.00  0.00     0.021 C 
ATOM     22  C   UNL A   1      34.780  23.185  26.918  1.00  0.00     0.021 C 
ENDBRANCH  16  19
ENDBRANCH  13  15
ENDBRANCH  10  13
ENDBRANCH   7   9
ENDBRANCH   4   7
ENDBRANCH   2   3
ENDBRANCH   1   2
BRANCH   1  23
ATOM     23  C   UNL A   1      34.083  27.866  26.254  1.00  0.00     0.023 C 
BRANCH  23  24
ATOM     24  C   UNL A   1      33.253  28.589  27.307  1.00  0.00     0.116 C 
BRANCH  24  25
ATOM     25  N   UNL A   1      33.427  30.030  27.293  1.00  0.00    -0.352 N 
ATOM     26  C   UNL A   1      34.483  30.799  27.723  1.00  0.00     0.251 C 
ATOM     27  H   UNL A   1      32.670  30.537  26.918  1.00  0.00     0.163 HD
ATOM     28  O   UNL A   1      34.369  32.020  27.753  1.00  0.00    -0.269 OA
BRANCH  26  29
ATOM     29  C   UNL A   1      35.742  30.165  28.177  1.00  0.00     0.039 A 
ATOM     30  C   UNL A   1      36.833  30.143  27.302  1.00  0.00     0.014 A 
ATOM     31  C   UNL A   1      35.852  29.580  29.441  1.00  0.00     0.014 A 
ATOM     32  C   UNL A   1      38.052  29.601  27.723  1.00  0.00     0.010 A 
ATOM     33  C   UNL A   1      37.088  29.105  29.883  1.00  0.00     0.010 A 
ATOM     34  C   UNL A   1      38.203  29.112  29.031  1.00  0.00    -0.014 A 
BRANCH  34  35
ATOM     35  C   UNL A   1      39.526  28.640  29.523  1.00  0.00     0.031 A 
ATOM     36  C   UNL A   1      40.247  29.376  30.621  1.00  0.00     0.074 A 
ATOM     37  C   UNL A   1      40.117  27.583  28.930  1.00  0.00     0.049 A 
ATOM     38  N   UNL A   1      41.418  29.127  31.149  1.00  0.00    -0.248 NA
ATOM     39  C   UNL A   1      39.578  30.559  31.184  1.00  0.00     0.031 C 
ATOM     40  C   UNL A   1      39.561  26.823  27.808  1.00  0.00     0.029 A 
ATOM     41  N   UNL A   1      41.326  26.977  29.170  1.00  0.00    -0.354 N 
ATOM     42  C   UNL A   1      41.640  30.135  32.081  1.00  0.00     0.074 A 
ATOM     43  C   UNL A   1      40.496  31.018  32.023  1.00  0.00     0.031 C 
ATOM     44  C   UNL A   1      40.421  25.853  27.462  1.00  0.00     0.029 A 
ATOM     45  C   UNL A   1      41.605  25.938  28.311  1.00  0.00     0.049 A 
ATOM     46  H   UNL A   1      41.937  27.258  29.890  1.00  0.00     0.167 HD
ATOM     47  C   UNL A   1      42.687  30.298  32.926  1.00  0.00     0.034 A 
ATOM     48  C   UNL A   1      42.694  25.151  28.206  1.00  0.00     0.034 A 
ATOM     49  C   UNL A   1      43.812  29.403  33.003  1.00  0.00     0.049 A 
ATOM     50  C   UNL A   1      43.834  25.342  29.169  1.00  0.00     0.074 A 
ATOM     51  C   UNL A   1      44.879  29.439  33.884  1.00  0.00     0.029 A 
ATOM     52  N   UNL A   1      44.026  28.323  32.162  1.00  0.00    -0.354 N 
ATOM     53  N   UNL A   1      43.951  26.205  30.148  1.00  0.00    -0.248 NA
ATOM     54  C   UNL A   1      44.978  24.427  29.037  1.00  0.00     0.031 C 
ATOM     55  C   UNL A   1      45.757  28.402  33.551  1.00  0.00     0.029 A 
ATOM     56  C   UNL A   1      45.215  27.694  32.491  1.00  0.00     0.049 A 
ATOM     57  H   UNL A   1      43.421  28.044  31.436  1.00  0.00     0.167 HD
ATOM     58  C   UNL A   1      45.160  25.914  30.771  1.00  0.00     0.074 A 
ATOM     59  C   UNL A   1      45.728  24.780  30.072  1.00  0.00     0.031 C 
ATOM     60  C   UNL A   1      45.750  26.536  31.822  1.00  0.00     0.034 A 
BRANCH  47  61
ATOM     61  C   UNL A   1      42.650  31.473  33.870  1.00  0.00     0.023 A 
ATOM     62  C   UNL A   1      43.187  32.713  33.465  1.00  0.00     0.012 A 
ATOM     63  C   UNL A   1      42.027  31.370  35.130  1.00  0.00     0.148 A 
ATOM     64  C   UNL A   1      43.140  33.820  34.312  1.00  0.00     0.002 A 
ATOM     65  C   UNL A   1      41.942  32.490  35.948  1.00  0.00     0.091 A 
ATOM     66  F   UNL A   1      41.537  30.181  35.505  1.00  0.00    -0.205 F 
ATOM     67  C   UNL A   1      42.509  33.711  35.547  1.00  0.00     0.022 A 
BRANCH  65  68
ATOM     68  S   UNL A   1      41.076  32.478  37.523  1.00  0.00     0.127 S 
ATOM     69  O   UNL A   1      40.981  33.906  37.817  1.00  0.00    -0.237 OA
ATOM     70  O   UNL A   1      39.806  31.843  37.170  1.00  0.00    -0.237 OA
ATOM     71  O   UNL A   1      41.910  31.707  38.434  1.00  0.00    -0.744 OA
ENDBRANCH  65  68
ENDBRANCH  47  61
BRANCH  48  72
ATOM     72  C   UNL A   1      42.740  24.072  27.177  1.00  0.00     0.023 A 
ATOM     73  C   UNL A   1      43.434  24.292  25.971  1.00  0.00     0.012 A 
ATOM     74  C   UNL A   1      42.116  22.829  27.394  1.00  0.00     0.148 A 
ATOM     75  C   UNL A   1      43.473  23.306  24.983  1.00  0.00     0.002 A 
ATOM     76  C   UNL A   1      42.210  21.831  26.431  1.00  0.00     0.091 A 
ATOM     77  F   UNL A   1      41.454  22.643  28.544  1.00  0.00    -0.205 F 
ATOM     78  C   UNL A   1      42.869  22.074  25.217  1.00  0.00     0.022 A 
BRANCH  76  79
ATOM     79  S   UNL A   1      41.580  20.170  26.700  1.00  0.00     0.127 S 
ATOM     80  O   UNL A   1      40.169  20.426  26.976  1.00  0.00    -0.237 OA
ATOM     81  O   UNL A   1      41.851  19.535  25.410  1.00  0.00    -0.237 OA
ATOM     82  O   UNL A   1      42.353  19.630  27.809  1.00  0.00    -0.744 OA
ENDBRANCH  76  79
ENDBRANCH  48  72
BRANCH  60  83
ATOM     83  C   UNL A   1      47.061  25.982  32.319  1.00  0.00     0.023 A 
ATOM     84  C   UNL A   1      48.276  26.434  31.767  1.00  0.00     0.012 A 
ATOM     85  C   UNL A   1      47.089  25.063  33.387  1.00  0.00     0.148 A 
ATOM     86  C   UNL A   1      49.495  25.953  32.244  1.00  0.00     0.002 A 
ATOM     87  C   UNL A   1      48.308  24.629  33.893  1.00  0.00     0.091 A 
ATOM     88  F   UNL A   1      45.923  24.630  33.889  1.00  0.00    -0.205 F 
ATOM     89  C   UNL A   1      49.512  25.062  33.314  1.00  0.00     0.022 A 
BRANCH  87  90
ATOM     90  S   UNL A   1      48.430  23.559  35.331  1.00  0.00     0.127 S 
ATOM     91  O   UNL A   1      47.731  24.346  36.348  1.00  0.00    -0.237 OA
ATOM     92  O   UNL A   1      47.714  22.363  34.888  1.00  0.00    -0.237 OA
ATOM     93  O   UNL A   1      49.853  23.362  35.567  1.00  0.00    -0.744 OA
ENDBRANCH  87  90
ENDBRANCH  60  83
ENDBRANCH  34  35
ENDBRANCH  26  29
ENDBRANCH  24  25
ENDBRANCH  23  24
ENDBRANCH   1  23
TORSDOF 18
ENDMDL
MODEL 2
REMARK VINA RESULT:     -10.9      5.122      9.841
REMARK SMILES C[C@@H](NC(=O)[C@@H](C)NC(=O)C(C)(C)C)C(=O)NCCCCNC(=O)c1ccc(-c2c3nc(c(-c4cccc(S(=O)(=O)[O-])c4F)c4ccc([nH]4)c(-c4cccc(S(=O)(=O)[O-])c4F)c4nc(c(-c5cccc(S(=O)(=O)[O-])c5F)c5ccc2[nH]5)C=C4)C=C3)cc1
REMARK SMILES IDX 19 1 18 2 17 3 15 4 16 5 2 7 1 8 3 9 4 10 5 12 6 13 7 14
REMARK SMILES IDX 8 15 9 16 10 18 11 19 12 20 13 21 14 22 20 23 21 24 22 25
REMARK SMILES IDX 23 26 24 28 25 29 26 30 87 31 27 32 86 33 28 34 29 35 30 36
REMARK SMILES IDX 80 37 31 38 85 39 79 40 81 41 32 42 84 43 78 44 77 45 33 47
REMARK SMILES IDX 65 48 45 49 64 50 46 51 49 52 63 53 82 54 47 55 48 56 62 58
REMARK SMILES IDX 83 59 50 60 34 61 35 62 43 63 36 64 38 65 44 66 37 67 39 68
REMARK SMILES IDX 40 69 41 70 42 71 66 72 67 73 75 74 68 75 70 76 76 77 69 78
REMARK SMILES IDX 71 79 72 80 73 81 74 82 51 83 52 84 60 85 53 86 55 87 61 88
REMARK SMILES IDX 54 89 56 90 57 91 58 92 59 93
REMARK H PARENT 17 6 3 11 8 17 22 27 81 46 49 57
REMARK Flexibility Score: inf
ROOT
ATOM      1  C   UNL A   1      35.083  22.130  26.453  1.00  0.00     0.023 C 
ENDROOT
BRANCH   1   2
ATOM      2  C   UNL A   1      34.244  23.411  26.460  1.00  0.00     0.116 C 
BRANCH   2   3
ATOM      3  N   UNL A   1      32.950  23.233  27.100  1.00  0.00    -0.354 N 
ATOM      4  C   UNL A   1      31.688  23.498  26.666  1.00  0.00     0.242 C 
ATOM      5  O   UNL A   1      30.754  23.211  27.422  1.00  0.00    -0.273 OA
ATOM      6  H   UNL A   1      32.995  22.855  28.008  1.00  0.00     0.163 HD
BRANCH   4   7
ATOM      7  C   UNL A   1      31.387  24.238  25.353  1.00  0.00     0.168 C 
ATOM      8  C   UNL A   1      31.273  23.210  24.220  1.00  0.00     0.041 C 
BRANCH   7   9
ATOM      9  N   UNL A   1      30.241  25.143  25.316  1.00  0.00    -0.343 N 
ATOM     10  C   UNL A   1      29.946  26.159  24.457  1.00  0.00     0.242 C 
ATOM     11  H   UNL A   1      29.573  24.994  26.025  1.00  0.00     0.164 HD
ATOM     12  O   UNL A   1      28.739  26.364  24.270  1.00  0.00    -0.273 OA
BRANCH  10  13
ATOM     13  C   UNL A   1      30.993  27.128  23.844  1.00  0.00     0.168 C 
ATOM     14  C   UNL A   1      31.058  26.951  22.340  1.00  0.00     0.041 C 
BRANCH  13  15
ATOM     15  N   UNL A   1      30.929  28.533  24.209  1.00  0.00    -0.344 N 
ATOM     16  C   UNL A   1      31.488  29.194  25.267  1.00  0.00     0.226 C 
ATOM     17  H   UNL A   1      30.401  29.096  23.599  1.00  0.00     0.164 HD
ATOM     18  O   UNL A   1      31.254  30.409  25.305  1.00  0.00    -0.275 OA
BRANCH  16  19
ATOM     19  C   UNL A   1      32.353  28.512  26.378  1.00  0.00     0.041 C 
ATOM     20  C   UNL A   1      31.504  27.787  27.433  1.00  0.00     0.021 C 
ATOM     21  C   UNL A   1      33.423  27.569  25.813  1.00  0.00     0.021 C 
ATOM     22  C   UNL A   1      33.123  29.630  27.128  1.00  0.00     0.021 C 
ENDBRANCH  16  19
ENDBRANCH  13  15
ENDBRANCH  10  13
ENDBRANCH   7   9
ENDBRANCH   4   7
ENDBRANCH   2   3
ENDBRANCH   1   2
BRANCH   1  23
ATOM     23  C   UNL A   1      35.566  21.617  25.089  1.00  0.00     0.023 C 
BRANCH  23  24
ATOM     24  C   UNL A   1      37.034  21.848  24.750  1.00  0.00     0.116 C 
BRANCH  24  25
ATOM     25  N   UNL A   1      37.917  20.821  25.269  1.00  0.00    -0.352 N 
ATOM     26  C   UNL A   1      39.096  20.937  25.969  1.00  0.00     0.251 C 
ATOM     27  H   UNL A   1      37.629  19.896  25.093  1.00  0.00     0.163 HD
ATOM     28  O   UNL A   1      39.767  19.935  26.193  1.00  0.00    -0.269 OA
BRANCH  26  29
ATOM     29  C   UNL A   1      39.575  22.262  26.426  1.00  0.00     0.039 A 
ATOM     30  C   UNL A   1      40.643  22.313  27.326  1.00  0.00     0.014 A 
ATOM     31  C   UNL A   1      38.972  23.446  25.992  1.00  0.00     0.014 A 
ATOM     32  C   UNL A   1      41.153  23.550  27.732  1.00  0.00     0.010 A 
ATOM     33  C   UNL A   1      39.528  24.678  26.343  1.00  0.00     0.010 A 
ATOM     34  C   UNL A   1      40.626  24.745  27.214  1.00  0.00    -0.014 A 
BRANCH  34  35
ATOM     35  C   UNL A   1      41.236  26.060  27.551  1.00  0.00     0.031 A 
ATOM     36  C   UNL A   1      42.655  26.375  27.156  1.00  0.00     0.074 A 
ATOM     37  C   UNL A   1      40.535  26.951  28.281  1.00  0.00     0.049 A 
ATOM     38  N   UNL A   1      43.357  27.453  27.394  1.00  0.00    -0.248 NA
ATOM     39  C   UNL A   1      43.389  25.337  26.416  1.00  0.00     0.031 C 
ATOM     40  C   UNL A   1      39.177  26.743  28.791  1.00  0.00     0.029 A 
ATOM     41  N   UNL A   1      40.872  28.200  28.743  1.00  0.00    -0.354 N 
ATOM     42  C   UNL A   1      44.619  27.214  26.864  1.00  0.00     0.074 A 
ATOM     43  C   UNL A   1      44.597  25.873  26.319  1.00  0.00     0.031 C 
ATOM     44  C   UNL A   1      38.797  27.826  29.487  1.00  0.00     0.029 A 
ATOM     45  C   UNL A   1      39.890  28.791  29.505  1.00  0.00     0.049 A 
ATOM     46  H   UNL A   1      41.734  28.633  28.546  1.00  0.00     0.167 HD
ATOM     47  C   UNL A   1      45.693  28.040  26.813  1.00  0.00     0.034 A 
ATOM     48  C   UNL A   1      39.875  29.971  30.158  1.00  0.00     0.034 A 
ATOM     49  C   UNL A   1      45.705  29.383  27.330  1.00  0.00     0.049 A 
ATOM     50  C   UNL A   1      41.072  30.877  30.068  1.00  0.00     0.074 A 
ATOM     51  C   UNL A   1      46.716  30.325  27.249  1.00  0.00     0.029 A 
ATOM     52  N   UNL A   1      44.668  29.971  28.036  1.00  0.00    -0.354 N 
ATOM     53  N   UNL A   1      42.200  30.693  29.425  1.00  0.00    -0.248 NA
ATOM     54  C   UNL A   1      40.983  32.170  30.763  1.00  0.00     0.031 C 
ATOM     55  C   UNL A   1      46.305  31.469  27.940  1.00  0.00     0.029 A 
ATOM     56  C   UNL A   1      45.021  31.256  28.413  1.00  0.00     0.049 A 
ATOM     57  H   UNL A   1      43.808  29.538  28.242  1.00  0.00     0.167 HD
ATOM     58  C   UNL A   1      42.937  31.858  29.606  1.00  0.00     0.074 A 
ATOM     59  C   UNL A   1      42.119  32.751  30.401  1.00  0.00     0.031 C 
ATOM     60  C   UNL A   1      44.182  32.158  29.162  1.00  0.00     0.034 A 
BRANCH  47  61
ATOM     61  C   UNL A   1      46.939  27.529  26.136  1.00  0.00     0.023 A 
ATOM     62  C   UNL A   1      47.833  26.702  26.848  1.00  0.00     0.012 A 
ATOM     63  C   UNL A   1      47.194  27.812  24.779  1.00  0.00     0.148 A 
ATOM     64  C   UNL A   1      48.978  26.197  26.233  1.00  0.00     0.002 A 
ATOM     65  C   UNL A   1      48.312  27.265  24.160  1.00  0.00     0.091 A 
ATOM     66  F   UNL A   1      46.342  28.612  24.122  1.00  0.00    -0.205 F 
ATOM     67  C   UNL A   1      49.212  26.470  24.889  1.00  0.00     0.022 A 
BRANCH  65  68
ATOM     68  S   UNL A   1      48.659  27.486  22.411  1.00  0.00     0.127 S 
ATOM     69  O   UNL A   1      48.723  26.102  21.947  1.00  0.00    -0.237 OA
ATOM     70  O   UNL A   1      47.484  28.229  21.956  1.00  0.00    -0.237 OA
ATOM     71  O   UNL A   1      49.911  28.227  22.340  1.00  0.00    -0.744 OA
ENDBRANCH  65  68
ENDBRANCH  47  61
BRANCH  48  72
ATOM     72  C   UNL A   1      38.660  30.388  30.917  1.00  0.00     0.023 A 
ATOM     73  C   UNL A   1      38.535  30.034  32.275  1.00  0.00     0.012 A 
ATOM     74  C   UNL A   1      37.642  31.145  30.307  1.00  0.00     0.148 A 
ATOM     75  C   UNL A   1      37.398  30.394  33.001  1.00  0.00     0.002 A 
ATOM     76  C   UNL A   1      36.541  31.550  31.052  1.00  0.00     0.091 A 
ATOM     77  F   UNL A   1      37.777  31.464  29.013  1.00  0.00    -0.205 F 
ATOM     78  C   UNL A   1      36.406  31.158  32.393  1.00  0.00     0.022 A 
BRANCH  76  79
ATOM     79  S   UNL A   1      35.281  32.649  30.392  1.00  0.00     0.127 S 
ATOM     80  O   UNL A   1      36.050  33.861  30.127  1.00  0.00    -0.237 OA
ATOM     81  O   UNL A   1      34.846  31.920  29.200  1.00  0.00    -0.237 OA
ATOM     82  O   UNL A   1      34.268  32.757  31.432  1.00  0.00    -0.744 OA
ENDBRANCH  76  79
ENDBRANCH  48  72
BRANCH  60  83
ATOM     83  C   UNL A   1      44.731  33.525  29.480  1.00  0.00     0.023 A 
ATOM     84  C   UNL A   1      45.481  33.731  30.656  1.00  0.00     0.012 A 
ATOM     85  C   UNL A   1      44.563  34.591  28.575  1.00  0.00     0.148 A 
ATOM     86  C   UNL A   1      46.022  34.984  30.942  1.00  0.00     0.002 A 
ATOM     87  C   UNL A   1      45.150  35.822  28.839  1.00  0.00     0.091 A 
ATOM     88  F   UNL A   1      43.832  34.382  27.470  1.00  0.00    -0.205 F 
ATOM     89  C   UNL A   1      45.867  36.025  30.030  1.00  0.00     0.022 A 
BRANCH  87  90
ATOM     90  S   UNL A   1      45.088  37.191  27.677  1.00  0.00     0.127 S 
ATOM     91  O   UNL A   1      45.943  36.702  26.596  1.00  0.00    -0.237 OA
ATOM     92  O   UNL A   1      43.665  37.253  27.348  1.00  0.00    -0.237 OA
ATOM     93  O   UNL A   1      45.596  38.352  28.395  1.00  0.00    -0.744 OA
ENDBRANCH  87  90
ENDBRANCH  60  83
ENDBRANCH  34  35
ENDBRANCH  26  29
ENDBRANCH  24  25
ENDBRANCH  23  24
ENDBRANCH   1  23
TORSDOF 18
ENDMDL
MODEL 3
REMARK VINA RESULT:     -10.7      4.638      9.519
REMARK SMILES C[C@@H](NC(=O)[C@@H](C)NC(=O)C(C)(C)C)C(=O)NCCCCNC(=O)c1ccc(-c2c3nc(c(-c4cccc(S(=O)(=O)[O-])c4F)c4ccc([nH]4)c(-c4cccc(S(=O)(=O)[O-])c4F)c4nc(c(-c5cccc(S(=O)(=O)[O-])c5F)c5ccc2[nH]5)C=C4)C=C3)cc1
REMARK SMILES IDX 19 1 18 2 17 3 15 4 16 5 2 7 1 8 3 9 4 10 5 12 6 13 7 14
REMARK SMILES IDX 8 15 9 16 10 18 11 19 12 20 13 21 14 22 20 23 21 24 22 25
REMARK SMILES IDX 23 26 24 28 25 29 26 30 87 31 27 32 86 33 28 34 29 35 30 36
REMARK SMILES IDX 80 37 31 38 85 39 79 40 81 41 32 42 84 43 78 44 77 45 33 47
REMARK SMILES IDX 65 48 45 49 64 50 46 51 49 52 63 53 82 54 47 55 48 56 62 58
REMARK SMILES IDX 83 59 50 60 34 61 35 62 43 63 36 64 38 65 44 66 37 67 39 68
REMARK SMILES IDX 40 69 41 70 42 71 66 72 67 73 75 74 68 75 70 76 76 77 69 78
REMARK SMILES IDX 71 79 72 80 73 81 74 82 51 83 52 84 60 85 53 86 55 87 61 88
REMARK SMILES IDX 54 89 56 90 57 91 58 92 59 93
REMARK H PARENT 17 6 3 11 8 17 22 27 81 46 49 57
REMARK Flexibility Score: inf
ROOT
ATOM      1  C   UNL A   1      34.616  20.466  24.758  1.00  0.00     0.023 C 
ENDROOT
BRANCH   1   2
ATOM      2  C   UNL A   1      33.166  20.253  25.205  1.00  0.00     0.116 C 
BRANCH   2   3
ATOM      3  N   UNL A   1      32.593  21.432  25.837  1.00  0.00    -0.354 N 
ATOM      4  C   UNL A   1      31.918  22.493  25.317  1.00  0.00     0.242 C 
ATOM      5  O   UNL A   1      31.511  23.351  26.107  1.00  0.00    -0.273 OA
ATOM      6  H   UNL A   1      32.717  21.469  26.813  1.00  0.00     0.163 HD
BRANCH   4   7
ATOM      7  C   UNL A   1      31.752  22.727  23.808  1.00  0.00     0.168 C 
ATOM      8  C   UNL A   1      30.591  23.704  23.582  1.00  0.00     0.041 C 
BRANCH   7   9
ATOM      9  N   UNL A   1      32.919  23.161  23.042  1.00  0.00    -0.343 N 
ATOM     10  C   UNL A   1      33.972  23.944  23.408  1.00  0.00     0.242 C 
ATOM     11  H   UNL A   1      32.950  22.833  22.114  1.00  0.00     0.164 HD
ATOM     12  O   UNL A   1      35.043  23.694  22.839  1.00  0.00    -0.273 OA
BRANCH  10  13
ATOM     13  C   UNL A   1      33.871  25.178  24.345  1.00  0.00     0.168 C 
ATOM     14  C   UNL A   1      34.783  25.007  25.543  1.00  0.00     0.041 C 
BRANCH  13  15
ATOM     15  N   UNL A   1      34.008  26.501  23.761  1.00  0.00    -0.344 N 
ATOM     16  C   UNL A   1      33.425  27.686  24.116  1.00  0.00     0.226 C 
ATOM     17  H   UNL A   1      34.615  26.553  22.988  1.00  0.00     0.164 HD
ATOM     18  O   UNL A   1      33.748  28.656  23.419  1.00  0.00    -0.275 OA
BRANCH  16  19
ATOM     19  C   UNL A   1      32.411  27.853  25.296  1.00  0.00     0.041 C 
ATOM     20  C   UNL A   1      31.212  26.899  25.192  1.00  0.00     0.021 C 
ATOM     21  C   UNL A   1      33.070  27.734  26.677  1.00  0.00     0.021 C 
ATOM     22  C   UNL A   1      31.835  29.291  25.222  1.00  0.00     0.021 C 
ENDBRANCH  16  19
ENDBRANCH  13  15
ENDBRANCH  10  13
ENDBRANCH   7   9
ENDBRANCH   4   7
ENDBRANCH   2   3
ENDBRANCH   1   2
BRANCH   1  23
ATOM     23  C   UNL A   1      35.499  21.354  25.646  1.00  0.00     0.023 C 
BRANCH  23  24
ATOM     24  C   UNL A   1      36.897  21.666  25.126  1.00  0.00     0.116 C 
BRANCH  24  25
ATOM     25  N   UNL A   1      37.883  20.660  25.475  1.00  0.00    -0.352 N 
ATOM     26  C   UNL A   1      39.141  20.802  26.013  1.00  0.00     0.251 C 
ATOM     27  H   UNL A   1      37.610  19.730  25.298  1.00  0.00     0.163 HD
ATOM     28  O   UNL A   1      39.875  19.823  26.099  1.00  0.00    -0.269 OA
BRANCH  26  29
ATOM     29  C   UNL A   1      39.625  22.128  26.460  1.00  0.00     0.039 A 
ATOM     30  C   UNL A   1      40.752  22.185  27.285  1.00  0.00     0.014 A 
ATOM     31  C   UNL A   1      38.972  23.307  26.090  1.00  0.00     0.014 A 
ATOM     32  C   UNL A   1      41.266  23.425  27.678  1.00  0.00     0.010 A 
ATOM     33  C   UNL A   1      39.528  24.544  26.423  1.00  0.00     0.010 A 
ATOM     34  C   UNL A   1      40.682  24.618  27.218  1.00  0.00    -0.014 A 
BRANCH  34  35
ATOM     35  C   UNL A   1      41.289  25.939  27.536  1.00  0.00     0.031 A 
ATOM     36  C   UNL A   1      42.707  26.251  27.138  1.00  0.00     0.074 A 
ATOM     37  C   UNL A   1      40.585  26.840  28.253  1.00  0.00     0.049 A 
ATOM     38  N   UNL A   1      43.407  27.334  27.361  1.00  0.00    -0.248 NA
ATOM     39  C   UNL A   1      43.444  25.204  26.413  1.00  0.00     0.031 C 
ATOM     40  C   UNL A   1      39.228  26.637  28.764  1.00  0.00     0.029 A 
ATOM     41  N   UNL A   1      40.919  28.096  28.696  1.00  0.00    -0.354 N 
ATOM     42  C   UNL A   1      44.670  27.090  26.835  1.00  0.00     0.074 A 
ATOM     43  C   UNL A   1      44.651  25.741  26.310  1.00  0.00     0.031 C 
ATOM     44  C   UNL A   1      38.844  27.729  29.444  1.00  0.00     0.029 A 
ATOM     45  C   UNL A   1      39.936  28.697  29.449  1.00  0.00     0.049 A 
ATOM     46  H   UNL A   1      41.781  28.528  28.493  1.00  0.00     0.167 HD
ATOM     47  C   UNL A   1      45.742  27.917  26.772  1.00  0.00     0.034 A 
ATOM     48  C   UNL A   1      39.918  29.885  30.084  1.00  0.00     0.034 A 
ATOM     49  C   UNL A   1      45.751  29.268  27.269  1.00  0.00     0.049 A 
ATOM     50  C   UNL A   1      41.113  30.792  29.981  1.00  0.00     0.074 A 
ATOM     51  C   UNL A   1      46.761  30.210  27.175  1.00  0.00     0.029 A 
ATOM     52  N   UNL A   1      44.712  29.864  27.966  1.00  0.00    -0.354 N 
ATOM     53  N   UNL A   1      42.241  30.601  29.342  1.00  0.00    -0.248 NA
ATOM     54  C   UNL A   1      41.021  32.096  30.657  1.00  0.00     0.031 C 
ATOM     55  C   UNL A   1      46.347  31.364  27.849  1.00  0.00     0.029 A 
ATOM     56  C   UNL A   1      45.062  31.156  28.324  1.00  0.00     0.049 A 
ATOM     57  H   UNL A   1      43.853  29.433  28.177  1.00  0.00     0.167 HD
ATOM     58  C   UNL A   1      42.976  31.771  29.506  1.00  0.00     0.074 A 
ATOM     59  C   UNL A   1      42.155  32.674  30.287  1.00  0.00     0.031 C 
ATOM     60  C   UNL A   1      44.221  32.066  29.059  1.00  0.00     0.034 A 
BRANCH  47  61
ATOM     61  C   UNL A   1      46.990  27.399  26.104  1.00  0.00     0.023 A 
ATOM     62  C   UNL A   1      47.206  27.652  24.733  1.00  0.00     0.012 A 
ATOM     63  C   UNL A   1      47.979  26.720  26.844  1.00  0.00     0.148 A 
ATOM     64  C   UNL A   1      48.366  27.206  24.101  1.00  0.00     0.002 A 
ATOM     65  C   UNL A   1      49.153  26.320  26.218  1.00  0.00     0.091 A 
ATOM     66  F   UNL A   1      47.750  26.474  28.141  1.00  0.00    -0.205 F 
ATOM     67  C   UNL A   1      49.342  26.549  24.845  1.00  0.00     0.022 A 
BRANCH  65  68
ATOM     68  S   UNL A   1      50.510  25.542  27.103  1.00  0.00     0.127 S 
ATOM     69  O   UNL A   1      49.869  24.335  27.620  1.00  0.00    -0.237 OA
ATOM     70  O   UNL A   1      51.480  25.307  26.033  1.00  0.00    -0.237 OA
ATOM     71  O   UNL A   1      50.936  26.503  28.110  1.00  0.00    -0.744 OA
ENDBRANCH  65  68
ENDBRANCH  47  61
BRANCH  48  72
ATOM     72  C   UNL A   1      38.701  30.312  30.835  1.00  0.00     0.023 A 
ATOM     73  C   UNL A   1      38.588  30.002  32.205  1.00  0.00     0.012 A 
ATOM     74  C   UNL A   1      37.669  31.033  30.207  1.00  0.00     0.148 A 
ATOM     75  C   UNL A   1      37.451  30.371  32.926  1.00  0.00     0.002 A 
ATOM     76  C   UNL A   1      36.566  31.448  30.945  1.00  0.00     0.091 A 
ATOM     77  F   UNL A   1      37.792  31.310  28.901  1.00  0.00    -0.205 F 
ATOM     78  C   UNL A   1      36.445  31.100  32.299  1.00  0.00     0.022 A 
BRANCH  76  79
ATOM     79  S   UNL A   1      35.288  32.506  30.255  1.00  0.00     0.127 S 
ATOM     80  O   UNL A   1      34.368  32.635  31.381  1.00  0.00    -0.237 OA
ATOM     81  O   UNL A   1      36.044  33.716  29.933  1.00  0.00    -0.237 OA
ATOM     82  O   UNL A   1      34.771  31.794  29.095  1.00  0.00    -0.744 OA
ENDBRANCH  76  79
ENDBRANCH  48  72
BRANCH  60  83
ATOM     83  C   UNL A   1      44.767  33.439  29.357  1.00  0.00     0.023 A 
ATOM     84  C   UNL A   1      45.498  33.669  30.540  1.00  0.00     0.012 A 
ATOM     85  C   UNL A   1      44.615  34.487  28.427  1.00  0.00     0.148 A 
ATOM     86  C   UNL A   1      46.036  34.927  30.808  1.00  0.00     0.002 A 
ATOM     87  C   UNL A   1      45.199  35.722  28.675  1.00  0.00     0.091 A 
ATOM     88  F   UNL A   1      43.901  34.255  27.315  1.00  0.00    -0.205 F 
ATOM     89  C   UNL A   1      45.898  35.949  29.872  1.00  0.00     0.022 A 
BRANCH  87  90
ATOM     90  S   UNL A   1      45.159  37.066  27.484  1.00  0.00     0.127 S 
ATOM     91  O   UNL A   1      43.751  37.070  27.086  1.00  0.00    -0.237 OA
ATOM     92  O   UNL A   1      45.565  38.212  28.297  1.00  0.00    -0.237 OA
ATOM     93  O   UNL A   1      46.101  36.703  26.435  1.00  0.00    -0.744 OA
ENDBRANCH  87  90
ENDBRANCH  60  83
ENDBRANCH  34  35
ENDBRANCH  26  29
ENDBRANCH  24  25
ENDBRANCH  23  24
ENDBRANCH   1  23
TORSDOF 18
ENDMDL
