MODEL 1
REMARK VINA RESULT:     -12.0      0.000      0.000
REMARK SMILES O=C(NCCCCNC(=O)c1ccc(COc2cccc(Cl)c2Cl)o1)c1ccc(-c2c3nc(c(-c4cccc(S(=O)(=O)[O-])c4F)c4ccc([nH]4)c(-c4cccc(S(=O)(=O)[O-])c4F)c4nc(c(-c5cccc(S(=O)(=O)[O-])c5F)c5ccc2[nH]5)C=C4)C=C3)cc1
REMARK SMILES IDX 5 1 4 2 3 3 1 4 2 5 26 7 27 8 88 9 28 10 87 11 29 12 30 13
REMARK SMILES IDX 31 14 81 15 32 16 86 17 80 18 82 19 33 20 85 21 79 22 78 23
REMARK SMILES IDX 34 25 66 26 46 27 65 28 47 29 50 30 64 31 83 32 48 33 49 34
REMARK SMILES IDX 63 36 84 37 51 38 35 39 36 40 44 41 37 42 39 43 45 44 38 45
REMARK SMILES IDX 40 46 41 47 42 48 43 49 67 50 68 51 76 52 69 53 71 54 77 55
REMARK SMILES IDX 70 56 72 57 73 58 74 59 75 60 52 61 53 62 61 63 54 64 56 65
REMARK SMILES IDX 62 66 55 67 57 68 58 69 59 70 60 71 6 72 7 73 8 74 9 75
REMARK SMILES IDX 10 77 11 78 12 79 25 80 13 81 14 82 15 83 16 84 17 85 18 86
REMARK SMILES IDX 23 87 19 88 21 89 24 90 20 91 22 92
REMARK H PARENT 3 6 82 24 50 35 8 76
REMARK Flexibility Score: inf
ROOT
ATOM      1  C   UNL A   1      35.419  21.517  24.665  1.00  0.00     0.023 C 
ENDROOT
BRANCH   1   2
ATOM      2  C   UNL A   1      36.629  21.907  25.502  1.00  0.00     0.116 C 
BRANCH   2   3
ATOM      3  N   UNL A   1      37.636  20.857  25.575  1.00  0.00    -0.352 N 
ATOM      4  O   UNL A   1      39.702  19.984  25.814  1.00  0.00    -0.269 OA
ATOM      5  C   UNL A   1      38.957  20.950  25.946  1.00  0.00     0.251 C 
ATOM      6  H   UNL A   1      37.329  19.957  25.322  1.00  0.00     0.163 HD
BRANCH   5   7
ATOM      7  C   UNL A   1      39.467  22.235  26.466  1.00  0.00     0.039 A 
ATOM      8  C   UNL A   1      39.003  23.440  25.934  1.00  0.00     0.014 A 
ATOM      9  C   UNL A   1      40.458  22.231  27.449  1.00  0.00     0.014 A 
ATOM     10  C   UNL A   1      39.655  24.623  26.248  1.00  0.00     0.010 A 
ATOM     11  C   UNL A   1      41.041  23.438  27.842  1.00  0.00     0.010 A 
ATOM     12  C   UNL A   1      40.679  24.638  27.211  1.00  0.00    -0.014 A 
BRANCH  12  13
ATOM     13  C   UNL A   1      41.317  25.931  27.571  1.00  0.00     0.031 A 
ATOM     14  C   UNL A   1      42.711  26.270  27.122  1.00  0.00     0.074 A 
ATOM     15  C   UNL A   1      40.613  26.809  28.310  1.00  0.00     0.049 A 
ATOM     16  N   UNL A   1      43.396  27.365  27.327  1.00  0.00    -0.248 NA
ATOM     17  C   UNL A   1      43.439  25.248  26.352  1.00  0.00     0.031 C 
ATOM     18  C   UNL A   1      39.263  26.576  28.834  1.00  0.00     0.029 A 
ATOM     19  N   UNL A   1      40.924  28.070  28.747  1.00  0.00    -0.354 N 
ATOM     20  C   UNL A   1      44.646  27.150  26.760  1.00  0.00     0.074 A 
ATOM     21  C   UNL A   1      44.629  25.814  26.204  1.00  0.00     0.031 C 
ATOM     22  C   UNL A   1      38.850  27.669  29.488  1.00  0.00     0.029 A 
ATOM     23  C   UNL A   1      39.923  28.657  29.484  1.00  0.00     0.049 A 
ATOM     24  H   UNL A   1      41.782  28.513  28.552  1.00  0.00     0.167 HD
ATOM     25  C   UNL A   1      45.707  27.992  26.696  1.00  0.00     0.034 A 
ATOM     26  C   UNL A   1      39.875  29.851  30.103  1.00  0.00     0.034 A 
ATOM     27  C   UNL A   1      45.704  29.333  27.222  1.00  0.00     0.049 A 
ATOM     28  C   UNL A   1      41.055  30.770  30.000  1.00  0.00     0.074 A 
ATOM     29  C   UNL A   1      46.702  30.290  27.145  1.00  0.00     0.029 A 
ATOM     30  N   UNL A   1      44.659  29.905  27.934  1.00  0.00    -0.354 N 
ATOM     31  N   UNL A   1      42.180  30.596  29.350  1.00  0.00    -0.248 NA
ATOM     32  C   UNL A   1      40.950  32.061  30.692  1.00  0.00     0.031 C 
ATOM     33  C   UNL A   1      46.271  31.428  27.835  1.00  0.00     0.029 A 
ATOM     34  C   UNL A   1      44.992  31.195  28.313  1.00  0.00     0.049 A 
ATOM     35  H   UNL A   1      43.806  29.459  28.138  1.00  0.00     0.167 HD
ATOM     36  C   UNL A   1      42.905  31.768  29.526  1.00  0.00     0.074 A 
ATOM     37  C   UNL A   1      42.081  32.651  30.327  1.00  0.00     0.031 C 
ATOM     38  C   UNL A   1      44.144  32.080  29.072  1.00  0.00     0.034 A 
BRANCH  25  39
ATOM     39  C   UNL A   1      46.959  27.496  26.016  1.00  0.00     0.023 A 
ATOM     40  C   UNL A   1      47.859  26.668  26.718  1.00  0.00     0.012 A 
ATOM     41  C   UNL A   1      47.222  27.810  24.668  1.00  0.00     0.148 A 
ATOM     42  C   UNL A   1      49.019  26.194  26.104  1.00  0.00     0.002 A 
ATOM     43  C   UNL A   1      48.357  27.297  24.049  1.00  0.00     0.091 A 
ATOM     44  F   UNL A   1      46.369  28.614  24.020  1.00  0.00    -0.205 F 
ATOM     45  C   UNL A   1      49.263  26.501  24.768  1.00  0.00     0.022 A 
BRANCH  43  46
ATOM     46  S   UNL A   1      48.712  27.572  22.308  1.00  0.00     0.127 S 
ATOM     47  O   UNL A   1      47.635  28.485  21.928  1.00  0.00    -0.237 OA
ATOM     48  O   UNL A   1      50.040  28.184  22.354  1.00  0.00    -0.237 OA
ATOM     49  O   UNL A   1      48.674  26.257  21.683  1.00  0.00    -0.744 OA
ENDBRANCH  43  46
ENDBRANCH  25  39
BRANCH  26  50
ATOM     50  C   UNL A   1      38.634  30.256  30.819  1.00  0.00     0.023 A 
ATOM     51  C   UNL A   1      38.496  29.951  32.187  1.00  0.00     0.012 A 
ATOM     52  C   UNL A   1      37.624  30.995  30.172  1.00  0.00     0.148 A 
ATOM     53  C   UNL A   1      37.364  30.358  32.893  1.00  0.00     0.002 A 
ATOM     54  C   UNL A   1      36.529  31.448  30.896  1.00  0.00     0.091 A 
ATOM     55  F   UNL A   1      37.775  31.268  28.868  1.00  0.00    -0.205 F 
ATOM     56  C   UNL A   1      36.388  31.117  32.252  1.00  0.00     0.022 A 
BRANCH  54  57
ATOM     57  S   UNL A   1      35.295  32.547  30.191  1.00  0.00     0.127 S 
ATOM     58  O   UNL A   1      34.783  31.747  29.082  1.00  0.00    -0.237 OA
ATOM     59  O   UNL A   1      34.368  32.714  31.311  1.00  0.00    -0.237 OA
ATOM     60  O   UNL A   1      36.011  33.758  29.818  1.00  0.00    -0.744 OA
ENDBRANCH  54  57
ENDBRANCH  26  50
BRANCH  38  61
ATOM     61  C   UNL A   1      44.674  33.453  29.395  1.00  0.00     0.023 A 
ATOM     62  C   UNL A   1      45.354  33.678  30.608  1.00  0.00     0.012 A 
ATOM     63  C   UNL A   1      44.548  34.505  28.467  1.00  0.00     0.148 A 
ATOM     64  C   UNL A   1      45.869  34.939  30.908  1.00  0.00     0.002 A 
ATOM     65  C   UNL A   1      45.109  35.744  28.750  1.00  0.00     0.091 A 
ATOM     66  F   UNL A   1      43.877  34.278  27.328  1.00  0.00    -0.205 F 
ATOM     67  C   UNL A   1      45.757  35.967  29.975  1.00  0.00     0.022 A 
BRANCH  65  68
ATOM     68  S   UNL A   1      45.096  37.096  27.567  1.00  0.00     0.127 S 
ATOM     69  O   UNL A   1      45.680  38.183  28.350  1.00  0.00    -0.237 OA
ATOM     70  O   UNL A   1      45.954  36.583  26.499  1.00  0.00    -0.237 OA
ATOM     71  O   UNL A   1      43.702  37.278  27.184  1.00  0.00    -0.744 OA
ENDBRANCH  65  68
ENDBRANCH  38  61
ENDBRANCH  12  13
ENDBRANCH   5   7
ENDBRANCH   2   3
ENDBRANCH   1   2
BRANCH   1  72
ATOM     72  C   UNL A   1      34.821  20.155  25.001  1.00  0.00     0.023 C 
BRANCH  72  73
ATOM     73  C   UNL A   1      33.382  20.205  25.502  1.00  0.00     0.116 C 
BRANCH  73  74
ATOM     74  N   UNL A   1      33.291  20.766  26.838  1.00  0.00    -0.349 N 
ATOM     75  C   UNL A   1      32.902  22.032  27.192  1.00  0.00     0.286 C 
ATOM     76  H   UNL A   1      33.538  20.166  27.578  1.00  0.00     0.163 HD
ATOM     77  O   UNL A   1      33.092  22.391  28.365  1.00  0.00    -0.266 OA
BRANCH  75  78
ATOM     78  C   UNL A   1      32.284  22.869  26.195  1.00  0.00     0.191 A 
ATOM     79  C   UNL A   1      31.010  22.884  25.648  1.00  0.00     0.057 A 
ATOM     80  O   UNL A   1      33.015  23.888  25.657  1.00  0.00    -0.452 OA
ATOM     81  C   UNL A   1      30.982  23.932  24.700  1.00  0.00     0.050 A 
ATOM     82  C   UNL A   1      32.214  24.546  24.773  1.00  0.00     0.142 A 
BRANCH  82  83
ATOM     83  C   UNL A   1      32.763  25.797  24.190  1.00  0.00     0.304 C 
BRANCH  83  84
ATOM     84  O   UNL A   1      31.767  26.837  24.266  1.00  0.00    -0.484 OA
BRANCH  84  85
ATOM     85  C   UNL A   1      32.033  27.768  25.239  1.00  0.00     0.140 A 
ATOM     86  C   UNL A   1      32.969  27.455  26.233  1.00  0.00     0.048 A 
ATOM     87  C   UNL A   1      31.472  29.049  25.181  1.00  0.00     0.101 A 
ATOM     88  C   UNL A   1      33.283  28.379  27.225  1.00  0.00     0.005 A 
ATOM     89  C   UNL A   1      31.820  29.989  26.162  1.00  0.00     0.063 A 
ATOM     90  Cl  UNL A   1      30.370  29.441  23.902  1.00  0.00    -0.079 Cl
ATOM     91  C   UNL A   1      32.708  29.646  27.190  1.00  0.00     0.022 A 
ATOM     92  Cl  UNL A   1      31.198  31.604  26.161  1.00  0.00    -0.083 Cl
ENDBRANCH  84  85
ENDBRANCH  83  84
ENDBRANCH  82  83
ENDBRANCH  75  78
ENDBRANCH  73  74
ENDBRANCH  72  73
ENDBRANCH   1  72
TORSDOF 17
ENDMDL
MODEL 2
REMARK VINA RESULT:     -11.8      5.337     10.360
REMARK SMILES O=C(NCCCCNC(=O)c1ccc(COc2cccc(Cl)c2Cl)o1)c1ccc(-c2c3nc(c(-c4cccc(S(=O)(=O)[O-])c4F)c4ccc([nH]4)c(-c4cccc(S(=O)(=O)[O-])c4F)c4nc(c(-c5cccc(S(=O)(=O)[O-])c5F)c5ccc2[nH]5)C=C4)C=C3)cc1
REMARK SMILES IDX 5 1 4 2 3 3 1 4 2 5 26 7 27 8 88 9 28 10 87 11 29 12 30 13
REMARK SMILES IDX 31 14 81 15 32 16 86 17 80 18 82 19 33 20 85 21 79 22 78 23
REMARK SMILES IDX 34 25 66 26 46 27 65 28 47 29 50 30 64 31 83 32 48 33 49 34
REMARK SMILES IDX 63 36 84 37 51 38 35 39 36 40 44 41 37 42 39 43 45 44 38 45
REMARK SMILES IDX 40 46 41 47 42 48 43 49 67 50 68 51 76 52 69 53 71 54 77 55
REMARK SMILES IDX 70 56 72 57 73 58 74 59 75 60 52 61 53 62 61 63 54 64 56 65
REMARK SMILES IDX 62 66 55 67 57 68 58 69 59 70 60 71 6 72 7 73 8 74 9 75
REMARK SMILES IDX 10 77 11 78 12 79 25 80 13 81 14 82 15 83 16 84 17 85 18 86
REMARK SMILES IDX 23 87 19 88 21 89 24 90 20 91 22 92
REMARK H PARENT 3 6 82 24 50 35 8 76
REMARK Flexibility Score: inf
ROOT
ATOM      1  C   UNL A   1      31.685  29.633  24.897  1.00  0.00     0.023 C 
ENDROOT
BRANCH   1   2
ATOM      2  C   UNL A   1      32.475  30.059  26.126  1.00  0.00     0.116 C 
BRANCH   2   3
ATOM      3  N   UNL A   1      32.249  31.451  26.495  1.00  0.00    -0.352 N 
ATOM      4  O   UNL A   1      32.575  33.367  27.640  1.00  0.00    -0.269 OA
ATOM      5  C   UNL A   1      32.991  32.255  27.329  1.00  0.00     0.251 C 
ATOM      6  H   UNL A   1      31.456  31.872  26.094  1.00  0.00     0.163 HD
BRANCH   5   7
ATOM      7  C   UNL A   1      34.268  31.745  27.869  1.00  0.00     0.039 A 
ATOM      8  C   UNL A   1      34.368  30.419  28.296  1.00  0.00     0.014 A 
ATOM      9  C   UNL A   1      35.350  32.615  28.004  1.00  0.00     0.014 A 
ATOM     10  C   UNL A   1      35.479  30.016  29.022  1.00  0.00     0.010 A 
ATOM     11  C   UNL A   1      36.511  32.173  28.643  1.00  0.00     0.010 A 
ATOM     12  C   UNL A   1      36.568  30.886  29.199  1.00  0.00    -0.014 A 
BRANCH  12  13
ATOM     13  C   UNL A   1      37.770  30.405  29.928  1.00  0.00     0.031 A 
ATOM     14  C   UNL A   1      38.034  30.803  31.354  1.00  0.00     0.074 A 
ATOM     15  C   UNL A   1      38.626  29.589  29.284  1.00  0.00     0.049 A 
ATOM     16  N   UNL A   1      39.019  30.445  32.136  1.00  0.00    -0.248 NA
ATOM     17  C   UNL A   1      37.080  31.729  31.983  1.00  0.00     0.031 C 
ATOM     18  C   UNL A   1      38.492  29.162  27.888  1.00  0.00     0.029 A 
ATOM     19  N   UNL A   1      39.771  28.969  29.711  1.00  0.00    -0.354 N 
ATOM     20  C   UNL A   1      38.835  31.135  33.329  1.00  0.00     0.074 A 
ATOM     21  C   UNL A   1      37.643  31.940  33.165  1.00  0.00     0.031 C 
ATOM     22  C   UNL A   1      39.492  28.324  27.586  1.00  0.00     0.029 A 
ATOM     23  C   UNL A   1      40.371  28.200  28.743  1.00  0.00     0.049 A 
ATOM     24  H   UNL A   1      40.129  29.065  30.624  1.00  0.00     0.167 HD
ATOM     25  C   UNL A   1      39.582  31.093  34.459  1.00  0.00     0.034 A 
ATOM     26  C   UNL A   1      41.510  27.484  28.773  1.00  0.00     0.034 A 
ATOM     27  C   UNL A   1      40.747  30.263  34.625  1.00  0.00     0.049 A 
ATOM     28  C   UNL A   1      42.306  27.440  30.043  1.00  0.00     0.074 A 
ATOM     29  C   UNL A   1      41.530  30.094  35.754  1.00  0.00     0.029 A 
ATOM     30  N   UNL A   1      41.306  29.471  33.632  1.00  0.00    -0.354 N 
ATOM     31  N   UNL A   1      42.045  28.001  31.199  1.00  0.00    -0.248 NA
ATOM     32  C   UNL A   1      43.540  26.643  30.022  1.00  0.00     0.031 C 
ATOM     33  C   UNL A   1      42.578  29.224  35.434  1.00  0.00     0.029 A 
ATOM     34  C   UNL A   1      42.430  28.823  34.116  1.00  0.00     0.049 A 
ATOM     35  H   UNL A   1      40.954  29.383  32.717  1.00  0.00     0.167 HD
ATOM     36  C   UNL A   1      43.063  27.598  32.054  1.00  0.00     0.074 A 
ATOM     37  C   UNL A   1      43.933  26.730  31.286  1.00  0.00     0.031 C 
ATOM     38  C   UNL A   1      43.263  27.926  33.355  1.00  0.00     0.034 A 
BRANCH  25  39
ATOM     39  C   UNL A   1      39.152  31.958  35.618  1.00  0.00     0.023 A 
ATOM     40  C   UNL A   1      38.265  31.444  36.586  1.00  0.00     0.012 A 
ATOM     41  C   UNL A   1      39.662  33.262  35.775  1.00  0.00     0.148 A 
ATOM     42  C   UNL A   1      37.860  32.227  37.668  1.00  0.00     0.002 A 
ATOM     43  C   UNL A   1      39.289  34.020  36.880  1.00  0.00     0.091 A 
ATOM     44  F   UNL A   1      40.487  33.745  34.836  1.00  0.00    -0.205 F 
ATOM     45  C   UNL A   1      38.379  33.510  37.820  1.00  0.00     0.022 A 
BRANCH  43  46
ATOM     46  S   UNL A   1      39.969  35.653  37.202  1.00  0.00     0.127 S 
ATOM     47  O   UNL A   1      39.267  36.028  38.429  1.00  0.00    -0.237 OA
ATOM     48  O   UNL A   1      41.393  35.368  37.379  1.00  0.00    -0.237 OA
ATOM     49  O   UNL A   1      39.654  36.452  36.026  1.00  0.00    -0.744 OA
ENDBRANCH  43  46
ENDBRANCH  25  39
BRANCH  26  50
ATOM     50  C   UNL A   1      41.919  26.706  27.571  1.00  0.00     0.023 A 
ATOM     51  C   UNL A   1      42.635  27.350  26.543  1.00  0.00     0.012 A 
ATOM     52  C   UNL A   1      41.661  25.325  27.472  1.00  0.00     0.148 A 
ATOM     53  C   UNL A   1      43.070  26.635  25.428  1.00  0.00     0.002 A 
ATOM     54  C   UNL A   1      42.149  24.608  26.386  1.00  0.00     0.091 A 
ATOM     55  F   UNL A   1      40.973  24.736  28.460  1.00  0.00    -0.205 F 
ATOM     56  C   UNL A   1      42.839  25.264  25.355  1.00  0.00     0.022 A 
BRANCH  54  57
ATOM     57  S   UNL A   1      42.022  22.820  26.276  1.00  0.00     0.127 S 
ATOM     58  O   UNL A   1      42.747  22.395  27.470  1.00  0.00    -0.237 OA
ATOM     59  O   UNL A   1      40.574  22.620  26.329  1.00  0.00    -0.237 OA
ATOM     60  O   UNL A   1      42.633  22.457  25.005  1.00  0.00    -0.744 OA
ENDBRANCH  54  57
ENDBRANCH  26  50
BRANCH  38  61
ATOM     61  C   UNL A   1      44.449  27.310  34.049  1.00  0.00     0.023 A 
ATOM     62  C   UNL A   1      45.706  27.943  33.990  1.00  0.00     0.012 A 
ATOM     63  C   UNL A   1      44.302  26.134  34.810  1.00  0.00     0.148 A 
ATOM     64  C   UNL A   1      46.807  27.395  34.648  1.00  0.00     0.002 A 
ATOM     65  C   UNL A   1      45.391  25.622  35.505  1.00  0.00     0.091 A 
ATOM     66  F   UNL A   1      43.103  25.533  34.836  1.00  0.00    -0.205 F 
ATOM     67  C   UNL A   1      46.647  26.243  35.414  1.00  0.00     0.022 A 
BRANCH  65  68
ATOM     68  S   UNL A   1      45.252  24.199  36.592  1.00  0.00     0.127 S 
ATOM     69  O   UNL A   1      44.851  23.148  35.659  1.00  0.00    -0.237 OA
ATOM     70  O   UNL A   1      46.614  24.068  37.111  1.00  0.00    -0.237 OA
ATOM     71  O   UNL A   1      44.258  24.559  37.596  1.00  0.00    -0.744 OA
ENDBRANCH  65  68
ENDBRANCH  38  61
ENDBRANCH  12  13
ENDBRANCH   5   7
ENDBRANCH   2   3
ENDBRANCH   1   2
BRANCH   1  72
ATOM     72  C   UNL A   1      32.356  28.559  24.047  1.00  0.00     0.023 C 
BRANCH  72  73
ATOM     73  C   UNL A   1      31.575  28.162  22.800  1.00  0.00     0.116 C 
BRANCH  73  74
ATOM     74  N   UNL A   1      30.141  28.218  23.016  1.00  0.00    -0.349 N 
ATOM     75  C   UNL A   1      29.343  27.272  23.604  1.00  0.00     0.286 C 
ATOM     76  H   UNL A   1      29.687  29.034  22.704  1.00  0.00     0.163 HD
ATOM     77  O   UNL A   1      28.113  27.408  23.507  1.00  0.00    -0.266 OA
BRANCH  75  78
ATOM     78  C   UNL A   1      29.968  26.183  24.312  1.00  0.00     0.191 A 
ATOM     79  C   UNL A   1      30.226  25.970  25.657  1.00  0.00     0.057 A 
ATOM     80  O   UNL A   1      30.387  25.098  23.597  1.00  0.00    -0.452 OA
ATOM     81  C   UNL A   1      30.874  24.718  25.758  1.00  0.00     0.050 A 
ATOM     82  C   UNL A   1      30.910  24.202  24.480  1.00  0.00     0.142 A 
BRANCH  82  83
ATOM     83  C   UNL A   1      31.280  22.873  23.929  1.00  0.00     0.304 C 
BRANCH  83  84
ATOM     84  O   UNL A   1      32.573  22.962  23.297  1.00  0.00    -0.484 OA
BRANCH  84  85
ATOM     85  C   UNL A   1      33.588  22.463  24.077  1.00  0.00     0.140 A 
ATOM     86  C   UNL A   1      33.695  21.076  24.239  1.00  0.00     0.048 A 
ATOM     87  C   UNL A   1      34.569  23.310  24.607  1.00  0.00     0.101 A 
ATOM     88  C   UNL A   1      34.721  20.530  25.003  1.00  0.00     0.005 A 
ATOM     89  C   UNL A   1      35.622  22.751  25.345  1.00  0.00     0.063 A 
ATOM     90  Cl  UNL A   1      34.460  25.018  24.334  1.00  0.00    -0.079 Cl
ATOM     91  C   UNL A   1      35.685  21.368  25.557  1.00  0.00     0.022 A 
ATOM     92  Cl  UNL A   1      36.894  23.711  26.020  1.00  0.00    -0.083 Cl
ENDBRANCH  84  85
ENDBRANCH  83  84
ENDBRANCH  82  83
ENDBRANCH  75  78
ENDBRANCH  73  74
ENDBRANCH  72  73
ENDBRANCH   1  72
TORSDOF 17
ENDMDL
MODEL 3
REMARK VINA RESULT:     -11.8      5.527     10.623
REMARK SMILES O=C(NCCCCNC(=O)c1ccc(COc2cccc(Cl)c2Cl)o1)c1ccc(-c2c3nc(c(-c4cccc(S(=O)(=O)[O-])c4F)c4ccc([nH]4)c(-c4cccc(S(=O)(=O)[O-])c4F)c4nc(c(-c5cccc(S(=O)(=O)[O-])c5F)c5ccc2[nH]5)C=C4)C=C3)cc1
REMARK SMILES IDX 5 1 4 2 3 3 1 4 2 5 26 7 27 8 88 9 28 10 87 11 29 12 30 13
REMARK SMILES IDX 31 14 81 15 32 16 86 17 80 18 82 19 33 20 85 21 79 22 78 23
REMARK SMILES IDX 34 25 66 26 46 27 65 28 47 29 50 30 64 31 83 32 48 33 49 34
REMARK SMILES IDX 63 36 84 37 51 38 35 39 36 40 44 41 37 42 39 43 45 44 38 45
REMARK SMILES IDX 40 46 41 47 42 48 43 49 67 50 68 51 76 52 69 53 71 54 77 55
REMARK SMILES IDX 70 56 72 57 73 58 74 59 75 60 52 61 53 62 61 63 54 64 56 65
REMARK SMILES IDX 62 66 55 67 57 68 58 69 59 70 60 71 6 72 7 73 8 74 9 75
REMARK SMILES IDX 10 77 11 78 12 79 25 80 13 81 14 82 15 83 16 84 17 85 18 86
REMARK SMILES IDX 23 87 19 88 21 89 24 90 20 91 22 92
REMARK H PARENT 3 6 82 24 50 35 8 76
REMARK Flexibility Score: inf
ROOT
ATOM      1  C   UNL A   1      31.358  29.055  25.568  1.00  0.00     0.023 C 
ENDROOT
BRANCH   1   2
ATOM      2  C   UNL A   1      32.533  29.708  26.281  1.00  0.00     0.116 C 
BRANCH   2   3
ATOM      3  N   UNL A   1      32.346  31.137  26.501  1.00  0.00    -0.352 N 
ATOM      4  O   UNL A   1      32.744  33.159  27.417  1.00  0.00    -0.269 OA
ATOM      5  C   UNL A   1      33.129  32.011  27.219  1.00  0.00     0.251 C 
ATOM      6  H   UNL A   1      31.549  31.529  26.078  1.00  0.00     0.163 HD
BRANCH   5   7
ATOM      7  C   UNL A   1      34.412  31.534  27.774  1.00  0.00     0.039 A 
ATOM      8  C   UNL A   1      34.573  30.189  28.110  1.00  0.00     0.014 A 
ATOM      9  C   UNL A   1      35.436  32.451  28.015  1.00  0.00     0.014 A 
ATOM     10  C   UNL A   1      35.678  29.796  28.851  1.00  0.00     0.010 A 
ATOM     11  C   UNL A   1      36.596  32.030  28.670  1.00  0.00     0.010 A 
ATOM     12  C   UNL A   1      36.707  30.711  29.135  1.00  0.00    -0.014 A 
BRANCH  12  13
ATOM     13  C   UNL A   1      37.906  30.245  29.878  1.00  0.00     0.031 A 
ATOM     14  C   UNL A   1      38.163  30.669  31.298  1.00  0.00     0.074 A 
ATOM     15  C   UNL A   1      38.768  29.420  29.253  1.00  0.00     0.049 A 
ATOM     16  N   UNL A   1      39.146  30.327  32.091  1.00  0.00    -0.248 NA
ATOM     17  C   UNL A   1      37.203  31.604  31.907  1.00  0.00     0.031 C 
ATOM     18  C   UNL A   1      38.640  28.969  27.863  1.00  0.00     0.029 A 
ATOM     19  N   UNL A   1      39.912  28.811  29.695  1.00  0.00    -0.354 N 
ATOM     20  C   UNL A   1      38.954  31.037  33.270  1.00  0.00     0.074 A 
ATOM     21  C   UNL A   1      37.761  31.837  33.087  1.00  0.00     0.031 C 
ATOM     22  C   UNL A   1      39.644  28.128  27.580  1.00  0.00     0.029 A 
ATOM     23  C   UNL A   1      40.519  28.026  28.744  1.00  0.00     0.049 A 
ATOM     24  H   UNL A   1      40.266  28.924  30.608  1.00  0.00     0.167 HD
ATOM     25  C   UNL A   1      39.696  31.017  34.404  1.00  0.00     0.034 A 
ATOM     26  C   UNL A   1      41.659  27.314  28.791  1.00  0.00     0.034 A 
ATOM     27  C   UNL A   1      40.862  30.192  34.591  1.00  0.00     0.049 A 
ATOM     28  C   UNL A   1      42.449  27.294  30.065  1.00  0.00     0.074 A 
ATOM     29  C   UNL A   1      41.640  30.046  35.725  1.00  0.00     0.029 A 
ATOM     30  N   UNL A   1      41.428  29.385  33.614  1.00  0.00    -0.354 N 
ATOM     31  N   UNL A   1      42.182  27.874  31.210  1.00  0.00    -0.248 NA
ATOM     32  C   UNL A   1      43.685  26.500  30.064  1.00  0.00     0.031 C 
ATOM     33  C   UNL A   1      42.692  29.173  35.425  1.00  0.00     0.029 A 
ATOM     34  C   UNL A   1      42.551  28.748  34.114  1.00  0.00     0.049 A 
ATOM     35  H   UNL A   1      41.081  29.280  32.699  1.00  0.00     0.167 HD
ATOM     36  C   UNL A   1      43.196  27.489  32.077  1.00  0.00     0.074 A 
ATOM     37  C   UNL A   1      44.072  26.610  31.328  1.00  0.00     0.031 C 
ATOM     38  C   UNL A   1      43.389  27.840  33.372  1.00  0.00     0.034 A 
BRANCH  25  39
ATOM     39  C   UNL A   1      39.258  31.901  35.546  1.00  0.00     0.023 A 
ATOM     40  C   UNL A   1      39.573  33.275  35.532  1.00  0.00     0.012 A 
ATOM     41  C   UNL A   1      38.495  31.381  36.611  1.00  0.00     0.148 A 
ATOM     42  C   UNL A   1      39.172  34.109  36.576  1.00  0.00     0.002 A 
ATOM     43  C   UNL A   1      38.060  32.227  37.625  1.00  0.00     0.091 A 
ATOM     44  F   UNL A   1      38.222  30.069  36.622  1.00  0.00    -0.205 F 
ATOM     45  C   UNL A   1      38.409  33.587  37.617  1.00  0.00     0.022 A 
BRANCH  43  46
ATOM     46  S   UNL A   1      37.004  31.661  38.965  1.00  0.00     0.127 S 
ATOM     47  O   UNL A   1      35.953  32.678  38.962  1.00  0.00    -0.237 OA
ATOM     48  O   UNL A   1      36.578  30.344  38.491  1.00  0.00    -0.237 OA
ATOM     49  O   UNL A   1      37.849  31.632  40.151  1.00  0.00    -0.744 OA
ENDBRANCH  43  46
ENDBRANCH  25  39
BRANCH  26  50
ATOM     50  C   UNL A   1      42.075  26.516  27.605  1.00  0.00     0.023 A 
ATOM     51  C   UNL A   1      42.790  27.144  26.567  1.00  0.00     0.012 A 
ATOM     52  C   UNL A   1      41.826  25.132  27.531  1.00  0.00     0.148 A 
ATOM     53  C   UNL A   1      43.232  26.412  25.466  1.00  0.00     0.002 A 
ATOM     54  C   UNL A   1      42.320  24.398  26.460  1.00  0.00     0.091 A 
ATOM     55  F   UNL A   1      41.137  24.557  28.528  1.00  0.00    -0.205 F 
ATOM     56  C   UNL A   1      43.009  25.038  25.418  1.00  0.00     0.022 A 
BRANCH  54  57
ATOM     57  S   UNL A   1      42.203  22.607  26.383  1.00  0.00     0.127 S 
ATOM     58  O   UNL A   1      43.059  22.204  27.495  1.00  0.00    -0.237 OA
ATOM     59  O   UNL A   1      40.771  22.392  26.596  1.00  0.00    -0.237 OA
ATOM     60  O   UNL A   1      42.676  22.237  25.056  1.00  0.00    -0.744 OA
ENDBRANCH  54  57
ENDBRANCH  26  50
BRANCH  38  61
ATOM     61  C   UNL A   1      44.574  27.239  34.083  1.00  0.00     0.023 A 
ATOM     62  C   UNL A   1      45.796  27.939  34.130  1.00  0.00     0.012 A 
ATOM     63  C   UNL A   1      44.456  26.007  34.756  1.00  0.00     0.148 A 
ATOM     64  C   UNL A   1      46.893  27.403  34.804  1.00  0.00     0.002 A 
ATOM     65  C   UNL A   1      45.538  25.505  35.468  1.00  0.00     0.091 A 
ATOM     66  F   UNL A   1      43.292  25.345  34.680  1.00  0.00    -0.205 F 
ATOM     67  C   UNL A   1      46.761  26.194  35.482  1.00  0.00     0.022 A 
BRANCH  65  68
ATOM     68  S   UNL A   1      45.426  24.005  36.450  1.00  0.00     0.127 S 
ATOM     69  O   UNL A   1      44.566  23.167  35.618  1.00  0.00    -0.237 OA
ATOM     70  O   UNL A   1      46.822  23.571  36.516  1.00  0.00    -0.237 OA
ATOM     71  O   UNL A   1      44.861  24.407  37.731  1.00  0.00    -0.744 OA
ENDBRANCH  65  68
ENDBRANCH  38  61
ENDBRANCH  12  13
ENDBRANCH   5   7
ENDBRANCH   2   3
ENDBRANCH   1   2
BRANCH   1  72
ATOM     72  C   UNL A   1      31.275  29.348  24.073  1.00  0.00     0.023 C 
BRANCH  72  73
ATOM     73  C   UNL A   1      32.434  28.791  23.255  1.00  0.00     0.116 C 
BRANCH  73  74
ATOM     74  N   UNL A   1      31.973  28.002  22.128  1.00  0.00    -0.349 N 
ATOM     75  C   UNL A   1      31.587  26.686  22.125  1.00  0.00     0.286 C 
ATOM     76  H   UNL A   1      31.930  28.467  21.261  1.00  0.00     0.163 HD
ATOM     77  O   UNL A   1      31.428  26.130  21.027  1.00  0.00    -0.266 OA
BRANCH  75  78
ATOM     78  C   UNL A   1      31.375  26.025  23.388  1.00  0.00     0.191 A 
ATOM     79  C   UNL A   1      30.226  25.724  24.102  1.00  0.00     0.057 A 
ATOM     80  O   UNL A   1      32.461  25.545  24.061  1.00  0.00    -0.452 OA
ATOM     81  C   UNL A   1      30.637  25.072  25.287  1.00  0.00     0.050 A 
ATOM     82  C   UNL A   1      32.007  24.944  25.197  1.00  0.00     0.142 A 
BRANCH  82  83
ATOM     83  C   UNL A   1      33.015  24.207  26.000  1.00  0.00     0.304 C 
BRANCH  83  84
ATOM     84  O   UNL A   1      33.361  22.981  25.325  1.00  0.00    -0.484 OA
BRANCH  84  85
ATOM     85  C   UNL A   1      34.716  22.756  25.279  1.00  0.00     0.140 A 
ATOM     86  C   UNL A   1      35.586  23.831  25.499  1.00  0.00     0.048 A 
ATOM     87  C   UNL A   1      35.223  21.460  25.130  1.00  0.00     0.101 A 
ATOM     88  C   UNL A   1      36.964  23.641  25.481  1.00  0.00     0.005 A 
ATOM     89  C   UNL A   1      36.613  21.268  25.150  1.00  0.00     0.063 A 
ATOM     90  Cl  UNL A   1      34.129  20.132  24.930  1.00  0.00    -0.079 Cl
ATOM     91  C   UNL A   1      37.478  22.359  25.306  1.00  0.00     0.022 A 
ATOM     92  Cl  UNL A   1      37.335  19.703  24.998  1.00  0.00    -0.083 Cl
ENDBRANCH  84  85
ENDBRANCH  83  84
ENDBRANCH  82  83
ENDBRANCH  75  78
ENDBRANCH  73  74
ENDBRANCH  72  73
ENDBRANCH   1  72
TORSDOF 17
ENDMDL
