MODEL 1
REMARK VINA RESULT:     -11.3      0.000      0.000
REMARK SMILES O=C(CS(=O)(=O)[C@@H]1CCOC2(CCCCC2)C1)NCCCCNC(=O)c1ccc(-c2c3nc(c(-c4cccc(S(=O)(=O)[O-])c4F)c4ccc([nH]4)c(-c4cccc(S(=O)(=O)[O-])c4F)c4nc(c(-c5cccc(S(=O)(=O)[O-])c5F)c5ccc2[nH]5)C=C4)C=C3)cc1
REMARK SMILES IDX 21 1 20 2 19 3 18 4 1 5 2 6 3 8 4 9 5 10 6 11 7 12 8 13
REMARK SMILES IDX 17 14 9 15 11 16 10 17 12 18 16 19 13 20 15 21 14 22 22 23
REMARK SMILES IDX 23 24 24 25 25 27 26 28 27 29 88 30 28 31 87 32 29 33 30 34
REMARK SMILES IDX 31 35 81 36 32 37 86 38 80 39 82 40 33 41 85 42 79 43 78 44
REMARK SMILES IDX 34 46 66 47 46 48 65 49 47 50 50 51 64 52 83 53 48 54 49 55
REMARK SMILES IDX 63 57 84 58 51 59 35 60 36 61 44 62 37 63 39 64 45 65 38 66
REMARK SMILES IDX 40 67 41 68 42 69 43 70 67 71 68 72 76 73 69 74 71 75 77 76
REMARK SMILES IDX 70 77 72 78 73 79 74 80 75 81 52 82 53 83 61 84 54 85 56 86
REMARK SMILES IDX 62 87 55 88 57 89 58 90 59 91 60 92
REMARK H PARENT 18 7 23 26 82 45 50 56
REMARK Flexibility Score: inf
ROOT
ATOM      1  C   UNL A   1      33.173  28.842  25.737  1.00  0.00     0.023 C 
ENDROOT
BRANCH   1   2
ATOM      2  C   UNL A   1      32.108  29.845  25.283  1.00  0.00     0.023 C 
BRANCH   2   3
ATOM      3  C   UNL A   1      31.035  29.262  24.367  1.00  0.00     0.116 C 
BRANCH   3   4
ATOM      4  N   UNL A   1      31.243  27.853  24.124  1.00  0.00    -0.355 N 
ATOM      5  O   UNL A   1      30.285  27.841  22.057  1.00  0.00    -0.274 OA
ATOM      6  C   UNL A   1      30.824  27.232  22.981  1.00  0.00     0.235 C 
ATOM      7  H   UNL A   1      31.705  27.319  24.811  1.00  0.00     0.163 HD
BRANCH   6   8
ATOM      8  C   UNL A   1      30.995  25.750  22.937  1.00  0.00     0.236 C 
BRANCH   8   9
ATOM      9  S   UNL A   1      32.497  25.161  23.687  1.00  0.00     0.162 S 
ATOM     10  O   UNL A   1      33.536  26.088  23.258  1.00  0.00    -0.228 OA
ATOM     11  O   UNL A   1      32.219  25.048  25.110  1.00  0.00    -0.228 OA
BRANCH   9  12
ATOM     12  C   UNL A   1      33.010  23.521  23.108  1.00  0.00     0.114 C 
ATOM     13  C   UNL A   1      32.466  22.335  23.880  1.00  0.00     0.048 C 
ATOM     14  C   UNL A   1      34.518  23.344  22.835  1.00  0.00     0.055 C 
ATOM     15  C   UNL A   1      33.325  22.003  25.087  1.00  0.00     0.162 C 
ATOM     16  C   UNL A   1      35.340  22.909  24.064  1.00  0.00     0.069 C 
ATOM     17  O   UNL A   1      34.682  21.817  24.722  1.00  0.00    -0.375 OA
ATOM     18  C   UNL A   1      35.622  24.104  24.990  1.00  0.00     0.035 C 
ATOM     19  C   UNL A   1      36.710  22.330  23.638  1.00  0.00     0.035 C 
ATOM     20  C   UNL A   1      36.452  23.750  26.213  1.00  0.00     0.003 C 
ATOM     21  C   UNL A   1      37.574  21.954  24.855  1.00  0.00     0.003 C 
ATOM     22  C   UNL A   1      37.778  23.133  25.801  1.00  0.00     0.000 C 
ENDBRANCH   9  12
ENDBRANCH   8   9
ENDBRANCH   6   8
ENDBRANCH   3   4
ENDBRANCH   2   3
ENDBRANCH   1   2
BRANCH   1  23
ATOM     23  C   UNL A   1      33.656  29.006  27.173  1.00  0.00     0.116 C 
BRANCH  23  24
ATOM     24  N   UNL A   1      33.651  30.393  27.609  1.00  0.00    -0.352 N 
ATOM     25  C   UNL A   1      34.592  31.062  28.351  1.00  0.00     0.251 C 
ATOM     26  H   UNL A   1      32.867  30.922  27.336  1.00  0.00     0.163 HD
ATOM     27  O   UNL A   1      34.358  32.200  28.756  1.00  0.00    -0.269 OA
BRANCH  25  28
ATOM     28  C   UNL A   1      35.872  30.402  28.686  1.00  0.00     0.039 A 
ATOM     29  C   UNL A   1      36.975  30.609  27.854  1.00  0.00     0.014 A 
ATOM     30  C   UNL A   1      35.993  29.600  29.825  1.00  0.00     0.014 A 
ATOM     31  C   UNL A   1      38.213  30.061  28.196  1.00  0.00     0.010 A 
ATOM     32  C   UNL A   1      37.243  29.118  30.203  1.00  0.00     0.010 A 
ATOM     33  C   UNL A   1      38.366  29.337  29.391  1.00  0.00    -0.014 A 
BRANCH  33  34
ATOM     34  C   UNL A   1      39.694  28.821  29.812  1.00  0.00     0.031 A 
ATOM     35  C   UNL A   1      40.472  29.515  30.899  1.00  0.00     0.074 A 
ATOM     36  C   UNL A   1      40.238  27.772  29.162  1.00  0.00     0.049 A 
ATOM     37  N   UNL A   1      41.661  29.236  31.367  1.00  0.00    -0.248 NA
ATOM     38  C   UNL A   1      39.844  30.691  31.523  1.00  0.00     0.031 C 
ATOM     39  C   UNL A   1      39.621  27.057  28.042  1.00  0.00     0.029 A 
ATOM     40  N   UNL A   1      41.444  27.138  29.332  1.00  0.00    -0.354 N 
ATOM     41  C   UNL A   1      41.938  30.218  32.310  1.00  0.00     0.074 A 
ATOM     42  C   UNL A   1      40.808  31.119  32.326  1.00  0.00     0.031 C 
ATOM     43  C   UNL A   1      40.447  26.083  27.631  1.00  0.00     0.029 A 
ATOM     44  C   UNL A   1      41.666  26.122  28.432  1.00  0.00     0.049 A 
ATOM     45  H   UNL A   1      42.090  27.388  30.032  1.00  0.00     0.167 HD
ATOM     46  C   UNL A   1      43.024  30.346  33.111  1.00  0.00     0.034 A 
ATOM     47  C   UNL A   1      42.735  25.318  28.263  1.00  0.00     0.034 A 
ATOM     48  C   UNL A   1      44.130  29.428  33.120  1.00  0.00     0.049 A 
ATOM     49  C   UNL A   1      43.915  25.463  29.185  1.00  0.00     0.074 A 
ATOM     50  C   UNL A   1      45.232  29.417  33.959  1.00  0.00     0.029 A 
ATOM     51  N   UNL A   1      44.286  28.364  32.246  1.00  0.00    -0.354 N 
ATOM     52  N   UNL A   1      44.087  26.298  30.181  1.00  0.00    -0.248 NA
ATOM     53  C   UNL A   1      45.035  24.533  28.983  1.00  0.00     0.031 C 
ATOM     54  C   UNL A   1      46.070  28.369  33.568  1.00  0.00     0.029 A 
ATOM     55  C   UNL A   1      45.472  27.701  32.511  1.00  0.00     0.049 A 
ATOM     56  H   UNL A   1      43.647  28.116  31.538  1.00  0.00     0.167 HD
ATOM     57  C   UNL A   1      45.312  25.968  30.748  1.00  0.00     0.074 A 
ATOM     58  C   UNL A   1      45.831  24.844  29.997  1.00  0.00     0.031 C 
ATOM     59  C   UNL A   1      45.955  26.550  31.791  1.00  0.00     0.034 A 
BRANCH  46  60
ATOM     60  C   UNL A   1      43.053  31.501  34.078  1.00  0.00     0.023 A 
ATOM     61  C   UNL A   1      43.649  32.719  33.693  1.00  0.00     0.012 A 
ATOM     62  C   UNL A   1      42.435  31.404  35.341  1.00  0.00     0.148 A 
ATOM     63  C   UNL A   1      43.663  33.810  34.561  1.00  0.00     0.002 A 
ATOM     64  C   UNL A   1      42.410  32.512  36.182  1.00  0.00     0.091 A 
ATOM     65  F   UNL A   1      41.890  30.233  35.698  1.00  0.00    -0.205 F 
ATOM     66  C   UNL A   1      43.035  33.710  35.799  1.00  0.00     0.022 A 
BRANCH  64  67
ATOM     67  S   UNL A   1      41.555  32.511  37.762  1.00  0.00     0.127 S 
ATOM     68  O   UNL A   1      40.217  32.070  37.371  1.00  0.00    -0.237 OA
ATOM     69  O   UNL A   1      42.323  31.527  38.525  1.00  0.00    -0.237 OA
ATOM     70  O   UNL A   1      41.640  33.875  38.266  1.00  0.00    -0.744 OA
ENDBRANCH  64  67
ENDBRANCH  46  60
BRANCH  47  71
ATOM     71  C   UNL A   1      42.715  24.260  27.212  1.00  0.00     0.023 A 
ATOM     72  C   UNL A   1      43.331  24.507  25.969  1.00  0.00     0.012 A 
ATOM     73  C   UNL A   1      42.105  23.011  27.440  1.00  0.00     0.148 A 
ATOM     74  C   UNL A   1      43.308  23.543  24.960  1.00  0.00     0.002 A 
ATOM     75  C   UNL A   1      42.136  22.035  26.451  1.00  0.00     0.091 A 
ATOM     76  F   UNL A   1      41.516  22.799  28.625  1.00  0.00    -0.205 F 
ATOM     77  C   UNL A   1      42.720  22.305  25.203  1.00  0.00     0.022 A 
BRANCH  75  78
ATOM     78  S   UNL A   1      41.520  20.370  26.719  1.00  0.00     0.127 S 
ATOM     79  O   UNL A   1      40.103  20.612  26.977  1.00  0.00    -0.237 OA
ATOM     80  O   UNL A   1      41.814  19.729  25.437  1.00  0.00    -0.237 OA
ATOM     81  O   UNL A   1      42.286  19.843  27.842  1.00  0.00    -0.744 OA
ENDBRANCH  75  78
ENDBRANCH  47  71
BRANCH  59  82
ATOM     82  C   UNL A   1      47.274  25.961  32.219  1.00  0.00     0.023 A 
ATOM     83  C   UNL A   1      48.472  26.406  31.624  1.00  0.00     0.012 A 
ATOM     84  C   UNL A   1      47.330  25.019  33.265  1.00  0.00     0.148 A 
ATOM     85  C   UNL A   1      49.701  25.895  32.039  1.00  0.00     0.002 A 
ATOM     86  C   UNL A   1      48.562  24.554  33.710  1.00  0.00     0.091 A 
ATOM     87  F   UNL A   1      46.179  24.595  33.806  1.00  0.00    -0.205 F 
ATOM     88  C   UNL A   1      49.747  24.980  33.089  1.00  0.00     0.022 A 
BRANCH  86  89
ATOM     89  S   UNL A   1      48.725  23.452  35.119  1.00  0.00     0.127 S 
ATOM     90  O   UNL A   1      50.177  23.327  35.234  1.00  0.00    -0.237 OA
ATOM     91  O   UNL A   1      48.093  24.225  36.190  1.00  0.00    -0.237 OA
ATOM     92  O   UNL A   1      48.019  22.230  34.759  1.00  0.00    -0.744 OA
ENDBRANCH  86  89
ENDBRANCH  59  82
ENDBRANCH  33  34
ENDBRANCH  25  28
ENDBRANCH  23  24
ENDBRANCH   1  23
TORSDOF 16
ENDMDL
MODEL 2
REMARK VINA RESULT:     -11.2      3.373      8.627
REMARK SMILES O=C(CS(=O)(=O)[C@@H]1CCOC2(CCCCC2)C1)NCCCCNC(=O)c1ccc(-c2c3nc(c(-c4cccc(S(=O)(=O)[O-])c4F)c4ccc([nH]4)c(-c4cccc(S(=O)(=O)[O-])c4F)c4nc(c(-c5cccc(S(=O)(=O)[O-])c5F)c5ccc2[nH]5)C=C4)C=C3)cc1
REMARK SMILES IDX 21 1 20 2 19 3 18 4 1 5 2 6 3 8 4 9 5 10 6 11 7 12 8 13
REMARK SMILES IDX 17 14 9 15 11 16 10 17 12 18 16 19 13 20 15 21 14 22 22 23
REMARK SMILES IDX 23 24 24 25 25 27 26 28 27 29 88 30 28 31 87 32 29 33 30 34
REMARK SMILES IDX 31 35 81 36 32 37 86 38 80 39 82 40 33 41 85 42 79 43 78 44
REMARK SMILES IDX 34 46 66 47 46 48 65 49 47 50 50 51 64 52 83 53 48 54 49 55
REMARK SMILES IDX 63 57 84 58 51 59 35 60 36 61 44 62 37 63 39 64 45 65 38 66
REMARK SMILES IDX 40 67 41 68 42 69 43 70 67 71 68 72 76 73 69 74 71 75 77 76
REMARK SMILES IDX 70 77 72 78 73 79 74 80 75 81 52 82 53 83 61 84 54 85 56 86
REMARK SMILES IDX 62 87 55 88 57 89 58 90 59 91 60 92
REMARK H PARENT 18 7 23 26 82 45 50 56
REMARK Flexibility Score: inf
ROOT
ATOM      1  C   UNL A   1      31.678  31.702  26.610  1.00  0.00     0.023 C 
ENDROOT
BRANCH   1   2
ATOM      2  C   UNL A   1      31.998  30.306  26.067  1.00  0.00     0.023 C 
BRANCH   2   3
ATOM      3  C   UNL A   1      31.168  29.889  24.855  1.00  0.00     0.116 C 
BRANCH   3   4
ATOM      4  N   UNL A   1      31.250  28.468  24.611  1.00  0.00    -0.355 N 
ATOM      5  O   UNL A   1      29.412  28.369  23.268  1.00  0.00    -0.274 OA
ATOM      6  C   UNL A   1      30.337  27.799  23.843  1.00  0.00     0.235 C 
ATOM      7  H   UNL A   1      31.993  27.962  25.013  1.00  0.00     0.163 HD
BRANCH   6   8
ATOM      8  C   UNL A   1      30.484  26.314  23.793  1.00  0.00     0.236 C 
BRANCH   8   9
ATOM      9  S   UNL A   1      32.143  25.730  24.069  1.00  0.00     0.162 S 
ATOM     10  O   UNL A   1      33.007  26.665  23.363  1.00  0.00    -0.228 OA
ATOM     11  O   UNL A   1      32.292  25.607  25.510  1.00  0.00    -0.228 OA
BRANCH   9  12
ATOM     12  C   UNL A   1      32.471  24.097  23.354  1.00  0.00     0.114 C 
ATOM     13  C   UNL A   1      31.950  22.904  24.132  1.00  0.00     0.048 C 
ATOM     14  C   UNL A   1      33.918  23.845  22.884  1.00  0.00     0.055 C 
ATOM     15  C   UNL A   1      32.927  22.456  25.204  1.00  0.00     0.162 C 
ATOM     16  C   UNL A   1      34.855  23.296  23.977  1.00  0.00     0.069 C 
ATOM     17  O   UNL A   1      34.213  22.210  24.662  1.00  0.00    -0.375 OA
ATOM     18  C   UNL A   1      35.328  24.419  24.915  1.00  0.00     0.035 C 
ATOM     19  C   UNL A   1      36.122  22.660  23.355  1.00  0.00     0.035 C 
ATOM     20  C   UNL A   1      36.277  23.950  26.006  1.00  0.00     0.003 C 
ATOM     21  C   UNL A   1      37.102  22.167  24.434  1.00  0.00     0.003 C 
ATOM     22  C   UNL A   1      37.499  23.279  25.401  1.00  0.00     0.000 C 
ENDBRANCH   9  12
ENDBRANCH   8   9
ENDBRANCH   6   8
ENDBRANCH   3   4
ENDBRANCH   2   3
ENDBRANCH   1   2
BRANCH   1  23
ATOM     23  C   UNL A   1      32.838  32.423  27.286  1.00  0.00     0.116 C 
BRANCH  23  24
ATOM     24  N   UNL A   1      32.538  33.815  27.577  1.00  0.00    -0.352 N 
ATOM     25  C   UNL A   1      33.099  34.634  28.525  1.00  0.00     0.251 C 
ATOM     26  H   UNL A   1      31.840  34.226  27.018  1.00  0.00     0.163 HD
ATOM     27  O   UNL A   1      32.623  35.749  28.732  1.00  0.00    -0.269 OA
BRANCH  25  28
ATOM     28  C   UNL A   1      34.256  34.160  29.316  1.00  0.00     0.039 A 
ATOM     29  C   UNL A   1      34.020  33.404  30.466  1.00  0.00     0.014 A 
ATOM     30  C   UNL A   1      35.566  34.441  28.916  1.00  0.00     0.014 A 
ATOM     31  C   UNL A   1      35.097  32.880  31.183  1.00  0.00     0.010 A 
ATOM     32  C   UNL A   1      36.635  33.855  29.588  1.00  0.00     0.010 A 
ATOM     33  C   UNL A   1      36.415  33.072  30.732  1.00  0.00    -0.014 A 
BRANCH  33  34
ATOM     34  C   UNL A   1      37.567  32.449  31.434  1.00  0.00     0.031 A 
ATOM     35  C   UNL A   1      38.317  31.307  30.802  1.00  0.00     0.074 A 
ATOM     36  C   UNL A   1      37.891  32.859  32.677  1.00  0.00     0.049 A 
ATOM     37  N   UNL A   1      39.316  30.612  31.280  1.00  0.00    -0.248 NA
ATOM     38  C   UNL A   1      37.869  30.870  29.468  1.00  0.00     0.031 C 
ATOM     39  C   UNL A   1      37.197  33.905  33.431  1.00  0.00     0.029 A 
ATOM     40  N   UNL A   1      38.871  32.428  33.536  1.00  0.00    -0.354 N 
ATOM     41  C   UNL A   1      39.593  29.637  30.330  1.00  0.00     0.074 A 
ATOM     42  C   UNL A   1      38.636  29.809  29.259  1.00  0.00     0.031 C 
ATOM     43  C   UNL A   1      37.775  34.039  34.635  1.00  0.00     0.029 A 
ATOM     44  C   UNL A   1      38.858  33.069  34.754  1.00  0.00     0.049 A 
ATOM     45  H   UNL A   1      39.522  31.728  33.304  1.00  0.00     0.167 HD
ATOM     46  C   UNL A   1      40.571  28.700  30.332  1.00  0.00     0.034 A 
ATOM     47  C   UNL A   1      39.624  32.888  35.849  1.00  0.00     0.034 A 
ATOM     48  C   UNL A   1      41.544  28.554  31.380  1.00  0.00     0.049 A 
ATOM     49  C   UNL A   1      40.722  31.859  35.813  1.00  0.00     0.074 A 
ATOM     50  C   UNL A   1      42.631  27.698  31.432  1.00  0.00     0.029 A 
ATOM     51  N   UNL A   1      41.547  29.272  32.566  1.00  0.00    -0.354 N 
ATOM     52  N   UNL A   1      41.071  31.057  34.837  1.00  0.00    -0.248 NA
ATOM     53  C   UNL A   1      41.554  31.734  37.018  1.00  0.00     0.031 C 
ATOM     54  C   UNL A   1      43.268  27.874  32.663  1.00  0.00     0.029 A 
ATOM     55  C   UNL A   1      42.603  28.868  33.364  1.00  0.00     0.049 A 
ATOM     56  H   UNL A   1      40.892  29.968  32.806  1.00  0.00     0.167 HD
ATOM     57  C   UNL A   1      42.185  30.363  35.293  1.00  0.00     0.074 A 
ATOM     58  C   UNL A   1      42.465  30.853  36.627  1.00  0.00     0.031 C 
ATOM     59  C   UNL A   1      42.905  29.398  34.668  1.00  0.00     0.034 A 
BRANCH  46  60
ATOM     60  C   UNL A   1      40.665  27.778  29.143  1.00  0.00     0.023 A 
ATOM     61  C   UNL A   1      39.816  26.656  29.061  1.00  0.00     0.012 A 
ATOM     62  C   UNL A   1      41.546  28.057  28.080  1.00  0.00     0.148 A 
ATOM     63  C   UNL A   1      39.866  25.806  27.957  1.00  0.00     0.002 A 
ATOM     64  C   UNL A   1      41.557  27.230  26.961  1.00  0.00     0.091 A 
ATOM     65  F   UNL A   1      42.361  29.116  28.184  1.00  0.00    -0.205 F 
ATOM     66  C   UNL A   1      40.728  26.098  26.904  1.00  0.00     0.022 A 
BRANCH  64  67
ATOM     67  S   UNL A   1      42.569  27.568  25.515  1.00  0.00     0.127 S 
ATOM     68  O   UNL A   1      42.296  26.396  24.685  1.00  0.00    -0.237 OA
ATOM     69  O   UNL A   1      41.987  28.815  25.019  1.00  0.00    -0.237 OA
ATOM     70  O   UNL A   1      43.937  27.685  26.000  1.00  0.00    -0.744 OA
ENDBRANCH  64  67
ENDBRANCH  46  60
BRANCH  47  71
ATOM     71  C   UNL A   1      39.421  33.744  37.053  1.00  0.00     0.023 A 
ATOM     72  C   UNL A   1      39.887  35.072  37.045  1.00  0.00     0.012 A 
ATOM     73  C   UNL A   1      38.757  33.256  38.196  1.00  0.00     0.148 A 
ATOM     74  C   UNL A   1      39.730  35.889  38.166  1.00  0.00     0.002 A 
ATOM     75  C   UNL A   1      38.554  34.092  39.287  1.00  0.00     0.091 A 
ATOM     76  F   UNL A   1      38.329  31.986  38.188  1.00  0.00    -0.205 F 
ATOM     77  C   UNL A   1      39.056  35.403  39.282  1.00  0.00     0.022 A 
BRANCH  75  78
ATOM     78  S   UNL A   1      37.584  33.596  40.715  1.00  0.00     0.127 S 
ATOM     79  O   UNL A   1      38.440  32.578  41.319  1.00  0.00    -0.237 OA
ATOM     80  O   UNL A   1      37.489  34.848  41.465  1.00  0.00    -0.237 OA
ATOM     81  O   UNL A   1      36.314  33.119  40.182  1.00  0.00    -0.744 OA
ENDBRANCH  75  78
ENDBRANCH  47  71
BRANCH  59  82
ATOM     82  C   UNL A   1      44.097  28.831  35.395  1.00  0.00     0.023 A 
ATOM     83  C   UNL A   1      45.373  29.398  35.206  1.00  0.00     0.012 A 
ATOM     84  C   UNL A   1      43.937  27.783  36.323  1.00  0.00     0.148 A 
ATOM     85  C   UNL A   1      46.477  28.906  35.902  1.00  0.00     0.002 A 
ATOM     86  C   UNL A   1      45.031  27.334  37.053  1.00  0.00     0.091 A 
ATOM     87  F   UNL A   1      42.718  27.245  36.476  1.00  0.00    -0.205 F 
ATOM     88  C   UNL A   1      46.303  27.884  36.834  1.00  0.00     0.022 A 
BRANCH  86  89
ATOM     89  S   UNL A   1      44.885  26.093  38.343  1.00  0.00     0.127 S 
ATOM     90  O   UNL A   1      46.256  26.023  38.846  1.00  0.00    -0.237 OA
ATOM     91  O   UNL A   1      43.930  26.713  39.262  1.00  0.00    -0.237 OA
ATOM     92  O   UNL A   1      44.398  24.887  37.689  1.00  0.00    -0.744 OA
ENDBRANCH  86  89
ENDBRANCH  59  82
ENDBRANCH  33  34
ENDBRANCH  25  28
ENDBRANCH  23  24
ENDBRANCH   1  23
TORSDOF 16
ENDMDL
MODEL 3
REMARK VINA RESULT:     -11.2      4.588      9.654
REMARK SMILES O=C(CS(=O)(=O)[C@@H]1CCOC2(CCCCC2)C1)NCCCCNC(=O)c1ccc(-c2c3nc(c(-c4cccc(S(=O)(=O)[O-])c4F)c4ccc([nH]4)c(-c4cccc(S(=O)(=O)[O-])c4F)c4nc(c(-c5cccc(S(=O)(=O)[O-])c5F)c5ccc2[nH]5)C=C4)C=C3)cc1
REMARK SMILES IDX 21 1 20 2 19 3 18 4 1 5 2 6 3 8 4 9 5 10 6 11 7 12 8 13
REMARK SMILES IDX 17 14 9 15 11 16 10 17 12 18 16 19 13 20 15 21 14 22 22 23
REMARK SMILES IDX 23 24 24 25 25 27 26 28 27 29 88 30 28 31 87 32 29 33 30 34
REMARK SMILES IDX 31 35 81 36 32 37 86 38 80 39 82 40 33 41 85 42 79 43 78 44
REMARK SMILES IDX 34 46 66 47 46 48 65 49 47 50 50 51 64 52 83 53 48 54 49 55
REMARK SMILES IDX 63 57 84 58 51 59 35 60 36 61 44 62 37 63 39 64 45 65 38 66
REMARK SMILES IDX 40 67 41 68 42 69 43 70 67 71 68 72 76 73 69 74 71 75 77 76
REMARK SMILES IDX 70 77 72 78 73 79 74 80 75 81 52 82 53 83 61 84 54 85 56 86
REMARK SMILES IDX 62 87 55 88 57 89 58 90 59 91 60 92
REMARK H PARENT 18 7 23 26 82 45 50 56
REMARK Flexibility Score: inf
ROOT
ATOM      1  C   UNL A   1      35.460  22.622  26.298  1.00  0.00     0.023 C 
ENDROOT
BRANCH   1   2
ATOM      2  C   UNL A   1      35.103  21.294  25.622  1.00  0.00     0.023 C 
BRANCH   2   3
ATOM      3  C   UNL A   1      34.465  21.435  24.243  1.00  0.00     0.116 C 
BRANCH   3   4
ATOM      4  N   UNL A   1      33.563  22.562  24.180  1.00  0.00    -0.355 N 
ATOM      5  O   UNL A   1      34.791  23.743  22.668  1.00  0.00    -0.274 OA
ATOM      6  C   UNL A   1      33.810  23.660  23.404  1.00  0.00     0.235 C 
ATOM      7  H   UNL A   1      32.739  22.538  24.718  1.00  0.00     0.163 HD
BRANCH   6   8
ATOM      8  C   UNL A   1      32.851  24.796  23.548  1.00  0.00     0.236 C 
BRANCH   8   9
ATOM      9  S   UNL A   1      31.567  24.524  24.751  1.00  0.00     0.162 S 
ATOM     10  O   UNL A   1      30.709  23.496  24.178  1.00  0.00    -0.228 OA
ATOM     11  O   UNL A   1      32.243  24.237  26.005  1.00  0.00    -0.228 OA
BRANCH   9  12
ATOM     12  C   UNL A   1      30.509  25.970  25.029  1.00  0.00     0.114 C 
ATOM     13  C   UNL A   1      30.346  26.920  23.858  1.00  0.00     0.048 C 
ATOM     14  C   UNL A   1      30.770  26.756  26.331  1.00  0.00     0.055 C 
ATOM     15  C   UNL A   1      31.463  27.946  23.801  1.00  0.00     0.162 C 
ATOM     16  C   UNL A   1      31.842  27.856  26.205  1.00  0.00     0.069 C 
ATOM     17  O   UNL A   1      31.592  28.641  25.030  1.00  0.00    -0.375 OA
ATOM     18  C   UNL A   1      33.257  27.256  26.252  1.00  0.00     0.035 C 
ATOM     19  C   UNL A   1      31.738  28.869  27.370  1.00  0.00     0.035 C 
ATOM     20  C   UNL A   1      34.366  28.292  26.157  1.00  0.00     0.003 C 
ATOM     21  C   UNL A   1      32.844  29.936  27.299  1.00  0.00     0.003 C 
ATOM     22  C   UNL A   1      34.238  29.319  27.270  1.00  0.00     0.000 C 
ENDBRANCH   9  12
ENDBRANCH   8   9
ENDBRANCH   6   8
ENDBRANCH   3   4
ENDBRANCH   2   3
ENDBRANCH   1   2
BRANCH   1  23
ATOM     23  C   UNL A   1      36.757  23.267  25.827  1.00  0.00     0.116 C 
BRANCH  23  24
ATOM     24  N   UNL A   1      37.909  22.395  25.993  1.00  0.00    -0.352 N 
ATOM     25  C   UNL A   1      39.177  22.718  26.406  1.00  0.00     0.251 C 
ATOM     26  H   UNL A   1      37.758  21.446  25.781  1.00  0.00     0.163 HD
ATOM     27  O   UNL A   1      40.073  21.876  26.350  1.00  0.00    -0.269 OA
BRANCH  25  28
ATOM     28  C   UNL A   1      39.470  24.085  26.888  1.00  0.00     0.039 A 
ATOM     29  C   UNL A   1      39.223  24.394  28.227  1.00  0.00     0.014 A 
ATOM     30  C   UNL A   1      40.004  25.052  26.030  1.00  0.00     0.014 A 
ATOM     31  C   UNL A   1      39.567  25.654  28.721  1.00  0.00     0.010 A 
ATOM     32  C   UNL A   1      40.416  26.279  26.543  1.00  0.00     0.010 A 
ATOM     33  C   UNL A   1      40.197  26.598  27.892  1.00  0.00    -0.014 A 
BRANCH  33  34
ATOM     34  C   UNL A   1      40.647  27.910  28.424  1.00  0.00     0.031 A 
ATOM     35  C   UNL A   1      42.114  28.198  28.601  1.00  0.00     0.074 A 
ATOM     36  C   UNL A   1      39.732  28.817  28.822  1.00  0.00     0.049 A 
ATOM     37  N   UNL A   1      42.691  29.265  29.089  1.00  0.00    -0.248 NA
ATOM     38  C   UNL A   1      43.056  27.138  28.201  1.00  0.00     0.031 C 
ATOM     39  C   UNL A   1      38.280  28.632  28.774  1.00  0.00     0.029 A 
ATOM     40  N   UNL A   1      39.887  30.066  29.371  1.00  0.00    -0.354 N 
ATOM     41  C   UNL A   1      44.054  28.994  29.091  1.00  0.00     0.074 A 
ATOM     42  C   UNL A   1      44.217  27.649  28.584  1.00  0.00     0.031 C 
ATOM     43  C   UNL A   1      37.679  29.727  29.265  1.00  0.00     0.029 A 
ATOM     44  C   UNL A   1      38.698  30.678  29.694  1.00  0.00     0.049 A 
ATOM     45  H   UNL A   1      40.765  30.484  29.519  1.00  0.00     0.167 HD
ATOM     46  C   UNL A   1      45.082  29.799  29.455  1.00  0.00     0.034 A 
ATOM     47  C   UNL A   1      38.455  31.868  30.281  1.00  0.00     0.034 A 
ATOM     48  C   UNL A   1      44.920  31.149  29.923  1.00  0.00     0.049 A 
ATOM     49  C   UNL A   1      39.615  32.754  30.650  1.00  0.00     0.074 A 
ATOM     50  C   UNL A   1      45.901  32.076  30.228  1.00  0.00     0.029 A 
ATOM     51  N   UNL A   1      43.702  31.764  30.167  1.00  0.00    -0.354 N 
ATOM     52  N   UNL A   1      40.898  32.543  30.490  1.00  0.00    -0.248 NA
ATOM     53  C   UNL A   1      39.291  34.057  31.246  1.00  0.00     0.031 C 
ATOM     54  C   UNL A   1      45.276  33.239  30.689  1.00  0.00     0.029 A 
ATOM     55  C   UNL A   1      43.904  33.050  30.634  1.00  0.00     0.049 A 
ATOM     56  H   UNL A   1      42.820  31.345  30.028  1.00  0.00     0.167 HD
ATOM     57  C   UNL A   1      41.532  33.699  30.929  1.00  0.00     0.074 A 
ATOM     58  C   UNL A   1      40.489  34.616  31.342  1.00  0.00     0.031 C 
ATOM     59  C   UNL A   1      42.859  33.974  30.993  1.00  0.00     0.034 A 
BRANCH  46  60
ATOM     60  C   UNL A   1      46.482  29.256  29.324  1.00  0.00     0.023 A 
ATOM     61  C   UNL A   1      47.064  28.560  30.403  1.00  0.00     0.012 A 
ATOM     62  C   UNL A   1      47.195  29.378  28.115  1.00  0.00     0.148 A 
ATOM     63  C   UNL A   1      48.347  28.026  30.295  1.00  0.00     0.002 A 
ATOM     64  C   UNL A   1      48.455  28.800  27.999  1.00  0.00     0.091 A 
ATOM     65  F   UNL A   1      46.634  30.059  27.107  1.00  0.00    -0.205 F 
ATOM     66  C   UNL A   1      49.037  28.136  29.092  1.00  0.00     0.022 A 
BRANCH  64  67
ATOM     67  S   UNL A   1      49.390  28.814  26.465  1.00  0.00     0.127 S 
ATOM     68  O   UNL A   1      49.798  30.215  26.383  1.00  0.00    -0.237 OA
ATOM     69  O   UNL A   1      50.477  27.879  26.762  1.00  0.00    -0.237 OA
ATOM     70  O   UNL A   1      48.470  28.369  25.429  1.00  0.00    -0.744 OA
ENDBRANCH  64  67
ENDBRANCH  46  60
BRANCH  47  71
ATOM     71  C   UNL A   1      37.051  32.319  30.502  1.00  0.00     0.023 A 
ATOM     72  C   UNL A   1      36.459  32.142  31.768  1.00  0.00     0.012 A 
ATOM     73  C   UNL A   1      36.307  32.932  29.475  1.00  0.00     0.148 A 
ATOM     74  C   UNL A   1      35.139  32.535  31.997  1.00  0.00     0.002 A 
ATOM     75  C   UNL A   1      35.013  33.371  29.727  1.00  0.00     0.091 A 
ATOM     76  F   UNL A   1      36.885  33.081  28.276  1.00  0.00    -0.205 F 
ATOM     77  C   UNL A   1      34.420  33.157  30.981  1.00  0.00     0.022 A 
BRANCH  75  78
ATOM     78  S   UNL A   1      34.058  34.298  28.521  1.00  0.00     0.127 S 
ATOM     79  O   UNL A   1      33.959  33.344  27.419  1.00  0.00    -0.237 OA
ATOM     80  O   UNL A   1      32.809  34.538  29.245  1.00  0.00    -0.237 OA
ATOM     81  O   UNL A   1      34.832  35.503  28.247  1.00  0.00    -0.744 OA
ENDBRANCH  75  78
ENDBRANCH  47  71
BRANCH  59  82
ATOM     82  C   UNL A   1      43.269  35.337  31.489  1.00  0.00     0.023 A 
ATOM     83  C   UNL A   1      43.511  35.545  32.861  1.00  0.00     0.012 A 
ATOM     84  C   UNL A   1      43.488  36.391  30.580  1.00  0.00     0.148 A 
ATOM     85  C   UNL A   1      43.928  36.793  33.325  1.00  0.00     0.002 A 
ATOM     86  C   UNL A   1      43.955  37.616  31.044  1.00  0.00     0.091 A 
ATOM     87  F   UNL A   1      43.236  36.178  29.280  1.00  0.00    -0.205 F 
ATOM     88  C   UNL A   1      44.162  37.822  32.416  1.00  0.00     0.022 A 
BRANCH  86  89
ATOM     89  S   UNL A   1      44.379  38.966  29.938  1.00  0.00     0.127 S 
ATOM     90  O   UNL A   1      45.354  38.332  29.053  1.00  0.00    -0.237 OA
ATOM     91  O   UNL A   1      43.091  39.266  29.309  1.00  0.00    -0.237 OA
ATOM     92  O   UNL A   1      44.901  40.031  30.782  1.00  0.00    -0.744 OA
ENDBRANCH  86  89
ENDBRANCH  59  82
ENDBRANCH  33  34
ENDBRANCH  25  28
ENDBRANCH  23  24
ENDBRANCH   1  23
TORSDOF 16
ENDMDL
