MODEL 1
REMARK VINA RESULT:     -10.9      0.000      0.000
REMARK SMILES CCC(CC)COc1cc2c(cc1Cl)C=C(C(=O)NCCCCNC(=O)c1ccc(-c3c4nc(c(-c5cccc(S(=O)(=O)[O-])c5F)c5ccc([nH]5)c(-c5cccc(S(=O)(=O)[O-])c5F)c5nc(c(-c6cccc(S(=O)(=O)[O-])c6F)c6ccc3[nH]6)C=C5)C=C4)cc1)[C@@H](C(F)(F)F)O2
REMARK SMILES IDX 21 1 20 2 19 3 17 4 18 5 16 7 8 8 9 9 13 10 10 11 12 12
REMARK SMILES IDX 14 13 11 14 95 15 15 16 90 17 7 18 6 19 3 20 2 21 1 22 4 23
REMARK SMILES IDX 5 24 91 25 92 26 93 27 94 28 22 29 23 30 24 31 25 32 26 34
REMARK SMILES IDX 27 35 28 36 89 37 29 38 88 39 30 40 31 41 32 42 82 43 33 44
REMARK SMILES IDX 87 45 81 46 83 47 34 48 86 49 80 50 79 51 35 53 67 54 47 55
REMARK SMILES IDX 66 56 48 57 51 58 65 59 84 60 49 61 50 62 64 64 85 65 52 66
REMARK SMILES IDX 36 67 37 68 45 69 38 70 40 71 46 72 39 73 41 74 42 75 43 76
REMARK SMILES IDX 44 77 68 78 69 79 77 80 70 81 72 82 78 83 71 84 73 85 74 86
REMARK SMILES IDX 75 87 76 88 53 89 54 90 62 91 55 92 57 93 63 94 56 95 58 96
REMARK SMILES IDX 59 97 60 98 61 99
REMARK H PARENT 19 6 24 33 83 52 51 63
REMARK Flexibility Score: inf
ROOT
ATOM      1  C   UNL A   1      32.408  29.782  25.260  1.00  0.00     0.023 C 
ENDROOT
BRANCH   1   2
ATOM      2  C   UNL A   1      30.952  30.168  25.023  1.00  0.00     0.116 C 
BRANCH   2   3
ATOM      3  N   UNL A   1      30.586  30.045  23.624  1.00  0.00    -0.352 N 
ATOM      4  C   UNL A   1      30.529  29.042  22.718  1.00  0.00     0.251 C 
ATOM      5  O   UNL A   1      30.099  29.353  21.603  1.00  0.00    -0.270 OA
ATOM      6  H   UNL A   1      30.309  30.906  23.239  1.00  0.00     0.163 HD
BRANCH   4   7
ATOM      7  C   UNL A   1      30.953  27.638  22.972  1.00  0.00     0.067 C 
ATOM      8  C   UNL A   1      31.186  22.908  24.593  1.00  0.00     0.141 A 
ATOM      9  C   UNL A   1      31.407  23.499  23.350  1.00  0.00     0.095 A 
ATOM     10  C   UNL A   1      30.846  23.701  25.700  1.00  0.00     0.083 A 
ATOM     11  C   UNL A   1      31.208  24.867  23.212  1.00  0.00     0.131 A 
ATOM     12  C   UNL A   1      30.550  25.054  25.527  1.00  0.00     0.036 A 
ATOM     13  Cl  UNL A   1      30.753  23.050  27.296  1.00  0.00    -0.080 Cl
ATOM     14  C   UNL A   1      30.713  25.636  24.274  1.00  0.00     0.019 A 
ATOM     15  O   UNL A   1      31.527  25.444  22.008  1.00  0.00    -0.475 OA
ATOM     16  C   UNL A   1      30.378  27.033  24.029  1.00  0.00     0.025 C 
ATOM     17  C   UNL A   1      31.920  26.850  22.132  1.00  0.00     0.314 C 
BRANCH   8  18
ATOM     18  O   UNL A   1      31.352  21.555  24.735  1.00  0.00    -0.492 OA
BRANCH  18  19
ATOM     19  C   UNL A   1      32.573  21.212  25.426  1.00  0.00     0.233 C 
BRANCH  19  20
ATOM     20  C   UNL A   1      33.639  20.674  24.442  1.00  0.00     0.026 C 
BRANCH  20  21
ATOM     21  C   UNL A   1      34.987  21.407  24.624  1.00  0.00     0.003 C 
ATOM     22  C   UNL A   1      34.932  22.865  24.191  1.00  0.00     0.004 C 
ENDBRANCH  20  21
BRANCH  20  23
ATOM     23  C   UNL A   1      33.783  19.140  24.532  1.00  0.00     0.003 C 
ATOM     24  C   UNL A   1      32.513  18.344  24.269  1.00  0.00     0.004 C 
ENDBRANCH  20  23
ENDBRANCH  19  20
ENDBRANCH  18  19
ENDBRANCH   8  18
BRANCH  17  25
ATOM     25  C   UNL A   1      33.377  26.969  22.649  1.00  0.00     0.429 C 
ATOM     26  F   UNL A   1      34.121  25.923  22.213  1.00  0.00    -0.167 F 
ATOM     27  F   UNL A   1      33.989  28.093  22.207  1.00  0.00    -0.167 F 
ATOM     28  F   UNL A   1      33.467  26.991  23.998  1.00  0.00    -0.167 F 
ENDBRANCH  17  25
ENDBRANCH   4   7
ENDBRANCH   2   3
ENDBRANCH   1   2
BRANCH   1  29
ATOM     29  C   UNL A   1      32.610  28.752  26.368  1.00  0.00     0.023 C 
BRANCH  29  30
ATOM     30  C   UNL A   1      33.821  28.987  27.266  1.00  0.00     0.116 C 
BRANCH  30  31
ATOM     31  N   UNL A   1      33.897  30.332  27.824  1.00  0.00    -0.352 N 
ATOM     32  C   UNL A   1      34.981  30.925  28.434  1.00  0.00     0.251 C 
ATOM     33  H   UNL A   1      33.081  30.879  27.758  1.00  0.00     0.163 HD
ATOM     34  O   UNL A   1      34.905  32.055  28.901  1.00  0.00    -0.269 OA
BRANCH  32  35
ATOM     35  C   UNL A   1      36.215  30.128  28.554  1.00  0.00     0.039 A 
ATOM     36  C   UNL A   1      36.474  29.436  29.740  1.00  0.00     0.014 A 
ATOM     37  C   UNL A   1      37.182  30.236  27.554  1.00  0.00     0.014 A 
ATOM     38  C   UNL A   1      37.767  28.998  29.997  1.00  0.00     0.010 A 
ATOM     39  C   UNL A   1      38.461  29.735  27.792  1.00  0.00     0.010 A 
ATOM     40  C   UNL A   1      38.779  29.173  29.039  1.00  0.00    -0.014 A 
BRANCH  40  41
ATOM     41  C   UNL A   1      40.180  28.816  29.368  1.00  0.00     0.031 A 
ATOM     42  C   UNL A   1      40.848  27.650  28.689  1.00  0.00     0.074 A 
ATOM     43  C   UNL A   1      40.860  29.558  30.261  1.00  0.00     0.049 A 
ATOM     44  N   UNL A   1      42.034  27.143  28.904  1.00  0.00    -0.248 NA
ATOM     45  C   UNL A   1      40.089  26.962  27.630  1.00  0.00     0.031 C 
ATOM     46  C   UNL A   1      40.325  30.720  30.972  1.00  0.00     0.029 A 
ATOM     47  N   UNL A   1      42.146  29.446  30.720  1.00  0.00    -0.354 N 
ATOM     48  C   UNL A   1      42.145  26.052  28.051  1.00  0.00     0.074 A 
ATOM     49  C   UNL A   1      40.910  25.972  27.302  1.00  0.00     0.031 C 
ATOM     50  C   UNL A   1      41.283  31.230  31.760  1.00  0.00     0.029 A 
ATOM     51  C   UNL A   1      42.478  30.399  31.653  1.00  0.00     0.049 A 
ATOM     52  H   UNL A   1      42.771  28.751  30.412  1.00  0.00     0.167 HD
ATOM     53  C   UNL A   1      43.189  25.204  27.894  1.00  0.00     0.034 A 
ATOM     54  C   UNL A   1      43.608  30.571  32.362  1.00  0.00     0.034 A 
ATOM     55  C   UNL A   1      44.441  25.321  28.591  1.00  0.00     0.049 A 
ATOM     56  C   UNL A   1      44.748  29.613  32.173  1.00  0.00     0.074 A 
ATOM     57  C   UNL A   1      45.567  24.526  28.473  1.00  0.00     0.029 A 
ATOM     58  N   UNL A   1      44.736  26.300  29.526  1.00  0.00    -0.354 N 
ATOM     59  N   UNL A   1      44.846  28.608  31.338  1.00  0.00    -0.248 NA
ATOM     60  C   UNL A   1      45.930  29.812  33.023  1.00  0.00     0.031 C 
ATOM     61  C   UNL A   1      46.548  25.029  29.335  1.00  0.00     0.029 A 
ATOM     62  C   UNL A   1      46.028  26.133  29.992  1.00  0.00     0.049 A 
ATOM     63  H   UNL A   1      44.118  27.010  29.816  1.00  0.00     0.167 HD
ATOM     64  C   UNL A   1      46.097  28.050  31.562  1.00  0.00     0.074 A 
ATOM     65  C   UNL A   1      46.735  28.850  32.589  1.00  0.00     0.031 C 
ATOM     66  C   UNL A   1      46.656  26.957  30.989  1.00  0.00     0.034 A 
BRANCH  53  67
ATOM     67  C   UNL A   1      43.048  24.094  26.890  1.00  0.00     0.023 A 
ATOM     68  C   UNL A   1      43.687  24.214  25.641  1.00  0.00     0.012 A 
ATOM     69  C   UNL A   1      42.366  22.904  27.213  1.00  0.00     0.148 A 
ATOM     70  C   UNL A   1      43.644  23.167  24.721  1.00  0.00     0.002 A 
ATOM     71  C   UNL A   1      42.347  21.856  26.300  1.00  0.00     0.091 A 
ATOM     72  F   UNL A   1      41.752  22.823  28.401  1.00  0.00    -0.205 F 
ATOM     73  C   UNL A   1      42.982  21.987  25.053  1.00  0.00     0.022 A 
BRANCH  71  74
ATOM     74  S   UNL A   1      41.561  20.277  26.644  1.00  0.00     0.127 S 
ATOM     75  O   UNL A   1      41.862  19.528  25.425  1.00  0.00    -0.237 OA
ATOM     76  O   UNL A   1      42.285  19.826  27.831  1.00  0.00    -0.237 OA
ATOM     77  O   UNL A   1      40.151  20.568  26.861  1.00  0.00    -0.744 OA
ENDBRANCH  71  74
ENDBRANCH  53  67
BRANCH  54  78
ATOM     78  C   UNL A   1      43.709  31.723  33.295  1.00  0.00     0.023 A 
ATOM     79  C   UNL A   1      43.377  31.538  34.650  1.00  0.00     0.012 A 
ATOM     80  C   UNL A   1      44.215  32.965  32.868  1.00  0.00     0.148 A 
ATOM     81  C   UNL A   1      43.547  32.575  35.566  1.00  0.00     0.002 A 
ATOM     82  C   UNL A   1      44.426  33.978  33.794  1.00  0.00     0.091 A 
ATOM     83  F   UNL A   1      44.513  33.115  31.569  1.00  0.00    -0.205 F 
ATOM     84  C   UNL A   1      44.083  33.788  35.142  1.00  0.00     0.022 A 
BRANCH  82  85
ATOM     85  S   UNL A   1      45.226  35.528  33.365  1.00  0.00     0.127 S 
ATOM     86  O   UNL A   1      45.163  36.256  34.630  1.00  0.00    -0.237 OA
ATOM     87  O   UNL A   1      46.564  35.076  32.979  1.00  0.00    -0.237 OA
ATOM     88  O   UNL A   1      44.441  36.089  32.275  1.00  0.00    -0.744 OA
ENDBRANCH  82  85
ENDBRANCH  54  78
BRANCH  66  89
ATOM     89  C   UNL A   1      48.017  26.543  31.474  1.00  0.00     0.023 A 
ATOM     90  C   UNL A   1      48.110  25.616  32.530  1.00  0.00     0.012 A 
ATOM     91  C   UNL A   1      49.187  26.999  30.840  1.00  0.00     0.148 A 
ATOM     92  C   UNL A   1      49.354  25.158  32.959  1.00  0.00     0.002 A 
ATOM     93  C   UNL A   1      50.422  26.515  31.255  1.00  0.00     0.091 A 
ATOM     94  F   UNL A   1      49.072  27.898  29.850  1.00  0.00    -0.205 F 
ATOM     95  C   UNL A   1      50.508  25.599  32.315  1.00  0.00     0.022 A 
BRANCH  93  96
ATOM     96  S   UNL A   1      51.953  26.979  30.436  1.00  0.00     0.127 S 
ATOM     97  O   UNL A   1      52.153  28.341  30.928  1.00  0.00    -0.237 OA
ATOM     98  O   UNL A   1      52.902  25.995  30.960  1.00  0.00    -0.237 OA
ATOM     99  O   UNL A   1      51.691  26.857  29.008  1.00  0.00    -0.744 OA
ENDBRANCH  93  96
ENDBRANCH  66  89
ENDBRANCH  40  41
ENDBRANCH  32  35
ENDBRANCH  30  31
ENDBRANCH  29  30
ENDBRANCH   1  29
TORSDOF 20
ENDMDL
MODEL 2
REMARK VINA RESULT:     -10.7      1.810      2.191
REMARK SMILES CCC(CC)COc1cc2c(cc1Cl)C=C(C(=O)NCCCCNC(=O)c1ccc(-c3c4nc(c(-c5cccc(S(=O)(=O)[O-])c5F)c5ccc([nH]5)c(-c5cccc(S(=O)(=O)[O-])c5F)c5nc(c(-c6cccc(S(=O)(=O)[O-])c6F)c6ccc3[nH]6)C=C5)C=C4)cc1)[C@@H](C(F)(F)F)O2
REMARK SMILES IDX 21 1 20 2 19 3 17 4 18 5 16 7 8 8 9 9 13 10 10 11 12 12
REMARK SMILES IDX 14 13 11 14 95 15 15 16 90 17 7 18 6 19 3 20 2 21 1 22 4 23
REMARK SMILES IDX 5 24 91 25 92 26 93 27 94 28 22 29 23 30 24 31 25 32 26 34
REMARK SMILES IDX 27 35 28 36 89 37 29 38 88 39 30 40 31 41 32 42 82 43 33 44
REMARK SMILES IDX 87 45 81 46 83 47 34 48 86 49 80 50 79 51 35 53 67 54 47 55
REMARK SMILES IDX 66 56 48 57 51 58 65 59 84 60 49 61 50 62 64 64 85 65 52 66
REMARK SMILES IDX 36 67 37 68 45 69 38 70 40 71 46 72 39 73 41 74 42 75 43 76
REMARK SMILES IDX 44 77 68 78 69 79 77 80 70 81 72 82 78 83 71 84 73 85 74 86
REMARK SMILES IDX 75 87 76 88 53 89 54 90 62 91 55 92 57 93 63 94 56 95 58 96
REMARK SMILES IDX 59 97 60 98 61 99
REMARK H PARENT 19 6 24 33 83 52 51 63
REMARK Flexibility Score: inf
ROOT
ATOM      1  C   UNL A   1      32.569  30.406  25.684  1.00  0.00     0.023 C 
ENDROOT
BRANCH   1   2
ATOM      2  C   UNL A   1      31.086  30.177  25.418  1.00  0.00     0.116 C 
BRANCH   2   3
ATOM      3  N   UNL A   1      30.826  29.931  24.012  1.00  0.00    -0.352 N 
ATOM      4  C   UNL A   1      30.841  28.854  23.194  1.00  0.00     0.251 C 
ATOM      5  O   UNL A   1      30.494  29.064  22.027  1.00  0.00    -0.270 OA
ATOM      6  H   UNL A   1      30.575  30.753  23.534  1.00  0.00     0.163 HD
BRANCH   4   7
ATOM      7  C   UNL A   1      31.250  27.482  23.598  1.00  0.00     0.067 C 
ATOM      8  C   UNL A   1      31.231  22.726  25.160  1.00  0.00     0.141 A 
ATOM      9  C   UNL A   1      31.891  23.383  24.123  1.00  0.00     0.095 A 
ATOM     10  C   UNL A   1      30.392  23.442  26.027  1.00  0.00     0.083 A 
ATOM     11  C   UNL A   1      31.640  24.734  23.916  1.00  0.00     0.131 A 
ATOM     12  C   UNL A   1      30.069  24.771  25.749  1.00  0.00     0.036 A 
ATOM     13  Cl  UNL A   1      29.707  22.721  27.438  1.00  0.00    -0.080 Cl
ATOM     14  C   UNL A   1      30.681  25.415  24.678  1.00  0.00     0.019 A 
ATOM     15  O   UNL A   1      32.374  25.384  22.956  1.00  0.00    -0.475 OA
ATOM     16  C   UNL A   1      30.349  26.788  24.319  1.00  0.00     0.025 C 
ATOM     17  C   UNL A   1      32.547  26.812  23.235  1.00  0.00     0.314 C 
BRANCH   8  18
ATOM     18  O   UNL A   1      31.449  21.387  25.355  1.00  0.00    -0.492 OA
BRANCH  18  19
ATOM     19  C   UNL A   1      32.789  21.100  25.810  1.00  0.00     0.233 C 
BRANCH  19  20
ATOM     20  C   UNL A   1      33.381  19.879  25.065  1.00  0.00     0.026 C 
BRANCH  20  21
ATOM     21  C   UNL A   1      32.682  19.664  23.704  1.00  0.00     0.003 C 
ATOM     22  C   UNL A   1      32.332  18.206  23.442  1.00  0.00     0.004 C 
ENDBRANCH  20  21
BRANCH  20  23
ATOM     23  C   UNL A   1      34.916  19.974  24.933  1.00  0.00     0.003 C 
ATOM     24  C   UNL A   1      35.635  18.662  24.661  1.00  0.00     0.004 C 
ENDBRANCH  20  23
ENDBRANCH  19  20
ENDBRANCH  18  19
ENDBRANCH   8  18
BRANCH  17  25
ATOM     25  C   UNL A   1      33.641  27.032  24.310  1.00  0.00     0.429 C 
ATOM     26  F   UNL A   1      33.080  27.174  25.536  1.00  0.00    -0.167 F 
ATOM     27  F   UNL A   1      34.498  25.986  24.394  1.00  0.00    -0.167 F 
ATOM     28  F   UNL A   1      34.400  28.129  24.088  1.00  0.00    -0.167 F 
ENDBRANCH  17  25
ENDBRANCH   4   7
ENDBRANCH   2   3
ENDBRANCH   1   2
BRANCH   1  29
ATOM     29  C   UNL A   1      33.010  30.060  27.105  1.00  0.00     0.023 C 
BRANCH  29  30
ATOM     30  C   UNL A   1      34.334  30.679  27.546  1.00  0.00     0.116 C 
BRANCH  30  31
ATOM     31  N   UNL A   1      34.230  31.537  28.720  1.00  0.00    -0.352 N 
ATOM     32  C   UNL A   1      35.155  31.690  29.730  1.00  0.00     0.251 C 
ATOM     33  H   UNL A   1      33.404  32.068  28.801  1.00  0.00     0.163 HD
ATOM     34  O   UNL A   1      34.929  32.418  30.689  1.00  0.00    -0.269 OA
BRANCH  32  35
ATOM     35  C   UNL A   1      36.397  30.904  29.640  1.00  0.00     0.039 A 
ATOM     36  C   UNL A   1      36.540  29.752  30.418  1.00  0.00     0.014 A 
ATOM     37  C   UNL A   1      37.473  31.431  28.924  1.00  0.00     0.014 A 
ATOM     38  C   UNL A   1      37.809  29.225  30.616  1.00  0.00     0.010 A 
ATOM     39  C   UNL A   1      38.734  30.856  29.075  1.00  0.00     0.010 A 
ATOM     40  C   UNL A   1      38.922  29.792  29.972  1.00  0.00    -0.014 A 
BRANCH  40  41
ATOM     41  C   UNL A   1      40.287  29.302  30.285  1.00  0.00     0.031 A 
ATOM     42  C   UNL A   1      40.886  28.167  29.499  1.00  0.00     0.074 A 
ATOM     43  C   UNL A   1      40.998  29.899  31.259  1.00  0.00     0.049 A 
ATOM     44  N   UNL A   1      42.029  27.556  29.679  1.00  0.00    -0.248 NA
ATOM     45  C   UNL A   1      40.104  27.647  28.363  1.00  0.00     0.031 C 
ATOM     46  C   UNL A   1      40.529  31.019  32.078  1.00  0.00     0.029 A 
ATOM     47  N   UNL A   1      42.261  29.649  31.724  1.00  0.00    -0.354 N 
ATOM     48  C   UNL A   1      42.082  26.552  28.719  1.00  0.00     0.074 A 
ATOM     49  C   UNL A   1      40.861  26.638  27.948  1.00  0.00     0.031 C 
ATOM     50  C   UNL A   1      41.503  31.375  32.928  1.00  0.00     0.029 A 
ATOM     51  C   UNL A   1      42.638  30.475  32.755  1.00  0.00     0.049 A 
ATOM     52  H   UNL A   1      42.843  28.945  31.355  1.00  0.00     0.167 HD
ATOM     53  C   UNL A   1      43.066  25.651  28.492  1.00  0.00     0.034 A 
ATOM     54  C   UNL A   1      43.762  30.492  33.494  1.00  0.00     0.034 A 
ATOM     55  C   UNL A   1      44.307  25.606  29.216  1.00  0.00     0.049 A 
ATOM     56  C   UNL A   1      44.835  29.478  33.225  1.00  0.00     0.074 A 
ATOM     57  C   UNL A   1      45.378  24.748  29.034  1.00  0.00     0.029 A 
ATOM     58  N   UNL A   1      44.650  26.461  30.252  1.00  0.00    -0.354 N 
ATOM     59  N   UNL A   1      44.881  28.559  32.293  1.00  0.00    -0.248 NA
ATOM     60  C   UNL A   1      46.009  29.504  34.109  1.00  0.00     0.031 C 
ATOM     61  C   UNL A   1      46.371  25.089  29.959  1.00  0.00     0.029 A 
ATOM     62  C   UNL A   1      45.916  26.154  30.717  1.00  0.00     0.049 A 
ATOM     63  H   UNL A   1      44.077  27.180  30.603  1.00  0.00     0.167 HD
ATOM     64  C   UNL A   1      46.084  27.892  32.478  1.00  0.00     0.074 A 
ATOM     65  C   UNL A   1      46.754  28.535  33.591  1.00  0.00     0.031 C 
ATOM     66  C   UNL A   1      46.578  26.825  31.804  1.00  0.00     0.034 A 
BRANCH  53  67
ATOM     67  C   UNL A   1      42.871  24.662  27.377  1.00  0.00     0.023 A 
ATOM     68  C   UNL A   1      43.378  24.960  26.099  1.00  0.00     0.012 A 
ATOM     69  C   UNL A   1      42.269  23.410  27.614  1.00  0.00     0.148 A 
ATOM     70  C   UNL A   1      43.286  24.028  25.065  1.00  0.00     0.002 A 
ATOM     71  C   UNL A   1      42.200  22.477  26.585  1.00  0.00     0.091 A 
ATOM     72  F   UNL A   1      41.778  23.159  28.836  1.00  0.00    -0.205 F 
ATOM     73  C   UNL A   1      42.706  22.786  25.311  1.00  0.00     0.022 A 
BRANCH  71  74
ATOM     74  S   UNL A   1      41.513  20.832  26.805  1.00  0.00     0.127 S 
ATOM     75  O   UNL A   1      42.296  20.336  27.936  1.00  0.00    -0.237 OA
ATOM     76  O   UNL A   1      40.114  21.122  27.113  1.00  0.00    -0.237 OA
ATOM     77  O   UNL A   1      41.731  20.133  25.547  1.00  0.00    -0.744 OA
ENDBRANCH  71  74
ENDBRANCH  53  67
BRANCH  54  78
ATOM     78  C   UNL A   1      43.923  31.533  34.543  1.00  0.00     0.023 A 
ATOM     79  C   UNL A   1      44.478  32.777  34.194  1.00  0.00     0.012 A 
ATOM     80  C   UNL A   1      43.447  31.328  35.852  1.00  0.00     0.148 A 
ATOM     81  C   UNL A   1      44.558  33.804  35.133  1.00  0.00     0.002 A 
ATOM     82  C   UNL A   1      43.487  32.370  36.770  1.00  0.00     0.091 A 
ATOM     83  F   UNL A   1      42.933  30.129  36.159  1.00  0.00    -0.205 F 
ATOM     84  C   UNL A   1      44.051  33.605  36.416  1.00  0.00     0.022 A 
BRANCH  82  85
ATOM     85  S   UNL A   1      42.747  32.247  38.402  1.00  0.00     0.127 S 
ATOM     86  O   UNL A   1      41.355  31.948  38.077  1.00  0.00    -0.237 OA
ATOM     87  O   UNL A   1      43.497  31.134  38.987  1.00  0.00    -0.237 OA
ATOM     88  O   UNL A   1      42.983  33.534  39.040  1.00  0.00    -0.744 OA
ENDBRANCH  82  85
ENDBRANCH  54  78
BRANCH  66  89
ATOM     89  C   UNL A   1      47.895  26.267  32.263  1.00  0.00     0.023 A 
ATOM     90  C   UNL A   1      47.902  25.283  33.271  1.00  0.00     0.012 A 
ATOM     91  C   UNL A   1      49.103  26.647  31.651  1.00  0.00     0.148 A 
ATOM     92  C   UNL A   1      49.099  24.694  33.674  1.00  0.00     0.002 A 
ATOM     93  C   UNL A   1      50.289  26.034  32.038  1.00  0.00     0.091 A 
ATOM     94  F   UNL A   1      49.071  27.602  30.708  1.00  0.00    -0.205 F 
ATOM     95  C   UNL A   1      50.290  25.062  33.051  1.00  0.00     0.022 A 
BRANCH  93  96
ATOM     96  S   UNL A   1      51.857  26.400  31.240  1.00  0.00     0.127 S 
ATOM     97  O   UNL A   1      51.528  26.199  29.829  1.00  0.00    -0.237 OA
ATOM     98  O   UNL A   1      52.086  27.794  31.620  1.00  0.00    -0.237 OA
ATOM     99  O   UNL A   1      52.816  25.459  31.802  1.00  0.00    -0.744 OA
ENDBRANCH  93  96
ENDBRANCH  66  89
ENDBRANCH  40  41
ENDBRANCH  32  35
ENDBRANCH  30  31
ENDBRANCH  29  30
ENDBRANCH   1  29
TORSDOF 20
ENDMDL
MODEL 3
REMARK VINA RESULT:     -10.5      5.557     11.417
REMARK SMILES CCC(CC)COc1cc2c(cc1Cl)C=C(C(=O)NCCCCNC(=O)c1ccc(-c3c4nc(c(-c5cccc(S(=O)(=O)[O-])c5F)c5ccc([nH]5)c(-c5cccc(S(=O)(=O)[O-])c5F)c5nc(c(-c6cccc(S(=O)(=O)[O-])c6F)c6ccc3[nH]6)C=C5)C=C4)cc1)[C@@H](C(F)(F)F)O2
REMARK SMILES IDX 21 1 20 2 19 3 17 4 18 5 16 7 8 8 9 9 13 10 10 11 12 12
REMARK SMILES IDX 14 13 11 14 95 15 15 16 90 17 7 18 6 19 3 20 2 21 1 22 4 23
REMARK SMILES IDX 5 24 91 25 92 26 93 27 94 28 22 29 23 30 24 31 25 32 26 34
REMARK SMILES IDX 27 35 28 36 89 37 29 38 88 39 30 40 31 41 32 42 82 43 33 44
REMARK SMILES IDX 87 45 81 46 83 47 34 48 86 49 80 50 79 51 35 53 67 54 47 55
REMARK SMILES IDX 66 56 48 57 51 58 65 59 84 60 49 61 50 62 64 64 85 65 52 66
REMARK SMILES IDX 36 67 37 68 45 69 38 70 40 71 46 72 39 73 41 74 42 75 43 76
REMARK SMILES IDX 44 77 68 78 69 79 77 80 70 81 72 82 78 83 71 84 73 85 74 86
REMARK SMILES IDX 75 87 76 88 53 89 54 90 62 91 55 92 57 93 63 94 56 95 58 96
REMARK SMILES IDX 59 97 60 98 61 99
REMARK H PARENT 19 6 24 33 83 52 51 63
REMARK Flexibility Score: inf
ROOT
ATOM      1  C   UNL A   1      44.965  23.259  24.970  1.00  0.00     0.023 C 
ENDROOT
BRANCH   1   2
ATOM      2  C   UNL A   1      43.521  22.777  24.878  1.00  0.00     0.116 C 
BRANCH   2   3
ATOM      3  N   UNL A   1      43.076  22.181  26.124  1.00  0.00    -0.352 N 
ATOM      4  C   UNL A   1      42.243  22.536  27.128  1.00  0.00     0.251 C 
ATOM      5  O   UNL A   1      42.088  21.693  28.017  1.00  0.00    -0.270 OA
ATOM      6  H   UNL A   1      43.480  21.297  26.274  1.00  0.00     0.163 HD
BRANCH   4   7
ATOM      7  C   UNL A   1      41.536  23.842  27.229  1.00  0.00     0.067 C 
ATOM      8  C   UNL A   1      40.288  28.554  28.366  1.00  0.00     0.141 A 
ATOM      9  C   UNL A   1      40.247  27.819  27.182  1.00  0.00     0.095 A 
ATOM     10  C   UNL A   1      40.728  27.952  29.555  1.00  0.00     0.083 A 
ATOM     11  C   UNL A   1      40.722  26.513  27.186  1.00  0.00     0.131 A 
ATOM     12  C   UNL A   1      41.296  26.677  29.525  1.00  0.00     0.036 A 
ATOM     13  Cl  UNL A   1      40.616  28.752  31.080  1.00  0.00    -0.080 Cl
ATOM     14  C   UNL A   1      41.311  25.962  28.332  1.00  0.00     0.019 A 
ATOM     15  O   UNL A   1      40.580  25.776  26.037  1.00  0.00    -0.475 OA
ATOM     16  C   UNL A   1      41.929  24.646  28.236  1.00  0.00     0.025 C 
ATOM     17  C   UNL A   1      40.471  24.336  26.290  1.00  0.00     0.314 C 
BRANCH   8  18
ATOM     18  O   UNL A   1      39.849  29.852  28.368  1.00  0.00    -0.492 OA
BRANCH  18  19
ATOM     19  C   UNL A   1      38.409  29.954  28.346  1.00  0.00     0.233 C 
BRANCH  19  20
ATOM     20  C   UNL A   1      37.910  31.020  29.352  1.00  0.00     0.026 C 
BRANCH  20  21
ATOM     21  C   UNL A   1      39.093  31.807  29.961  1.00  0.00     0.003 C 
ATOM     22  C   UNL A   1      38.648  33.038  30.738  1.00  0.00     0.004 C 
ENDBRANCH  20  21
BRANCH  20  23
ATOM     23  C   UNL A   1      36.844  31.945  28.727  1.00  0.00     0.003 C 
ATOM     24  C   UNL A   1      35.437  31.798  29.286  1.00  0.00     0.004 C 
ENDBRANCH  20  23
ENDBRANCH  19  20
ENDBRANCH  18  19
ENDBRANCH   8  18
BRANCH  17  25
ATOM     25  C   UNL A   1      39.045  23.972  26.776  1.00  0.00     0.429 C 
ATOM     26  F   UNL A   1      38.114  24.433  25.905  1.00  0.00    -0.167 F 
ATOM     27  F   UNL A   1      38.860  22.633  26.870  1.00  0.00    -0.167 F 
ATOM     28  F   UNL A   1      38.745  24.484  27.992  1.00  0.00    -0.167 F 
ENDBRANCH  17  25
ENDBRANCH   4   7
ENDBRANCH   2   3
ENDBRANCH   1   2
BRANCH   1  29
ATOM     29  C   UNL A   1      45.532  23.268  26.387  1.00  0.00     0.023 C 
BRANCH  29  30
ATOM     30  C   UNL A   1      46.767  24.141  26.590  1.00  0.00     0.116 C 
BRANCH  30  31
ATOM     31  N   UNL A   1      47.297  24.721  25.361  1.00  0.00    -0.352 N 
ATOM     32  C   UNL A   1      47.230  26.037  24.960  1.00  0.00     0.251 C 
ATOM     33  H   UNL A   1      47.755  24.101  24.748  1.00  0.00     0.163 HD
ATOM     34  O   UNL A   1      47.682  26.393  23.878  1.00  0.00    -0.269 OA
BRANCH  32  35
ATOM     35  C   UNL A   1      46.545  26.987  25.854  1.00  0.00     0.039 A 
ATOM     36  C   UNL A   1      47.298  27.764  26.739  1.00  0.00     0.014 A 
ATOM     37  C   UNL A   1      45.152  26.953  25.928  1.00  0.00     0.014 A 
ATOM     38  C   UNL A   1      46.660  28.372  27.813  1.00  0.00     0.010 A 
ATOM     39  C   UNL A   1      44.512  27.621  26.970  1.00  0.00     0.010 A 
ATOM     40  C   UNL A   1      45.266  28.279  27.956  1.00  0.00    -0.014 A 
BRANCH  40  41
ATOM     41  C   UNL A   1      44.608  28.825  29.168  1.00  0.00     0.031 A 
ATOM     42  C   UNL A   1      44.082  30.236  29.177  1.00  0.00     0.074 A 
ATOM     43  C   UNL A   1      44.460  28.041  30.251  1.00  0.00     0.049 A 
ATOM     44  N   UNL A   1      43.551  30.908  30.166  1.00  0.00    -0.248 NA
ATOM     45  C   UNL A   1      44.162  30.994  27.916  1.00  0.00     0.031 C 
ATOM     46  C   UNL A   1      44.914  26.653  30.354  1.00  0.00     0.029 A 
ATOM     47  N   UNL A   1      43.886  28.299  31.468  1.00  0.00    -0.354 N 
ATOM     48  C   UNL A   1      43.281  32.176  29.666  1.00  0.00     0.074 A 
ATOM     49  C   UNL A   1      43.697  32.183  28.281  1.00  0.00     0.031 C 
ATOM     50  C   UNL A   1      44.579  26.173  31.561  1.00  0.00     0.029 A 
ATOM     51  C   UNL A   1      43.941  27.234  32.334  1.00  0.00     0.049 A 
ATOM     52  H   UNL A   1      43.476  29.163  31.700  1.00  0.00     0.167 HD
ATOM     53  C   UNL A   1      42.723  33.233  30.300  1.00  0.00     0.034 A 
ATOM     54  C   UNL A   1      43.543  27.128  33.615  1.00  0.00     0.034 A 
ATOM     55  C   UNL A   1      42.250  33.208  31.658  1.00  0.00     0.049 A 
ATOM     56  C   UNL A   1      42.933  28.317  34.296  1.00  0.00     0.074 A 
ATOM     57  C   UNL A   1      41.641  34.223  32.374  1.00  0.00     0.029 A 
ATOM     58  N   UNL A   1      42.323  32.110  32.499  1.00  0.00    -0.354 N 
ATOM     59  N   UNL A   1      42.656  29.496  33.797  1.00  0.00    -0.248 NA
ATOM     60  C   UNL A   1      42.581  28.162  35.714  1.00  0.00     0.031 C 
ATOM     61  C   UNL A   1      41.340  33.735  33.651  1.00  0.00     0.029 A 
ATOM     62  C   UNL A   1      41.768  32.419  33.728  1.00  0.00     0.049 A 
ATOM     63  H   UNL A   1      42.713  31.238  32.258  1.00  0.00     0.167 HD
ATOM     64  C   UNL A   1      42.101  30.228  34.838  1.00  0.00     0.074 A 
ATOM     65  C   UNL A   1      42.049  29.347  35.988  1.00  0.00     0.031 C 
ATOM     66  C   UNL A   1      41.696  31.521  34.849  1.00  0.00     0.034 A 
BRANCH  53  67
ATOM     67  C   UNL A   1      42.540  34.506  29.520  1.00  0.00     0.023 A 
ATOM     68  C   UNL A   1      41.298  34.763  28.909  1.00  0.00     0.012 A 
ATOM     69  C   UNL A   1      43.558  35.478  29.466  1.00  0.00     0.148 A 
ATOM     70  C   UNL A   1      41.070  35.970  28.248  1.00  0.00     0.002 A 
ATOM     71  C   UNL A   1      43.317  36.688  28.825  1.00  0.00     0.091 A 
ATOM     72  F   UNL A   1      44.737  35.199  30.040  1.00  0.00    -0.205 F 
ATOM     73  C   UNL A   1      42.075  36.934  28.214  1.00  0.00     0.022 A 
BRANCH  71  74
ATOM     74  S   UNL A   1      44.526  38.015  28.760  1.00  0.00     0.127 S 
ATOM     75  O   UNL A   1      45.600  37.395  27.985  1.00  0.00    -0.237 OA
ATOM     76  O   UNL A   1      43.792  39.065  28.055  1.00  0.00    -0.237 OA
ATOM     77  O   UNL A   1      44.859  38.324  30.143  1.00  0.00    -0.744 OA
ENDBRANCH  71  74
ENDBRANCH  53  67
BRANCH  54  78
ATOM     78  C   UNL A   1      43.696  25.826  34.315  1.00  0.00     0.023 A 
ATOM     79  C   UNL A   1      42.591  24.959  34.398  1.00  0.00     0.012 A 
ATOM     80  C   UNL A   1      44.945  25.409  34.815  1.00  0.00     0.148 A 
ATOM     81  C   UNL A   1      42.727  23.694  34.968  1.00  0.00     0.002 A 
ATOM     82  C   UNL A   1      45.084  24.130  35.339  1.00  0.00     0.091 A 
ATOM     83  F   UNL A   1      45.976  26.260  34.732  1.00  0.00    -0.205 F 
ATOM     84  C   UNL A   1      43.974  23.275  35.426  1.00  0.00     0.022 A 
BRANCH  82  85
ATOM     85  S   UNL A   1      46.673  23.460  35.837  1.00  0.00     0.127 S 
ATOM     86  O   UNL A   1      47.455  23.602  34.612  1.00  0.00    -0.237 OA
ATOM     87  O   UNL A   1      47.054  24.367  36.921  1.00  0.00    -0.237 OA
ATOM     88  O   UNL A   1      46.410  22.092  36.262  1.00  0.00    -0.744 OA
ENDBRANCH  82  85
ENDBRANCH  54  78
BRANCH  66  89
ATOM     89  C   UNL A   1      41.184  32.074  36.148  1.00  0.00     0.023 A 
ATOM     90  C   UNL A   1      42.067  32.792  36.978  1.00  0.00     0.012 A 
ATOM     91  C   UNL A   1      39.828  31.957  36.507  1.00  0.00     0.148 A 
ATOM     92  C   UNL A   1      41.609  33.376  38.157  1.00  0.00     0.002 A 
ATOM     93  C   UNL A   1      39.373  32.568  37.670  1.00  0.00     0.091 A 
ATOM     94  F   UNL A   1      39.012  31.250  35.711  1.00  0.00    -0.205 F 
ATOM     95  C   UNL A   1      40.261  33.274  38.497  1.00  0.00     0.022 A 
BRANCH  93  96
ATOM     96  S   UNL A   1      37.641  32.542  38.147  1.00  0.00     0.127 S 
ATOM     97  O   UNL A   1      37.669  33.277  39.411  1.00  0.00    -0.237 OA
ATOM     98  O   UNL A   1      36.999  33.255  37.042  1.00  0.00    -0.237 OA
ATOM     99  O   UNL A   1      37.279  31.135  38.245  1.00  0.00    -0.744 OA
ENDBRANCH  93  96
ENDBRANCH  66  89
ENDBRANCH  40  41
ENDBRANCH  32  35
ENDBRANCH  30  31
ENDBRANCH  29  30
ENDBRANCH   1  29
TORSDOF 20
ENDMDL
