MODEL 1
REMARK VINA RESULT:     -12.4      0.000      0.000
REMARK SMILES C[C@H](C(=O)NCCCCNC(=O)c1ccc(-c2c3nc(c(-c4cccc(S(=O)(=O)[O-])c4F)c4ccc([nH]4)c(-c4cccc(S(=O)(=O)[O-])c4F)c4nc(c(-c5cccc(S(=O)(=O)[O-])c5F)c5ccc2[nH]5)C=C4)C=C3)cc1)c1ccc(C(=O)c2ccccc2)s1
REMARK SMILES IDX 7 1 6 2 5 3 3 4 4 5 2 7 1 8 76 9 77 10 88 11 78 12 79 13
REMARK SMILES IDX 80 14 81 15 82 16 83 17 87 18 84 19 86 20 85 21 8 22 9 23
REMARK SMILES IDX 10 24 11 25 12 27 13 28 14 29 75 30 15 31 74 32 16 33 17 34
REMARK SMILES IDX 18 35 68 36 19 37 73 38 67 39 69 40 20 41 72 42 66 43 65 44
REMARK SMILES IDX 21 46 53 47 33 48 52 49 34 50 37 51 51 52 70 53 35 54 36 55
REMARK SMILES IDX 50 57 71 58 38 59 22 60 23 61 31 62 24 63 26 64 32 65 25 66
REMARK SMILES IDX 27 67 28 68 29 69 30 70 54 71 55 72 63 73 56 74 58 75 64 76
REMARK SMILES IDX 57 77 59 78 60 79 61 80 62 81 39 82 40 83 48 84 41 85 43 86
REMARK SMILES IDX 49 87 42 88 44 89 45 90 46 91 47 92
REMARK H PARENT 5 6 10 26 69 45 37 56
REMARK Flexibility Score: inf
ROOT
ATOM      1  C   UNL A   1      31.974  28.017  27.211  1.00  0.00     0.023 C 
ENDROOT
BRANCH   1   2
ATOM      2  C   UNL A   1      33.266  27.651  26.493  1.00  0.00     0.116 C 
BRANCH   2   3
ATOM      3  N   UNL A   1      33.258  26.307  25.939  1.00  0.00    -0.356 N 
ATOM      4  C   UNL A   1      33.128  25.885  24.645  1.00  0.00     0.228 C 
ATOM      5  O   UNL A   1      33.374  24.696  24.414  1.00  0.00    -0.274 OA
ATOM      6  H   UNL A   1      33.363  25.587  26.601  1.00  0.00     0.163 HD
BRANCH   4   7
ATOM      7  C   UNL A   1      32.625  26.792  23.517  1.00  0.00     0.115 C 
ATOM      8  C   UNL A   1      33.272  26.382  22.189  1.00  0.00     0.024 C 
BRANCH   7   9
ATOM      9  C   UNL A   1      31.118  26.916  23.408  1.00  0.00     0.017 A 
ATOM     10  C   UNL A   1      30.153  26.147  24.039  1.00  0.00     0.017 A 
ATOM     11  S   UNL A   1      30.345  28.034  22.363  1.00  0.00    -0.136 S 
ATOM     12  C   UNL A   1      28.850  26.716  23.919  1.00  0.00     0.024 A 
ATOM     13  C   UNL A   1      28.867  27.900  23.203  1.00  0.00     0.075 A 
BRANCH  13  14
ATOM     14  C   UNL A   1      27.801  28.889  23.126  1.00  0.00     0.202 C 
ATOM     15  O   UNL A   1      26.644  28.646  23.469  1.00  0.00    -0.288 OA
BRANCH  14  16
ATOM     16  C   UNL A   1      28.126  30.314  22.838  1.00  0.00     0.023 A 
ATOM     17  C   UNL A   1      28.811  31.039  23.825  1.00  0.00     0.012 A 
ATOM     18  C   UNL A   1      27.756  30.940  21.644  1.00  0.00     0.012 A 
ATOM     19  C   UNL A   1      29.137  32.378  23.608  1.00  0.00     0.001 A 
ATOM     20  C   UNL A   1      28.095  32.278  21.427  1.00  0.00     0.001 A 
ATOM     21  C   UNL A   1      28.775  32.994  22.411  1.00  0.00     0.000 A 
ENDBRANCH  14  16
ENDBRANCH  13  14
ENDBRANCH   7   9
ENDBRANCH   4   7
ENDBRANCH   2   3
ENDBRANCH   1   2
BRANCH   1  22
ATOM     22  C   UNL A   1      31.421  29.407  26.892  1.00  0.00     0.023 C 
BRANCH  22  23
ATOM     23  C   UNL A   1      32.354  30.344  26.130  1.00  0.00     0.116 C 
BRANCH  23  24
ATOM     24  N   UNL A   1      32.270  31.730  26.569  1.00  0.00    -0.352 N 
ATOM     25  C   UNL A   1      33.123  32.447  27.375  1.00  0.00     0.251 C 
ATOM     26  H   UNL A   1      31.486  32.226  26.241  1.00  0.00     0.163 HD
ATOM     27  O   UNL A   1      32.823  33.588  27.719  1.00  0.00    -0.269 OA
BRANCH  25  28
ATOM     28  C   UNL A   1      34.394  31.850  27.844  1.00  0.00     0.039 A 
ATOM     29  C   UNL A   1      35.474  32.699  28.105  1.00  0.00     0.014 A 
ATOM     30  C   UNL A   1      34.525  30.473  28.041  1.00  0.00     0.014 A 
ATOM     31  C   UNL A   1      36.647  32.179  28.657  1.00  0.00     0.010 A 
ATOM     32  C   UNL A   1      35.668  29.967  28.656  1.00  0.00     0.010 A 
ATOM     33  C   UNL A   1      36.734  30.817  28.987  1.00  0.00    -0.014 A 
BRANCH  33  34
ATOM     34  C   UNL A   1      37.897  30.286  29.745  1.00  0.00     0.031 A 
ATOM     35  C   UNL A   1      38.162  30.721  31.159  1.00  0.00     0.074 A 
ATOM     36  C   UNL A   1      38.776  29.481  29.113  1.00  0.00     0.049 A 
ATOM     37  N   UNL A   1      39.148  30.387  31.951  1.00  0.00    -0.248 NA
ATOM     38  C   UNL A   1      37.213  31.675  31.754  1.00  0.00     0.031 C 
ATOM     39  C   UNL A   1      38.685  29.067  27.711  1.00  0.00     0.029 A 
ATOM     40  N   UNL A   1      39.934  28.891  29.556  1.00  0.00    -0.354 N 
ATOM     41  C   UNL A   1      38.962  31.113  33.120  1.00  0.00     0.074 A 
ATOM     42  C   UNL A   1      37.781  31.927  32.926  1.00  0.00     0.031 C 
ATOM     43  C   UNL A   1      39.736  28.291  27.410  1.00  0.00     0.029 A 
ATOM     44  C   UNL A   1      40.591  28.169  28.587  1.00  0.00     0.049 A 
ATOM     45  H   UNL A   1      40.263  28.977  30.480  1.00  0.00     0.167 HD
ATOM     46  C   UNL A   1      39.691  31.083  34.261  1.00  0.00     0.034 A 
ATOM     47  C   UNL A   1      41.752  27.487  28.635  1.00  0.00     0.034 A 
ATOM     48  C   UNL A   1      40.836  30.237  34.467  1.00  0.00     0.049 A 
ATOM     49  C   UNL A   1      42.503  27.416  29.936  1.00  0.00     0.074 A 
ATOM     50  C   UNL A   1      41.576  30.058  35.623  1.00  0.00     0.029 A 
ATOM     51  N   UNL A   1      41.412  29.435  33.495  1.00  0.00    -0.354 N 
ATOM     52  N   UNL A   1      42.207  27.966  31.089  1.00  0.00    -0.248 NA
ATOM     53  C   UNL A   1      43.726  26.601  29.955  1.00  0.00     0.031 C 
ATOM     54  C   UNL A   1      42.611  29.159  35.343  1.00  0.00     0.029 A 
ATOM     55  C   UNL A   1      42.504  28.764  34.020  1.00  0.00     0.049 A 
ATOM     56  H   UNL A   1      41.093  29.353  32.568  1.00  0.00     0.167 HD
ATOM     57  C   UNL A   1      43.186  27.539  31.978  1.00  0.00     0.074 A 
ATOM     58  C   UNL A   1      44.072  26.665  31.235  1.00  0.00     0.031 C 
ATOM     59  C   UNL A   1      43.347  27.855  33.286  1.00  0.00     0.034 A 
BRANCH  46  60
ATOM     60  C   UNL A   1      39.234  31.948  35.407  1.00  0.00     0.023 A 
ATOM     61  C   UNL A   1      39.476  33.337  35.366  1.00  0.00     0.012 A 
ATOM     62  C   UNL A   1      38.511  31.405  36.487  1.00  0.00     0.148 A 
ATOM     63  C   UNL A   1      39.035  34.166  36.395  1.00  0.00     0.002 A 
ATOM     64  C   UNL A   1      38.038  32.246  37.489  1.00  0.00     0.091 A 
ATOM     65  F   UNL A   1      38.308  30.080  36.520  1.00  0.00    -0.205 F 
ATOM     66  C   UNL A   1      38.307  33.623  37.449  1.00  0.00     0.022 A 
BRANCH  64  67
ATOM     67  S   UNL A   1      37.027  31.654  38.851  1.00  0.00     0.127 S 
ATOM     68  O   UNL A   1      37.940  31.805  39.983  1.00  0.00    -0.237 OA
ATOM     69  O   UNL A   1      35.909  32.598  38.840  1.00  0.00    -0.237 OA
ATOM     70  O   UNL A   1      36.666  30.284  38.516  1.00  0.00    -0.744 OA
ENDBRANCH  64  67
ENDBRANCH  46  60
BRANCH  47  71
ATOM     71  C   UNL A   1      42.230  26.753  27.430  1.00  0.00     0.023 A 
ATOM     72  C   UNL A   1      42.944  27.451  26.436  1.00  0.00     0.012 A 
ATOM     73  C   UNL A   1      42.026  25.368  27.283  1.00  0.00     0.148 A 
ATOM     74  C   UNL A   1      43.420  26.788  25.304  1.00  0.00     0.002 A 
ATOM     75  C   UNL A   1      42.551  24.704  26.181  1.00  0.00     0.091 A 
ATOM     76  F   UNL A   1      41.335  24.723  28.234  1.00  0.00    -0.205 F 
ATOM     77  C   UNL A   1      43.234  25.414  25.182  1.00  0.00     0.022 A 
BRANCH  75  78
ATOM     78  S   UNL A   1      42.478  22.916  26.012  1.00  0.00     0.127 S 
ATOM     79  O   UNL A   1      43.030  22.719  24.675  1.00  0.00    -0.237 OA
ATOM     80  O   UNL A   1      43.341  22.471  27.107  1.00  0.00    -0.237 OA
ATOM     81  O   UNL A   1      41.074  22.565  26.178  1.00  0.00    -0.744 OA
ENDBRANCH  75  78
ENDBRANCH  47  71
BRANCH  59  82
ATOM     82  C   UNL A   1      44.509  27.237  34.017  1.00  0.00     0.023 A 
ATOM     83  C   UNL A   1      45.773  27.858  33.970  1.00  0.00     0.012 A 
ATOM     84  C   UNL A   1      44.332  26.089  34.812  1.00  0.00     0.148 A 
ATOM     85  C   UNL A   1      46.849  27.329  34.680  1.00  0.00     0.002 A 
ATOM     86  C   UNL A   1      45.398  25.593  35.555  1.00  0.00     0.091 A 
ATOM     87  F   UNL A   1      43.127  25.499  34.827  1.00  0.00    -0.205 F 
ATOM     88  C   UNL A   1      46.658  26.206  35.482  1.00  0.00     0.022 A 
BRANCH  86  89
ATOM     89  S   UNL A   1      45.218  24.208  36.685  1.00  0.00     0.127 S 
ATOM     90  O   UNL A   1      46.413  24.343  37.516  1.00  0.00    -0.237 OA
ATOM     91  O   UNL A   1      43.962  24.523  37.367  1.00  0.00    -0.237 OA
ATOM     92  O   UNL A   1      45.165  23.016  35.849  1.00  0.00    -0.744 OA
ENDBRANCH  86  89
ENDBRANCH  59  82
ENDBRANCH  33  34
ENDBRANCH  25  28
ENDBRANCH  23  24
ENDBRANCH  22  23
ENDBRANCH   1  22
TORSDOF 17
ENDMDL
MODEL 2
REMARK VINA RESULT:     -12.3      2.604      4.571
REMARK SMILES C[C@H](C(=O)NCCCCNC(=O)c1ccc(-c2c3nc(c(-c4cccc(S(=O)(=O)[O-])c4F)c4ccc([nH]4)c(-c4cccc(S(=O)(=O)[O-])c4F)c4nc(c(-c5cccc(S(=O)(=O)[O-])c5F)c5ccc2[nH]5)C=C4)C=C3)cc1)c1ccc(C(=O)c2ccccc2)s1
REMARK SMILES IDX 7 1 6 2 5 3 3 4 4 5 2 7 1 8 76 9 77 10 88 11 78 12 79 13
REMARK SMILES IDX 80 14 81 15 82 16 83 17 87 18 84 19 86 20 85 21 8 22 9 23
REMARK SMILES IDX 10 24 11 25 12 27 13 28 14 29 75 30 15 31 74 32 16 33 17 34
REMARK SMILES IDX 18 35 68 36 19 37 73 38 67 39 69 40 20 41 72 42 66 43 65 44
REMARK SMILES IDX 21 46 53 47 33 48 52 49 34 50 37 51 51 52 70 53 35 54 36 55
REMARK SMILES IDX 50 57 71 58 38 59 22 60 23 61 31 62 24 63 26 64 32 65 25 66
REMARK SMILES IDX 27 67 28 68 29 69 30 70 54 71 55 72 63 73 56 74 58 75 64 76
REMARK SMILES IDX 57 77 59 78 60 79 61 80 62 81 39 82 40 83 48 84 41 85 43 86
REMARK SMILES IDX 49 87 42 88 44 89 45 90 46 91 47 92
REMARK H PARENT 5 6 10 26 69 45 37 56
REMARK Flexibility Score: inf
ROOT
ATOM      1  C   UNL A   1      32.963  29.535  24.849  1.00  0.00     0.023 C 
ENDROOT
BRANCH   1   2
ATOM      2  C   UNL A   1      33.226  29.060  23.428  1.00  0.00     0.116 C 
BRANCH   2   3
ATOM      3  N   UNL A   1      32.109  29.288  22.526  1.00  0.00    -0.356 N 
ATOM      4  C   UNL A   1      30.852  28.751  22.522  1.00  0.00     0.228 C 
ATOM      5  O   UNL A   1      30.017  29.276  21.777  1.00  0.00    -0.274 OA
ATOM      6  H   UNL A   1      32.285  29.932  21.804  1.00  0.00     0.163 HD
BRANCH   4   7
ATOM      7  C   UNL A   1      30.474  27.504  23.329  1.00  0.00     0.115 C 
ATOM      8  C   UNL A   1      28.949  27.358  23.382  1.00  0.00     0.024 C 
BRANCH   7   9
ATOM      9  C   UNL A   1      31.159  26.221  22.900  1.00  0.00     0.017 A 
ATOM     10  C   UNL A   1      31.933  26.007  21.770  1.00  0.00     0.017 A 
ATOM     11  S   UNL A   1      30.998  24.744  23.754  1.00  0.00    -0.136 S 
ATOM     12  C   UNL A   1      32.636  24.767  21.828  1.00  0.00     0.024 A 
ATOM     13  C   UNL A   1      32.377  24.080  23.001  1.00  0.00     0.075 A 
BRANCH  13  14
ATOM     14  C   UNL A   1      33.119  22.944  23.530  1.00  0.00     0.202 C 
ATOM     15  O   UNL A   1      32.756  21.780  23.367  1.00  0.00    -0.288 OA
BRANCH  14  16
ATOM     16  C   UNL A   1      34.480  23.145  24.100  1.00  0.00     0.023 A 
ATOM     17  C   UNL A   1      35.580  22.916  23.259  1.00  0.00     0.012 A 
ATOM     18  C   UNL A   1      34.688  23.527  25.429  1.00  0.00     0.012 A 
ATOM     19  C   UNL A   1      36.877  23.087  23.743  1.00  0.00     0.001 A 
ATOM     20  C   UNL A   1      35.988  23.707  25.905  1.00  0.00     0.001 A 
ATOM     21  C   UNL A   1      37.078  23.478  25.066  1.00  0.00     0.000 A 
ENDBRANCH  14  16
ENDBRANCH  13  14
ENDBRANCH   7   9
ENDBRANCH   4   7
ENDBRANCH   2   3
ENDBRANCH   1   2
BRANCH   1  22
ATOM     22  C   UNL A   1      33.069  28.457  25.929  1.00  0.00     0.023 C 
BRANCH  22  23
ATOM     23  C   UNL A   1      33.155  28.953  27.370  1.00  0.00     0.116 C 
BRANCH  23  24
ATOM     24  N   UNL A   1      33.394  30.385  27.476  1.00  0.00    -0.352 N 
ATOM     25  C   UNL A   1      34.505  31.057  27.931  1.00  0.00     0.251 C 
ATOM     26  H   UNL A   1      32.650  30.957  27.179  1.00  0.00     0.163 HD
ATOM     27  O   UNL A   1      34.475  32.281  28.042  1.00  0.00    -0.269 OA
BRANCH  25  28
ATOM     28  C   UNL A   1      35.731  30.317  28.304  1.00  0.00     0.039 A 
ATOM     29  C   UNL A   1      36.804  30.308  27.408  1.00  0.00     0.014 A 
ATOM     30  C   UNL A   1      35.837  29.649  29.527  1.00  0.00     0.014 A 
ATOM     31  C   UNL A   1      38.014  29.716  27.780  1.00  0.00     0.010 A 
ATOM     32  C   UNL A   1      37.064  29.122  29.925  1.00  0.00     0.010 A 
ATOM     33  C   UNL A   1      38.170  29.166  29.063  1.00  0.00    -0.014 A 
BRANCH  33  34
ATOM     34  C   UNL A   1      39.500  28.705  29.540  1.00  0.00     0.031 A 
ATOM     35  C   UNL A   1      40.226  29.438  30.633  1.00  0.00     0.074 A 
ATOM     36  C   UNL A   1      40.099  27.674  28.910  1.00  0.00     0.049 A 
ATOM     37  N   UNL A   1      41.406  29.196  31.142  1.00  0.00    -0.248 NA
ATOM     38  C   UNL A   1      39.554  30.612  31.212  1.00  0.00     0.031 C 
ATOM     39  C   UNL A   1      39.542  26.944  27.768  1.00  0.00     0.029 A 
ATOM     40  N   UNL A   1      41.320  27.080  29.116  1.00  0.00    -0.354 N 
ATOM     41  C   UNL A   1      41.635  30.201  32.073  1.00  0.00     0.074 A 
ATOM     42  C   UNL A   1      40.481  31.074  32.040  1.00  0.00     0.031 C 
ATOM     43  C   UNL A   1      40.413  26.001  27.378  1.00  0.00     0.029 A 
ATOM     44  C   UNL A   1      41.601  26.072  28.223  1.00  0.00     0.049 A 
ATOM     45  H   UNL A   1      41.935  27.350  29.836  1.00  0.00     0.167 HD
ATOM     46  C   UNL A   1      42.695  30.367  32.898  1.00  0.00     0.034 A 
ATOM     47  C   UNL A   1      42.692  25.293  28.094  1.00  0.00     0.034 A 
ATOM     48  C   UNL A   1      43.818  29.470  32.962  1.00  0.00     0.049 A 
ATOM     49  C   UNL A   1      43.825  25.455  29.070  1.00  0.00     0.074 A 
ATOM     50  C   UNL A   1      44.890  29.494  33.838  1.00  0.00     0.029 A 
ATOM     51  N   UNL A   1      44.020  28.393  32.113  1.00  0.00    -0.354 N 
ATOM     52  N   UNL A   1      43.939  26.300  30.066  1.00  0.00    -0.248 NA
ATOM     53  C   UNL A   1      44.962  24.533  28.931  1.00  0.00     0.031 C 
ATOM     54  C   UNL A   1      45.748  28.440  33.506  1.00  0.00     0.029 A 
ATOM     55  C   UNL A   1      45.202  27.749  32.436  1.00  0.00     0.049 A 
ATOM     56  H   UNL A   1      43.413  28.126  31.386  1.00  0.00     0.167 HD
ATOM     57  C   UNL A   1      45.141  25.992  30.692  1.00  0.00     0.074 A 
ATOM     58  C   UNL A   1      45.708  24.867  29.975  1.00  0.00     0.031 C 
ATOM     59  C   UNL A   1      45.731  26.598  31.751  1.00  0.00     0.034 A 
BRANCH  46  60
ATOM     60  C   UNL A   1      42.665  31.532  33.852  1.00  0.00     0.023 A 
ATOM     61  C   UNL A   1      43.160  32.784  33.433  1.00  0.00     0.012 A 
ATOM     62  C   UNL A   1      42.090  31.412  35.133  1.00  0.00     0.148 A 
ATOM     63  C   UNL A   1      43.113  33.888  34.282  1.00  0.00     0.002 A 
ATOM     64  C   UNL A   1      42.009  32.528  35.958  1.00  0.00     0.091 A 
ATOM     65  F   UNL A   1      41.643  30.209  35.523  1.00  0.00    -0.205 F 
ATOM     66  C   UNL A   1      42.529  33.763  35.539  1.00  0.00     0.022 A 
BRANCH  64  67
ATOM     67  S   UNL A   1      41.208  32.487  37.566  1.00  0.00     0.127 S 
ATOM     68  O   UNL A   1      41.226  33.900  37.940  1.00  0.00    -0.237 OA
ATOM     69  O   UNL A   1      39.883  31.959  37.238  1.00  0.00    -0.237 OA
ATOM     70  O   UNL A   1      42.021  31.609  38.396  1.00  0.00    -0.744 OA
ENDBRANCH  64  67
ENDBRANCH  46  60
BRANCH  47  71
ATOM     71  C   UNL A   1      42.728  24.236  27.044  1.00  0.00     0.023 A 
ATOM     72  C   UNL A   1      43.435  24.476  25.849  1.00  0.00     0.012 A 
ATOM     73  C   UNL A   1      42.110  22.986  27.237  1.00  0.00     0.148 A 
ATOM     74  C   UNL A   1      43.502  23.500  24.854  1.00  0.00     0.002 A 
ATOM     75  C   UNL A   1      42.227  21.999  26.265  1.00  0.00     0.091 A 
ATOM     76  F   UNL A   1      41.432  22.782  28.375  1.00  0.00    -0.205 F 
ATOM     77  C   UNL A   1      42.908  22.258  25.067  1.00  0.00     0.022 A 
BRANCH  75  78
ATOM     78  S   UNL A   1      41.612  20.329  26.514  1.00  0.00     0.127 S 
ATOM     79  O   UNL A   1      40.166  20.534  26.480  1.00  0.00    -0.237 OA
ATOM     80  O   UNL A   1      42.163  19.626  25.355  1.00  0.00    -0.237 OA
ATOM     81  O   UNL A   1      42.162  19.897  27.792  1.00  0.00    -0.744 OA
ENDBRANCH  75  78
ENDBRANCH  47  71
BRANCH  59  82
ATOM     82  C   UNL A   1      47.048  26.046  32.228  1.00  0.00     0.023 A 
ATOM     83  C   UNL A   1      48.248  26.529  31.671  1.00  0.00     0.012 A 
ATOM     84  C   UNL A   1      47.101  25.110  33.278  1.00  0.00     0.148 A 
ATOM     85  C   UNL A   1      49.480  26.068  32.133  1.00  0.00     0.002 A 
ATOM     86  C   UNL A   1      48.332  24.689  33.766  1.00  0.00     0.091 A 
ATOM     87  F   UNL A   1      45.946  24.646  33.781  1.00  0.00    -0.205 F 
ATOM     88  C   UNL A   1      49.522  25.159  33.188  1.00  0.00     0.022 A 
BRANCH  86  89
ATOM     89  S   UNL A   1      48.480  23.593  35.182  1.00  0.00     0.127 S 
ATOM     90  O   UNL A   1      49.930  23.481  35.323  1.00  0.00    -0.237 OA
ATOM     91  O   UNL A   1      47.822  24.360  36.241  1.00  0.00    -0.237 OA
ATOM     92  O   UNL A   1      47.788  22.366  34.810  1.00  0.00    -0.744 OA
ENDBRANCH  86  89
ENDBRANCH  59  82
ENDBRANCH  33  34
ENDBRANCH  25  28
ENDBRANCH  23  24
ENDBRANCH  22  23
ENDBRANCH   1  22
TORSDOF 17
ENDMDL
MODEL 3
REMARK VINA RESULT:     -12.3      2.018      8.044
REMARK SMILES C[C@H](C(=O)NCCCCNC(=O)c1ccc(-c2c3nc(c(-c4cccc(S(=O)(=O)[O-])c4F)c4ccc([nH]4)c(-c4cccc(S(=O)(=O)[O-])c4F)c4nc(c(-c5cccc(S(=O)(=O)[O-])c5F)c5ccc2[nH]5)C=C4)C=C3)cc1)c1ccc(C(=O)c2ccccc2)s1
REMARK SMILES IDX 7 1 6 2 5 3 3 4 4 5 2 7 1 8 76 9 77 10 88 11 78 12 79 13
REMARK SMILES IDX 80 14 81 15 82 16 83 17 87 18 84 19 86 20 85 21 8 22 9 23
REMARK SMILES IDX 10 24 11 25 12 27 13 28 14 29 75 30 15 31 74 32 16 33 17 34
REMARK SMILES IDX 18 35 68 36 19 37 73 38 67 39 69 40 20 41 72 42 66 43 65 44
REMARK SMILES IDX 21 46 53 47 33 48 52 49 34 50 37 51 51 52 70 53 35 54 36 55
REMARK SMILES IDX 50 57 71 58 38 59 22 60 23 61 31 62 24 63 26 64 32 65 25 66
REMARK SMILES IDX 27 67 28 68 29 69 30 70 54 71 55 72 63 73 56 74 58 75 64 76
REMARK SMILES IDX 57 77 59 78 60 79 61 80 62 81 39 82 40 83 48 84 41 85 43 86
REMARK SMILES IDX 49 87 42 88 44 89 45 90 46 91 47 92
REMARK H PARENT 5 6 10 26 69 45 37 56
REMARK Flexibility Score: inf
ROOT
ATOM      1  C   UNL A   1      32.353  29.719  27.283  1.00  0.00     0.023 C 
ENDROOT
BRANCH   1   2
ATOM      2  C   UNL A   1      31.645  28.686  26.417  1.00  0.00     0.116 C 
BRANCH   2   3
ATOM      3  N   UNL A   1      32.262  27.371  26.468  1.00  0.00    -0.356 N 
ATOM      4  C   UNL A   1      32.735  26.576  25.461  1.00  0.00     0.228 C 
ATOM      5  O   UNL A   1      33.413  25.595  25.789  1.00  0.00    -0.274 OA
ATOM      6  H   UNL A   1      32.354  26.992  27.371  1.00  0.00     0.163 HD
BRANCH   4   7
ATOM      7  C   UNL A   1      32.395  26.808  23.985  1.00  0.00     0.115 C 
ATOM      8  C   UNL A   1      33.119  25.776  23.113  1.00  0.00     0.024 C 
BRANCH   7   9
ATOM      9  C   UNL A   1      30.916  26.893  23.665  1.00  0.00     0.017 A 
ATOM     10  C   UNL A   1      29.906  26.038  24.077  1.00  0.00     0.017 A 
ATOM     11  S   UNL A   1      30.251  28.077  22.619  1.00  0.00    -0.136 S 
ATOM     12  C   UNL A   1      28.609  26.573  23.815  1.00  0.00     0.024 A 
ATOM     13  C   UNL A   1      28.675  27.818  23.216  1.00  0.00     0.075 A 
BRANCH  13  14
ATOM     14  C   UNL A   1      27.588  28.774  23.068  1.00  0.00     0.202 C 
ATOM     15  O   UNL A   1      26.443  28.543  23.457  1.00  0.00    -0.288 OA
BRANCH  14  16
ATOM     16  C   UNL A   1      27.877  30.172  22.642  1.00  0.00     0.023 A 
ATOM     17  C   UNL A   1      27.929  30.437  21.265  1.00  0.00     0.012 A 
ATOM     18  C   UNL A   1      28.114  31.202  23.559  1.00  0.00     0.012 A 
ATOM     19  C   UNL A   1      28.199  31.728  20.812  1.00  0.00     0.001 A 
ATOM     20  C   UNL A   1      28.373  32.494  23.099  1.00  0.00     0.001 A 
ATOM     21  C   UNL A   1      28.424  32.752  21.730  1.00  0.00     0.000 A 
ENDBRANCH  14  16
ENDBRANCH  13  14
ENDBRANCH   7   9
ENDBRANCH   4   7
ENDBRANCH   2   3
ENDBRANCH   1   2
BRANCH   1  22
ATOM     22  C   UNL A   1      32.107  31.177  26.893  1.00  0.00     0.023 C 
BRANCH  22  23
ATOM     23  C   UNL A   1      33.242  32.154  27.188  1.00  0.00     0.116 C 
BRANCH  23  24
ATOM     24  N   UNL A   1      32.782  33.496  27.515  1.00  0.00    -0.352 N 
ATOM     25  C   UNL A   1      33.212  34.354  28.501  1.00  0.00     0.251 C 
ATOM     26  H   UNL A   1      32.056  33.840  26.947  1.00  0.00     0.163 HD
ATOM     27  O   UNL A   1      32.622  35.416  28.685  1.00  0.00    -0.269 OA
BRANCH  25  28
ATOM     28  C   UNL A   1      34.371  34.002  29.352  1.00  0.00     0.039 A 
ATOM     29  C   UNL A   1      34.147  33.241  30.503  1.00  0.00     0.014 A 
ATOM     30  C   UNL A   1      35.668  34.400  29.020  1.00  0.00     0.014 A 
ATOM     31  C   UNL A   1      35.232  32.797  31.263  1.00  0.00     0.010 A 
ATOM     32  C   UNL A   1      36.753  33.899  29.737  1.00  0.00     0.010 A 
ATOM     33  C   UNL A   1      36.547  33.077  30.856  1.00  0.00    -0.014 A 
BRANCH  33  34
ATOM     34  C   UNL A   1      37.709  32.456  31.542  1.00  0.00     0.031 A 
ATOM     35  C   UNL A   1      38.474  31.331  30.903  1.00  0.00     0.074 A 
ATOM     36  C   UNL A   1      38.011  32.846  32.798  1.00  0.00     0.049 A 
ATOM     37  N   UNL A   1      39.487  30.652  31.377  1.00  0.00    -0.248 NA
ATOM     38  C   UNL A   1      38.030  30.892  29.571  1.00  0.00     0.031 C 
ATOM     39  C   UNL A   1      37.280  33.857  33.566  1.00  0.00     0.029 A 
ATOM     40  N   UNL A   1      38.990  32.421  33.661  1.00  0.00    -0.354 N 
ATOM     41  C   UNL A   1      39.779  29.686  30.423  1.00  0.00     0.074 A 
ATOM     42  C   UNL A   1      38.820  29.849  29.352  1.00  0.00     0.031 C 
ATOM     43  C   UNL A   1      37.836  33.976  34.781  1.00  0.00     0.029 A 
ATOM     44  C   UNL A   1      38.946  33.035  34.891  1.00  0.00     0.049 A 
ATOM     45  H   UNL A   1      39.660  31.740  33.422  1.00  0.00     0.167 HD
ATOM     46  C   UNL A   1      40.773  28.766  30.426  1.00  0.00     0.034 A 
ATOM     47  C   UNL A   1      39.711  32.862  35.987  1.00  0.00     0.034 A 
ATOM     48  C   UNL A   1      41.754  28.639  31.470  1.00  0.00     0.049 A 
ATOM     49  C   UNL A   1      40.850  31.881  35.935  1.00  0.00     0.074 A 
ATOM     50  C   UNL A   1      42.862  27.809  31.513  1.00  0.00     0.029 A 
ATOM     51  N   UNL A   1      41.744  29.354  32.657  1.00  0.00    -0.354 N 
ATOM     52  N   UNL A   1      41.222  31.104  34.947  1.00  0.00    -0.248 NA
ATOM     53  C   UNL A   1      41.698  31.781  37.132  1.00  0.00     0.031 C 
ATOM     54  C   UNL A   1      43.511  28.012  32.736  1.00  0.00     0.029 A 
ATOM     55  C   UNL A   1      42.819  28.980  33.445  1.00  0.00     0.049 A 
ATOM     56  H   UNL A   1      41.071  30.028  32.905  1.00  0.00     0.167 HD
ATOM     57  C   UNL A   1      42.365  30.447  35.389  1.00  0.00     0.074 A 
ATOM     58  C   UNL A   1      42.636  30.935  36.726  1.00  0.00     0.031 C 
ATOM     59  C   UNL A   1      43.110  29.511  34.752  1.00  0.00     0.034 A 
BRANCH  46  60
ATOM     60  C   UNL A   1      40.891  27.860  29.228  1.00  0.00     0.023 A 
ATOM     61  C   UNL A   1      40.127  26.677  29.177  1.00  0.00     0.012 A 
ATOM     62  C   UNL A   1      41.702  28.207  28.129  1.00  0.00     0.148 A 
ATOM     63  C   UNL A   1      40.190  25.836  28.066  1.00  0.00     0.002 A 
ATOM     64  C   UNL A   1      41.727  27.385  27.008  1.00  0.00     0.091 A 
ATOM     65  F   UNL A   1      42.438  29.325  28.204  1.00  0.00    -0.205 F 
ATOM     66  C   UNL A   1      40.981  26.196  26.979  1.00  0.00     0.022 A 
BRANCH  64  67
ATOM     67  S   UNL A   1      42.656  27.797  25.526  1.00  0.00     0.127 S 
ATOM     68  O   UNL A   1      42.459  26.599  24.711  1.00  0.00    -0.237 OA
ATOM     69  O   UNL A   1      41.954  28.986  25.041  1.00  0.00    -0.237 OA
ATOM     70  O   UNL A   1      44.023  28.039  25.965  1.00  0.00    -0.744 OA
ENDBRANCH  64  67
ENDBRANCH  46  60
BRANCH  47  71
ATOM     71  C   UNL A   1      39.468  33.694  37.199  1.00  0.00     0.023 A 
ATOM     72  C   UNL A   1      39.904  35.034  37.213  1.00  0.00     0.012 A 
ATOM     73  C   UNL A   1      38.772  33.187  38.312  1.00  0.00     0.148 A 
ATOM     74  C   UNL A   1      39.675  35.845  38.325  1.00  0.00     0.002 A 
ATOM     75  C   UNL A   1      38.500  34.016  39.394  1.00  0.00     0.091 A 
ATOM     76  F   UNL A   1      38.376  31.907  38.284  1.00  0.00    -0.205 F 
ATOM     77  C   UNL A   1      38.964  35.339  39.410  1.00  0.00     0.022 A 
BRANCH  75  78
ATOM     78  S   UNL A   1      37.473  33.490  40.772  1.00  0.00     0.127 S 
ATOM     79  O   UNL A   1      37.351  34.724  41.543  1.00  0.00    -0.237 OA
ATOM     80  O   UNL A   1      36.249  33.063  40.094  1.00  0.00    -0.237 OA
ATOM     81  O   UNL A   1      38.207  32.409  41.416  1.00  0.00    -0.744 OA
ENDBRANCH  75  78
ENDBRANCH  47  71
BRANCH  59  82
ATOM     82  C   UNL A   1      44.312  28.963  35.476  1.00  0.00     0.023 A 
ATOM     83  C   UNL A   1      45.561  29.598  35.333  1.00  0.00     0.012 A 
ATOM     84  C   UNL A   1      44.187  27.871  36.355  1.00  0.00     0.148 A 
ATOM     85  C   UNL A   1      46.675  29.137  36.034  1.00  0.00     0.002 A 
ATOM     86  C   UNL A   1      45.290  27.445  37.086  1.00  0.00     0.091 A 
ATOM     87  F   UNL A   1      42.995  27.266  36.461  1.00  0.00    -0.205 F 
ATOM     88  C   UNL A   1      46.536  28.069  36.919  1.00  0.00     0.022 A 
BRANCH  86  89
ATOM     89  S   UNL A   1      45.181  26.140  38.316  1.00  0.00     0.127 S 
ATOM     90  O   UNL A   1      44.170  26.672  39.228  1.00  0.00    -0.237 OA
ATOM     91  O   UNL A   1      44.740  24.995  37.518  1.00  0.00    -0.237 OA
ATOM     92  O   UNL A   1      46.520  26.004  38.874  1.00  0.00    -0.744 OA
ENDBRANCH  86  89
ENDBRANCH  59  82
ENDBRANCH  33  34
ENDBRANCH  25  28
ENDBRANCH  23  24
ENDBRANCH  22  23
ENDBRANCH   1  22
TORSDOF 17
ENDMDL
