MODEL 1
REMARK VINA RESULT:     -11.5      0.000      0.000
REMARK SMILES COc1ccccc1CC(=O)NC[C@H]1CC[C@H](C(=O)NCCCCNC(=O)c2ccc(-c3c4nc(c(-c5cccc(S(=O)(=O)[O-])c5F)c5ccc([nH]5)c(-c5cccc(S(=O)(=O)[O-])c5F)c5nc(c(-c6cccc(S(=O)(=O)[O-])c6F)c6ccc3[nH]6)C=C5)C=C4)cc2)O1
REMARK SMILES IDX 21 1 20 2 18 3 19 4 17 6 14 7 15 8 91 9 16 10 13 11 12 12
REMARK SMILES IDX 10 13 11 14 9 16 8 17 3 18 4 19 5 20 7 21 6 22 2 23 1 24
REMARK SMILES IDX 22 25 23 26 24 27 25 28 26 29 27 31 28 32 29 33 90 34 30 35
REMARK SMILES IDX 89 36 31 37 32 38 33 39 83 40 34 41 88 42 82 43 84 44 35 45
REMARK SMILES IDX 87 46 81 47 80 48 36 50 68 51 48 52 67 53 49 54 52 55 66 56
REMARK SMILES IDX 85 57 50 58 51 59 65 61 86 62 53 63 37 64 38 65 46 66 39 67
REMARK SMILES IDX 41 68 47 69 40 70 42 71 43 72 44 73 45 74 69 75 70 76 78 77
REMARK SMILES IDX 71 78 73 79 79 80 72 81 74 82 75 83 76 84 77 85 54 86 55 87
REMARK SMILES IDX 63 88 56 89 58 90 64 91 57 92 59 93 60 94 61 95 62 96
REMARK H PARENT 20 5 12 15 25 30 84 49 52 60
REMARK Flexibility Score: inf
ROOT
ATOM      1  C   UNL A   1      32.621  29.864  25.866  1.00  0.00     0.116 C 
ENDROOT
BRANCH   1   2
ATOM      2  N   UNL A   1      33.293  29.701  24.599  1.00  0.00    -0.354 N 
ATOM      3  C   UNL A   1      33.242  28.653  23.728  1.00  0.00     0.249 C 
ATOM      4  O   UNL A   1      33.961  28.704  22.726  1.00  0.00    -0.272 OA
ATOM      5  H   UNL A   1      33.869  30.451  24.326  1.00  0.00     0.163 HD
BRANCH   3   6
ATOM      6  C   UNL A   1      32.365  27.411  24.007  1.00  0.00     0.207 C 
ATOM      7  C   UNL A   1      31.862  25.446  22.826  1.00  0.00     0.138 C 
ATOM      8  C   UNL A   1      30.718  26.410  22.564  1.00  0.00     0.037 C 
ATOM      9  O   UNL A   1      32.865  26.154  23.564  1.00  0.00    -0.363 OA
ATOM     10  C   UNL A   1      30.932  27.553  23.525  1.00  0.00     0.045 C 
BRANCH   7  11
ATOM     11  C   UNL A   1      31.416  24.180  23.571  1.00  0.00     0.147 C 
BRANCH  11  12
ATOM     12  N   UNL A   1      31.461  23.003  22.714  1.00  0.00    -0.353 N 
ATOM     13  C   UNL A   1      32.106  21.820  22.925  1.00  0.00     0.224 C 
ATOM     14  O   UNL A   1      32.082  20.963  22.038  1.00  0.00    -0.275 OA
ATOM     15  H   UNL A   1      30.958  23.070  21.870  1.00  0.00     0.163 HD
BRANCH  13  16
ATOM     16  C   UNL A   1      32.779  21.557  24.258  1.00  0.00     0.139 C 
BRANCH  16  17
ATOM     17  C   UNL A   1      34.219  22.004  24.334  1.00  0.00     0.003 A 
ATOM     18  C   UNL A   1      34.999  21.826  25.486  1.00  0.00     0.122 A 
ATOM     19  C   UNL A   1      36.328  22.257  25.531  1.00  0.00     0.047 A 
ATOM     20  C   UNL A   1      36.900  22.870  24.416  1.00  0.00     0.004 A 
ATOM     21  C   UNL A   1      34.818  22.608  23.214  1.00  0.00     0.008 A 
ATOM     22  C   UNL A   1      36.144  23.047  23.260  1.00  0.00     0.001 A 
BRANCH  18  23
ATOM     23  O   UNL A   1      34.444  21.375  26.656  1.00  0.00    -0.496 OA
ATOM     24  C   UNL A   1      34.034  22.461  27.481  1.00  0.00     0.278 C 
ENDBRANCH  18  23
ENDBRANCH  16  17
ENDBRANCH  13  16
ENDBRANCH  11  12
ENDBRANCH   7  11
ENDBRANCH   3   6
ENDBRANCH   1   2
BRANCH   1  25
ATOM     25  C   UNL A   1      31.329  30.663  25.706  1.00  0.00     0.023 C 
BRANCH  25  26
ATOM     26  C   UNL A   1      31.251  31.909  26.584  1.00  0.00     0.023 C 
BRANCH  26  27
ATOM     27  C   UNL A   1      32.597  32.547  26.902  1.00  0.00     0.116 C 
BRANCH  27  28
ATOM     28  N   UNL A   1      32.489  33.877  27.490  1.00  0.00    -0.352 N 
ATOM     29  C   UNL A   1      33.322  34.451  28.420  1.00  0.00     0.251 C 
ATOM     30  H   UNL A   1      31.731  34.428  27.186  1.00  0.00     0.163 HD
ATOM     31  O   UNL A   1      33.064  35.550  28.902  1.00  0.00    -0.269 OA
BRANCH  29  32
ATOM     32  C   UNL A   1      34.507  33.692  28.859  1.00  0.00     0.039 A 
ATOM     33  C   UNL A   1      35.774  34.243  28.662  1.00  0.00     0.014 A 
ATOM     34  C   UNL A   1      34.349  32.487  29.549  1.00  0.00     0.014 A 
ATOM     35  C   UNL A   1      36.886  33.616  29.222  1.00  0.00     0.010 A 
ATOM     36  C   UNL A   1      35.447  31.907  30.168  1.00  0.00     0.010 A 
ATOM     37  C   UNL A   1      36.725  32.464  30.011  1.00  0.00    -0.014 A 
BRANCH  37  38
ATOM     38  C   UNL A   1      37.879  31.831  30.694  1.00  0.00     0.031 A 
ATOM     39  C   UNL A   1      38.687  30.779  29.986  1.00  0.00     0.074 A 
ATOM     40  C   UNL A   1      38.129  32.124  31.985  1.00  0.00     0.049 A 
ATOM     41  N   UNL A   1      39.689  30.071  30.435  1.00  0.00    -0.248 NA
ATOM     42  C   UNL A   1      38.294  30.454  28.603  1.00  0.00     0.031 C 
ATOM     43  C   UNL A   1      37.349  33.052  32.810  1.00  0.00     0.029 A 
ATOM     44  N   UNL A   1      39.089  31.649  32.842  1.00  0.00    -0.354 N 
ATOM     45  C   UNL A   1      40.016  29.189  29.413  1.00  0.00     0.074 A 
ATOM     46  C   UNL A   1      39.088  29.429  28.330  1.00  0.00     0.031 C 
ATOM     47  C   UNL A   1      37.861  33.073  34.052  1.00  0.00     0.029 A 
ATOM     48  C   UNL A   1      38.991  32.153  34.119  1.00  0.00     0.049 A 
ATOM     49  H   UNL A   1      39.784  31.008  32.569  1.00  0.00     0.167 HD
ATOM     50  C   UNL A   1      41.022  28.284  29.366  1.00  0.00     0.034 A 
ATOM     51  C   UNL A   1      39.729  31.901  35.217  1.00  0.00     0.034 A 
ATOM     52  C   UNL A   1      41.985  28.100  30.418  1.00  0.00     0.049 A 
ATOM     53  C   UNL A   1      40.896  30.955  35.109  1.00  0.00     0.074 A 
ATOM     54  C   UNL A   1      43.113  27.302  30.418  1.00  0.00     0.029 A 
ATOM     55  N   UNL A   1      41.929  28.722  31.654  1.00  0.00    -0.354 N 
ATOM     56  N   UNL A   1      41.312  30.277  34.067  1.00  0.00    -0.248 NA
ATOM     57  C   UNL A   1      41.720  30.772  36.312  1.00  0.00     0.031 C 
ATOM     58  C   UNL A   1      43.737  27.432  31.665  1.00  0.00     0.029 A 
ATOM     59  C   UNL A   1      43.001  28.321  32.433  1.00  0.00     0.049 A 
ATOM     60  H   UNL A   1      41.230  29.355  31.939  1.00  0.00     0.167 HD
ATOM     61  C   UNL A   1      42.462  29.613  34.478  1.00  0.00     0.074 A 
ATOM     62  C   UNL A   1      42.691  29.991  35.857  1.00  0.00     0.031 C 
ATOM     63  C   UNL A   1      43.248  28.754  33.782  1.00  0.00     0.034 A 
BRANCH  50  64
ATOM     64  C   UNL A   1      41.176  27.472  28.109  1.00  0.00     0.023 A 
ATOM     65  C   UNL A   1      41.631  28.099  26.931  1.00  0.00     0.012 A 
ATOM     66  C   UNL A   1      40.931  26.085  28.104  1.00  0.00     0.148 A 
ATOM     67  C   UNL A   1      41.812  27.366  25.760  1.00  0.00     0.002 A 
ATOM     68  C   UNL A   1      41.154  25.353  26.944  1.00  0.00     0.091 A 
ATOM     69  F   UNL A   1      40.475  25.512  29.226  1.00  0.00    -0.205 F 
ATOM     70  C   UNL A   1      41.583  25.992  25.769  1.00  0.00     0.022 A 
BRANCH  68  71
ATOM     71  S   UNL A   1      40.963  23.568  26.875  1.00  0.00     0.127 S 
ATOM     72  O   UNL A   1      41.782  23.228  25.713  1.00  0.00    -0.237 OA
ATOM     73  O   UNL A   1      41.525  23.148  28.160  1.00  0.00    -0.237 OA
ATOM     74  O   UNL A   1      39.535  23.324  26.729  1.00  0.00    -0.744 OA
ENDBRANCH  68  71
ENDBRANCH  50  64
BRANCH  51  75
ATOM     75  C   UNL A   1      39.440  32.618  36.490  1.00  0.00     0.023 A 
ATOM     76  C   UNL A   1      40.113  33.823  36.771  1.00  0.00     0.012 A 
ATOM     77  C   UNL A   1      38.486  32.136  37.407  1.00  0.00     0.148 A 
ATOM     78  C   UNL A   1      39.867  34.518  37.956  1.00  0.00     0.002 A 
ATOM     79  C   UNL A   1      38.207  32.860  38.562  1.00  0.00     0.091 A 
ATOM     80  F   UNL A   1      37.865  30.980  37.132  1.00  0.00    -0.205 F 
ATOM     81  C   UNL A   1      38.908  34.042  38.846  1.00  0.00     0.022 A 
BRANCH  79  82
ATOM     82  S   UNL A   1      36.892  32.388  39.690  1.00  0.00     0.127 S 
ATOM     83  O   UNL A   1      37.305  31.045  40.088  1.00  0.00    -0.237 OA
ATOM     84  O   UNL A   1      37.006  33.404  40.738  1.00  0.00    -0.237 OA
ATOM     85  O   UNL A   1      35.665  32.475  38.910  1.00  0.00    -0.744 OA
ENDBRANCH  79  82
ENDBRANCH  51  75
BRANCH  63  86
ATOM     86  C   UNL A   1      44.449  28.180  34.486  1.00  0.00     0.023 A 
ATOM     87  C   UNL A   1      45.659  28.900  34.494  1.00  0.00     0.012 A 
ATOM     88  C   UNL A   1      44.353  26.976  35.209  1.00  0.00     0.148 A 
ATOM     89  C   UNL A   1      46.766  28.415  35.190  1.00  0.00     0.002 A 
ATOM     90  C   UNL A   1      45.445  26.522  35.937  1.00  0.00     0.091 A 
ATOM     91  F   UNL A   1      43.198  26.295  35.171  1.00  0.00    -0.205 F 
ATOM     92  C   UNL A   1      46.655  27.234  35.920  1.00  0.00     0.022 A 
BRANCH  90  93
ATOM     93  S   UNL A   1      45.360  25.062  36.981  1.00  0.00     0.127 S 
ATOM     94  O   UNL A   1      45.323  23.988  35.991  1.00  0.00    -0.237 OA
ATOM     95  O   UNL A   1      46.607  25.148  37.743  1.00  0.00    -0.237 OA
ATOM     96  O   UNL A   1      44.155  25.220  37.785  1.00  0.00    -0.744 OA
ENDBRANCH  90  93
ENDBRANCH  63  86
ENDBRANCH  37  38
ENDBRANCH  29  32
ENDBRANCH  27  28
ENDBRANCH  26  27
ENDBRANCH  25  26
ENDBRANCH   1  25
TORSDOF 19
ENDMDL
MODEL 2
REMARK VINA RESULT:     -11.3      2.046      2.484
REMARK SMILES COc1ccccc1CC(=O)NC[C@H]1CC[C@H](C(=O)NCCCCNC(=O)c2ccc(-c3c4nc(c(-c5cccc(S(=O)(=O)[O-])c5F)c5ccc([nH]5)c(-c5cccc(S(=O)(=O)[O-])c5F)c5nc(c(-c6cccc(S(=O)(=O)[O-])c6F)c6ccc3[nH]6)C=C5)C=C4)cc2)O1
REMARK SMILES IDX 21 1 20 2 18 3 19 4 17 6 14 7 15 8 91 9 16 10 13 11 12 12
REMARK SMILES IDX 10 13 11 14 9 16 8 17 3 18 4 19 5 20 7 21 6 22 2 23 1 24
REMARK SMILES IDX 22 25 23 26 24 27 25 28 26 29 27 31 28 32 29 33 90 34 30 35
REMARK SMILES IDX 89 36 31 37 32 38 33 39 83 40 34 41 88 42 82 43 84 44 35 45
REMARK SMILES IDX 87 46 81 47 80 48 36 50 68 51 48 52 67 53 49 54 52 55 66 56
REMARK SMILES IDX 85 57 50 58 51 59 65 61 86 62 53 63 37 64 38 65 46 66 39 67
REMARK SMILES IDX 41 68 47 69 40 70 42 71 43 72 44 73 45 74 69 75 70 76 78 77
REMARK SMILES IDX 71 78 73 79 79 80 72 81 74 82 75 83 76 84 77 85 54 86 55 87
REMARK SMILES IDX 63 88 56 89 58 90 64 91 57 92 59 93 60 94 61 95 62 96
REMARK H PARENT 20 5 12 15 25 30 84 49 52 60
REMARK Flexibility Score: inf
ROOT
ATOM      1  C   UNL A   1      32.547  30.122  26.424  1.00  0.00     0.116 C 
ENDROOT
BRANCH   1   2
ATOM      2  N   UNL A   1      33.414  29.718  25.343  1.00  0.00    -0.354 N 
ATOM      3  C   UNL A   1      33.241  28.720  24.431  1.00  0.00     0.249 C 
ATOM      4  O   UNL A   1      34.157  28.511  23.629  1.00  0.00    -0.272 OA
ATOM      5  H   UNL A   1      34.246  30.235  25.252  1.00  0.00     0.163 HD
BRANCH   3   6
ATOM      6  C   UNL A   1      31.974  27.834  24.431  1.00  0.00     0.207 C 
ATOM      7  C   UNL A   1      31.419  25.748  23.509  1.00  0.00     0.138 C 
ATOM      8  C   UNL A   1      30.896  26.797  22.544  1.00  0.00     0.037 C 
ATOM      9  O   UNL A   1      32.170  26.426  24.522  1.00  0.00    -0.363 OA
ATOM     10  C   UNL A   1      31.034  28.112  23.272  1.00  0.00     0.045 C 
BRANCH   7  11
ATOM     11  C   UNL A   1      30.302  24.894  24.125  1.00  0.00     0.147 C 
BRANCH  11  12
ATOM     12  N   UNL A   1      30.588  24.544  25.509  1.00  0.00    -0.353 N 
ATOM     13  C   UNL A   1      30.910  23.326  26.031  1.00  0.00     0.224 C 
ATOM     14  O   UNL A   1      31.047  23.220  27.252  1.00  0.00    -0.275 OA
ATOM     15  H   UNL A   1      30.544  25.286  26.155  1.00  0.00     0.163 HD
BRANCH  13  16
ATOM     16  C   UNL A   1      31.157  22.152  25.104  1.00  0.00     0.139 C 
BRANCH  16  17
ATOM     17  C   UNL A   1      32.603  21.734  24.992  1.00  0.00     0.003 A 
ATOM     18  C   UNL A   1      32.995  20.387  24.983  1.00  0.00     0.122 A 
ATOM     19  C   UNL A   1      34.343  20.029  24.885  1.00  0.00     0.047 A 
ATOM     20  C   UNL A   1      35.322  21.018  24.788  1.00  0.00     0.004 A 
ATOM     21  C   UNL A   1      33.603  22.716  24.874  1.00  0.00     0.008 A 
ATOM     22  C   UNL A   1      34.951  22.360  24.785  1.00  0.00     0.001 A 
BRANCH  18  23
ATOM     23  O   UNL A   1      32.094  19.384  25.234  1.00  0.00    -0.496 OA
ATOM     24  C   UNL A   1      32.753  18.197  25.662  1.00  0.00     0.278 C 
ENDBRANCH  18  23
ENDBRANCH  16  17
ENDBRANCH  13  16
ENDBRANCH  11  12
ENDBRANCH   7  11
ENDBRANCH   3   6
ENDBRANCH   1   2
BRANCH   1  25
ATOM     25  C   UNL A   1      31.440  31.048  25.926  1.00  0.00     0.023 C 
BRANCH  25  26
ATOM     26  C   UNL A   1      31.343  32.371  26.682  1.00  0.00     0.023 C 
BRANCH  26  27
ATOM     27  C   UNL A   1      32.653  32.853  27.288  1.00  0.00     0.116 C 
BRANCH  27  28
ATOM     28  N   UNL A   1      32.583  34.203  27.835  1.00  0.00    -0.352 N 
ATOM     29  C   UNL A   1      33.402  34.766  28.783  1.00  0.00     0.251 C 
ATOM     30  H   UNL A   1      31.865  34.778  27.484  1.00  0.00     0.163 HD
ATOM     31  O   UNL A   1      33.176  35.889  29.224  1.00  0.00    -0.269 OA
BRANCH  29  32
ATOM     32  C   UNL A   1      34.532  33.966  29.293  1.00  0.00     0.039 A 
ATOM     33  C   UNL A   1      35.830  34.314  28.915  1.00  0.00     0.014 A 
ATOM     34  C   UNL A   1      34.303  32.944  30.217  1.00  0.00     0.014 A 
ATOM     35  C   UNL A   1      36.911  33.675  29.521  1.00  0.00     0.010 A 
ATOM     36  C   UNL A   1      35.380  32.364  30.873  1.00  0.00     0.010 A 
ATOM     37  C   UNL A   1      36.694  32.722  30.532  1.00  0.00    -0.014 A 
BRANCH  37  38
ATOM     38  C   UNL A   1      37.826  32.097  31.257  1.00  0.00     0.031 A 
ATOM     39  C   UNL A   1      38.595  30.972  30.623  1.00  0.00     0.074 A 
ATOM     40  C   UNL A   1      38.087  32.468  32.526  1.00  0.00     0.049 A 
ATOM     41  N   UNL A   1      39.572  30.262  31.119  1.00  0.00    -0.248 NA
ATOM     42  C   UNL A   1      38.189  30.569  29.265  1.00  0.00     0.031 C 
ATOM     43  C   UNL A   1      37.341  33.475  33.286  1.00  0.00     0.029 A 
ATOM     44  N   UNL A   1      39.032  32.018  33.414  1.00  0.00    -0.354 N 
ATOM     45  C   UNL A   1      39.867  29.302  30.159  1.00  0.00     0.074 A 
ATOM     46  C   UNL A   1      38.947  29.500  29.061  1.00  0.00     0.031 C 
ATOM     47  C   UNL A   1      37.855  33.563  34.524  1.00  0.00     0.029 A 
ATOM     48  C   UNL A   1      38.953  32.610  34.653  1.00  0.00     0.049 A 
ATOM     49  H   UNL A   1      39.703  31.336  33.185  1.00  0.00     0.167 HD
ATOM     50  C   UNL A   1      40.841  28.361  30.174  1.00  0.00     0.034 A 
ATOM     51  C   UNL A   1      39.683  32.407  35.766  1.00  0.00     0.034 A 
ATOM     52  C   UNL A   1      41.798  28.215  31.237  1.00  0.00     0.049 A 
ATOM     53  C   UNL A   1      40.816  31.416  35.724  1.00  0.00     0.074 A 
ATOM     54  C   UNL A   1      42.898  27.380  31.292  1.00  0.00     0.029 A 
ATOM     55  N   UNL A   1      41.766  28.920  32.429  1.00  0.00    -0.354 N 
ATOM     56  N   UNL A   1      41.207  30.654  34.730  1.00  0.00    -0.248 NA
ATOM     57  C   UNL A   1      41.635  31.285  36.937  1.00  0.00     0.031 C 
ATOM     58  C   UNL A   1      43.527  27.571  32.528  1.00  0.00     0.029 A 
ATOM     59  C   UNL A   1      42.824  28.535  33.233  1.00  0.00     0.049 A 
ATOM     60  H   UNL A   1      41.090  29.595  32.669  1.00  0.00     0.167 HD
ATOM     61  C   UNL A   1      42.333  29.980  35.186  1.00  0.00     0.074 A 
ATOM     62  C   UNL A   1      42.577  30.442  36.537  1.00  0.00     0.031 C 
ATOM     63  C   UNL A   1      43.088  29.050  34.551  1.00  0.00     0.034 A 
BRANCH  50  64
ATOM     64  C   UNL A   1      40.964  27.461  28.975  1.00  0.00     0.023 A 
ATOM     65  C   UNL A   1      40.119  26.340  28.861  1.00  0.00     0.012 A 
ATOM     66  C   UNL A   1      41.869  27.754  27.935  1.00  0.00     0.148 A 
ATOM     67  C   UNL A   1      40.191  25.505  27.746  1.00  0.00     0.002 A 
ATOM     68  C   UNL A   1      41.905  26.942  26.808  1.00  0.00     0.091 A 
ATOM     69  F   UNL A   1      42.682  28.811  28.074  1.00  0.00    -0.205 F 
ATOM     70  C   UNL A   1      41.076  25.812  26.717  1.00  0.00     0.022 A 
BRANCH  68  71
ATOM     71  S   UNL A   1      42.956  27.297  25.395  1.00  0.00     0.127 S 
ATOM     72  O   UNL A   1      42.901  26.033  24.662  1.00  0.00    -0.237 OA
ATOM     73  O   UNL A   1      42.246  28.404  24.753  1.00  0.00    -0.237 OA
ATOM     74  O   UNL A   1      44.258  27.648  25.943  1.00  0.00    -0.744 OA
ENDBRANCH  68  71
ENDBRANCH  50  64
BRANCH  51  75
ATOM     75  C   UNL A   1      39.421  33.218  36.989  1.00  0.00     0.023 A 
ATOM     76  C   UNL A   1      38.509  32.739  37.950  1.00  0.00     0.012 A 
ATOM     77  C   UNL A   1      40.085  34.437  37.222  1.00  0.00     0.148 A 
ATOM     78  C   UNL A   1      38.237  33.475  39.104  1.00  0.00     0.002 A 
ATOM     79  C   UNL A   1      39.850  35.140  38.399  1.00  0.00     0.091 A 
ATOM     80  F   UNL A   1      40.938  34.886  36.290  1.00  0.00    -0.205 F 
ATOM     81  C   UNL A   1      38.915  34.669  39.333  1.00  0.00     0.022 A 
BRANCH  79  82
ATOM     82  S   UNL A   1      40.780  36.614  38.832  1.00  0.00     0.127 S 
ATOM     83  O   UNL A   1      41.294  36.269  40.154  1.00  0.00    -0.237 OA
ATOM     84  O   UNL A   1      41.789  36.664  37.772  1.00  0.00    -0.237 OA
ATOM     85  O   UNL A   1      39.816  37.706  38.785  1.00  0.00    -0.744 OA
ENDBRANCH  79  82
ENDBRANCH  51  75
BRANCH  63  86
ATOM     86  C   UNL A   1      44.269  28.483  35.293  1.00  0.00     0.023 A 
ATOM     87  C   UNL A   1      45.550  29.025  35.076  1.00  0.00     0.012 A 
ATOM     88  C   UNL A   1      44.095  27.477  36.263  1.00  0.00     0.148 A 
ATOM     89  C   UNL A   1      46.648  28.555  35.797  1.00  0.00     0.002 A 
ATOM     90  C   UNL A   1      45.185  27.046  37.009  1.00  0.00     0.091 A 
ATOM     91  F   UNL A   1      42.870  26.960  36.439  1.00  0.00    -0.205 F 
ATOM     92  C   UNL A   1      46.463  27.575  36.770  1.00  0.00     0.022 A 
BRANCH  90  93
ATOM     93  S   UNL A   1      45.018  25.858  38.347  1.00  0.00     0.127 S 
ATOM     94  O   UNL A   1      46.380  25.808  38.874  1.00  0.00    -0.237 OA
ATOM     95  O   UNL A   1      44.047  26.511  39.227  1.00  0.00    -0.237 OA
ATOM     96  O   UNL A   1      44.537  24.630  37.729  1.00  0.00    -0.744 OA
ENDBRANCH  90  93
ENDBRANCH  63  86
ENDBRANCH  37  38
ENDBRANCH  29  32
ENDBRANCH  27  28
ENDBRANCH  26  27
ENDBRANCH  25  26
ENDBRANCH   1  25
TORSDOF 19
ENDMDL
MODEL 3
REMARK VINA RESULT:     -10.9      3.123      8.178
REMARK SMILES COc1ccccc1CC(=O)NC[C@H]1CC[C@H](C(=O)NCCCCNC(=O)c2ccc(-c3c4nc(c(-c5cccc(S(=O)(=O)[O-])c5F)c5ccc([nH]5)c(-c5cccc(S(=O)(=O)[O-])c5F)c5nc(c(-c6cccc(S(=O)(=O)[O-])c6F)c6ccc3[nH]6)C=C5)C=C4)cc2)O1
REMARK SMILES IDX 21 1 20 2 18 3 19 4 17 6 14 7 15 8 91 9 16 10 13 11 12 12
REMARK SMILES IDX 10 13 11 14 9 16 8 17 3 18 4 19 5 20 7 21 6 22 2 23 1 24
REMARK SMILES IDX 22 25 23 26 24 27 25 28 26 29 27 31 28 32 29 33 90 34 30 35
REMARK SMILES IDX 89 36 31 37 32 38 33 39 83 40 34 41 88 42 82 43 84 44 35 45
REMARK SMILES IDX 87 46 81 47 80 48 36 50 68 51 48 52 67 53 49 54 52 55 66 56
REMARK SMILES IDX 85 57 50 58 51 59 65 61 86 62 53 63 37 64 38 65 46 66 39 67
REMARK SMILES IDX 41 68 47 69 40 70 42 71 43 72 44 73 45 74 69 75 70 76 78 77
REMARK SMILES IDX 71 78 73 79 79 80 72 81 74 82 75 83 76 84 77 85 54 86 55 87
REMARK SMILES IDX 63 88 56 89 58 90 64 91 57 92 59 93 60 94 61 95 62 96
REMARK H PARENT 20 5 12 15 25 30 84 49 52 60
REMARK Flexibility Score: inf
ROOT
ATOM      1  C   UNL A   1      31.460  27.321  25.766  1.00  0.00     0.116 C 
ENDROOT
BRANCH   1   2
ATOM      2  N   UNL A   1      30.528  26.444  26.434  1.00  0.00    -0.354 N 
ATOM      3  C   UNL A   1      30.257  25.130  26.189  1.00  0.00     0.249 C 
ATOM      4  O   UNL A   1      29.363  24.595  26.851  1.00  0.00    -0.272 OA
ATOM      5  H   UNL A   1      30.017  26.851  27.170  1.00  0.00     0.163 HD
BRANCH   3   6
ATOM      6  C   UNL A   1      30.994  24.346  25.078  1.00  0.00     0.207 C 
ATOM      7  C   UNL A   1      32.895  24.743  23.760  1.00  0.00     0.138 C 
ATOM      8  C   UNL A   1      31.697  25.149  22.920  1.00  0.00     0.037 C 
ATOM      9  O   UNL A   1      32.416  24.419  25.070  1.00  0.00    -0.363 OA
ATOM     10  C   UNL A   1      30.491  24.651  23.679  1.00  0.00     0.045 C 
BRANCH   7  11
ATOM     11  C   UNL A   1      33.682  23.574  23.152  1.00  0.00     0.147 C 
BRANCH  11  12
ATOM     12  N   UNL A   1      32.867  22.792  22.233  1.00  0.00    -0.353 N 
ATOM     13  C   UNL A   1      32.256  21.592  22.447  1.00  0.00     0.224 C 
ATOM     14  O   UNL A   1      31.664  21.051  21.509  1.00  0.00    -0.275 OA
ATOM     15  H   UNL A   1      32.739  23.182  21.338  1.00  0.00     0.163 HD
BRANCH  13  16
ATOM     16  C   UNL A   1      32.259  20.981  23.834  1.00  0.00     0.139 C 
BRANCH  16  17
ATOM     17  C   UNL A   1      33.030  19.688  23.949  1.00  0.00     0.003 A 
ATOM     18  C   UNL A   1      34.278  19.613  24.586  1.00  0.00     0.122 A 
ATOM     19  C   UNL A   1      34.973  18.403  24.671  1.00  0.00     0.047 A 
ATOM     20  C   UNL A   1      34.424  17.244  24.124  1.00  0.00     0.004 A 
ATOM     21  C   UNL A   1      32.484  18.505  23.420  1.00  0.00     0.008 A 
ATOM     22  C   UNL A   1      33.181  17.297  23.497  1.00  0.00     0.001 A 
BRANCH  18  23
ATOM     23  O   UNL A   1      34.932  20.746  24.999  1.00  0.00    -0.496 OA
ATOM     24  C   UNL A   1      36.340  20.538  25.043  1.00  0.00     0.278 C 
ENDBRANCH  18  23
ENDBRANCH  16  17
ENDBRANCH  13  16
ENDBRANCH  11  12
ENDBRANCH   7  11
ENDBRANCH   3   6
ENDBRANCH   1   2
BRANCH   1  25
ATOM     25  C   UNL A   1      32.310  28.092  26.773  1.00  0.00     0.023 C 
BRANCH  25  26
ATOM     26  C   UNL A   1      32.632  29.524  26.354  1.00  0.00     0.023 C 
BRANCH  26  27
ATOM     27  C   UNL A   1      33.957  30.058  26.882  1.00  0.00     0.116 C 
BRANCH  27  28
ATOM     28  N   UNL A   1      33.817  31.246  27.716  1.00  0.00    -0.352 N 
ATOM     29  C   UNL A   1      34.660  31.672  28.714  1.00  0.00     0.251 C 
ATOM     30  H   UNL A   1      33.028  31.809  27.545  1.00  0.00     0.163 HD
ATOM     31  O   UNL A   1      34.377  32.647  29.404  1.00  0.00    -0.269 OA
BRANCH  29  32
ATOM     32  C   UNL A   1      35.890  30.898  28.966  1.00  0.00     0.039 A 
ATOM     33  C   UNL A   1      37.098  31.358  28.437  1.00  0.00     0.014 A 
ATOM     34  C   UNL A   1      35.854  29.781  29.805  1.00  0.00     0.014 A 
ATOM     35  C   UNL A   1      38.287  30.732  28.808  1.00  0.00     0.010 A 
ATOM     36  C   UNL A   1      37.044  29.208  30.230  1.00  0.00     0.010 A 
ATOM     37  C   UNL A   1      38.272  29.677  29.736  1.00  0.00    -0.014 A 
BRANCH  37  38
ATOM     38  C   UNL A   1      39.529  29.056  30.218  1.00  0.00     0.031 A 
ATOM     39  C   UNL A   1      40.222  29.605  31.433  1.00  0.00     0.074 A 
ATOM     40  C   UNL A   1      40.101  28.070  29.497  1.00  0.00     0.049 A 
ATOM     41  N   UNL A   1      41.354  29.239  31.970  1.00  0.00    -0.248 NA
ATOM     42  C   UNL A   1      39.573  30.740  32.114  1.00  0.00     0.031 C 
ATOM     43  C   UNL A   1      39.577  27.524  28.242  1.00  0.00     0.029 A 
ATOM     44  N   UNL A   1      41.267  27.376  29.698  1.00  0.00    -0.354 N 
ATOM     45  C   UNL A   1      41.578  30.122  33.020  1.00  0.00     0.074 A 
ATOM     46  C   UNL A   1      40.479  31.062  33.027  1.00  0.00     0.031 C 
ATOM     47  C   UNL A   1      40.420  26.583  27.785  1.00  0.00     0.029 A 
ATOM     48  C   UNL A   1      41.550  26.468  28.703  1.00  0.00     0.049 A 
ATOM     49  H   UNL A   1      41.846  27.512  30.482  1.00  0.00     0.167 HD
ATOM     50  C   UNL A   1      42.590  30.129  33.919  1.00  0.00     0.034 A 
ATOM     51  C   UNL A   1      42.601  25.641  28.548  1.00  0.00     0.034 A 
ATOM     52  C   UNL A   1      43.642  29.149  33.949  1.00  0.00     0.049 A 
ATOM     53  C   UNL A   1      43.666  25.610  29.611  1.00  0.00     0.074 A 
ATOM     54  C   UNL A   1      44.642  28.992  34.890  1.00  0.00     0.029 A 
ATOM     55  N   UNL A   1      43.829  28.163  32.994  1.00  0.00    -0.354 N 
ATOM     56  N   UNL A   1      43.756  26.322  30.708  1.00  0.00    -0.248 NA
ATOM     57  C   UNL A   1      44.753  24.635  29.439  1.00  0.00     0.031 C 
ATOM     58  C   UNL A   1      45.444  27.915  34.497  1.00  0.00     0.029 A 
ATOM     59  C   UNL A   1      44.933  27.395  33.318  1.00  0.00     0.049 A 
ATOM     60  H   UNL A   1      43.260  28.029  32.201  1.00  0.00     0.167 HD
ATOM     61  C   UNL A   1      44.886  25.860  31.373  1.00  0.00     0.074 A 
ATOM     62  C   UNL A   1      45.435  24.789  30.566  1.00  0.00     0.031 C 
ATOM     63  C   UNL A   1      45.430  26.294  32.536  1.00  0.00     0.034 A 
BRANCH  50  64
ATOM     64  C   UNL A   1      42.571  31.188  34.987  1.00  0.00     0.023 A 
ATOM     65  C   UNL A   1      41.968  30.907  36.229  1.00  0.00     0.012 A 
ATOM     66  C   UNL A   1      43.199  32.433  34.789  1.00  0.00     0.148 A 
ATOM     67  C   UNL A   1      41.961  31.858  37.248  1.00  0.00     0.002 A 
ATOM     68  C   UNL A   1      43.227  33.360  35.823  1.00  0.00     0.091 A 
ATOM     69  F   UNL A   1      43.746  32.690  33.592  1.00  0.00    -0.205 F 
ATOM     70  C   UNL A   1      42.599  33.079  37.049  1.00  0.00     0.022 A 
BRANCH  68  71
ATOM     71  S   UNL A   1      44.089  34.931  35.692  1.00  0.00     0.127 S 
ATOM     72  O   UNL A   1      43.334  35.594  34.630  1.00  0.00    -0.237 OA
ATOM     73  O   UNL A   1      43.893  35.502  37.026  1.00  0.00    -0.237 OA
ATOM     74  O   UNL A   1      45.470  34.603  35.369  1.00  0.00    -0.744 OA
ENDBRANCH  68  71
ENDBRANCH  50  64
BRANCH  51  75
ATOM     75  C   UNL A   1      42.654  24.713  27.383  1.00  0.00     0.023 A 
ATOM     76  C   UNL A   1      43.289  25.132  26.197  1.00  0.00     0.012 A 
ATOM     77  C   UNL A   1      42.111  23.415  27.448  1.00  0.00     0.148 A 
ATOM     78  C   UNL A   1      43.353  24.289  25.087  1.00  0.00     0.002 A 
ATOM     79  C   UNL A   1      42.225  22.562  26.356  1.00  0.00     0.091 A 
ATOM     80  F   UNL A   1      41.497  23.038  28.578  1.00  0.00    -0.205 F 
ATOM     81  C   UNL A   1      42.831  23.002  25.169  1.00  0.00     0.022 A 
BRANCH  79  82
ATOM     82  S   UNL A   1      41.700  20.845  26.428  1.00  0.00     0.127 S 
ATOM     83  O   UNL A   1      42.493  20.243  25.360  1.00  0.00    -0.237 OA
ATOM     84  O   UNL A   1      42.096  20.459  27.784  1.00  0.00    -0.237 OA
ATOM     85  O   UNL A   1      40.259  20.874  26.216  1.00  0.00    -0.744 OA
ENDBRANCH  79  82
ENDBRANCH  51  75
BRANCH  63  86
ATOM     86  C   UNL A   1      46.671  25.598  33.029  1.00  0.00     0.023 A 
ATOM     87  C   UNL A   1      47.938  26.107  32.682  1.00  0.00     0.012 A 
ATOM     88  C   UNL A   1      46.580  24.497  33.903  1.00  0.00     0.148 A 
ATOM     89  C   UNL A   1      49.098  25.512  33.178  1.00  0.00     0.002 A 
ATOM     90  C   UNL A   1      47.739  23.939  34.428  1.00  0.00     0.091 A 
ATOM     91  F   UNL A   1      45.365  24.015  34.203  1.00  0.00    -0.205 F 
ATOM     92  C   UNL A   1      48.998  24.438  34.058  1.00  0.00     0.022 A 
BRANCH  90  93
ATOM     93  S   UNL A   1      47.697  22.615  35.643  1.00  0.00     0.127 S 
ATOM     94  O   UNL A   1      46.270  22.308  35.702  1.00  0.00    -0.237 OA
ATOM     95  O   UNL A   1      48.518  21.582  35.009  1.00  0.00    -0.237 OA
ATOM     96  O   UNL A   1      48.273  23.175  36.858  1.00  0.00    -0.744 OA
ENDBRANCH  90  93
ENDBRANCH  63  86
ENDBRANCH  37  38
ENDBRANCH  29  32
ENDBRANCH  27  28
ENDBRANCH  26  27
ENDBRANCH  25  26
ENDBRANCH   1  25
TORSDOF 19
ENDMDL
