MODEL 1
REMARK VINA RESULT:      -9.9      0.000      0.000
REMARK SMILES CCOc1ccc(-c2nn(-c3ccccc3)cc2/C=C2/SC(=S)N(CC(=O)NCCCCNC(=O)c3ccc(-c4c5nc(c(-c6cccc(S(=O)(=O)[O-])c6F)c6ccc([nH]6)c(-c6cccc(S(=O)(=O)[O-])c6F)c6nc(c(-c7cccc(S(=O)(=O)[O-])c7F)c7ccc4[nH]7)C=C6)C=C5)cc3)C2=O)cc1F
REMARK SMILES IDX 29 1 28 2 26 3 27 4 25 6 24 7 19 8 20 9 21 10 99 11 22 12
REMARK SMILES IDX 100 13 23 14 18 15 8 16 9 17 10 18 17 19 7 20 4 21 5 22
REMARK SMILES IDX 102 23 6 24 101 25 103 26 3 27 2 28 1 29 11 30 12 31 16 32
REMARK SMILES IDX 13 33 15 34 14 35 30 36 31 37 32 38 33 39 34 40 35 42 36 43
REMARK SMILES IDX 37 44 98 45 38 46 97 47 39 48 40 49 41 50 91 51 42 52 96 53
REMARK SMILES IDX 90 54 92 55 43 56 95 57 89 58 88 59 44 61 76 62 56 63 75 64
REMARK SMILES IDX 57 65 60 66 74 67 93 68 58 69 59 70 73 72 94 73 61 74 45 75
REMARK SMILES IDX 46 76 54 77 47 78 49 79 55 80 48 81 50 82 51 83 52 84 53 85
REMARK SMILES IDX 77 86 78 87 86 88 79 89 81 90 87 91 80 92 82 93 83 94 84 95
REMARK SMILES IDX 85 96 62 97 63 98 71 99 64 100 66 101 72 102 65 103 67 104
REMARK SMILES IDX 68 105 69 106 70 107
REMARK H PARENT 28 5 33 41 92 60 60 71
REMARK Flexibility Score: inf
ROOT
ATOM      1  C   UNL A   1      50.970  26.963  33.616  1.00  0.00     0.116 C 
ENDROOT
BRANCH   1   2
ATOM      2  N   UNL A   1      50.775  25.957  32.595  1.00  0.00    -0.355 N 
ATOM      3  C   UNL A   1      50.966  24.605  32.638  1.00  0.00     0.240 C 
ATOM      4  O   UNL A   1      50.605  23.948  31.661  1.00  0.00    -0.273 OA
ATOM      5  H   UNL A   1      50.455  26.302  31.731  1.00  0.00     0.163 HD
BRANCH   3   6
ATOM      6  C   UNL A   1      51.553  23.913  33.878  1.00  0.00     0.227 C 
BRANCH   6   7
ATOM      7  N   UNL A   1      51.153  22.505  33.930  1.00  0.00    -0.283 N 
ATOM      8  C   UNL A   1      48.440  20.218  34.724  1.00  0.00     0.033 C 
ATOM      9  C   UNL A   1      49.600  20.790  34.369  1.00  0.00     0.081 C 
ATOM     10  S   UNL A   1      50.901  19.963  33.605  1.00  0.00    -0.054 SA
ATOM     11  C   UNL A   1      49.979  22.213  34.596  1.00  0.00     0.266 C 
ATOM     12  C   UNL A   1      51.890  21.424  33.512  1.00  0.00     0.148 C 
ATOM     13  O   UNL A   1      49.362  22.990  35.305  1.00  0.00    -0.268 OA
ATOM     14  S   UNL A   1      53.477  21.376  33.004  1.00  0.00    -0.052 S 
BRANCH   8  15
ATOM     15  C   UNL A   1      47.424  20.877  35.470  1.00  0.00     0.022 A 
ATOM     16  C   UNL A   1      47.381  21.109  36.867  1.00  0.00     0.100 A 
ATOM     17  N   UNL A   1      46.390  21.954  37.178  1.00  0.00    -0.167 NA
ATOM     18  N   UNL A   1      45.769  22.215  36.002  1.00  0.00    -0.240 N 
ATOM     19  C   UNL A   1      46.296  21.480  34.964  1.00  0.00     0.123 A 
BRANCH  16  20
ATOM     20  C   UNL A   1      48.208  20.524  37.913  1.00  0.00     0.006 A 
ATOM     21  C   UNL A   1      49.780  19.241  39.839  1.00  0.00     0.154 A 
ATOM     22  C   UNL A   1      50.236  20.418  39.244  1.00  0.00     0.050 A 
ATOM     23  C   UNL A   1      48.520  18.745  39.511  1.00  0.00     0.165 A 
ATOM     24  C   UNL A   1      49.452  21.059  38.277  1.00  0.00     0.014 A 
ATOM     25  C   UNL A   1      47.743  19.367  38.547  1.00  0.00     0.053 A 
ATOM     26  F   UNL A   1      48.027  17.661  40.127  1.00  0.00    -0.203 F 
BRANCH  21  27
ATOM     27  O   UNL A   1      50.539  18.660  40.818  1.00  0.00    -0.491 OA
BRANCH  27  28
ATOM     28  C   UNL A   1      50.998  19.606  41.792  1.00  0.00     0.226 C 
ATOM     29  C   UNL A   1      51.076  19.006  43.188  1.00  0.00     0.049 C 
ENDBRANCH  27  28
ENDBRANCH  21  27
ENDBRANCH  16  20
BRANCH  18  30
ATOM     30  C   UNL A   1      44.680  23.114  35.956  1.00  0.00     0.065 A 
ATOM     31  C   UNL A   1      43.848  23.113  34.828  1.00  0.00     0.028 A 
ATOM     32  C   UNL A   1      44.431  23.990  37.017  1.00  0.00     0.028 A 
ATOM     33  C   UNL A   1      42.752  23.975  34.775  1.00  0.00     0.002 A 
ATOM     34  C   UNL A   1      43.365  24.887  36.930  1.00  0.00     0.002 A 
ATOM     35  C   UNL A   1      42.521  24.872  35.818  1.00  0.00     0.000 A 
ENDBRANCH  18  30
ENDBRANCH   8  15
ENDBRANCH   6   7
ENDBRANCH   3   6
ENDBRANCH   1   2
BRANCH   1  36
ATOM     36  C   UNL A   1      49.755  27.882  33.779  1.00  0.00     0.023 C 
BRANCH  36  37
ATOM     37  C   UNL A   1      49.747  28.781  35.023  1.00  0.00     0.023 C 
BRANCH  37  38
ATOM     38  C   UNL A   1      48.683  28.440  36.059  1.00  0.00     0.116 C 
BRANCH  38  39
ATOM     39  N   UNL A   1      48.790  27.069  36.566  1.00  0.00    -0.352 N 
ATOM     40  C   UNL A   1      47.858  26.053  36.459  1.00  0.00     0.251 C 
ATOM     41  H   UNL A   1      49.625  26.845  37.037  1.00  0.00     0.163 HD
ATOM     42  O   UNL A   1      47.877  25.094  37.228  1.00  0.00    -0.269 OA
BRANCH  40  43
ATOM     43  C   UNL A   1      46.846  26.141  35.395  1.00  0.00     0.039 A 
ATOM     44  C   UNL A   1      45.726  26.970  35.501  1.00  0.00     0.014 A 
ATOM     45  C   UNL A   1      47.089  25.411  34.237  1.00  0.00     0.014 A 
ATOM     46  C   UNL A   1      44.902  27.130  34.387  1.00  0.00     0.010 A 
ATOM     47  C   UNL A   1      46.381  25.698  33.101  1.00  0.00     0.010 A 
ATOM     48  C   UNL A   1      45.250  26.506  33.179  1.00  0.00    -0.014 A 
BRANCH  48  49
ATOM     49  C   UNL A   1      44.505  26.756  31.949  1.00  0.00     0.031 A 
ATOM     50  C   UNL A   1      44.610  25.694  30.905  1.00  0.00     0.074 A 
ATOM     51  C   UNL A   1      43.575  27.734  31.866  1.00  0.00     0.049 A 
ATOM     52  N   UNL A   1      45.097  25.798  29.711  1.00  0.00    -0.248 NA
ATOM     53  C   UNL A   1      44.218  24.323  31.269  1.00  0.00     0.031 C 
ATOM     54  C   UNL A   1      43.113  28.639  32.931  1.00  0.00     0.029 A 
ATOM     55  N   UNL A   1      42.715  28.014  30.850  1.00  0.00    -0.354 N 
ATOM     56  C   UNL A   1      44.867  24.566  29.099  1.00  0.00     0.074 A 
ATOM     57  C   UNL A   1      44.504  23.653  30.151  1.00  0.00     0.031 C 
ATOM     58  C   UNL A   1      41.906  29.145  32.601  1.00  0.00     0.029 A 
ATOM     59  C   UNL A   1      41.608  28.767  31.235  1.00  0.00     0.049 A 
ATOM     60  H   UNL A   1      42.863  27.712  29.925  1.00  0.00     0.167 HD
ATOM     61  C   UNL A   1      44.762  24.441  27.746  1.00  0.00     0.034 A 
ATOM     62  C   UNL A   1      40.507  29.017  30.489  1.00  0.00     0.034 A 
ATOM     63  C   UNL A   1      45.240  25.615  27.065  1.00  0.00     0.049 A 
ATOM     64  C   UNL A   1      40.887  28.783  29.079  1.00  0.00     0.074 A 
ATOM     65  C   UNL A   1      46.438  26.297  27.012  1.00  0.00     0.029 A 
ATOM     66  N   UNL A   1      44.290  26.485  26.589  1.00  0.00    -0.354 N 
ATOM     67  N   UNL A   1      41.752  29.511  28.433  1.00  0.00    -0.248 NA
ATOM     68  C   UNL A   1      40.593  27.484  28.500  1.00  0.00     0.031 C 
ATOM     69  C   UNL A   1      46.071  27.675  26.982  1.00  0.00     0.029 A 
ATOM     70  C   UNL A   1      44.676  27.747  26.954  1.00  0.00     0.049 A 
ATOM     71  H   UNL A   1      43.482  26.246  26.079  1.00  0.00     0.167 HD
ATOM     72  C   UNL A   1      42.441  28.600  27.644  1.00  0.00     0.074 A 
ATOM     73  C   UNL A   1      41.604  27.402  27.631  1.00  0.00     0.031 C 
ATOM     74  C   UNL A   1      43.753  28.799  27.322  1.00  0.00     0.034 A 
BRANCH  61  75
ATOM     75  C   UNL A   1      43.928  23.405  27.029  1.00  0.00     0.023 A 
ATOM     76  C   UNL A   1      42.537  23.388  27.280  1.00  0.00     0.012 A 
ATOM     77  C   UNL A   1      44.460  22.302  26.325  1.00  0.00     0.148 A 
ATOM     78  C   UNL A   1      41.727  22.322  26.871  1.00  0.00     0.002 A 
ATOM     79  C   UNL A   1      43.638  21.292  25.838  1.00  0.00     0.091 A 
ATOM     80  F   UNL A   1      45.786  22.142  26.238  1.00  0.00    -0.205 F 
ATOM     81  C   UNL A   1      42.275  21.280  26.134  1.00  0.00     0.022 A 
BRANCH  79  82
ATOM     82  S   UNL A   1      44.289  19.972  24.806  1.00  0.00     0.127 S 
ATOM     83  O   UNL A   1      44.549  20.677  23.555  1.00  0.00    -0.237 OA
ATOM     84  O   UNL A   1      45.481  19.568  25.551  1.00  0.00    -0.237 OA
ATOM     85  O   UNL A   1      43.238  18.962  24.774  1.00  0.00    -0.744 OA
ENDBRANCH  79  82
ENDBRANCH  61  75
BRANCH  62  86
ATOM     86  C   UNL A   1      39.090  29.191  30.881  1.00  0.00     0.023 A 
ATOM     87  C   UNL A   1      38.574  28.402  31.929  1.00  0.00     0.012 A 
ATOM     88  C   UNL A   1      38.362  30.332  30.482  1.00  0.00     0.148 A 
ATOM     89  C   UNL A   1      37.412  28.776  32.610  1.00  0.00     0.002 A 
ATOM     90  C   UNL A   1      37.206  30.701  31.164  1.00  0.00     0.091 A 
ATOM     91  F   UNL A   1      38.857  31.109  29.509  1.00  0.00    -0.205 F 
ATOM     92  C   UNL A   1      36.737  29.935  32.240  1.00  0.00     0.022 A 
BRANCH  90  93
ATOM     93  S   UNL A   1      36.307  32.208  30.773  1.00  0.00     0.127 S 
ATOM     94  O   UNL A   1      35.163  32.127  31.683  1.00  0.00    -0.237 OA
ATOM     95  O   UNL A   1      37.289  33.235  31.112  1.00  0.00    -0.237 OA
ATOM     96  O   UNL A   1      35.957  32.100  29.362  1.00  0.00    -0.744 OA
ENDBRANCH  90  93
ENDBRANCH  62  86
BRANCH  74  97
ATOM     97  C   UNL A   1      44.368  30.145  27.631  1.00  0.00     0.023 A 
ATOM     98  C   UNL A   1      45.311  30.327  28.665  1.00  0.00     0.012 A 
ATOM     99  C   UNL A   1      44.141  31.200  26.733  1.00  0.00     0.148 A 
ATOM    100  C   UNL A   1      45.998  31.536  28.810  1.00  0.00     0.002 A 
ATOM    101  C   UNL A   1      44.864  32.382  26.845  1.00  0.00     0.091 A 
ATOM    102  F   UNL A   1      43.241  31.016  25.755  1.00  0.00    -0.205 F 
ATOM    103  C   UNL A   1      45.786  32.559  27.888  1.00  0.00     0.022 A 
BRANCH 101 104
ATOM    104  S   UNL A   1      44.741  33.673  25.606  1.00  0.00     0.127 S 
ATOM    105  O   UNL A   1      43.730  34.556  26.182  1.00  0.00    -0.237 OA
ATOM    106  O   UNL A   1      46.097  34.224  25.590  1.00  0.00    -0.237 OA
ATOM    107  O   UNL A   1      44.360  33.003  24.368  1.00  0.00    -0.744 OA
ENDBRANCH 101 104
ENDBRANCH  74  97
ENDBRANCH  48  49
ENDBRANCH  40  43
ENDBRANCH  38  39
ENDBRANCH  37  38
ENDBRANCH  36  37
ENDBRANCH   1  36
TORSDOF 20
ENDMDL
MODEL 2
REMARK VINA RESULT:      -9.4      1.832      2.121
REMARK SMILES CCOc1ccc(-c2nn(-c3ccccc3)cc2/C=C2/SC(=S)N(CC(=O)NCCCCNC(=O)c3ccc(-c4c5nc(c(-c6cccc(S(=O)(=O)[O-])c6F)c6ccc([nH]6)c(-c6cccc(S(=O)(=O)[O-])c6F)c6nc(c(-c7cccc(S(=O)(=O)[O-])c7F)c7ccc4[nH]7)C=C6)C=C5)cc3)C2=O)cc1F
REMARK SMILES IDX 29 1 28 2 26 3 27 4 25 6 24 7 19 8 20 9 21 10 99 11 22 12
REMARK SMILES IDX 100 13 23 14 18 15 8 16 9 17 10 18 17 19 7 20 4 21 5 22
REMARK SMILES IDX 102 23 6 24 101 25 103 26 3 27 2 28 1 29 11 30 12 31 16 32
REMARK SMILES IDX 13 33 15 34 14 35 30 36 31 37 32 38 33 39 34 40 35 42 36 43
REMARK SMILES IDX 37 44 98 45 38 46 97 47 39 48 40 49 41 50 91 51 42 52 96 53
REMARK SMILES IDX 90 54 92 55 43 56 95 57 89 58 88 59 44 61 76 62 56 63 75 64
REMARK SMILES IDX 57 65 60 66 74 67 93 68 58 69 59 70 73 72 94 73 61 74 45 75
REMARK SMILES IDX 46 76 54 77 47 78 49 79 55 80 48 81 50 82 51 83 52 84 53 85
REMARK SMILES IDX 77 86 78 87 86 88 79 89 81 90 87 91 80 92 82 93 83 94 84 95
REMARK SMILES IDX 85 96 62 97 63 98 71 99 64 100 66 101 72 102 65 103 67 104
REMARK SMILES IDX 68 105 69 106 70 107
REMARK H PARENT 28 5 33 41 92 60 60 71
REMARK Flexibility Score: inf
ROOT
ATOM      1  C   UNL A   1      50.347  26.650  34.341  1.00  0.00     0.116 C 
ENDROOT
BRANCH   1   2
ATOM      2  N   UNL A   1      50.398  25.837  33.146  1.00  0.00    -0.355 N 
ATOM      3  C   UNL A   1      50.624  24.498  32.996  1.00  0.00     0.240 C 
ATOM      4  O   UNL A   1      50.492  24.021  31.868  1.00  0.00    -0.273 OA
ATOM      5  H   UNL A   1      50.247  26.327  32.305  1.00  0.00     0.163 HD
BRANCH   3   6
ATOM      6  C   UNL A   1      50.974  23.601  34.192  1.00  0.00     0.227 C 
BRANCH   6   7
ATOM      7  N   UNL A   1      50.260  22.324  34.116  1.00  0.00    -0.283 N 
ATOM      8  C   UNL A   1      47.077  20.664  34.693  1.00  0.00     0.033 C 
ATOM      9  C   UNL A   1      48.346  20.982  34.394  1.00  0.00     0.081 C 
ATOM     10  S   UNL A   1      49.440  19.947  33.561  1.00  0.00    -0.054 SA
ATOM     11  C   UNL A   1      49.036  22.254  34.750  1.00  0.00     0.266 C 
ATOM     12  C   UNL A   1      50.740  21.143  33.603  1.00  0.00     0.148 C 
ATOM     13  O   UNL A   1      48.597  23.086  35.526  1.00  0.00    -0.268 OA
ATOM     14  S   UNL A   1      52.285  20.776  33.096  1.00  0.00    -0.052 S 
BRANCH   8  15
ATOM     15  C   UNL A   1      46.222  21.471  35.494  1.00  0.00     0.022 A 
ATOM     16  C   UNL A   1      46.237  21.623  36.902  1.00  0.00     0.100 A 
ATOM     17  N   UNL A   1      45.443  22.633  37.279  1.00  0.00    -0.167 NA
ATOM     18  N   UNL A   1      44.881  23.085  36.131  1.00  0.00    -0.240 N 
ATOM     19  C   UNL A   1      45.240  22.321  35.043  1.00  0.00     0.123 A 
BRANCH  16  20
ATOM     20  C   UNL A   1      46.932  20.820  37.898  1.00  0.00     0.006 A 
ATOM     21  C   UNL A   1      48.277  19.144  39.690  1.00  0.00     0.154 A 
ATOM     22  C   UNL A   1      48.735  20.446  39.482  1.00  0.00     0.050 A 
ATOM     23  C   UNL A   1      47.120  18.708  39.046  1.00  0.00     0.165 A 
ATOM     24  C   UNL A   1      48.065  21.285  38.583  1.00  0.00     0.014 A 
ATOM     25  C   UNL A   1      46.458  19.528  38.146  1.00  0.00     0.053 A 
ATOM     26  F   UNL A   1      46.616  17.490  39.290  1.00  0.00    -0.203 F 
BRANCH  21  27
ATOM     27  O   UNL A   1      48.915  18.360  40.611  1.00  0.00    -0.491 OA
BRANCH  27  28
ATOM     28  C   UNL A   1      48.414  18.554  41.940  1.00  0.00     0.226 C 
ATOM     29  C   UNL A   1      49.522  18.868  42.934  1.00  0.00     0.049 C 
ENDBRANCH  27  28
ENDBRANCH  21  27
ENDBRANCH  16  20
BRANCH  18  30
ATOM     30  C   UNL A   1      43.999  24.190  36.156  1.00  0.00     0.065 A 
ATOM     31  C   UNL A   1      43.219  24.458  35.024  1.00  0.00     0.028 A 
ATOM     32  C   UNL A   1      43.904  25.001  37.291  1.00  0.00     0.028 A 
ATOM     33  C   UNL A   1      42.323  25.527  35.038  1.00  0.00     0.002 A 
ATOM     34  C   UNL A   1      43.045  26.102  37.275  1.00  0.00     0.002 A 
ATOM     35  C   UNL A   1      42.249  26.358  36.157  1.00  0.00     0.000 A 
ENDBRANCH  18  30
ENDBRANCH   8  15
ENDBRANCH   6   7
ENDBRANCH   3   6
ENDBRANCH   1   2
BRANCH   1  36
ATOM     36  C   UNL A   1      49.967  28.105  34.049  1.00  0.00     0.023 C 
BRANCH  36  37
ATOM     37  C   UNL A   1      50.061  29.079  35.232  1.00  0.00     0.023 C 
BRANCH  37  38
ATOM     38  C   UNL A   1      48.813  29.160  36.103  1.00  0.00     0.116 C 
BRANCH  38  39
ATOM     39  N   UNL A   1      48.612  27.968  36.932  1.00  0.00    -0.352 N 
ATOM     40  C   UNL A   1      47.493  27.158  36.990  1.00  0.00     0.251 C 
ATOM     41  H   UNL A   1      49.363  27.715  37.517  1.00  0.00     0.163 HD
ATOM     42  O   UNL A   1      47.281  26.440  37.965  1.00  0.00    -0.269 OA
BRANCH  40  43
ATOM     43  C   UNL A   1      46.565  27.165  35.849  1.00  0.00     0.039 A 
ATOM     44  C   UNL A   1      45.547  28.115  35.725  1.00  0.00     0.014 A 
ATOM     45  C   UNL A   1      46.788  26.221  34.853  1.00  0.00     0.014 A 
ATOM     46  C   UNL A   1      44.816  28.164  34.539  1.00  0.00     0.010 A 
ATOM     47  C   UNL A   1      46.188  26.379  33.632  1.00  0.00     0.010 A 
ATOM     48  C   UNL A   1      45.158  27.304  33.484  1.00  0.00    -0.014 A 
BRANCH  48  49
ATOM     49  C   UNL A   1      44.523  27.413  32.174  1.00  0.00     0.031 A 
ATOM     50  C   UNL A   1      44.768  26.272  31.243  1.00  0.00     0.074 A 
ATOM     51  C   UNL A   1      43.568  28.335  31.921  1.00  0.00     0.049 A 
ATOM     52  N   UNL A   1      45.361  26.296  30.094  1.00  0.00    -0.248 NA
ATOM     53  C   UNL A   1      44.398  24.920  31.691  1.00  0.00     0.031 C 
ATOM     54  C   UNL A   1      42.972  29.304  32.854  1.00  0.00     0.029 A 
ATOM     55  N   UNL A   1      42.797  28.486  30.810  1.00  0.00    -0.354 N 
ATOM     56  C   UNL A   1      45.238  25.007  29.576  1.00  0.00     0.074 A 
ATOM     57  C   UNL A   1      44.813  24.171  30.668  1.00  0.00     0.031 C 
ATOM     58  C   UNL A   1      41.782  29.723  32.372  1.00  0.00     0.029 A 
ATOM     59  C   UNL A   1      41.630  29.216  31.025  1.00  0.00     0.049 A 
ATOM     60  H   UNL A   1      43.043  28.113  29.933  1.00  0.00     0.167 HD
ATOM     61  C   UNL A   1      45.266  24.763  28.235  1.00  0.00     0.034 A 
ATOM     62  C   UNL A   1      40.595  29.349  30.163  1.00  0.00     0.034 A 
ATOM     63  C   UNL A   1      45.759  25.896  27.498  1.00  0.00     0.049 A 
ATOM     64  C   UNL A   1      41.114  29.014  28.819  1.00  0.00     0.074 A 
ATOM     65  C   UNL A   1      46.929  26.627  27.493  1.00  0.00     0.029 A 
ATOM     66  N   UNL A   1      44.825  26.676  26.863  1.00  0.00    -0.354 N 
ATOM     67  N   UNL A   1      42.008  29.723  28.192  1.00  0.00    -0.248 NA
ATOM     68  C   UNL A   1      40.928  27.658  28.335  1.00  0.00     0.031 C 
ATOM     69  C   UNL A   1      46.512  27.978  27.307  1.00  0.00     0.029 A 
ATOM     70  C   UNL A   1      45.124  27.981  27.147  1.00  0.00     0.049 A 
ATOM     71  H   UNL A   1      44.079  26.355  26.305  1.00  0.00     0.167 HD
ATOM     72  C   UNL A   1      42.803  28.782  27.553  1.00  0.00     0.074 A 
ATOM     73  C   UNL A   1      42.019  27.549  27.572  1.00  0.00     0.031 C 
ATOM     74  C   UNL A   1      44.130  29.016  27.335  1.00  0.00     0.034 A 
BRANCH  61  75
ATOM     75  C   UNL A   1      44.544  23.631  27.541  1.00  0.00     0.023 A 
ATOM     76  C   UNL A   1      45.274  22.849  26.618  1.00  0.00     0.012 A 
ATOM     77  C   UNL A   1      43.142  23.451  27.559  1.00  0.00     0.148 A 
ATOM     78  C   UNL A   1      44.641  21.954  25.746  1.00  0.00     0.002 A 
ATOM     79  C   UNL A   1      42.528  22.494  26.760  1.00  0.00     0.091 A 
ATOM     80  F   UNL A   1      42.369  24.299  28.246  1.00  0.00    -0.205 F 
ATOM     81  C   UNL A   1      43.267  21.764  25.828  1.00  0.00     0.022 A 
BRANCH  79  82
ATOM     82  S   UNL A   1      40.769  22.152  26.895  1.00  0.00     0.127 S 
ATOM     83  O   UNL A   1      40.594  21.107  25.891  1.00  0.00    -0.237 OA
ATOM     84  O   UNL A   1      40.655  21.704  28.283  1.00  0.00    -0.237 OA
ATOM     85  O   UNL A   1      40.112  23.426  26.626  1.00  0.00    -0.744 OA
ENDBRANCH  79  82
ENDBRANCH  61  75
BRANCH  62  86
ATOM     86  C   UNL A   1      39.141  29.489  30.408  1.00  0.00     0.023 A 
ATOM     87  C   UNL A   1      38.499  28.542  31.233  1.00  0.00     0.012 A 
ATOM     88  C   UNL A   1      38.472  30.700  30.131  1.00  0.00     0.148 A 
ATOM     89  C   UNL A   1      37.263  28.823  31.825  1.00  0.00     0.002 A 
ATOM     90  C   UNL A   1      37.243  30.974  30.725  1.00  0.00     0.091 A 
ATOM     91  F   UNL A   1      39.086  31.620  29.375  1.00  0.00    -0.205 F 
ATOM     92  C   UNL A   1      36.644  30.045  31.587  1.00  0.00     0.022 A 
BRANCH  90  93
ATOM     93  S   UNL A   1      36.405  32.549  30.501  1.00  0.00     0.127 S 
ATOM     94  O   UNL A   1      37.215  33.446  31.327  1.00  0.00    -0.237 OA
ATOM     95  O   UNL A   1      36.538  32.753  29.061  1.00  0.00    -0.237 OA
ATOM     96  O   UNL A   1      35.049  32.343  30.994  1.00  0.00    -0.744 OA
ENDBRANCH  90  93
ENDBRANCH  62  86
BRANCH  74  97
ATOM     97  C   UNL A   1      44.661  30.410  27.576  1.00  0.00     0.023 A 
ATOM     98  C   UNL A   1      44.495  31.455  26.642  1.00  0.00     0.012 A 
ATOM     99  C   UNL A   1      45.157  30.720  28.852  1.00  0.00     0.148 A 
ATOM    100  C   UNL A   1      44.831  32.773  26.968  1.00  0.00     0.002 A 
ATOM    101  C   UNL A   1      45.440  32.038  29.193  1.00  0.00     0.091 A 
ATOM    102  F   UNL A   1      45.312  29.718  29.731  1.00  0.00    -0.205 F 
ATOM    103  C   UNL A   1      45.288  33.066  28.250  1.00  0.00     0.022 A 
BRANCH 101 104
ATOM    104  S   UNL A   1      45.889  32.494  30.868  1.00  0.00     0.127 S 
ATOM    105  O   UNL A   1      47.149  31.779  31.053  1.00  0.00    -0.237 OA
ATOM    106  O   UNL A   1      46.020  33.949  30.774  1.00  0.00    -0.237 OA
ATOM    107  O   UNL A   1      44.785  32.052  31.712  1.00  0.00    -0.744 OA
ENDBRANCH 101 104
ENDBRANCH  74  97
ENDBRANCH  48  49
ENDBRANCH  40  43
ENDBRANCH  38  39
ENDBRANCH  37  38
ENDBRANCH  36  37
ENDBRANCH   1  36
TORSDOF 20
ENDMDL
MODEL 3
REMARK VINA RESULT:      -9.4      3.721      9.353
REMARK SMILES CCOc1ccc(-c2nn(-c3ccccc3)cc2/C=C2/SC(=S)N(CC(=O)NCCCCNC(=O)c3ccc(-c4c5nc(c(-c6cccc(S(=O)(=O)[O-])c6F)c6ccc([nH]6)c(-c6cccc(S(=O)(=O)[O-])c6F)c6nc(c(-c7cccc(S(=O)(=O)[O-])c7F)c7ccc4[nH]7)C=C6)C=C5)cc3)C2=O)cc1F
REMARK SMILES IDX 29 1 28 2 26 3 27 4 25 6 24 7 19 8 20 9 21 10 99 11 22 12
REMARK SMILES IDX 100 13 23 14 18 15 8 16 9 17 10 18 17 19 7 20 4 21 5 22
REMARK SMILES IDX 102 23 6 24 101 25 103 26 3 27 2 28 1 29 11 30 12 31 16 32
REMARK SMILES IDX 13 33 15 34 14 35 30 36 31 37 32 38 33 39 34 40 35 42 36 43
REMARK SMILES IDX 37 44 98 45 38 46 97 47 39 48 40 49 41 50 91 51 42 52 96 53
REMARK SMILES IDX 90 54 92 55 43 56 95 57 89 58 88 59 44 61 76 62 56 63 75 64
REMARK SMILES IDX 57 65 60 66 74 67 93 68 58 69 59 70 73 72 94 73 61 74 45 75
REMARK SMILES IDX 46 76 54 77 47 78 49 79 55 80 48 81 50 82 51 83 52 84 53 85
REMARK SMILES IDX 77 86 78 87 86 88 79 89 81 90 87 91 80 92 82 93 83 94 84 95
REMARK SMILES IDX 85 96 62 97 63 98 71 99 64 100 66 101 72 102 65 103 67 104
REMARK SMILES IDX 68 105 69 106 70 107
REMARK H PARENT 28 5 33 41 92 60 60 71
REMARK Flexibility Score: inf
ROOT
ATOM      1  C   UNL A   1      45.628  26.486  25.366  1.00  0.00     0.116 C 
ENDROOT
BRANCH   1   2
ATOM      2  N   UNL A   1      46.568  27.199  26.204  1.00  0.00    -0.355 N 
ATOM      3  C   UNL A   1      47.482  26.731  27.104  1.00  0.00     0.240 C 
ATOM      4  O   UNL A   1      48.258  27.546  27.604  1.00  0.00    -0.273 OA
ATOM      5  H   UNL A   1      46.545  28.179  26.110  1.00  0.00     0.163 HD
BRANCH   3   6
ATOM      6  C   UNL A   1      47.584  25.236  27.445  1.00  0.00     0.227 C 
BRANCH   6   7
ATOM      7  N   UNL A   1      46.491  24.826  28.330  1.00  0.00    -0.283 N 
ATOM      8  C   UNL A   1      44.976  25.312  31.599  1.00  0.00     0.033 C 
ATOM      9  C   UNL A   1      45.300  24.916  30.359  1.00  0.00     0.081 C 
ATOM     10  S   UNL A   1      44.298  23.946  29.352  1.00  0.00    -0.054 SA
ATOM     11  C   UNL A   1      46.578  25.213  29.652  1.00  0.00     0.266 C 
ATOM     12  C   UNL A   1      45.459  23.974  28.020  1.00  0.00     0.148 C 
ATOM     13  O   UNL A   1      47.568  25.688  30.182  1.00  0.00    -0.268 OA
ATOM     14  S   UNL A   1      45.246  23.045  26.653  1.00  0.00    -0.052 S 
BRANCH   8  15
ATOM     15  C   UNL A   1      45.862  26.002  32.471  1.00  0.00     0.022 A 
ATOM     16  C   UNL A   1      46.722  25.451  33.454  1.00  0.00     0.100 A 
ATOM     17  N   UNL A   1      47.569  26.379  33.917  1.00  0.00    -0.167 NA
ATOM     18  N   UNL A   1      47.219  27.524  33.282  1.00  0.00    -0.240 N 
ATOM     19  C   UNL A   1      46.106  27.356  32.488  1.00  0.00     0.123 A 
BRANCH  16  20
ATOM     20  C   UNL A   1      46.736  24.102  33.999  1.00  0.00     0.006 A 
ATOM     21  C   UNL A   1      46.851  21.574  35.190  1.00  0.00     0.154 A 
ATOM     22  C   UNL A   1      45.634  22.058  34.709  1.00  0.00     0.050 A 
ATOM     23  C   UNL A   1      48.010  22.329  35.023  1.00  0.00     0.165 A 
ATOM     24  C   UNL A   1      45.575  23.325  34.115  1.00  0.00     0.014 A 
ATOM     25  C   UNL A   1      47.957  23.588  34.448  1.00  0.00     0.053 A 
ATOM     26  F   UNL A   1      49.202  21.851  35.407  1.00  0.00    -0.203 F 
BRANCH  21  27
ATOM     27  O   UNL A   1      46.896  20.312  35.719  1.00  0.00    -0.491 OA
BRANCH  27  28
ATOM     28  C   UNL A   1      46.172  20.206  36.952  1.00  0.00     0.226 C 
ATOM     29  C   UNL A   1      45.661  18.795  37.201  1.00  0.00     0.049 C 
ENDBRANCH  27  28
ENDBRANCH  21  27
ENDBRANCH  16  20
BRANCH  18  30
ATOM     30  C   UNL A   1      47.941  28.717  33.511  1.00  0.00     0.065 A 
ATOM     31  C   UNL A   1      48.630  28.869  34.722  1.00  0.00     0.028 A 
ATOM     32  C   UNL A   1      47.973  29.729  32.547  1.00  0.00     0.028 A 
ATOM     33  C   UNL A   1      49.370  30.028  34.956  1.00  0.00     0.002 A 
ATOM     34  C   UNL A   1      48.671  30.908  32.814  1.00  0.00     0.002 A 
ATOM     35  C   UNL A   1      49.377  31.053  34.010  1.00  0.00     0.000 A 
ENDBRANCH  18  30
ENDBRANCH   8  15
ENDBRANCH   6   7
ENDBRANCH   3   6
ENDBRANCH   1   2
BRANCH   1  36
ATOM     36  C   UNL A   1      44.172  26.855  25.668  1.00  0.00     0.023 C 
BRANCH  36  37
ATOM     37  C   UNL A   1      43.106  25.873  25.162  1.00  0.00     0.023 C 
BRANCH  37  38
ATOM     38  C   UNL A   1      42.352  25.120  26.251  1.00  0.00     0.116 C 
BRANCH  38  39
ATOM     39  N   UNL A   1      40.998  24.729  25.850  1.00  0.00    -0.352 N 
ATOM     40  C   UNL A   1      39.810  25.010  26.499  1.00  0.00     0.251 C 
ATOM     41  H   UNL A   1      40.926  24.204  25.020  1.00  0.00     0.163 HD
ATOM     42  O   UNL A   1      38.804  24.331  26.301  1.00  0.00    -0.269 OA
BRANCH  40  43
ATOM     43  C   UNL A   1      39.772  26.152  27.426  1.00  0.00     0.039 A 
ATOM     44  C   UNL A   1      39.536  25.990  28.794  1.00  0.00     0.014 A 
ATOM     45  C   UNL A   1      40.054  27.404  26.892  1.00  0.00     0.014 A 
ATOM     46  C   UNL A   1      39.683  27.093  29.635  1.00  0.00     0.010 A 
ATOM     47  C   UNL A   1      40.361  28.440  27.733  1.00  0.00     0.010 A 
ATOM     48  C   UNL A   1      40.119  28.314  29.098  1.00  0.00    -0.014 A 
BRANCH  48  49
ATOM     49  C   UNL A   1      40.428  29.457  29.952  1.00  0.00     0.031 A 
ATOM     50  C   UNL A   1      39.248  30.210  30.472  1.00  0.00     0.074 A 
ATOM     51  C   UNL A   1      41.666  29.654  30.458  1.00  0.00     0.049 A 
ATOM     52  N   UNL A   1      38.935  31.446  30.256  1.00  0.00    -0.248 NA
ATOM     53  C   UNL A   1      38.238  29.468  31.244  1.00  0.00     0.031 C 
ATOM     54  C   UNL A   1      42.852  28.794  30.314  1.00  0.00     0.029 A 
ATOM     55  N   UNL A   1      42.085  30.583  31.358  1.00  0.00    -0.354 N 
ATOM     56  C   UNL A   1      37.814  31.698  31.046  1.00  0.00     0.074 A 
ATOM     57  C   UNL A   1      37.325  30.413  31.475  1.00  0.00     0.031 C 
ATOM     58  C   UNL A   1      43.734  29.075  31.296  1.00  0.00     0.029 A 
ATOM     59  C   UNL A   1      43.275  30.252  32.003  1.00  0.00     0.049 A 
ATOM     60  H   UNL A   1      41.592  31.416  31.537  1.00  0.00     0.167 HD
ATOM     61  C   UNL A   1      37.506  32.952  31.483  1.00  0.00     0.034 A 
ATOM     62  C   UNL A   1      43.811  30.882  33.073  1.00  0.00     0.034 A 
ATOM     63  C   UNL A   1      38.249  33.959  30.774  1.00  0.00     0.049 A 
ATOM     64  C   UNL A   1      43.202  32.229  33.124  1.00  0.00     0.074 A 
ATOM     65  C   UNL A   1      38.370  34.339  29.453  1.00  0.00     0.029 A 
ATOM     66  N   UNL A   1      39.330  34.504  31.423  1.00  0.00    -0.354 N 
ATOM     67  N   UNL A   1      43.393  33.144  32.219  1.00  0.00    -0.248 NA
ATOM     68  C   UNL A   1      42.051  32.423  33.989  1.00  0.00     0.031 C 
ATOM     69  C   UNL A   1      39.751  34.660  29.293  1.00  0.00     0.029 A 
ATOM     70  C   UNL A   1      40.372  34.518  30.536  1.00  0.00     0.049 A 
ATOM     71  H   UNL A   1      39.350  34.826  32.354  1.00  0.00     0.167 HD
ATOM     72  C   UNL A   1      42.159  33.768  32.099  1.00  0.00     0.074 A 
ATOM     73  C   UNL A   1      41.417  33.372  33.294  1.00  0.00     0.031 C 
ATOM     74  C   UNL A   1      41.753  34.301  30.909  1.00  0.00     0.034 A 
BRANCH  61  75
ATOM     75  C   UNL A   1      36.786  33.271  32.773  1.00  0.00     0.023 A 
ATOM     76  C   UNL A   1      35.641  34.097  32.702  1.00  0.00     0.012 A 
ATOM     77  C   UNL A   1      37.307  33.014  34.061  1.00  0.00     0.148 A 
ATOM     78  C   UNL A   1      35.062  34.654  33.850  1.00  0.00     0.002 A 
ATOM     79  C   UNL A   1      36.672  33.489  35.203  1.00  0.00     0.091 A 
ATOM     80  F   UNL A   1      38.500  32.424  34.193  1.00  0.00    -0.205 F 
ATOM     81  C   UNL A   1      35.568  34.335  35.104  1.00  0.00     0.022 A 
BRANCH  79  82
ATOM     82  S   UNL A   1      37.239  33.032  36.846  1.00  0.00     0.127 S 
ATOM     83  O   UNL A   1      37.564  31.621  36.663  1.00  0.00    -0.237 OA
ATOM     84  O   UNL A   1      38.391  33.917  37.025  1.00  0.00    -0.237 OA
ATOM     85  O   UNL A   1      36.120  33.330  37.731  1.00  0.00    -0.744 OA
ENDBRANCH  79  82
ENDBRANCH  61  75
BRANCH  62  86
ATOM     86  C   UNL A   1      44.608  30.359  34.207  1.00  0.00     0.023 A 
ATOM     87  C   UNL A   1      45.534  31.216  34.837  1.00  0.00     0.012 A 
ATOM     88  C   UNL A   1      44.229  29.175  34.875  1.00  0.00     0.148 A 
ATOM     89  C   UNL A   1      46.010  30.942  36.123  1.00  0.00     0.002 A 
ATOM     90  C   UNL A   1      44.705  28.909  36.156  1.00  0.00     0.091 A 
ATOM     91  F   UNL A   1      43.326  28.369  34.301  1.00  0.00    -0.205 F 
ATOM     92  C   UNL A   1      45.582  29.799  36.790  1.00  0.00     0.022 A 
BRANCH  90  93
ATOM     93  S   UNL A   1      44.162  27.477  37.097  1.00  0.00     0.127 S 
ATOM     94  O   UNL A   1      42.705  27.586  37.006  1.00  0.00    -0.237 OA
ATOM     95  O   UNL A   1      44.743  26.379  36.329  1.00  0.00    -0.237 OA
ATOM     96  O   UNL A   1      44.693  27.668  38.441  1.00  0.00    -0.744 OA
ENDBRANCH  90  93
ENDBRANCH  62  86
BRANCH  74  97
ATOM     97  C   UNL A   1      42.769  34.421  29.796  1.00  0.00     0.023 A 
ATOM     98  C   UNL A   1      43.603  35.550  29.650  1.00  0.00     0.012 A 
ATOM     99  C   UNL A   1      43.023  33.289  29.005  1.00  0.00     0.148 A 
ATOM    100  C   UNL A   1      44.654  35.555  28.727  1.00  0.00     0.002 A 
ATOM    101  C   UNL A   1      44.101  33.275  28.127  1.00  0.00     0.091 A 
ATOM    102  F   UNL A   1      42.222  32.222  29.152  1.00  0.00    -0.205 F 
ATOM    103  C   UNL A   1      44.913  34.410  27.978  1.00  0.00     0.022 A 
BRANCH 101 104
ATOM    104  S   UNL A   1      44.571  31.785  27.247  1.00  0.00     0.127 S 
ATOM    105  O   UNL A   1      44.603  32.246  25.861  1.00  0.00    -0.237 OA
ATOM    106  O   UNL A   1      45.883  31.480  27.822  1.00  0.00    -0.237 OA
ATOM    107  O   UNL A   1      43.544  30.797  27.559  1.00  0.00    -0.744 OA
ENDBRANCH 101 104
ENDBRANCH  74  97
ENDBRANCH  48  49
ENDBRANCH  40  43
ENDBRANCH  38  39
ENDBRANCH  37  38
ENDBRANCH  36  37
ENDBRANCH   1  36
TORSDOF 20
ENDMDL
