MODEL 1
REMARK VINA RESULT:     -12.9      0.000      0.000
REMARK SMILES Cc1ccccc1C(=O)Nc1ccc(N2CCC(n3c(C)nc4cccnc43)CC2)c(C(=O)NCCCCNC(=O)c2ccc(-c3c4nc(c(-c5cccc(S(=O)(=O)[O-])c5F)c5ccc([nH]5)c(-c5cccc(S(=O)(=O)[O-])c5F)c5nc(c(-c6cccc(S(=O)(=O)[O-])c6F)c6ccc3[nH]6)C=C5)C=C4)cc2)c1
REMARK SMILES IDX 37 1 36 2 35 3 34 4 32 5 33 6 31 8 11 9 12 10 105 11 13 12
REMARK SMILES IDX 14 13 10 14 8 15 9 16 7 18 1 19 2 20 3 21 4 22 6 23 5 24
REMARK SMILES IDX 15 25 16 26 30 27 17 28 29 29 18 30 19 31 20 32 28 33 21 34
REMARK SMILES IDX 22 35 23 36 27 37 24 38 26 39 25 40 38 41 39 42 40 43 41 45
REMARK SMILES IDX 42 46 43 47 104 48 44 49 103 50 45 51 46 52 47 53 97 54
REMARK SMILES IDX 48 55 102 56 96 57 98 58 49 59 101 60 95 61 94 62 50 64
REMARK SMILES IDX 82 65 62 66 81 67 63 68 66 69 80 70 99 71 64 72 65 73 79 75
REMARK SMILES IDX 100 76 67 77 51 78 52 79 60 80 53 81 55 82 61 83 54 84 56 85
REMARK SMILES IDX 57 86 58 87 59 88 83 89 84 90 92 91 85 92 87 93 93 94 86 95
REMARK SMILES IDX 88 96 89 97 90 98 91 99 68 100 69 101 77 102 70 103 72 104
REMARK SMILES IDX 78 105 71 106 73 107 74 108 75 109 76 110
REMARK H PARENT 34 7 10 17 39 44 98 63 66 74
REMARK Flexibility Score: inf
ROOT
ATOM      1  C   UNL A   1      45.784  24.304  37.902  1.00  0.00     0.023 C 
ENDROOT
BRANCH   1   2
ATOM      2  C   UNL A   1      46.252  23.571  39.161  1.00  0.00     0.023 C 
BRANCH   2   3
ATOM      3  C   UNL A   1      46.171  22.049  39.230  1.00  0.00     0.116 C 
BRANCH   3   4
ATOM      4  N   UNL A   1      46.133  21.242  38.036  1.00  0.00    -0.352 N 
ATOM      5  C   UNL A   1      46.924  20.140  37.716  1.00  0.00     0.253 C 
ATOM      6  O   UNL A   1      46.630  19.541  36.677  1.00  0.00    -0.269 OA
ATOM      7  H   UNL A   1      45.465  21.501  37.362  1.00  0.00     0.163 HD
BRANCH   5   8
ATOM      8  C   UNL A   1      48.145  19.658  38.487  1.00  0.00     0.065 A 
ATOM      9  C   UNL A   1      50.551  19.179  38.272  1.00  0.00     0.042 A 
ATOM     10  C   UNL A   1      50.630  18.818  39.601  1.00  0.00     0.028 A 
ATOM     11  C   UNL A   1      49.366  19.739  37.767  1.00  0.00     0.042 A 
ATOM     12  C   UNL A   1      49.457  18.759  40.335  1.00  0.00     0.029 A 
ATOM     13  C   UNL A   1      48.189  19.027  39.752  1.00  0.00     0.050 A 
BRANCH   9  14
ATOM     14  N   UNL A   1      51.586  18.883  37.380  1.00  0.00    -0.322 N 
ATOM     15  C   UNL A   1      51.904  19.442  36.153  1.00  0.00     0.255 C 
ATOM     16  O   UNL A   1      52.699  18.812  35.447  1.00  0.00    -0.269 OA
ATOM     17  H   UNL A   1      52.185  18.158  37.670  1.00  0.00     0.170 HD
BRANCH  15  18
ATOM     18  C   UNL A   1      51.418  20.782  35.639  1.00  0.00     0.043 A 
ATOM     19  C   UNL A   1      49.633  20.015  33.916  1.00  0.00     0.045 C 
ATOM     20  C   UNL A   1      50.453  21.039  34.641  1.00  0.00    -0.038 A 
ATOM     21  C   UNL A   1      50.140  22.376  34.295  1.00  0.00     0.004 A 
ATOM     22  C   UNL A   1      50.642  23.450  35.018  1.00  0.00     0.000 A 
ATOM     23  C   UNL A   1      51.891  21.894  36.372  1.00  0.00     0.014 A 
ATOM     24  C   UNL A   1      51.491  23.206  36.085  1.00  0.00     0.001 A 
ENDBRANCH  15  18
ENDBRANCH   9  14
BRANCH  13  25
ATOM     25  N   UNL A   1      47.102  18.433  40.400  1.00  0.00    -0.371 N 
ATOM     26  C   UNL A   1      46.671  19.008  41.663  1.00  0.00     0.118 C 
ATOM     27  C   UNL A   1      46.505  17.258  39.777  1.00  0.00     0.118 C 
ATOM     28  C   UNL A   1      45.816  18.129  42.526  1.00  0.00     0.047 C 
ATOM     29  C   UNL A   1      46.031  16.264  40.812  1.00  0.00     0.047 C 
ATOM     30  C   UNL A   1      45.177  16.883  41.910  1.00  0.00     0.094 C 
BRANCH  30  31
ATOM     31  N   UNL A   1      44.857  15.994  43.037  1.00  0.00    -0.310 N 
ATOM     32  C   UNL A   1      45.562  15.665  44.180  1.00  0.00     0.108 A 
ATOM     33  C   UNL A   1      43.604  15.434  43.173  1.00  0.00     0.160 A 
ATOM     34  C   UNL A   1      47.040  15.717  44.344  1.00  0.00     0.088 C 
ATOM     35  N   UNL A   1      44.753  15.167  45.104  1.00  0.00    -0.232 NA
ATOM     36  C   UNL A   1      43.562  14.944  44.469  1.00  0.00     0.108 A 
ATOM     37  N   UNL A   1      42.664  15.318  42.215  1.00  0.00    -0.237 NA
ATOM     38  C   UNL A   1      42.436  14.198  44.846  1.00  0.00     0.034 A 
ATOM     39  C   UNL A   1      41.639  14.517  42.590  1.00  0.00     0.113 A 
ATOM     40  C   UNL A   1      41.481  13.947  43.851  1.00  0.00     0.022 A 
ENDBRANCH  30  31
ENDBRANCH  13  25
ENDBRANCH   5   8
ENDBRANCH   3   4
ENDBRANCH   2   3
ENDBRANCH   1   2
BRANCH   1  41
ATOM     41  C   UNL A   1      46.840  24.564  36.835  1.00  0.00     0.116 C 
BRANCH  41  42
ATOM     42  N   UNL A   1      47.137  23.413  35.979  1.00  0.00    -0.352 N 
ATOM     43  C   UNL A   1      46.572  23.098  34.748  1.00  0.00     0.251 C 
ATOM     44  H   UNL A   1      47.820  22.787  36.315  1.00  0.00     0.163 HD
ATOM     45  O   UNL A   1      46.622  21.947  34.328  1.00  0.00    -0.269 OA
BRANCH  43  46
ATOM     46  C   UNL A   1      45.966  24.173  33.933  1.00  0.00     0.039 A 
ATOM     47  C   UNL A   1      46.555  25.437  33.761  1.00  0.00     0.014 A 
ATOM     48  C   UNL A   1      44.702  23.923  33.419  1.00  0.00     0.014 A 
ATOM     49  C   UNL A   1      45.844  26.446  33.104  1.00  0.00     0.010 A 
ATOM     50  C   UNL A   1      44.095  24.830  32.612  1.00  0.00     0.010 A 
ATOM     51  C   UNL A   1      44.597  26.131  32.579  1.00  0.00    -0.014 A 
BRANCH  51  52
ATOM     52  C   UNL A   1      43.599  27.055  32.078  1.00  0.00     0.031 A 
ATOM     53  C   UNL A   1      42.605  27.628  32.985  1.00  0.00     0.074 A 
ATOM     54  C   UNL A   1      43.985  27.650  30.924  1.00  0.00     0.049 A 
ATOM     55  N   UNL A   1      41.767  28.538  32.640  1.00  0.00    -0.248 NA
ATOM     56  C   UNL A   1      42.473  27.207  34.374  1.00  0.00     0.031 C 
ATOM     57  C   UNL A   1      43.812  29.028  30.483  1.00  0.00     0.029 A 
ATOM     58  N   UNL A   1      44.747  27.129  29.890  1.00  0.00    -0.354 N 
ATOM     59  C   UNL A   1      41.226  29.046  33.802  1.00  0.00     0.074 A 
ATOM     60  C   UNL A   1      41.564  28.081  34.817  1.00  0.00     0.031 C 
ATOM     61  C   UNL A   1      44.154  29.106  29.179  1.00  0.00     0.029 A 
ATOM     62  C   UNL A   1      44.314  27.734  28.721  1.00  0.00     0.049 A 
ATOM     63  H   UNL A   1      45.460  26.455  29.971  1.00  0.00     0.167 HD
ATOM     64  C   UNL A   1      40.734  30.317  33.772  1.00  0.00     0.034 A 
ATOM     65  C   UNL A   1      43.451  27.100  27.855  1.00  0.00     0.034 A 
ATOM     66  C   UNL A   1      40.756  30.830  32.386  1.00  0.00     0.049 A 
ATOM     67  C   UNL A   1      42.167  27.860  27.684  1.00  0.00     0.074 A 
ATOM     68  C   UNL A   1      41.640  31.654  31.709  1.00  0.00     0.029 A 
ATOM     69  N   UNL A   1      39.967  30.218  31.416  1.00  0.00    -0.354 N 
ATOM     70  N   UNL A   1      41.674  28.648  28.596  1.00  0.00    -0.248 NA
ATOM     71  C   UNL A   1      41.392  27.865  26.452  1.00  0.00     0.031 C 
ATOM     72  C   UNL A   1      41.431  31.462  30.312  1.00  0.00     0.029 A 
ATOM     73  C   UNL A   1      40.397  30.552  30.141  1.00  0.00     0.049 A 
ATOM     74  H   UNL A   1      39.204  29.627  31.610  1.00  0.00     0.167 HD
ATOM     75  C   UNL A   1      40.528  29.224  28.140  1.00  0.00     0.074 A 
ATOM     76  C   UNL A   1      40.425  28.744  26.769  1.00  0.00     0.031 C 
ATOM     77  C   UNL A   1      39.744  29.992  28.956  1.00  0.00     0.034 A 
BRANCH  64  78
ATOM     78  C   UNL A   1      40.486  31.225  34.973  1.00  0.00     0.023 A 
ATOM     79  C   UNL A   1      41.608  31.922  35.482  1.00  0.00     0.012 A 
ATOM     80  C   UNL A   1      39.278  31.417  35.690  1.00  0.00     0.148 A 
ATOM     81  C   UNL A   1      41.555  32.710  36.638  1.00  0.00     0.002 A 
ATOM     82  C   UNL A   1      39.220  32.204  36.846  1.00  0.00     0.091 A 
ATOM     83  F   UNL A   1      38.149  30.855  35.270  1.00  0.00    -0.205 F 
ATOM     84  C   UNL A   1      40.361  32.847  37.327  1.00  0.00     0.022 A 
BRANCH  82  85
ATOM     85  S   UNL A   1      37.704  32.430  37.801  1.00  0.00     0.127 S 
ATOM     86  O   UNL A   1      36.833  33.105  36.839  1.00  0.00    -0.237 OA
ATOM     87  O   UNL A   1      37.320  31.052  38.106  1.00  0.00    -0.237 OA
ATOM     88  O   UNL A   1      38.057  33.239  38.962  1.00  0.00    -0.744 OA
ENDBRANCH  82  85
ENDBRANCH  64  78
BRANCH  65  89
ATOM     89  C   UNL A   1      43.573  25.603  27.873  1.00  0.00     0.023 A 
ATOM     90  C   UNL A   1      42.447  24.972  28.419  1.00  0.00     0.012 A 
ATOM     91  C   UNL A   1      44.372  24.878  26.957  1.00  0.00     0.148 A 
ATOM     92  C   UNL A   1      41.940  23.854  27.774  1.00  0.00     0.002 A 
ATOM     93  C   UNL A   1      43.901  23.666  26.438  1.00  0.00     0.091 A 
ATOM     94  F   UNL A   1      45.541  25.399  26.564  1.00  0.00    -0.205 F 
ATOM     95  C   UNL A   1      42.632  23.211  26.773  1.00  0.00     0.022 A 
BRANCH  93  96
ATOM     96  S   UNL A   1      44.806  22.670  25.253  1.00  0.00     0.127 S 
ATOM     97  O   UNL A   1      43.838  21.627  24.943  1.00  0.00    -0.237 OA
ATOM     98  O   UNL A   1      45.065  23.602  24.155  1.00  0.00    -0.237 OA
ATOM     99  O   UNL A   1      46.011  22.261  25.972  1.00  0.00    -0.744 OA
ENDBRANCH  93  96
ENDBRANCH  65  89
BRANCH  77 100
ATOM    100  C   UNL A   1      38.275  30.250  28.693  1.00  0.00     0.023 A 
ATOM    101  C   UNL A   1      37.392  29.218  28.313  1.00  0.00     0.012 A 
ATOM    102  C   UNL A   1      37.686  31.504  28.986  1.00  0.00     0.148 A 
ATOM    103  C   UNL A   1      36.023  29.425  28.147  1.00  0.00     0.002 A 
ATOM    104  C   UNL A   1      36.305  31.668  28.951  1.00  0.00     0.091 A 
ATOM    105  F   UNL A   1      38.456  32.556  29.292  1.00  0.00    -0.205 F 
ATOM    106  C   UNL A   1      35.474  30.646  28.491  1.00  0.00     0.022 A 
BRANCH 104 107
ATOM    107  S   UNL A   1      35.519  33.125  29.648  1.00  0.00     0.127 S 
ATOM    108  O   UNL A   1      35.818  34.137  28.637  1.00  0.00    -0.237 OA
ATOM    109  O   UNL A   1      34.114  32.718  29.708  1.00  0.00    -0.237 OA
ATOM    110  O   UNL A   1      36.141  33.316  30.951  1.00  0.00    -0.744 OA
ENDBRANCH 104 107
ENDBRANCH  77 100
ENDBRANCH  51  52
ENDBRANCH  43  46
ENDBRANCH  41  42
ENDBRANCH   1  41
TORSDOF 18
ENDMDL
MODEL 2
REMARK VINA RESULT:     -12.8      6.163     17.167
REMARK SMILES Cc1ccccc1C(=O)Nc1ccc(N2CCC(n3c(C)nc4cccnc43)CC2)c(C(=O)NCCCCNC(=O)c2ccc(-c3c4nc(c(-c5cccc(S(=O)(=O)[O-])c5F)c5ccc([nH]5)c(-c5cccc(S(=O)(=O)[O-])c5F)c5nc(c(-c6cccc(S(=O)(=O)[O-])c6F)c6ccc3[nH]6)C=C5)C=C4)cc2)c1
REMARK SMILES IDX 37 1 36 2 35 3 34 4 32 5 33 6 31 8 11 9 12 10 105 11 13 12
REMARK SMILES IDX 14 13 10 14 8 15 9 16 7 18 1 19 2 20 3 21 4 22 6 23 5 24
REMARK SMILES IDX 15 25 16 26 30 27 17 28 29 29 18 30 19 31 20 32 28 33 21 34
REMARK SMILES IDX 22 35 23 36 27 37 24 38 26 39 25 40 38 41 39 42 40 43 41 45
REMARK SMILES IDX 42 46 43 47 104 48 44 49 103 50 45 51 46 52 47 53 97 54
REMARK SMILES IDX 48 55 102 56 96 57 98 58 49 59 101 60 95 61 94 62 50 64
REMARK SMILES IDX 82 65 62 66 81 67 63 68 66 69 80 70 99 71 64 72 65 73 79 75
REMARK SMILES IDX 100 76 67 77 51 78 52 79 60 80 53 81 55 82 61 83 54 84 56 85
REMARK SMILES IDX 57 86 58 87 59 88 83 89 84 90 92 91 85 92 87 93 93 94 86 95
REMARK SMILES IDX 88 96 89 97 90 98 91 99 68 100 69 101 77 102 70 103 72 104
REMARK SMILES IDX 78 105 71 106 73 107 74 108 75 109 76 110
REMARK H PARENT 34 7 10 17 39 44 98 63 66 74
REMARK Flexibility Score: inf
ROOT
ATOM      1  C   UNL A   1      34.636  30.886  28.346  1.00  0.00     0.023 C 
ENDROOT
BRANCH   1   2
ATOM      2  C   UNL A   1      34.914  29.629  27.518  1.00  0.00     0.023 C 
BRANCH   2   3
ATOM      3  C   UNL A   1      33.811  29.029  26.651  1.00  0.00     0.116 C 
BRANCH   3   4
ATOM      4  N   UNL A   1      32.833  28.122  27.198  1.00  0.00    -0.352 N 
ATOM      5  C   UNL A   1      31.933  27.311  26.512  1.00  0.00     0.253 C 
ATOM      6  O   UNL A   1      31.265  26.532  27.200  1.00  0.00    -0.269 OA
ATOM      7  H   UNL A   1      32.797  28.069  28.180  1.00  0.00     0.163 HD
BRANCH   5   8
ATOM      8  C   UNL A   1      31.653  27.345  25.016  1.00  0.00     0.065 A 
ATOM      9  C   UNL A   1      29.915  27.852  23.345  1.00  0.00     0.042 A 
ATOM     10  C   UNL A   1      30.777  27.549  22.312  1.00  0.00     0.028 A 
ATOM     11  C   UNL A   1      30.394  27.901  24.665  1.00  0.00     0.042 A 
ATOM     12  C   UNL A   1      32.023  27.032  22.627  1.00  0.00     0.029 A 
ATOM     13  C   UNL A   1      32.418  26.781  23.969  1.00  0.00     0.050 A 
BRANCH   9  14
ATOM     14  N   UNL A   1      28.542  27.987  23.125  1.00  0.00    -0.322 N 
ATOM     15  C   UNL A   1      27.751  29.122  23.044  1.00  0.00     0.255 C 
ATOM     16  O   UNL A   1      26.528  28.951  23.118  1.00  0.00    -0.269 OA
ATOM     17  H   UNL A   1      28.057  27.139  23.010  1.00  0.00     0.170 HD
BRANCH  15  18
ATOM     18  C   UNL A   1      28.249  30.533  22.806  1.00  0.00     0.043 A 
ATOM     19  C   UNL A   1      27.653  30.834  20.297  1.00  0.00     0.045 C 
ATOM     20  C   UNL A   1      28.241  31.273  21.604  1.00  0.00    -0.038 A 
ATOM     21  C   UNL A   1      28.765  32.588  21.586  1.00  0.00     0.004 A 
ATOM     22  C   UNL A   1      29.148  33.233  22.754  1.00  0.00     0.000 A 
ATOM     23  C   UNL A   1      28.622  31.226  23.980  1.00  0.00     0.014 A 
ATOM     24  C   UNL A   1      29.041  32.563  23.961  1.00  0.00     0.001 A 
ENDBRANCH  15  18
ENDBRANCH   9  14
BRANCH  13  25
ATOM     25  N   UNL A   1      33.408  25.807  24.122  1.00  0.00    -0.371 N 
ATOM     26  C   UNL A   1      33.838  25.087  22.935  1.00  0.00     0.118 C 
ATOM     27  C   UNL A   1      33.909  25.561  25.469  1.00  0.00     0.118 C 
ATOM     28  C   UNL A   1      34.559  23.795  23.177  1.00  0.00     0.047 C 
ATOM     29  C   UNL A   1      34.233  24.099  25.680  1.00  0.00     0.047 C 
ATOM     30  C   UNL A   1      35.096  23.498  24.579  1.00  0.00     0.094 C 
BRANCH  30  31
ATOM     31  N   UNL A   1      35.272  22.039  24.643  1.00  0.00    -0.310 N 
ATOM     32  C   UNL A   1      36.346  21.257  25.028  1.00  0.00     0.108 A 
ATOM     33  C   UNL A   1      34.213  21.181  24.441  1.00  0.00     0.160 A 
ATOM     34  C   UNL A   1      37.778  21.658  25.001  1.00  0.00     0.088 C 
ATOM     35  N   UNL A   1      35.949  20.027  25.320  1.00  0.00    -0.232 NA
ATOM     36  C   UNL A   1      34.654  19.944  24.885  1.00  0.00     0.108 A 
ATOM     37  N   UNL A   1      33.035  21.476  23.857  1.00  0.00    -0.237 NA
ATOM     38  C   UNL A   1      33.815  18.841  24.678  1.00  0.00     0.034 A 
ATOM     39  C   UNL A   1      32.296  20.373  23.595  1.00  0.00     0.113 A 
ATOM     40  C   UNL A   1      32.628  19.072  23.968  1.00  0.00     0.022 A 
ENDBRANCH  30  31
ENDBRANCH  13  25
ENDBRANCH   5   8
ENDBRANCH   3   4
ENDBRANCH   2   3
ENDBRANCH   1   2
BRANCH   1  41
ATOM     41  C   UNL A   1      34.790  32.220  27.626  1.00  0.00     0.116 C 
BRANCH  41  42
ATOM     42  N   UNL A   1      34.495  33.395  28.450  1.00  0.00    -0.352 N 
ATOM     43  C   UNL A   1      35.029  33.719  29.693  1.00  0.00     0.251 C 
ATOM     44  H   UNL A   1      33.841  34.031  28.080  1.00  0.00     0.163 HD
ATOM     45  O   UNL A   1      34.436  34.500  30.428  1.00  0.00    -0.269 OA
BRANCH  43  46
ATOM     46  C   UNL A   1      36.340  33.159  30.087  1.00  0.00     0.039 A 
ATOM     47  C   UNL A   1      37.532  33.421  29.392  1.00  0.00     0.014 A 
ATOM     48  C   UNL A   1      36.335  32.246  31.132  1.00  0.00     0.014 A 
ATOM     49  C   UNL A   1      38.698  32.731  29.737  1.00  0.00     0.010 A 
ATOM     50  C   UNL A   1      37.498  31.726  31.597  1.00  0.00     0.010 A 
ATOM     51  C   UNL A   1      38.645  31.854  30.812  1.00  0.00    -0.014 A 
BRANCH  51  52
ATOM     52  C   UNL A   1      39.642  30.874  31.194  1.00  0.00     0.031 A 
ATOM     53  C   UNL A   1      39.723  29.595  30.488  1.00  0.00     0.074 A 
ATOM     54  C   UNL A   1      40.688  31.434  31.845  1.00  0.00     0.049 A 
ATOM     55  N   UNL A   1      40.650  28.728  30.690  1.00  0.00    -0.248 NA
ATOM     56  C   UNL A   1      38.748  29.185  29.486  1.00  0.00     0.031 C 
ATOM     57  C   UNL A   1      42.112  31.142  31.745  1.00  0.00     0.029 A 
ATOM     58  N   UNL A   1      40.694  32.515  32.712  1.00  0.00    -0.354 N 
ATOM     59  C   UNL A   1      40.589  27.827  29.649  1.00  0.00     0.074 A 
ATOM     60  C   UNL A   1      39.303  28.055  29.041  1.00  0.00     0.031 C 
ATOM     61  C   UNL A   1      42.753  31.790  32.741  1.00  0.00     0.029 A 
ATOM     62  C   UNL A   1      41.715  32.299  33.624  1.00  0.00     0.049 A 
ATOM     63  H   UNL A   1      40.088  33.289  32.686  1.00  0.00     0.167 HD
ATOM     64  C   UNL A   1      41.726  27.144  29.331  1.00  0.00     0.034 A 
ATOM     65  C   UNL A   1      41.465  31.812  34.888  1.00  0.00     0.034 A 
ATOM     66  C   UNL A   1      42.778  27.433  30.327  1.00  0.00     0.049 A 
ATOM     67  C   UNL A   1      42.159  30.503  35.135  1.00  0.00     0.074 A 
ATOM     68  C   UNL A   1      43.856  28.304  30.323  1.00  0.00     0.029 A 
ATOM     69  N   UNL A   1      42.597  27.039  31.651  1.00  0.00    -0.354 N 
ATOM     70  N   UNL A   1      42.460  29.663  34.187  1.00  0.00    -0.248 NA
ATOM     71  C   UNL A   1      42.647  30.083  36.440  1.00  0.00     0.031 C 
ATOM     72  C   UNL A   1      44.264  28.498  31.675  1.00  0.00     0.029 A 
ATOM     73  C   UNL A   1      43.461  27.719  32.495  1.00  0.00     0.049 A 
ATOM     74  H   UNL A   1      41.940  26.368  31.947  1.00  0.00     0.167 HD
ATOM     75  C   UNL A   1      43.115  28.590  34.710  1.00  0.00     0.074 A 
ATOM     76  C   UNL A   1      43.257  28.929  36.119  1.00  0.00     0.031 C 
ATOM     77  C   UNL A   1      43.423  27.501  33.943  1.00  0.00     0.034 A 
BRANCH  64  78
ATOM     78  C   UNL A   1      42.025  26.441  28.011  1.00  0.00     0.023 A 
ATOM     79  C   UNL A   1      42.127  27.264  26.864  1.00  0.00     0.012 A 
ATOM     80  C   UNL A   1      42.155  25.050  27.770  1.00  0.00     0.148 A 
ATOM     81  C   UNL A   1      42.297  26.752  25.571  1.00  0.00     0.002 A 
ATOM     82  C   UNL A   1      42.325  24.533  26.480  1.00  0.00     0.091 A 
ATOM     83  F   UNL A   1      42.131  24.186  28.781  1.00  0.00    -0.205 F 
ATOM     84  C   UNL A   1      42.389  25.385  25.376  1.00  0.00     0.022 A 
BRANCH  82  85
ATOM     85  S   UNL A   1      42.451  22.764  26.143  1.00  0.00     0.127 S 
ATOM     86  O   UNL A   1      41.076  22.312  26.359  1.00  0.00    -0.237 OA
ATOM     87  O   UNL A   1      42.885  22.743  24.746  1.00  0.00    -0.237 OA
ATOM     88  O   UNL A   1      43.417  22.225  27.093  1.00  0.00    -0.744 OA
ENDBRANCH  82  85
ENDBRANCH  64  78
BRANCH  65  89
ATOM     89  C   UNL A   1      40.110  32.185  35.419  1.00  0.00     0.023 A 
ATOM     90  C   UNL A   1      39.096  31.329  34.970  1.00  0.00     0.012 A 
ATOM     91  C   UNL A   1      39.918  32.875  36.639  1.00  0.00     0.148 A 
ATOM     92  C   UNL A   1      38.152  30.888  35.886  1.00  0.00     0.002 A 
ATOM     93  C   UNL A   1      38.856  32.513  37.478  1.00  0.00     0.091 A 
ATOM     94  F   UNL A   1      40.793  33.825  36.992  1.00  0.00    -0.205 F 
ATOM     95  C   UNL A   1      38.036  31.443  37.141  1.00  0.00     0.022 A 
BRANCH  93  96
ATOM     96  S   UNL A   1      38.523  33.291  39.058  1.00  0.00     0.127 S 
ATOM     97  O   UNL A   1      38.587  34.704  38.711  1.00  0.00    -0.237 OA
ATOM     98  O   UNL A   1      37.184  32.810  39.398  1.00  0.00    -0.237 OA
ATOM     99  O   UNL A   1      39.571  32.780  39.940  1.00  0.00    -0.744 OA
ENDBRANCH  93  96
ENDBRANCH  65  89
BRANCH  77 100
ATOM    100  C   UNL A   1      43.694  26.127  34.522  1.00  0.00     0.023 A 
ATOM    101  C   UNL A   1      42.689  25.142  34.602  1.00  0.00     0.012 A 
ATOM    102  C   UNL A   1      45.008  25.713  34.845  1.00  0.00     0.148 A 
ATOM    103  C   UNL A   1      42.942  23.847  35.057  1.00  0.00     0.002 A 
ATOM    104  C   UNL A   1      45.278  24.386  35.167  1.00  0.00     0.091 A 
ATOM    105  F   UNL A   1      46.011  26.600  34.857  1.00  0.00    -0.205 F 
ATOM    106  C   UNL A   1      44.244  23.461  35.315  1.00  0.00     0.022 A 
BRANCH 104 107
ATOM    107  S   UNL A   1      46.962  23.765  35.237  1.00  0.00     0.127 S 
ATOM    108  O   UNL A   1      47.480  24.445  36.422  1.00  0.00    -0.237 OA
ATOM    109  O   UNL A   1      46.753  22.326  35.401  1.00  0.00    -0.237 OA
ATOM    110  O   UNL A   1      47.567  24.140  33.966  1.00  0.00    -0.744 OA
ENDBRANCH 104 107
ENDBRANCH  77 100
ENDBRANCH  51  52
ENDBRANCH  43  46
ENDBRANCH  41  42
ENDBRANCH   1  41
TORSDOF 18
ENDMDL
MODEL 3
REMARK VINA RESULT:     -12.5      6.539     16.857
REMARK SMILES Cc1ccccc1C(=O)Nc1ccc(N2CCC(n3c(C)nc4cccnc43)CC2)c(C(=O)NCCCCNC(=O)c2ccc(-c3c4nc(c(-c5cccc(S(=O)(=O)[O-])c5F)c5ccc([nH]5)c(-c5cccc(S(=O)(=O)[O-])c5F)c5nc(c(-c6cccc(S(=O)(=O)[O-])c6F)c6ccc3[nH]6)C=C5)C=C4)cc2)c1
REMARK SMILES IDX 37 1 36 2 35 3 34 4 32 5 33 6 31 8 11 9 12 10 105 11 13 12
REMARK SMILES IDX 14 13 10 14 8 15 9 16 7 18 1 19 2 20 3 21 4 22 6 23 5 24
REMARK SMILES IDX 15 25 16 26 30 27 17 28 29 29 18 30 19 31 20 32 28 33 21 34
REMARK SMILES IDX 22 35 23 36 27 37 24 38 26 39 25 40 38 41 39 42 40 43 41 45
REMARK SMILES IDX 42 46 43 47 104 48 44 49 103 50 45 51 46 52 47 53 97 54
REMARK SMILES IDX 48 55 102 56 96 57 98 58 49 59 101 60 95 61 94 62 50 64
REMARK SMILES IDX 82 65 62 66 81 67 63 68 66 69 80 70 99 71 64 72 65 73 79 75
REMARK SMILES IDX 100 76 67 77 51 78 52 79 60 80 53 81 55 82 61 83 54 84 56 85
REMARK SMILES IDX 57 86 58 87 59 88 83 89 84 90 92 91 85 92 87 93 93 94 86 95
REMARK SMILES IDX 88 96 89 97 90 98 91 99 68 100 69 101 77 102 70 103 72 104
REMARK SMILES IDX 78 105 71 106 73 107 74 108 75 109 76 110
REMARK H PARENT 34 7 10 17 39 44 98 63 66 74
REMARK Flexibility Score: inf
ROOT
ATOM      1  C   UNL A   1      34.477  30.867  28.314  1.00  0.00     0.023 C 
ENDROOT
BRANCH   1   2
ATOM      2  C   UNL A   1      34.853  29.927  27.166  1.00  0.00     0.023 C 
BRANCH   2   3
ATOM      3  C   UNL A   1      33.763  29.183  26.401  1.00  0.00     0.116 C 
BRANCH   3   4
ATOM      4  N   UNL A   1      32.889  28.244  27.059  1.00  0.00    -0.352 N 
ATOM      5  C   UNL A   1      31.988  27.354  26.479  1.00  0.00     0.253 C 
ATOM      6  O   UNL A   1      31.427  26.567  27.248  1.00  0.00    -0.269 OA
ATOM      7  H   UNL A   1      32.935  28.230  28.042  1.00  0.00     0.163 HD
BRANCH   5   8
ATOM      8  C   UNL A   1      31.588  27.311  25.012  1.00  0.00     0.065 A 
ATOM      9  C   UNL A   1      29.710  27.700  23.466  1.00  0.00     0.042 A 
ATOM     10  C   UNL A   1      30.492  27.366  22.381  1.00  0.00     0.028 A 
ATOM     11  C   UNL A   1      30.292  27.823  24.739  1.00  0.00     0.042 A 
ATOM     12  C   UNL A   1      31.772  26.891  22.617  1.00  0.00     0.029 A 
ATOM     13  C   UNL A   1      32.280  26.714  23.932  1.00  0.00     0.050 A 
BRANCH   9  14
ATOM     14  N   UNL A   1      28.320  27.796  23.353  1.00  0.00    -0.322 N 
ATOM     15  C   UNL A   1      27.511  28.893  23.104  1.00  0.00     0.255 C 
ATOM     16  O   UNL A   1      26.303  28.752  23.328  1.00  0.00    -0.269 OA
ATOM     17  H   UNL A   1      27.837  26.947  23.469  1.00  0.00     0.170 HD
BRANCH  15  18
ATOM     18  C   UNL A   1      27.967  30.215  22.521  1.00  0.00     0.043 A 
ATOM     19  C   UNL A   1      29.297  31.190  24.526  1.00  0.00     0.045 C 
ATOM     20  C   UNL A   1      28.716  31.235  23.145  1.00  0.00    -0.038 A 
ATOM     21  C   UNL A   1      29.039  32.410  22.424  1.00  0.00     0.004 A 
ATOM     22  C   UNL A   1      28.772  32.526  21.066  1.00  0.00     0.000 A 
ATOM     23  C   UNL A   1      27.733  30.352  21.133  1.00  0.00     0.014 A 
ATOM     24  C   UNL A   1      28.151  31.477  20.410  1.00  0.00     0.001 A 
ENDBRANCH  15  18
ENDBRANCH   9  14
BRANCH  13  25
ATOM     25  N   UNL A   1      33.303  25.769  24.049  1.00  0.00    -0.371 N 
ATOM     26  C   UNL A   1      33.507  24.852  22.940  1.00  0.00     0.118 C 
ATOM     27  C   UNL A   1      34.066  25.751  25.292  1.00  0.00     0.118 C 
ATOM     28  C   UNL A   1      34.291  23.612  23.250  1.00  0.00     0.047 C 
ATOM     29  C   UNL A   1      34.458  24.343  25.679  1.00  0.00     0.047 C 
ATOM     30  C   UNL A   1      35.100  23.553  24.548  1.00  0.00     0.094 C 
BRANCH  30  31
ATOM     31  N   UNL A   1      35.320  22.124  24.821  1.00  0.00    -0.310 N 
ATOM     32  C   UNL A   1      34.451  21.049  24.853  1.00  0.00     0.108 A 
ATOM     33  C   UNL A   1      36.591  21.607  24.947  1.00  0.00     0.160 A 
ATOM     34  C   UNL A   1      32.989  21.109  25.121  1.00  0.00     0.088 C 
ATOM     35  N   UNL A   1      35.114  19.907  24.733  1.00  0.00    -0.232 NA
ATOM     36  C   UNL A   1      36.436  20.232  24.872  1.00  0.00     0.108 A 
ATOM     37  N   UNL A   1      37.724  22.299  25.178  1.00  0.00    -0.237 NA
ATOM     38  C   UNL A   1      37.567  19.436  25.102  1.00  0.00     0.034 A 
ATOM     39  C   UNL A   1      38.769  21.494  25.484  1.00  0.00     0.113 A 
ATOM     40  C   UNL A   1      38.746  20.102  25.464  1.00  0.00     0.022 A 
ENDBRANCH  30  31
ENDBRANCH  13  25
ENDBRANCH   5   8
ENDBRANCH   3   4
ENDBRANCH   2   3
ENDBRANCH   1   2
BRANCH   1  41
ATOM     41  C   UNL A   1      34.473  32.357  27.998  1.00  0.00     0.116 C 
BRANCH  41  42
ATOM     42  N   UNL A   1      34.107  33.218  29.125  1.00  0.00    -0.352 N 
ATOM     43  C   UNL A   1      34.734  33.314  30.363  1.00  0.00     0.251 C 
ATOM     44  H   UNL A   1      33.323  33.799  28.990  1.00  0.00     0.163 HD
ATOM     45  O   UNL A   1      34.125  33.769  31.323  1.00  0.00    -0.269 OA
BRANCH  43  46
ATOM     46  C   UNL A   1      36.153  32.917  30.488  1.00  0.00     0.039 A 
ATOM     47  C   UNL A   1      37.135  33.250  29.541  1.00  0.00     0.014 A 
ATOM     48  C   UNL A   1      36.471  32.081  31.550  1.00  0.00     0.014 A 
ATOM     49  C   UNL A   1      38.419  32.706  29.656  1.00  0.00     0.010 A 
ATOM     50  C   UNL A   1      37.758  31.714  31.775  1.00  0.00     0.010 A 
ATOM     51  C   UNL A   1      38.692  31.904  30.756  1.00  0.00    -0.014 A 
BRANCH  51  52
ATOM     52  C   UNL A   1      39.851  31.057  30.956  1.00  0.00     0.031 A 
ATOM     53  C   UNL A   1      39.809  29.648  30.566  1.00  0.00     0.074 A 
ATOM     54  C   UNL A   1      40.998  31.772  31.047  1.00  0.00     0.049 A 
ATOM     55  N   UNL A   1      40.830  28.868  30.604  1.00  0.00    -0.248 NA
ATOM     56  C   UNL A   1      38.592  28.997  30.099  1.00  0.00     0.031 C 
ATOM     57  C   UNL A   1      42.320  31.484  30.507  1.00  0.00     0.029 A 
ATOM     58  N   UNL A   1      41.197  33.029  31.596  1.00  0.00    -0.354 N 
ATOM     59  C   UNL A   1      40.501  27.743  29.878  1.00  0.00     0.074 A 
ATOM     60  C   UNL A   1      39.068  27.801  29.740  1.00  0.00     0.031 C 
ATOM     61  C   UNL A   1      43.199  32.361  31.038  1.00  0.00     0.029 A 
ATOM     62  C   UNL A   1      42.487  33.052  32.102  1.00  0.00     0.049 A 
ATOM     63  H   UNL A   1      40.545  33.766  31.621  1.00  0.00     0.167 HD
ATOM     64  C   UNL A   1      41.518  27.021  29.329  1.00  0.00     0.034 A 
ATOM     65  C   UNL A   1      42.741  32.878  33.444  1.00  0.00     0.034 A 
ATOM     66  C   UNL A   1      42.817  27.554  29.790  1.00  0.00     0.049 A 
ATOM     67  C   UNL A   1      43.603  31.676  33.703  1.00  0.00     0.074 A 
ATOM     68  C   UNL A   1      43.734  28.414  29.208  1.00  0.00     0.029 A 
ATOM     69  N   UNL A   1      43.145  27.486  31.142  1.00  0.00    -0.354 N 
ATOM     70  N   UNL A   1      43.638  30.637  32.919  1.00  0.00    -0.248 NA
ATOM     71  C   UNL A   1      44.552  31.587  34.803  1.00  0.00     0.031 C 
ATOM     72  C   UNL A   1      44.564  28.931  30.244  1.00  0.00     0.029 A 
ATOM     73  C   UNL A   1      44.177  28.360  31.448  1.00  0.00     0.049 A 
ATOM     74  H   UNL A   1      42.702  26.896  31.794  1.00  0.00     0.167 HD
ATOM     75  C   UNL A   1      44.537  29.731  33.391  1.00  0.00     0.074 A 
ATOM     76  C   UNL A   1      45.125  30.399  34.544  1.00  0.00     0.031 C 
ATOM     77  C   UNL A   1      44.666  28.494  32.822  1.00  0.00     0.034 A 
BRANCH  64  78
ATOM     78  C   UNL A   1      41.408  26.026  28.177  1.00  0.00     0.023 A 
ATOM     79  C   UNL A   1      40.238  26.103  27.384  1.00  0.00     0.012 A 
ATOM     80  C   UNL A   1      42.307  24.986  27.831  1.00  0.00     0.148 A 
ATOM     81  C   UNL A   1      39.953  25.193  26.359  1.00  0.00     0.002 A 
ATOM     82  C   UNL A   1      42.026  24.074  26.806  1.00  0.00     0.091 A 
ATOM     83  F   UNL A   1      43.464  24.854  28.472  1.00  0.00    -0.205 F 
ATOM     84  C   UNL A   1      40.843  24.172  26.072  1.00  0.00     0.022 A 
BRANCH  82  85
ATOM     85  S   UNL A   1      43.134  22.715  26.374  1.00  0.00     0.127 S 
ATOM     86  O   UNL A   1      42.854  22.533  24.950  1.00  0.00    -0.237 OA
ATOM     87  O   UNL A   1      44.450  23.282  26.667  1.00  0.00    -0.237 OA
ATOM     88  O   UNL A   1      42.753  21.583  27.211  1.00  0.00    -0.744 OA
ENDBRANCH  82  85
ENDBRANCH  64  78
BRANCH  65  89
ATOM     89  C   UNL A   1      41.624  33.348  34.333  1.00  0.00     0.023 A 
ATOM     90  C   UNL A   1      41.147  34.618  33.983  1.00  0.00     0.012 A 
ATOM     91  C   UNL A   1      40.753  32.467  35.016  1.00  0.00     0.148 A 
ATOM     92  C   UNL A   1      39.776  34.822  33.953  1.00  0.00     0.002 A 
ATOM     93  C   UNL A   1      39.389  32.777  35.108  1.00  0.00     0.091 A 
ATOM     94  F   UNL A   1      41.244  31.324  35.512  1.00  0.00    -0.205 F 
ATOM     95  C   UNL A   1      38.889  33.911  34.480  1.00  0.00     0.022 A 
BRANCH  93  96
ATOM     96  S   UNL A   1      38.182  31.731  35.922  1.00  0.00     0.127 S 
ATOM     97  O   UNL A   1      36.949  32.471  35.693  1.00  0.00    -0.237 OA
ATOM     98  O   UNL A   1      38.277  30.469  35.188  1.00  0.00    -0.237 OA
ATOM     99  O   UNL A   1      38.653  31.644  37.303  1.00  0.00    -0.744 OA
ENDBRANCH  93  96
ENDBRANCH  65  89
BRANCH  77 100
ATOM    100  C   UNL A   1      45.255  27.303  33.549  1.00  0.00     0.023 A 
ATOM    101  C   UNL A   1      46.647  27.127  33.686  1.00  0.00     0.012 A 
ATOM    102  C   UNL A   1      44.434  26.406  34.273  1.00  0.00     0.148 A 
ATOM    103  C   UNL A   1      47.203  26.079  34.421  1.00  0.00     0.002 A 
ATOM    104  C   UNL A   1      44.993  25.448  35.114  1.00  0.00     0.091 A 
ATOM    105  F   UNL A   1      43.101  26.461  34.150  1.00  0.00    -0.205 F 
ATOM    106  C   UNL A   1      46.374  25.254  35.158  1.00  0.00     0.022 A 
BRANCH 104 107
ATOM    107  S   UNL A   1      43.990  24.542  36.297  1.00  0.00     0.127 S 
ATOM    108  O   UNL A   1      43.168  23.715  35.417  1.00  0.00    -0.237 OA
ATOM    109  O   UNL A   1      45.001  23.807  37.059  1.00  0.00    -0.237 OA
ATOM    110  O   UNL A   1      43.285  25.558  37.066  1.00  0.00    -0.744 OA
ENDBRANCH 104 107
ENDBRANCH  77 100
ENDBRANCH  51  52
ENDBRANCH  43  46
ENDBRANCH  41  42
ENDBRANCH   1  41
TORSDOF 18
ENDMDL
