MODEL 1
REMARK VINA RESULT:     -13.4      0.000      0.000
REMARK SMILES COc1cc2ccccc2cc1C(=O)Nc1cc(C(=O)NCCCCNC(=O)c2ccc(-c3c4nc(c(-c5cccc(S(=O)(=O)[O-])c5F)c5ccc([nH]5)c(-c5cccc(S(=O)(=O)[O-])c5F)c5nc(c(-c6cccc(S(=O)(=O)[O-])c6F)c6ccc3[nH]6)C=C5)C=C4)cc2)ccc1C
REMARK SMILES IDX 23 1 22 2 21 3 19 4 20 5 18 7 16 8 17 9 94 10 93 11 95 12
REMARK SMILES IDX 92 13 15 14 13 15 14 16 12 18 3 19 4 20 5 21 11 22 6 23
REMARK SMILES IDX 10 24 7 25 9 26 8 27 2 28 1 29 24 30 25 31 26 32 27 33 28 35
REMARK SMILES IDX 29 36 30 37 91 38 31 39 90 40 32 41 33 42 34 43 84 44 35 45
REMARK SMILES IDX 89 46 83 47 85 48 36 49 88 50 82 51 81 52 37 54 69 55 49 56
REMARK SMILES IDX 68 57 50 58 53 59 67 60 86 61 51 62 52 63 66 65 87 66 54 67
REMARK SMILES IDX 38 68 39 69 47 70 40 71 42 72 48 73 41 74 43 75 44 76 45 77
REMARK SMILES IDX 46 78 70 79 71 80 79 81 72 82 74 83 80 84 73 85 75 86 76 87
REMARK SMILES IDX 77 88 78 89 55 90 56 91 64 92 57 93 59 94 65 95 58 96 60 97
REMARK SMILES IDX 61 98 62 99 63 100
REMARK H PARENT 21 6 15 17 26 34 85 53 53 64
REMARK Flexibility Score: inf
ROOT
ATOM      1  C   UNL A   1      31.519  30.970  25.833  1.00  0.00     0.023 C 
ENDROOT
BRANCH   1   2
ATOM      2  C   UNL A   1      31.435  29.771  24.880  1.00  0.00     0.116 C 
BRANCH   2   3
ATOM      3  N   UNL A   1      32.597  29.670  24.019  1.00  0.00    -0.352 N 
ATOM      4  C   UNL A   1      33.223  28.617  23.399  1.00  0.00     0.251 C 
ATOM      5  O   UNL A   1      34.212  28.883  22.710  1.00  0.00    -0.269 OA
ATOM      6  H   UNL A   1      33.028  30.537  23.842  1.00  0.00     0.163 HD
BRANCH   4   7
ATOM      7  C   UNL A   1      32.757  27.197  23.457  1.00  0.00     0.041 A 
ATOM      8  C   UNL A   1      32.034  25.226  24.675  1.00  0.00     0.045 A 
ATOM      9  C   UNL A   1      32.776  26.407  24.598  1.00  0.00     0.040 A 
ATOM     10  C   UNL A   1      31.527  24.629  23.517  1.00  0.00    -0.027 A 
ATOM     11  C   UNL A   1      31.597  25.370  22.327  1.00  0.00     0.006 A 
ATOM     12  C   UNL A   1      30.740  23.352  23.520  1.00  0.00     0.046 C 
ATOM     13  C   UNL A   1      32.154  26.657  22.313  1.00  0.00     0.014 A 
BRANCH   8  14
ATOM     14  N   UNL A   1      31.643  24.782  25.952  1.00  0.00    -0.322 N 
ATOM     15  C   UNL A   1      32.157  23.678  26.633  1.00  0.00     0.259 C 
ATOM     16  O   UNL A   1      31.610  23.304  27.671  1.00  0.00    -0.269 OA
ATOM     17  H   UNL A   1      30.941  25.299  26.409  1.00  0.00     0.170 HD
BRANCH  15  18
ATOM     18  C   UNL A   1      33.402  22.973  26.174  1.00  0.00     0.082 A 
ATOM     19  C   UNL A   1      33.423  21.651  25.701  1.00  0.00     0.132 A 
ATOM     20  C   UNL A   1      34.622  20.972  25.489  1.00  0.00     0.056 A 
ATOM     21  C   UNL A   1      35.835  21.630  25.617  1.00  0.00    -0.015 A 
ATOM     22  C   UNL A   1      34.617  23.668  26.236  1.00  0.00     0.026 A 
ATOM     23  C   UNL A   1      37.033  20.942  25.376  1.00  0.00     0.009 A 
ATOM     24  C   UNL A   1      35.836  22.999  25.974  1.00  0.00    -0.017 A 
ATOM     25  C   UNL A   1      38.246  21.597  25.475  1.00  0.00     0.001 A 
ATOM     26  C   UNL A   1      37.070  23.632  26.097  1.00  0.00     0.009 A 
ATOM     27  C   UNL A   1      38.252  22.928  25.851  1.00  0.00     0.001 A 
BRANCH  19  28
ATOM     28  O   UNL A   1      32.307  20.904  25.446  1.00  0.00    -0.496 OA
ATOM     29  C   UNL A   1      32.483  20.137  24.262  1.00  0.00     0.278 C 
ENDBRANCH  19  28
ENDBRANCH  15  18
ENDBRANCH   8  14
ENDBRANCH   4   7
ENDBRANCH   2   3
ENDBRANCH   1   2
BRANCH   1  30
ATOM     30  C   UNL A   1      32.077  30.619  27.213  1.00  0.00     0.023 C 
BRANCH  30  31
ATOM     31  C   UNL A   1      33.514  30.130  27.147  1.00  0.00     0.116 C 
BRANCH  31  32
ATOM     32  N   UNL A   1      34.484  31.201  27.137  1.00  0.00    -0.352 N 
ATOM     33  C   UNL A   1      35.598  31.324  27.943  1.00  0.00     0.251 C 
ATOM     34  H   UNL A   1      34.335  31.921  26.483  1.00  0.00     0.163 HD
ATOM     35  O   UNL A   1      35.902  32.451  28.335  1.00  0.00    -0.269 OA
BRANCH  33  36
ATOM     36  C   UNL A   1      36.506  30.163  28.158  1.00  0.00     0.039 A 
ATOM     37  C   UNL A   1      36.537  29.591  29.439  1.00  0.00     0.014 A 
ATOM     38  C   UNL A   1      37.491  29.818  27.244  1.00  0.00     0.014 A 
ATOM     39  C   UNL A   1      37.673  28.917  29.881  1.00  0.00     0.010 A 
ATOM     40  C   UNL A   1      38.650  29.250  27.701  1.00  0.00     0.010 A 
ATOM     41  C   UNL A   1      38.767  28.867  29.040  1.00  0.00    -0.014 A 
BRANCH  41  42
ATOM     42  C   UNL A   1      40.080  28.359  29.385  1.00  0.00     0.031 A 
ATOM     43  C   UNL A   1      40.348  26.939  29.102  1.00  0.00     0.074 A 
ATOM     44  C   UNL A   1      41.069  29.276  29.461  1.00  0.00     0.049 A 
ATOM     45  N   UNL A   1      41.476  26.366  29.302  1.00  0.00    -0.248 NA
ATOM     46  C   UNL A   1      39.350  26.053  28.507  1.00  0.00     0.031 C 
ATOM     47  C   UNL A   1      42.472  29.097  29.101  1.00  0.00     0.029 A 
ATOM     48  N   UNL A   1      41.007  30.604  29.884  1.00  0.00    -0.354 N 
ATOM     49  C   UNL A   1      41.464  25.176  28.612  1.00  0.00     0.074 A 
ATOM     50  C   UNL A   1      40.097  24.990  28.194  1.00  0.00     0.031 C 
ATOM     51  C   UNL A   1      43.176  30.178  29.470  1.00  0.00     0.029 A 
ATOM     52  C   UNL A   1      42.294  30.973  30.303  1.00  0.00     0.049 A 
ATOM     53  H   UNL A   1      40.205  31.177  29.888  1.00  0.00     0.167 HD
ATOM     54  C   UNL A   1      42.653  24.570  28.342  1.00  0.00     0.034 A 
ATOM     55  C   UNL A   1      42.579  31.321  31.591  1.00  0.00     0.034 A 
ATOM     56  C   UNL A   1      43.768  25.391  28.858  1.00  0.00     0.049 A 
ATOM     57  C   UNL A   1      43.459  30.244  32.207  1.00  0.00     0.074 A 
ATOM     58  C   UNL A   1      44.649  26.274  28.255  1.00  0.00     0.029 A 
ATOM     59  N   UNL A   1      43.862  25.628  30.231  1.00  0.00    -0.354 N 
ATOM     60  N   UNL A   1      43.529  29.024  31.734  1.00  0.00    -0.248 NA
ATOM     61  C   UNL A   1      44.442  30.471  33.262  1.00  0.00     0.031 C 
ATOM     62  C   UNL A   1      45.210  27.100  29.273  1.00  0.00     0.029 A 
ATOM     63  C   UNL A   1      44.682  26.715  30.498  1.00  0.00     0.049 A 
ATOM     64  H   UNL A   1      43.405  25.094  30.921  1.00  0.00     0.167 HD
ATOM     65  C   UNL A   1      44.581  28.356  32.285  1.00  0.00     0.074 A 
ATOM     66  C   UNL A   1      45.096  29.293  33.276  1.00  0.00     0.031 C 
ATOM     67  C   UNL A   1      44.986  27.114  31.872  1.00  0.00     0.034 A 
BRANCH  54  68
ATOM     68  C   UNL A   1      42.833  23.408  27.379  1.00  0.00     0.023 A 
ATOM     69  C   UNL A   1      41.976  22.295  27.537  1.00  0.00     0.012 A 
ATOM     70  C   UNL A   1      43.773  23.319  26.322  1.00  0.00     0.148 A 
ATOM     71  C   UNL A   1      42.079  21.140  26.752  1.00  0.00     0.002 A 
ATOM     72  C   UNL A   1      43.912  22.145  25.568  1.00  0.00     0.091 A 
ATOM     73  F   UNL A   1      44.492  24.395  25.983  1.00  0.00    -0.205 F 
ATOM     74  C   UNL A   1      43.064  21.055  25.782  1.00  0.00     0.022 A 
BRANCH  72  75
ATOM     75  S   UNL A   1      45.200  21.920  24.325  1.00  0.00     0.127 S 
ATOM     76  O   UNL A   1      44.652  20.837  23.506  1.00  0.00    -0.237 OA
ATOM     77  O   UNL A   1      45.231  23.222  23.662  1.00  0.00    -0.237 OA
ATOM     78  O   UNL A   1      46.408  21.556  25.056  1.00  0.00    -0.744 OA
ENDBRANCH  72  75
ENDBRANCH  54  68
BRANCH  55  79
ATOM     79  C   UNL A   1      41.508  32.183  32.179  1.00  0.00     0.023 A 
ATOM     80  C   UNL A   1      41.233  33.352  31.416  1.00  0.00     0.012 A 
ATOM     81  C   UNL A   1      40.475  31.633  32.958  1.00  0.00     0.148 A 
ATOM     82  C   UNL A   1      39.923  33.801  31.235  1.00  0.00     0.002 A 
ATOM     83  C   UNL A   1      39.165  32.093  32.774  1.00  0.00     0.091 A 
ATOM     84  F   UNL A   1      40.754  30.583  33.738  1.00  0.00    -0.205 F 
ATOM     85  C   UNL A   1      38.884  33.134  31.872  1.00  0.00     0.022 A 
BRANCH  83  86
ATOM     86  S   UNL A   1      37.758  31.238  33.500  1.00  0.00     0.127 S 
ATOM     87  O   UNL A   1      38.080  29.842  33.220  1.00  0.00    -0.237 OA
ATOM     88  O   UNL A   1      37.851  31.616  34.908  1.00  0.00    -0.237 OA
ATOM     89  O   UNL A   1      36.598  31.782  32.810  1.00  0.00    -0.744 OA
ENDBRANCH  83  86
ENDBRANCH  55  79
BRANCH  67  90
ATOM     90  C   UNL A   1      45.748  26.141  32.749  1.00  0.00     0.023 A 
ATOM     91  C   UNL A   1      47.142  26.241  32.916  1.00  0.00     0.012 A 
ATOM     92  C   UNL A   1      45.063  25.257  33.623  1.00  0.00     0.148 A 
ATOM     93  C   UNL A   1      47.828  25.486  33.869  1.00  0.00     0.002 A 
ATOM     94  C   UNL A   1      45.730  24.621  34.662  1.00  0.00     0.091 A 
ATOM     95  F   UNL A   1      43.756  25.013  33.454  1.00  0.00    -0.205 F 
ATOM     96  C   UNL A   1      47.118  24.704  34.768  1.00  0.00     0.022 A 
BRANCH  94  97
ATOM     97  S   UNL A   1      44.820  23.854  36.011  1.00  0.00     0.127 S 
ATOM     98  O   UNL A   1      45.901  23.410  36.888  1.00  0.00    -0.237 OA
ATOM     99  O   UNL A   1      44.033  24.976  36.527  1.00  0.00    -0.237 OA
ATOM    100  O   UNL A   1      44.025  22.805  35.387  1.00  0.00    -0.744 OA
ENDBRANCH  94  97
ENDBRANCH  67  90
ENDBRANCH  41  42
ENDBRANCH  33  36
ENDBRANCH  31  32
ENDBRANCH  30  31
ENDBRANCH   1  30
TORSDOF 17
ENDMDL
MODEL 2
REMARK VINA RESULT:     -13.3      2.744      3.669
REMARK SMILES COc1cc2ccccc2cc1C(=O)Nc1cc(C(=O)NCCCCNC(=O)c2ccc(-c3c4nc(c(-c5cccc(S(=O)(=O)[O-])c5F)c5ccc([nH]5)c(-c5cccc(S(=O)(=O)[O-])c5F)c5nc(c(-c6cccc(S(=O)(=O)[O-])c6F)c6ccc3[nH]6)C=C5)C=C4)cc2)ccc1C
REMARK SMILES IDX 23 1 22 2 21 3 19 4 20 5 18 7 16 8 17 9 94 10 93 11 95 12
REMARK SMILES IDX 92 13 15 14 13 15 14 16 12 18 3 19 4 20 5 21 11 22 6 23
REMARK SMILES IDX 10 24 7 25 9 26 8 27 2 28 1 29 24 30 25 31 26 32 27 33 28 35
REMARK SMILES IDX 29 36 30 37 91 38 31 39 90 40 32 41 33 42 34 43 84 44 35 45
REMARK SMILES IDX 89 46 83 47 85 48 36 49 88 50 82 51 81 52 37 54 69 55 49 56
REMARK SMILES IDX 68 57 50 58 53 59 67 60 86 61 51 62 52 63 66 65 87 66 54 67
REMARK SMILES IDX 38 68 39 69 47 70 40 71 42 72 48 73 41 74 43 75 44 76 45 77
REMARK SMILES IDX 46 78 70 79 71 80 79 81 72 82 74 83 80 84 73 85 75 86 76 87
REMARK SMILES IDX 77 88 78 89 55 90 56 91 64 92 57 93 59 94 65 95 58 96 60 97
REMARK SMILES IDX 61 98 62 99 63 100
REMARK H PARENT 21 6 15 17 26 34 85 53 53 64
REMARK Flexibility Score: inf
ROOT
ATOM      1  C   UNL A   1      33.260  29.853  26.473  1.00  0.00     0.023 C 
ENDROOT
BRANCH   1   2
ATOM      2  C   UNL A   1      32.489  29.701  25.155  1.00  0.00     0.116 C 
BRANCH   2   3
ATOM      3  N   UNL A   1      33.372  29.556  24.015  1.00  0.00    -0.352 N 
ATOM      4  C   UNL A   1      33.666  28.511  23.175  1.00  0.00     0.251 C 
ATOM      5  O   UNL A   1      34.479  28.730  22.273  1.00  0.00    -0.269 OA
ATOM      6  H   UNL A   1      33.865  30.380  23.796  1.00  0.00     0.163 HD
BRANCH   4   7
ATOM      7  C   UNL A   1      33.031  27.158  23.248  1.00  0.00     0.041 A 
ATOM      8  C   UNL A   1      32.109  25.286  24.487  1.00  0.00     0.045 A 
ATOM      9  C   UNL A   1      32.987  26.367  24.387  1.00  0.00     0.040 A 
ATOM     10  C   UNL A   1      31.497  24.761  23.345  1.00  0.00    -0.027 A 
ATOM     11  C   UNL A   1      31.621  25.492  22.153  1.00  0.00     0.006 A 
ATOM     12  C   UNL A   1      30.559  23.590  23.372  1.00  0.00     0.046 C 
ATOM     13  C   UNL A   1      32.332  26.701  22.122  1.00  0.00     0.014 A 
BRANCH   8  14
ATOM     14  N   UNL A   1      31.705  24.888  25.775  1.00  0.00    -0.322 N 
ATOM     15  C   UNL A   1      32.218  23.814  26.503  1.00  0.00     0.259 C 
ATOM     16  O   UNL A   1      31.661  23.476  27.548  1.00  0.00    -0.269 OA
ATOM     17  H   UNL A   1      30.995  25.418  26.204  1.00  0.00     0.170 HD
BRANCH  15  18
ATOM     18  C   UNL A   1      33.472  23.100  26.085  1.00  0.00     0.082 A 
ATOM     19  C   UNL A   1      33.501  21.774  25.625  1.00  0.00     0.132 A 
ATOM     20  C   UNL A   1      34.703  21.088  25.453  1.00  0.00     0.056 A 
ATOM     21  C   UNL A   1      35.914  21.743  25.609  1.00  0.00    -0.015 A 
ATOM     22  C   UNL A   1      34.689  23.790  26.176  1.00  0.00     0.026 A 
ATOM     23  C   UNL A   1      37.116  21.047  25.408  1.00  0.00     0.009 A 
ATOM     24  C   UNL A   1      35.911  23.114  25.955  1.00  0.00    -0.017 A 
ATOM     25  C   UNL A   1      38.328  21.699  25.535  1.00  0.00     0.001 A 
ATOM     26  C   UNL A   1      37.144  23.744  26.107  1.00  0.00     0.009 A 
ATOM     27  C   UNL A   1      38.330  23.033  25.900  1.00  0.00     0.001 A 
BRANCH  19  28
ATOM     28  O   UNL A   1      32.390  21.030  25.344  1.00  0.00    -0.496 OA
ATOM     29  C   UNL A   1      32.464  20.504  24.026  1.00  0.00     0.278 C 
ENDBRANCH  19  28
ENDBRANCH  15  18
ENDBRANCH   8  14
ENDBRANCH   4   7
ENDBRANCH   2   3
ENDBRANCH   1   2
BRANCH   1  30
ATOM     30  C   UNL A   1      32.982  31.172  27.197  1.00  0.00     0.023 C 
BRANCH  30  31
ATOM     31  C   UNL A   1      34.234  31.758  27.827  1.00  0.00     0.116 C 
BRANCH  31  32
ATOM     32  N   UNL A   1      34.200  33.198  27.938  1.00  0.00    -0.352 N 
ATOM     33  C   UNL A   1      34.527  33.957  29.045  1.00  0.00     0.251 C 
ATOM     34  H   UNL A   1      33.912  33.693  27.138  1.00  0.00     0.163 HD
ATOM     35  O   UNL A   1      33.854  34.963  29.270  1.00  0.00    -0.269 OA
BRANCH  33  36
ATOM     36  C   UNL A   1      35.772  33.675  29.812  1.00  0.00     0.039 A 
ATOM     37  C   UNL A   1      36.995  33.817  29.138  1.00  0.00     0.014 A 
ATOM     38  C   UNL A   1      35.752  33.033  31.041  1.00  0.00     0.014 A 
ATOM     39  C   UNL A   1      38.112  33.092  29.549  1.00  0.00     0.010 A 
ATOM     40  C   UNL A   1      36.810  32.238  31.392  1.00  0.00     0.010 A 
ATOM     41  C   UNL A   1      37.964  32.212  30.602  1.00  0.00    -0.014 A 
BRANCH  41  42
ATOM     42  C   UNL A   1      38.957  31.261  31.060  1.00  0.00     0.031 A 
ATOM     43  C   UNL A   1      39.075  29.998  30.311  1.00  0.00     0.074 A 
ATOM     44  C   UNL A   1      39.984  31.774  31.773  1.00  0.00     0.049 A 
ATOM     45  N   UNL A   1      39.943  29.090  30.565  1.00  0.00    -0.248 NA
ATOM     46  C   UNL A   1      38.235  29.686  29.157  1.00  0.00     0.031 C 
ATOM     47  C   UNL A   1      41.372  31.322  31.774  1.00  0.00     0.029 A 
ATOM     48  N   UNL A   1      39.988  32.847  32.662  1.00  0.00    -0.354 N 
ATOM     49  C   UNL A   1      39.991  28.249  29.477  1.00  0.00     0.074 A 
ATOM     50  C   UNL A   1      38.862  28.616  28.660  1.00  0.00     0.031 C 
ATOM     51  C   UNL A   1      42.058  31.969  32.729  1.00  0.00     0.029 A 
ATOM     52  C   UNL A   1      41.074  32.668  33.533  1.00  0.00     0.049 A 
ATOM     53  H   UNL A   1      39.346  33.595  32.676  1.00  0.00     0.167 HD
ATOM     54  C   UNL A   1      41.081  27.447  29.325  1.00  0.00     0.034 A 
ATOM     55  C   UNL A   1      40.918  32.477  34.876  1.00  0.00     0.034 A 
ATOM     56  C   UNL A   1      42.046  27.692  30.416  1.00  0.00     0.049 A 
ATOM     57  C   UNL A   1      41.323  31.052  35.219  1.00  0.00     0.074 A 
ATOM     58  C   UNL A   1      43.218  28.428  30.494  1.00  0.00     0.029 A 
ATOM     59  N   UNL A   1      41.667  27.430  31.735  1.00  0.00    -0.354 N 
ATOM     60  N   UNL A   1      41.363  30.089  34.331  1.00  0.00    -0.248 NA
ATOM     61  C   UNL A   1      41.874  30.626  36.502  1.00  0.00     0.031 C 
ATOM     62  C   UNL A   1      43.493  28.675  31.871  1.00  0.00     0.029 A 
ATOM     63  C   UNL A   1      42.497  28.082  32.636  1.00  0.00     0.049 A 
ATOM     64  H   UNL A   1      40.909  26.857  31.992  1.00  0.00     0.167 HD
ATOM     65  C   UNL A   1      42.016  29.003  34.831  1.00  0.00     0.074 A 
ATOM     66  C   UNL A   1      42.276  29.372  36.216  1.00  0.00     0.031 C 
ATOM     67  C   UNL A   1      42.336  27.903  34.078  1.00  0.00     0.034 A 
BRANCH  54  68
ATOM     68  C   UNL A   1      41.410  26.664  28.064  1.00  0.00     0.023 A 
ATOM     69  C   UNL A   1      41.257  27.331  26.828  1.00  0.00     0.012 A 
ATOM     70  C   UNL A   1      41.865  25.323  27.992  1.00  0.00     0.148 A 
ATOM     71  C   UNL A   1      41.472  26.703  25.596  1.00  0.00     0.002 A 
ATOM     72  C   UNL A   1      42.032  24.677  26.759  1.00  0.00     0.091 A 
ATOM     73  F   UNL A   1      42.215  24.682  29.113  1.00  0.00    -0.205 F 
ATOM     74  C   UNL A   1      41.838  25.367  25.560  1.00  0.00     0.022 A 
BRANCH  72  75
ATOM     75  S   UNL A   1      42.449  22.928  26.614  1.00  0.00     0.127 S 
ATOM     76  O   UNL A   1      43.812  22.890  27.150  1.00  0.00    -0.237 OA
ATOM     77  O   UNL A   1      41.447  22.292  27.467  1.00  0.00    -0.237 OA
ATOM     78  O   UNL A   1      42.363  22.609  25.194  1.00  0.00    -0.744 OA
ENDBRANCH  72  75
ENDBRANCH  54  68
BRANCH  55  79
ATOM     79  C   UNL A   1      39.862  33.372  35.442  1.00  0.00     0.023 A 
ATOM     80  C   UNL A   1      38.603  32.731  35.613  1.00  0.00     0.012 A 
ATOM     81  C   UNL A   1      40.191  34.440  36.294  1.00  0.00     0.148 A 
ATOM     82  C   UNL A   1      37.820  32.973  36.744  1.00  0.00     0.002 A 
ATOM     83  C   UNL A   1      39.398  34.679  37.423  1.00  0.00     0.091 A 
ATOM     84  F   UNL A   1      41.338  35.095  36.083  1.00  0.00    -0.205 F 
ATOM     85  C   UNL A   1      38.249  33.909  37.676  1.00  0.00     0.022 A 
BRANCH  83  86
ATOM     86  S   UNL A   1      39.921  35.817  38.716  1.00  0.00     0.127 S 
ATOM     87  O   UNL A   1      39.843  37.103  38.031  1.00  0.00    -0.237 OA
ATOM     88  O   UNL A   1      38.906  35.611  39.747  1.00  0.00    -0.237 OA
ATOM     89  O   UNL A   1      41.252  35.366  39.090  1.00  0.00    -0.744 OA
ENDBRANCH  83  86
ENDBRANCH  55  79
BRANCH  67  90
ATOM     90  C   UNL A   1      42.554  26.520  34.659  1.00  0.00     0.023 A 
ATOM     91  C   UNL A   1      41.532  25.847  35.354  1.00  0.00     0.012 A 
ATOM     92  C   UNL A   1      43.701  25.758  34.315  1.00  0.00     0.148 A 
ATOM     93  C   UNL A   1      41.647  24.505  35.718  1.00  0.00     0.002 A 
ATOM     94  C   UNL A   1      43.745  24.390  34.552  1.00  0.00     0.091 A 
ATOM     95  F   UNL A   1      44.768  26.349  33.760  1.00  0.00    -0.205 F 
ATOM     96  C   UNL A   1      42.736  23.765  35.284  1.00  0.00     0.022 A 
BRANCH  94  97
ATOM     97  S   UNL A   1      44.980  23.354  33.751  1.00  0.00     0.127 S 
ATOM     98  O   UNL A   1      44.562  23.416  32.353  1.00  0.00    -0.237 OA
ATOM     99  O   UNL A   1      46.222  24.068  34.052  1.00  0.00    -0.237 OA
ATOM    100  O   UNL A   1      44.866  22.055  34.401  1.00  0.00    -0.744 OA
ENDBRANCH  94  97
ENDBRANCH  67  90
ENDBRANCH  41  42
ENDBRANCH  33  36
ENDBRANCH  31  32
ENDBRANCH  30  31
ENDBRANCH   1  30
TORSDOF 17
ENDMDL
MODEL 3
REMARK VINA RESULT:     -13.1      1.834      2.080
REMARK SMILES COc1cc2ccccc2cc1C(=O)Nc1cc(C(=O)NCCCCNC(=O)c2ccc(-c3c4nc(c(-c5cccc(S(=O)(=O)[O-])c5F)c5ccc([nH]5)c(-c5cccc(S(=O)(=O)[O-])c5F)c5nc(c(-c6cccc(S(=O)(=O)[O-])c6F)c6ccc3[nH]6)C=C5)C=C4)cc2)ccc1C
REMARK SMILES IDX 23 1 22 2 21 3 19 4 20 5 18 7 16 8 17 9 94 10 93 11 95 12
REMARK SMILES IDX 92 13 15 14 13 15 14 16 12 18 3 19 4 20 5 21 11 22 6 23
REMARK SMILES IDX 10 24 7 25 9 26 8 27 2 28 1 29 24 30 25 31 26 32 27 33 28 35
REMARK SMILES IDX 29 36 30 37 91 38 31 39 90 40 32 41 33 42 34 43 84 44 35 45
REMARK SMILES IDX 89 46 83 47 85 48 36 49 88 50 82 51 81 52 37 54 69 55 49 56
REMARK SMILES IDX 68 57 50 58 53 59 67 60 86 61 51 62 52 63 66 65 87 66 54 67
REMARK SMILES IDX 38 68 39 69 47 70 40 71 42 72 48 73 41 74 43 75 44 76 45 77
REMARK SMILES IDX 46 78 70 79 71 80 79 81 72 82 74 83 80 84 73 85 75 86 76 87
REMARK SMILES IDX 77 88 78 89 55 90 56 91 64 92 57 93 59 94 65 95 58 96 60 97
REMARK SMILES IDX 61 98 62 99 63 100
REMARK H PARENT 21 6 15 17 26 34 85 53 53 64
REMARK Flexibility Score: inf
ROOT
ATOM      1  C   UNL A   1      31.527  30.749  25.970  1.00  0.00     0.023 C 
ENDROOT
BRANCH   1   2
ATOM      2  C   UNL A   1      31.318  29.870  24.730  1.00  0.00     0.116 C 
BRANCH   2   3
ATOM      3  N   UNL A   1      32.524  29.741  23.937  1.00  0.00    -0.352 N 
ATOM      4  C   UNL A   1      33.164  28.673  23.359  1.00  0.00     0.251 C 
ATOM      5  O   UNL A   1      34.195  28.915  22.726  1.00  0.00    -0.269 OA
ATOM      6  H   UNL A   1      32.981  30.599  23.780  1.00  0.00     0.163 HD
BRANCH   4   7
ATOM      7  C   UNL A   1      32.668  27.262  23.399  1.00  0.00     0.041 A 
ATOM      8  C   UNL A   1      31.902  25.292  24.592  1.00  0.00     0.045 A 
ATOM      9  C   UNL A   1      32.668  26.458  24.530  1.00  0.00     0.040 A 
ATOM     10  C   UNL A   1      31.384  24.720  23.426  1.00  0.00    -0.027 A 
ATOM     11  C   UNL A   1      31.472  25.474  22.245  1.00  0.00     0.006 A 
ATOM     12  C   UNL A   1      30.571  23.460  23.412  1.00  0.00     0.046 C 
ATOM     13  C   UNL A   1      32.057  26.749  22.247  1.00  0.00     0.014 A 
BRANCH   8  14
ATOM     14  N   UNL A   1      31.499  24.841  25.863  1.00  0.00    -0.322 N 
ATOM     15  C   UNL A   1      32.021  23.745  26.551  1.00  0.00     0.259 C 
ATOM     16  O   UNL A   1      31.465  23.361  27.580  1.00  0.00    -0.269 OA
ATOM     17  H   UNL A   1      30.781  25.345  26.309  1.00  0.00     0.170 HD
BRANCH  15  18
ATOM     18  C   UNL A   1      33.285  23.063  26.111  1.00  0.00     0.082 A 
ATOM     19  C   UNL A   1      33.335  21.745  25.626  1.00  0.00     0.132 A 
ATOM     20  C   UNL A   1      34.547  21.085  25.433  1.00  0.00     0.056 A 
ATOM     21  C   UNL A   1      35.748  21.759  25.592  1.00  0.00    -0.015 A 
ATOM     22  C   UNL A   1      34.489  23.773  26.205  1.00  0.00     0.026 A 
ATOM     23  C   UNL A   1      36.960  21.089  25.369  1.00  0.00     0.009 A 
ATOM     24  C   UNL A   1      35.723  23.124  25.962  1.00  0.00    -0.017 A 
ATOM     25  C   UNL A   1      38.161  21.761  25.498  1.00  0.00     0.001 A 
ATOM     26  C   UNL A   1      36.945  23.773  26.116  1.00  0.00     0.009 A 
ATOM     27  C   UNL A   1      38.141  23.088  25.887  1.00  0.00     0.001 A 
BRANCH  19  28
ATOM     28  O   UNL A   1      32.235  20.986  25.340  1.00  0.00    -0.496 OA
ATOM     29  C   UNL A   1      32.626  19.706  24.862  1.00  0.00     0.278 C 
ENDBRANCH  19  28
ENDBRANCH  15  18
ENDBRANCH   8  14
ENDBRANCH   4   7
ENDBRANCH   2   3
ENDBRANCH   1   2
BRANCH   1  30
ATOM     30  C   UNL A   1      31.926  29.962  27.220  1.00  0.00     0.023 C 
BRANCH  30  31
ATOM     31  C   UNL A   1      33.399  29.590  27.221  1.00  0.00     0.116 C 
BRANCH  31  32
ATOM     32  N   UNL A   1      34.279  30.733  27.147  1.00  0.00    -0.352 N 
ATOM     33  C   UNL A   1      35.394  30.978  27.924  1.00  0.00     0.251 C 
ATOM     34  H   UNL A   1      34.060  31.412  26.469  1.00  0.00     0.163 HD
ATOM     35  O   UNL A   1      35.613  32.141  28.264  1.00  0.00    -0.269 OA
BRANCH  33  36
ATOM     36  C   UNL A   1      36.397  29.904  28.165  1.00  0.00     0.039 A 
ATOM     37  C   UNL A   1      36.525  29.418  29.475  1.00  0.00     0.014 A 
ATOM     38  C   UNL A   1      37.366  29.576  27.228  1.00  0.00     0.014 A 
ATOM     39  C   UNL A   1      37.728  28.859  29.903  1.00  0.00     0.010 A 
ATOM     40  C   UNL A   1      38.583  29.124  27.663  1.00  0.00     0.010 A 
ATOM     41  C   UNL A   1      38.786  28.837  29.016  1.00  0.00    -0.014 A 
BRANCH  41  42
ATOM     42  C   UNL A   1      40.147  28.450  29.329  1.00  0.00     0.031 A 
ATOM     43  C   UNL A   1      40.530  27.054  29.056  1.00  0.00     0.074 A 
ATOM     44  C   UNL A   1      41.054  29.451  29.365  1.00  0.00     0.049 A 
ATOM     45  N   UNL A   1      41.709  26.585  29.230  1.00  0.00    -0.248 NA
ATOM     46  C   UNL A   1      39.597  26.076  28.502  1.00  0.00     0.031 C 
ATOM     47  C   UNL A   1      42.457  29.389  28.966  1.00  0.00     0.029 A 
ATOM     48  N   UNL A   1      40.888  30.774  29.773  1.00  0.00    -0.354 N 
ATOM     49  C   UNL A   1      41.782  25.389  28.555  1.00  0.00     0.074 A 
ATOM     50  C   UNL A   1      40.425  25.078  28.180  1.00  0.00     0.031 C 
ATOM     51  C   UNL A   1      43.074  30.532  29.300  1.00  0.00     0.029 A 
ATOM     52  C   UNL A   1      42.149  31.260  30.149  1.00  0.00     0.049 A 
ATOM     53  H   UNL A   1      40.040  31.276  29.792  1.00  0.00     0.167 HD
ATOM     54  C   UNL A   1      43.012  24.884  28.258  1.00  0.00     0.034 A 
ATOM     55  C   UNL A   1      42.439  31.651  31.424  1.00  0.00     0.034 A 
ATOM     56  C   UNL A   1      44.064  25.806  28.731  1.00  0.00     0.049 A 
ATOM     57  C   UNL A   1      43.426  30.664  32.028  1.00  0.00     0.074 A 
ATOM     58  C   UNL A   1      44.847  26.754  28.092  1.00  0.00     0.029 A 
ATOM     59  N   UNL A   1      44.175  26.072  30.098  1.00  0.00    -0.354 N 
ATOM     60  N   UNL A   1      43.590  29.448  31.568  1.00  0.00    -0.248 NA
ATOM     61  C   UNL A   1      44.415  30.992  33.050  1.00  0.00     0.031 C 
ATOM     62  C   UNL A   1      45.363  27.640  29.083  1.00  0.00     0.029 A 
ATOM     63  C   UNL A   1      44.905  27.230  30.327  1.00  0.00     0.049 A 
ATOM     64  H   UNL A   1      43.786  25.511  30.807  1.00  0.00     0.167 HD
ATOM     65  C   UNL A   1      44.711  28.883  32.096  1.00  0.00     0.074 A 
ATOM     66  C   UNL A   1      45.170  29.875  33.060  1.00  0.00     0.031 C 
ATOM     67  C   UNL A   1      45.211  27.674  31.687  1.00  0.00     0.034 A 
BRANCH  54  68
ATOM     68  C   UNL A   1      43.265  23.727  27.305  1.00  0.00     0.023 A 
ATOM     69  C   UNL A   1      44.155  23.955  26.231  1.00  0.00     0.012 A 
ATOM     70  C   UNL A   1      42.705  22.427  27.380  1.00  0.00     0.148 A 
ATOM     71  C   UNL A   1      44.426  22.990  25.254  1.00  0.00     0.002 A 
ATOM     72  C   UNL A   1      42.935  21.477  26.376  1.00  0.00     0.091 A 
ATOM     73  F   UNL A   1      42.005  22.070  28.462  1.00  0.00    -0.205 F 
ATOM     74  C   UNL A   1      43.797  21.757  25.313  1.00  0.00     0.022 A 
BRANCH  72  75
ATOM     75  S   UNL A   1      42.117  19.869  26.337  1.00  0.00     0.127 S 
ATOM     76  O   UNL A   1      40.703  20.244  26.273  1.00  0.00    -0.237 OA
ATOM     77  O   UNL A   1      42.641  19.278  25.107  1.00  0.00    -0.237 OA
ATOM     78  O   UNL A   1      42.495  19.194  27.572  1.00  0.00    -0.744 OA
ENDBRANCH  72  75
ENDBRANCH  54  68
BRANCH  55  79
ATOM     79  C   UNL A   1      41.314  32.426  32.032  1.00  0.00     0.023 A 
ATOM     80  C   UNL A   1      40.872  33.515  31.231  1.00  0.00     0.012 A 
ATOM     81  C   UNL A   1      40.390  31.813  32.897  1.00  0.00     0.148 A 
ATOM     82  C   UNL A   1      39.513  33.812  31.107  1.00  0.00     0.002 A 
ATOM     83  C   UNL A   1      39.030  32.120  32.769  1.00  0.00     0.091 A 
ATOM     84  F   UNL A   1      40.823  30.841  33.709  1.00  0.00    -0.205 F 
ATOM     85  C   UNL A   1      38.589  33.075  31.836  1.00  0.00     0.022 A 
BRANCH  83  86
ATOM     86  S   UNL A   1      37.765  31.161  33.618  1.00  0.00     0.127 S 
ATOM     87  O   UNL A   1      38.060  29.807  33.160  1.00  0.00    -0.237 OA
ATOM     88  O   UNL A   1      38.070  31.412  35.025  1.00  0.00    -0.237 OA
ATOM     89  O   UNL A   1      36.504  31.732  33.169  1.00  0.00    -0.744 OA
ENDBRANCH  83  86
ENDBRANCH  55  79
BRANCH  67  90
ATOM     90  C   UNL A   1      46.079  26.785  32.554  1.00  0.00     0.023 A 
ATOM     91  C   UNL A   1      45.549  25.660  33.214  1.00  0.00     0.012 A 
ATOM     92  C   UNL A   1      47.493  26.905  32.535  1.00  0.00     0.148 A 
ATOM     93  C   UNL A   1      46.365  24.723  33.849  1.00  0.00     0.002 A 
ATOM     94  C   UNL A   1      48.302  25.896  33.042  1.00  0.00     0.091 A 
ATOM     95  F   UNL A   1      48.075  28.004  32.034  1.00  0.00    -0.205 F 
ATOM     96  C   UNL A   1      47.744  24.819  33.730  1.00  0.00     0.022 A 
BRANCH  94  97
ATOM     97  S   UNL A   1      50.056  25.833  32.647  1.00  0.00     0.127 S 
ATOM     98  O   UNL A   1      50.603  26.843  33.549  1.00  0.00    -0.237 OA
ATOM     99  O   UNL A   1      50.400  24.452  32.991  1.00  0.00    -0.237 OA
ATOM    100  O   UNL A   1      50.137  26.130  31.222  1.00  0.00    -0.744 OA
ENDBRANCH  94  97
ENDBRANCH  67  90
ENDBRANCH  41  42
ENDBRANCH  33  36
ENDBRANCH  31  32
ENDBRANCH  30  31
ENDBRANCH   1  30
TORSDOF 17
ENDMDL
