MODEL 1
REMARK VINA RESULT:     -12.6      0.000      0.000
REMARK SMILES C[C@H]1CN(C(=O)N2CC[NH+]([C@@H](C)C(=O)NCCCCNC(=O)c3ccc(-c4c5nc(c(-c6cccc(S(=O)(=O)[O-])c6F)c6ccc([nH]6)c(-c6cccc(S(=O)(=O)[O-])c6F)c6nc(c(-c7cccc(S(=O)(=O)[O-])c7F)c7ccc4[nH]7)C=C6)C=C5)cc3)CC2)C[C@@H]1C
REMARK SMILES IDX 18 1 17 2 16 3 15 4 13 5 14 6 11 8 12 9 10 10 1 11 2 12 3 13
REMARK SMILES IDX 89 14 4 15 88 16 90 17 5 18 6 19 7 20 8 21 87 22 9 23 86 24
REMARK SMILES IDX 19 26 20 27 21 28 22 30 23 31 24 32 85 33 25 34 84 35 26 36
REMARK SMILES IDX 27 37 28 38 78 39 29 40 83 41 77 42 79 43 30 44 82 45 76 46
REMARK SMILES IDX 75 47 31 49 63 50 43 51 62 52 44 53 47 54 61 55 80 56 45 57
REMARK SMILES IDX 46 58 60 60 81 61 48 62 32 63 33 64 41 65 34 66 36 67 42 68
REMARK SMILES IDX 35 69 37 70 38 71 39 72 40 73 64 74 65 75 73 76 66 77 68 78
REMARK SMILES IDX 74 79 67 80 69 81 70 82 71 83 72 84 49 85 50 86 58 87 51 88
REMARK SMILES IDX 53 89 59 90 52 91 54 92 55 93 56 94 57 95
REMARK H PARENT 15 7 10 25 20 29 79 48 47 59
REMARK Flexibility Score: inf
ROOT
ATOM      1  C   UNL A   1      31.580  29.592  26.790  1.00  0.00     0.023 C 
ENDROOT
BRANCH   1   2
ATOM      2  C   UNL A   1      32.075  28.405  27.601  1.00  0.00     0.023 C 
BRANCH   2   3
ATOM      3  C   UNL A   1      32.166  27.079  26.835  1.00  0.00     0.116 C 
BRANCH   3   4
ATOM      4  N   UNL A   1      30.879  26.411  26.789  1.00  0.00    -0.351 N 
ATOM      5  C   UNL A   1      30.283  25.617  25.854  1.00  0.00     0.278 C 
ATOM      6  O   UNL A   1      29.100  25.322  26.070  1.00  0.00    -0.268 OA
ATOM      7  H   UNL A   1      30.328  26.559  27.591  1.00  0.00     0.163 HD
BRANCH   5   8
ATOM      8  C   UNL A   1      31.001  25.055  24.594  1.00  0.00     0.271 C 
ATOM      9  C   UNL A   1      31.025  26.016  23.408  1.00  0.00     0.086 C 
BRANCH   8  10
ATOM     10  N   UNL A   1      30.761  23.608  24.370  1.00  0.00    -0.322 N 
ATOM     11  C   UNL A   1      32.531  17.041  26.223  1.00  0.00     0.010 C 
ATOM     12  C   UNL A   1      32.640  17.465  24.758  1.00  0.00     0.010 C 
ATOM     13  C   UNL A   1      32.437  18.973  24.615  1.00  0.00     0.125 C 
ATOM     14  C   UNL A   1      34.061  17.252  24.198  1.00  0.00     0.010 C 
ATOM     15  N   UNL A   1      33.775  19.541  24.685  1.00  0.00    -0.324 N 
ATOM     16  C   UNL A   1      34.802  18.519  24.636  1.00  0.00     0.125 C 
ATOM     17  C   UNL A   1      34.051  17.130  22.670  1.00  0.00     0.010 C 
ATOM     18  C   UNL A   1      34.075  20.872  24.512  1.00  0.00     0.320 C 
ATOM     19  O   UNL A   1      35.211  21.290  24.313  1.00  0.00    -0.248 OA
ATOM     20  N   UNL A   1      32.969  21.690  24.472  1.00  0.00    -0.313 N 
ATOM     21  C   UNL A   1      32.825  22.572  23.332  1.00  0.00     0.183 C 
ATOM     22  C   UNL A   1      32.413  22.195  25.722  1.00  0.00     0.183 C 
ATOM     23  C   UNL A   1      31.356  22.983  23.187  1.00  0.00     0.284 C 
ATOM     24  C   UNL A   1      30.981  22.747  25.548  1.00  0.00     0.284 C 
ATOM     25  H   UNL A   1      29.761  23.656  24.172  1.00  0.00     0.348 HD
ENDBRANCH   8  10
ENDBRANCH   5   8
ENDBRANCH   3   4
ENDBRANCH   2   3
ENDBRANCH   1   2
BRANCH   1  26
ATOM     26  C   UNL A   1      32.669  30.532  26.304  1.00  0.00     0.116 C 
BRANCH  26  27
ATOM     27  N   UNL A   1      32.524  31.906  26.772  1.00  0.00    -0.352 N 
ATOM     28  C   UNL A   1      33.401  32.636  27.549  1.00  0.00     0.251 C 
ATOM     29  H   UNL A   1      31.699  32.369  26.501  1.00  0.00     0.163 HD
ATOM     30  O   UNL A   1      33.120  33.758  27.928  1.00  0.00    -0.269 OA
BRANCH  28  31
ATOM     31  C   UNL A   1      34.674  31.997  27.951  1.00  0.00     0.039 A 
ATOM     32  C   UNL A   1      35.823  32.784  28.052  1.00  0.00     0.014 A 
ATOM     33  C   UNL A   1      34.692  30.656  28.339  1.00  0.00     0.014 A 
ATOM     34  C   UNL A   1      36.971  32.245  28.636  1.00  0.00     0.010 A 
ATOM     35  C   UNL A   1      35.801  30.155  29.008  1.00  0.00     0.010 A 
ATOM     36  C   UNL A   1      36.952  30.943  29.164  1.00  0.00    -0.014 A 
BRANCH  36  37
ATOM     37  C   UNL A   1      38.116  30.385  29.897  1.00  0.00     0.031 A 
ATOM     38  C   UNL A   1      38.412  30.851  31.298  1.00  0.00     0.074 A 
ATOM     39  C   UNL A   1      38.967  29.549  29.268  1.00  0.00     0.049 A 
ATOM     40  N   UNL A   1      39.419  30.544  32.073  1.00  0.00    -0.248 NA
ATOM     41  C   UNL A   1      37.475  31.821  31.891  1.00  0.00     0.031 C 
ATOM     42  C   UNL A   1      38.852  29.108  27.875  1.00  0.00     0.029 A 
ATOM     43  N   UNL A   1      40.116  28.942  29.711  1.00  0.00    -0.354 N 
ATOM     44  C   UNL A   1      39.263  31.315  33.218  1.00  0.00     0.074 A 
ATOM     45  C   UNL A   1      38.089  32.134  33.022  1.00  0.00     0.031 C 
ATOM     46  C   UNL A   1      39.879  28.294  27.583  1.00  0.00     0.029 A 
ATOM     47  C   UNL A   1      40.738  28.170  28.756  1.00  0.00     0.049 A 
ATOM     48  H   UNL A   1      40.463  29.049  30.625  1.00  0.00     0.167 HD
ATOM     49  C   UNL A   1      40.006  31.313  34.349  1.00  0.00     0.034 A 
ATOM     50  C   UNL A   1      41.870  27.441  28.822  1.00  0.00     0.034 A 
ATOM     51  C   UNL A   1      41.124  30.439  34.571  1.00  0.00     0.049 A 
ATOM     52  C   UNL A   1      42.622  27.383  30.125  1.00  0.00     0.074 A 
ATOM     53  C   UNL A   1      41.870  30.273  35.724  1.00  0.00     0.029 A 
ATOM     54  N   UNL A   1      41.649  29.575  33.623  1.00  0.00    -0.354 N 
ATOM     55  N   UNL A   1      42.353  27.982  31.259  1.00  0.00    -0.248 NA
ATOM     56  C   UNL A   1      43.809  26.515  30.170  1.00  0.00     0.031 C 
ATOM     57  C   UNL A   1      42.853  29.310  35.471  1.00  0.00     0.029 A 
ATOM     58  C   UNL A   1      42.711  28.871  34.164  1.00  0.00     0.049 A 
ATOM     59  H   UNL A   1      41.316  29.476  32.702  1.00  0.00     0.167 HD
ATOM     60  C   UNL A   1      43.316  27.542  32.161  1.00  0.00     0.074 A 
ATOM     61  C   UNL A   1      44.159  26.605  31.447  1.00  0.00     0.031 C 
ATOM     62  C   UNL A   1      43.498  27.895  33.457  1.00  0.00     0.034 A 
BRANCH  49  63
ATOM     63  C   UNL A   1      39.580  32.228  35.465  1.00  0.00     0.023 A 
ATOM     64  C   UNL A   1      38.764  31.721  36.498  1.00  0.00     0.012 A 
ATOM     65  C   UNL A   1      40.020  33.564  35.523  1.00  0.00     0.148 A 
ATOM     66  C   UNL A   1      38.367  32.539  37.555  1.00  0.00     0.002 A 
ATOM     67  C   UNL A   1      39.653  34.361  36.602  1.00  0.00     0.091 A 
ATOM     68  F   UNL A   1      40.773  34.034  34.519  1.00  0.00    -0.205 F 
ATOM     69  C   UNL A   1      38.818  33.853  37.612  1.00  0.00     0.022 A 
BRANCH  67  70
ATOM     70  S   UNL A   1      40.243  36.045  36.806  1.00  0.00     0.127 S 
ATOM     71  O   UNL A   1      41.690  35.844  36.883  1.00  0.00    -0.237 OA
ATOM     72  O   UNL A   1      39.782  36.685  35.573  1.00  0.00    -0.237 OA
ATOM     73  O   UNL A   1      39.616  36.545  38.020  1.00  0.00    -0.744 OA
ENDBRANCH  67  70
ENDBRANCH  49  63
BRANCH  50  74
ATOM     74  C   UNL A   1      42.307  26.632  27.649  1.00  0.00     0.023 A 
ATOM     75  C   UNL A   1      43.127  27.230  26.670  1.00  0.00     0.012 A 
ATOM     76  C   UNL A   1      41.945  25.280  27.504  1.00  0.00     0.148 A 
ATOM     77  C   UNL A   1      43.552  26.507  25.556  1.00  0.00     0.002 A 
ATOM     78  C   UNL A   1      42.414  24.550  26.417  1.00  0.00     0.091 A 
ATOM     79  F   UNL A   1      41.151  24.731  28.434  1.00  0.00    -0.205 F 
ATOM     80  C   UNL A   1      43.204  25.165  25.433  1.00  0.00     0.022 A 
BRANCH  78  81
ATOM     81  S   UNL A   1      42.120  22.784  26.254  1.00  0.00     0.127 S 
ATOM     82  O   UNL A   1      40.662  22.720  26.269  1.00  0.00    -0.237 OA
ATOM     83  O   UNL A   1      42.737  22.488  24.961  1.00  0.00    -0.237 OA
ATOM     84  O   UNL A   1      42.800  22.176  27.390  1.00  0.00    -0.744 OA
ENDBRANCH  78  81
ENDBRANCH  50  74
BRANCH  62  85
ATOM     85  C   UNL A   1      44.636  27.252  34.203  1.00  0.00     0.023 A 
ATOM     86  C   UNL A   1      45.888  27.895  34.247  1.00  0.00     0.012 A 
ATOM     87  C   UNL A   1      44.442  26.060  34.926  1.00  0.00     0.148 A 
ATOM     88  C   UNL A   1      46.939  27.348  34.981  1.00  0.00     0.002 A 
ATOM     89  C   UNL A   1      45.481  25.543  35.692  1.00  0.00     0.091 A 
ATOM     90  F   UNL A   1      43.249  25.451  34.853  1.00  0.00    -0.205 F 
ATOM     91  C   UNL A   1      46.732  26.181  35.712  1.00  0.00     0.022 A 
BRANCH  89  92
ATOM     92  S   UNL A   1      45.269  24.097  36.736  1.00  0.00     0.127 S 
ATOM     93  O   UNL A   1      46.653  23.760  37.063  1.00  0.00    -0.237 OA
ATOM     94  O   UNL A   1      44.490  24.629  37.856  1.00  0.00    -0.237 OA
ATOM     95  O   UNL A   1      44.558  23.121  35.922  1.00  0.00    -0.744 OA
ENDBRANCH  89  92
ENDBRANCH  62  85
ENDBRANCH  36  37
ENDBRANCH  28  31
ENDBRANCH  26  27
ENDBRANCH   1  26
TORSDOF 15
ENDMDL
MODEL 2
REMARK VINA RESULT:     -12.3      2.583      8.013
REMARK SMILES C[C@H]1CN(C(=O)N2CC[NH+]([C@@H](C)C(=O)NCCCCNC(=O)c3ccc(-c4c5nc(c(-c6cccc(S(=O)(=O)[O-])c6F)c6ccc([nH]6)c(-c6cccc(S(=O)(=O)[O-])c6F)c6nc(c(-c7cccc(S(=O)(=O)[O-])c7F)c7ccc4[nH]7)C=C6)C=C5)cc3)CC2)C[C@@H]1C
REMARK SMILES IDX 18 1 17 2 16 3 15 4 13 5 14 6 11 8 12 9 10 10 1 11 2 12 3 13
REMARK SMILES IDX 89 14 4 15 88 16 90 17 5 18 6 19 7 20 8 21 87 22 9 23 86 24
REMARK SMILES IDX 19 26 20 27 21 28 22 30 23 31 24 32 85 33 25 34 84 35 26 36
REMARK SMILES IDX 27 37 28 38 78 39 29 40 83 41 77 42 79 43 30 44 82 45 76 46
REMARK SMILES IDX 75 47 31 49 63 50 43 51 62 52 44 53 47 54 61 55 80 56 45 57
REMARK SMILES IDX 46 58 60 60 81 61 48 62 32 63 33 64 41 65 34 66 36 67 42 68
REMARK SMILES IDX 35 69 37 70 38 71 39 72 40 73 64 74 65 75 73 76 66 77 68 78
REMARK SMILES IDX 74 79 67 80 69 81 70 82 71 83 72 84 49 85 50 86 58 87 51 88
REMARK SMILES IDX 53 89 59 90 52 91 54 92 55 93 56 94 57 95
REMARK H PARENT 15 7 10 25 20 29 79 48 47 59
REMARK Flexibility Score: inf
ROOT
ATOM      1  C   UNL A   1      32.653  31.247  27.329  1.00  0.00     0.023 C 
ENDROOT
BRANCH   1   2
ATOM      2  C   UNL A   1      31.556  31.236  26.276  1.00  0.00     0.023 C 
BRANCH   2   3
ATOM      3  C   UNL A   1      31.428  29.933  25.476  1.00  0.00     0.116 C 
BRANCH   3   4
ATOM      4  N   UNL A   1      32.556  29.754  24.581  1.00  0.00    -0.351 N 
ATOM      5  C   UNL A   1      32.767  28.931  23.515  1.00  0.00     0.278 C 
ATOM      6  O   UNL A   1      33.915  28.930  23.052  1.00  0.00    -0.268 OA
ATOM      7  H   UNL A   1      33.318  30.343  24.782  1.00  0.00     0.163 HD
BRANCH   5   8
ATOM      8  C   UNL A   1      31.668  28.052  22.853  1.00  0.00     0.271 C 
ATOM      9  C   UNL A   1      30.517  28.848  22.241  1.00  0.00     0.086 C 
BRANCH   8  10
ATOM     10  N   UNL A   1      31.390  26.795  23.589  1.00  0.00    -0.322 N 
ATOM     11  C   UNL A   1      34.104  21.597  27.502  1.00  0.00     0.010 C 
ATOM     12  C   UNL A   1      33.355  21.256  26.213  1.00  0.00     0.010 C 
ATOM     13  C   UNL A   1      33.059  22.522  25.410  1.00  0.00     0.125 C 
ATOM     14  C   UNL A   1      34.218  20.424  25.244  1.00  0.00     0.010 C 
ATOM     15  N   UNL A   1      34.184  22.661  24.497  1.00  0.00    -0.324 N 
ATOM     16  C   UNL A   1      35.036  21.487  24.505  1.00  0.00     0.125 C 
ATOM     17  C   UNL A   1      33.352  19.627  24.263  1.00  0.00     0.010 C 
ATOM     18  C   UNL A   1      34.291  23.622  23.520  1.00  0.00     0.320 C 
ATOM     19  O   UNL A   1      35.103  23.567  22.602  1.00  0.00    -0.248 OA
ATOM     20  N   UNL A   1      33.330  24.603  23.599  1.00  0.00    -0.313 N 
ATOM     21  C   UNL A   1      32.540  24.869  22.415  1.00  0.00     0.183 C 
ATOM     22  C   UNL A   1      33.560  25.756  24.463  1.00  0.00     0.183 C 
ATOM     23  C   UNL A   1      31.233  25.561  22.817  1.00  0.00     0.284 C 
ATOM     24  C   UNL A   1      32.263  26.543  24.752  1.00  0.00     0.284 C 
ATOM     25  H   UNL A   1      30.452  27.024  23.919  1.00  0.00     0.348 HD
ENDBRANCH   8  10
ENDBRANCH   5   8
ENDBRANCH   3   4
ENDBRANCH   2   3
ENDBRANCH   1   2
BRANCH   1  26
ATOM     26  C   UNL A   1      33.580  32.448  27.274  1.00  0.00     0.116 C 
BRANCH  26  27
ATOM     27  N   UNL A   1      32.933  33.715  27.597  1.00  0.00    -0.352 N 
ATOM     28  C   UNL A   1      33.231  34.582  28.629  1.00  0.00     0.251 C 
ATOM     29  H   UNL A   1      32.193  33.985  27.006  1.00  0.00     0.163 HD
ATOM     30  O   UNL A   1      32.559  35.579  28.826  1.00  0.00    -0.269 OA
BRANCH  28  31
ATOM     31  C   UNL A   1      34.360  34.241  29.523  1.00  0.00     0.039 A 
ATOM     32  C   UNL A   1      34.102  33.527  30.694  1.00  0.00     0.014 A 
ATOM     33  C   UNL A   1      35.671  34.524  29.133  1.00  0.00     0.014 A 
ATOM     34  C   UNL A   1      35.172  33.013  31.430  1.00  0.00     0.010 A 
ATOM     35  C   UNL A   1      36.726  33.928  29.810  1.00  0.00     0.010 A 
ATOM     36  C   UNL A   1      36.490  33.166  30.965  1.00  0.00    -0.014 A 
BRANCH  36  37
ATOM     37  C   UNL A   1      37.637  32.529  31.658  1.00  0.00     0.031 A 
ATOM     38  C   UNL A   1      38.377  31.398  30.995  1.00  0.00     0.074 A 
ATOM     39  C   UNL A   1      37.941  32.888  32.922  1.00  0.00     0.049 A 
ATOM     40  N   UNL A   1      39.351  30.663  31.465  1.00  0.00    -0.248 NA
ATOM     41  C   UNL A   1      37.939  31.014  29.641  1.00  0.00     0.031 C 
ATOM     42  C   UNL A   1      37.230  33.894  33.714  1.00  0.00     0.029 A 
ATOM     43  N   UNL A   1      38.914  32.426  33.774  1.00  0.00    -0.354 N 
ATOM     44  C   UNL A   1      39.607  29.706  30.491  1.00  0.00     0.074 A 
ATOM     45  C   UNL A   1      38.661  29.926  29.420  1.00  0.00     0.031 C 
ATOM     46  C   UNL A   1      37.795  33.981  34.930  1.00  0.00     0.029 A 
ATOM     47  C   UNL A   1      38.895  33.025  35.013  1.00  0.00     0.049 A 
ATOM     48  H   UNL A   1      39.563  31.731  33.523  1.00  0.00     0.167 HD
ATOM     49  C   UNL A   1      40.569  28.755  30.468  1.00  0.00     0.034 A 
ATOM     50  C   UNL A   1      39.679  32.829  36.091  1.00  0.00     0.034 A 
ATOM     51  C   UNL A   1      41.559  28.593  31.496  1.00  0.00     0.049 A 
ATOM     52  C   UNL A   1      40.802  31.831  36.001  1.00  0.00     0.074 A 
ATOM     53  C   UNL A   1      42.647  27.739  31.515  1.00  0.00     0.029 A 
ATOM     54  N   UNL A   1      41.585  29.307  32.683  1.00  0.00    -0.354 N 
ATOM     55  N   UNL A   1      41.142  31.060  34.997  1.00  0.00    -0.248 NA
ATOM     56  C   UNL A   1      41.677  31.705  37.177  1.00  0.00     0.031 C 
ATOM     57  C   UNL A   1      43.331  27.934  32.720  1.00  0.00     0.029 A 
ATOM     58  C   UNL A   1      42.672  28.914  33.445  1.00  0.00     0.049 A 
ATOM     59  H   UNL A   1      40.929  29.991  32.947  1.00  0.00     0.167 HD
ATOM     60  C   UNL A   1      42.285  30.382  35.405  1.00  0.00     0.074 A 
ATOM     61  C   UNL A   1      42.595  30.853  36.739  1.00  0.00     0.031 C 
ATOM     62  C   UNL A   1      43.002  29.441  34.743  1.00  0.00     0.034 A 
BRANCH  49  63
ATOM     63  C   UNL A   1      40.648  27.872  29.252  1.00  0.00     0.023 A 
ATOM     64  C   UNL A   1      39.799  26.749  29.160  1.00  0.00     0.012 A 
ATOM     65  C   UNL A   1      41.518  28.171  28.186  1.00  0.00     0.148 A 
ATOM     66  C   UNL A   1      39.836  25.921  28.039  1.00  0.00     0.002 A 
ATOM     67  C   UNL A   1      41.519  27.364  27.054  1.00  0.00     0.091 A 
ATOM     68  F   UNL A   1      42.335  29.227  28.304  1.00  0.00    -0.205 F 
ATOM     69  C   UNL A   1      40.688  26.233  26.984  1.00  0.00     0.022 A 
BRANCH  67  70
ATOM     70  S   UNL A   1      42.525  27.723  25.610  1.00  0.00     0.127 S 
ATOM     71  O   UNL A   1      43.859  27.832  26.199  1.00  0.00    -0.237 OA
ATOM     72  O   UNL A   1      42.319  26.531  24.786  1.00  0.00    -0.237 OA
ATOM     73  O   UNL A   1      41.989  28.952  25.044  1.00  0.00    -0.744 OA
ENDBRANCH  67  70
ENDBRANCH  49  63
BRANCH  50  74
ATOM     74  C   UNL A   1      39.490  33.661  37.314  1.00  0.00     0.023 A 
ATOM     75  C   UNL A   1      40.047  34.955  37.355  1.00  0.00     0.012 A 
ATOM     76  C   UNL A   1      38.749  33.200  38.418  1.00  0.00     0.148 A 
ATOM     77  C   UNL A   1      39.896  35.761  38.483  1.00  0.00     0.002 A 
ATOM     78  C   UNL A   1      38.560  34.027  39.519  1.00  0.00     0.091 A 
ATOM     79  F   UNL A   1      38.241  31.961  38.369  1.00  0.00    -0.205 F 
ATOM     80  C   UNL A   1      39.145  35.302  39.561  1.00  0.00     0.022 A 
BRANCH  78  81
ATOM     81  S   UNL A   1      37.496  33.562  40.892  1.00  0.00     0.127 S 
ATOM     82  O   UNL A   1      37.366  34.825  41.611  1.00  0.00    -0.237 OA
ATOM     83  O   UNL A   1      36.284  33.115  40.204  1.00  0.00    -0.237 OA
ATOM     84  O   UNL A   1      38.211  32.499  41.586  1.00  0.00    -0.744 OA
ENDBRANCH  78  81
ENDBRANCH  50  74
BRANCH  62  85
ATOM     85  C   UNL A   1      44.210  28.869  35.436  1.00  0.00     0.023 A 
ATOM     86  C   UNL A   1      45.476  29.442  35.208  1.00  0.00     0.012 A 
ATOM     87  C   UNL A   1      44.078  27.826  36.372  1.00  0.00     0.148 A 
ATOM     88  C   UNL A   1      46.599  28.968  35.884  1.00  0.00     0.002 A 
ATOM     89  C   UNL A   1      45.194  27.388  37.075  1.00  0.00     0.091 A 
ATOM     90  F   UNL A   1      42.867  27.280  36.558  1.00  0.00    -0.205 F 
ATOM     91  C   UNL A   1      46.456  27.950  36.825  1.00  0.00     0.022 A 
BRANCH  89  92
ATOM     92  S   UNL A   1      45.080  26.148  38.370  1.00  0.00     0.127 S 
ATOM     93  O   UNL A   1      44.155  26.780  39.309  1.00  0.00    -0.237 OA
ATOM     94  O   UNL A   1      44.529  24.996  37.655  1.00  0.00    -0.237 OA
ATOM     95  O   UNL A   1      46.439  25.958  38.857  1.00  0.00    -0.744 OA
ENDBRANCH  89  92
ENDBRANCH  62  85
ENDBRANCH  36  37
ENDBRANCH  28  31
ENDBRANCH  26  27
ENDBRANCH   1  26
TORSDOF 15
ENDMDL
MODEL 3
REMARK VINA RESULT:     -12.3      1.674      2.287
REMARK SMILES C[C@H]1CN(C(=O)N2CC[NH+]([C@@H](C)C(=O)NCCCCNC(=O)c3ccc(-c4c5nc(c(-c6cccc(S(=O)(=O)[O-])c6F)c6ccc([nH]6)c(-c6cccc(S(=O)(=O)[O-])c6F)c6nc(c(-c7cccc(S(=O)(=O)[O-])c7F)c7ccc4[nH]7)C=C6)C=C5)cc3)CC2)C[C@@H]1C
REMARK SMILES IDX 18 1 17 2 16 3 15 4 13 5 14 6 11 8 12 9 10 10 1 11 2 12 3 13
REMARK SMILES IDX 89 14 4 15 88 16 90 17 5 18 6 19 7 20 8 21 87 22 9 23 86 24
REMARK SMILES IDX 19 26 20 27 21 28 22 30 23 31 24 32 85 33 25 34 84 35 26 36
REMARK SMILES IDX 27 37 28 38 78 39 29 40 83 41 77 42 79 43 30 44 82 45 76 46
REMARK SMILES IDX 75 47 31 49 63 50 43 51 62 52 44 53 47 54 61 55 80 56 45 57
REMARK SMILES IDX 46 58 60 60 81 61 48 62 32 63 33 64 41 65 34 66 36 67 42 68
REMARK SMILES IDX 35 69 37 70 38 71 39 72 40 73 64 74 65 75 73 76 66 77 68 78
REMARK SMILES IDX 74 79 67 80 69 81 70 82 71 83 72 84 49 85 50 86 58 87 51 88
REMARK SMILES IDX 53 89 59 90 52 91 54 92 55 93 56 94 57 95
REMARK H PARENT 15 7 10 25 20 29 79 48 47 59
REMARK Flexibility Score: inf
ROOT
ATOM      1  C   UNL A   1      31.022  30.662  25.474  1.00  0.00     0.023 C 
ENDROOT
BRANCH   1   2
ATOM      2  C   UNL A   1      31.368  29.595  24.448  1.00  0.00     0.023 C 
BRANCH   2   3
ATOM      3  C   UNL A   1      30.340  29.406  23.325  1.00  0.00     0.116 C 
BRANCH   3   4
ATOM      4  N   UNL A   1      30.777  28.400  22.377  1.00  0.00    -0.351 N 
ATOM      5  C   UNL A   1      30.749  27.036  22.399  1.00  0.00     0.278 C 
ATOM      6  O   UNL A   1      31.345  26.468  21.474  1.00  0.00    -0.268 OA
ATOM      7  H   UNL A   1      31.172  28.773  21.557  1.00  0.00     0.163 HD
BRANCH   5   8
ATOM      8  C   UNL A   1      30.001  26.191  23.469  1.00  0.00     0.271 C 
ATOM      9  C   UNL A   1      28.688  26.808  23.945  1.00  0.00     0.086 C 
BRANCH   8  10
ATOM     10  N   UNL A   1      30.905  25.531  24.442  1.00  0.00    -0.322 N 
ATOM     11  C   UNL A   1      37.589  24.065  26.138  1.00  0.00     0.010 C 
ATOM     12  C   UNL A   1      36.586  22.922  25.974  1.00  0.00     0.010 C 
ATOM     13  C   UNL A   1      35.274  23.436  25.383  1.00  0.00     0.125 C 
ATOM     14  C   UNL A   1      37.054  21.887  24.932  1.00  0.00     0.010 C 
ATOM     15  N   UNL A   1      35.417  23.268  23.945  1.00  0.00    -0.324 N 
ATOM     16  C   UNL A   1      36.598  22.498  23.604  1.00  0.00     0.125 C 
ATOM     17  C   UNL A   1      36.391  20.523  25.157  1.00  0.00     0.010 C 
ATOM     18  C   UNL A   1      34.431  23.520  23.020  1.00  0.00     0.320 C 
ATOM     19  O   UNL A   1      34.475  23.130  21.858  1.00  0.00    -0.248 OA
ATOM     20  N   UNL A   1      33.331  24.162  23.543  1.00  0.00    -0.313 N 
ATOM     21  C   UNL A   1      32.033  23.558  23.326  1.00  0.00     0.183 C 
ATOM     22  C   UNL A   1      33.332  25.618  23.630  1.00  0.00     0.183 C 
ATOM     23  C   UNL A   1      31.046  24.074  24.378  1.00  0.00     0.284 C 
ATOM     24  C   UNL A   1      32.237  26.151  24.581  1.00  0.00     0.284 C 
ATOM     25  H   UNL A   1      30.363  25.709  25.288  1.00  0.00     0.348 HD
ENDBRANCH   8  10
ENDBRANCH   5   8
ENDBRANCH   3   4
ENDBRANCH   2   3
ENDBRANCH   1   2
BRANCH   1  26
ATOM     26  C   UNL A   1      32.175  31.087  26.367  1.00  0.00     0.116 C 
BRANCH  26  27
ATOM     27  N   UNL A   1      32.082  32.461  26.846  1.00  0.00    -0.352 N 
ATOM     28  C   UNL A   1      32.997  33.158  27.611  1.00  0.00     0.251 C 
ATOM     29  H   UNL A   1      31.267  32.953  26.593  1.00  0.00     0.163 HD
ATOM     30  O   UNL A   1      32.758  34.286  28.003  1.00  0.00    -0.269 OA
BRANCH  28  31
ATOM     31  C   UNL A   1      34.256  32.476  27.985  1.00  0.00     0.039 A 
ATOM     32  C   UNL A   1      35.442  33.212  28.007  1.00  0.00     0.014 A 
ATOM     33  C   UNL A   1      34.230  31.151  28.426  1.00  0.00     0.014 A 
ATOM     34  C   UNL A   1      36.589  32.642  28.564  1.00  0.00     0.010 A 
ATOM     35  C   UNL A   1      35.343  30.625  29.068  1.00  0.00     0.010 A 
ATOM     36  C   UNL A   1      36.534  31.364  29.144  1.00  0.00    -0.014 A 
BRANCH  36  37
ATOM     37  C   UNL A   1      37.702  30.780  29.851  1.00  0.00     0.031 A 
ATOM     38  C   UNL A   1      38.017  31.211  31.258  1.00  0.00     0.074 A 
ATOM     39  C   UNL A   1      38.539  29.953  29.193  1.00  0.00     0.049 A 
ATOM     40  N   UNL A   1      39.031  30.879  32.014  1.00  0.00    -0.248 NA
ATOM     41  C   UNL A   1      37.095  32.174  31.885  1.00  0.00     0.031 C 
ATOM     42  C   UNL A   1      38.404  29.545  27.792  1.00  0.00     0.029 A 
ATOM     43  N   UNL A   1      39.688  29.327  29.608  1.00  0.00    -0.354 N 
ATOM     44  C   UNL A   1      38.895  31.624  33.178  1.00  0.00     0.074 A 
ATOM     45  C   UNL A   1      37.724  32.457  33.016  1.00  0.00     0.031 C 
ATOM     46  C   UNL A   1      39.422  28.731  27.468  1.00  0.00     0.029 A 
ATOM     47  C   UNL A   1      40.294  28.573  28.628  1.00  0.00     0.049 A 
ATOM     48  H   UNL A   1      40.047  29.410  30.520  1.00  0.00     0.167 HD
ATOM     49  C   UNL A   1      39.650  31.590  34.300  1.00  0.00     0.034 A 
ATOM     50  C   UNL A   1      41.420  27.834  28.664  1.00  0.00     0.034 A 
ATOM     51  C   UNL A   1      40.764  30.703  34.489  1.00  0.00     0.049 A 
ATOM     52  C   UNL A   1      42.187  27.740  29.956  1.00  0.00     0.074 A 
ATOM     53  C   UNL A   1      41.522  30.505  35.629  1.00  0.00     0.029 A 
ATOM     54  N   UNL A   1      41.271  29.857  33.516  1.00  0.00    -0.354 N 
ATOM     55  N   UNL A   1      41.936  28.315  31.107  1.00  0.00    -0.248 NA
ATOM     56  C   UNL A   1      43.368  26.864  29.967  1.00  0.00     0.031 C 
ATOM     57  C   UNL A   1      42.494  29.541  35.342  1.00  0.00     0.029 A 
ATOM     58  C   UNL A   1      42.334  29.134  34.027  1.00  0.00     0.049 A 
ATOM     59  H   UNL A   1      40.927  29.783  32.596  1.00  0.00     0.167 HD
ATOM     60  C   UNL A   1      42.905  27.847  31.987  1.00  0.00     0.074 A 
ATOM     61  C   UNL A   1      43.733  26.921  31.241  1.00  0.00     0.031 C 
ATOM     62  C   UNL A   1      43.105  28.169  33.289  1.00  0.00     0.034 A 
BRANCH  49  63
ATOM     63  C   UNL A   1      39.244  32.483  35.442  1.00  0.00     0.023 A 
ATOM     64  C   UNL A   1      38.332  31.999  36.404  1.00  0.00     0.012 A 
ATOM     65  C   UNL A   1      39.795  33.769  35.596  1.00  0.00     0.148 A 
ATOM     66  C   UNL A   1      37.949  32.795  37.483  1.00  0.00     0.002 A 
ATOM     67  C   UNL A   1      39.439  34.540  36.697  1.00  0.00     0.091 A 
ATOM     68  F   UNL A   1      40.640  34.221  34.659  1.00  0.00    -0.205 F 
ATOM     69  C   UNL A   1      38.509  34.059  37.634  1.00  0.00     0.022 A 
BRANCH  67  70
ATOM     70  S   UNL A   1      40.161  36.152  37.023  1.00  0.00     0.127 S 
ATOM     71  O   UNL A   1      39.863  36.866  35.782  1.00  0.00    -0.237 OA
ATOM     72  O   UNL A   1      39.393  36.605  38.185  1.00  0.00    -0.237 OA
ATOM     73  O   UNL A   1      41.573  35.914  37.285  1.00  0.00    -0.744 OA
ENDBRANCH  67  70
ENDBRANCH  49  63
BRANCH  50  74
ATOM     74  C   UNL A   1      41.837  27.050  27.467  1.00  0.00     0.023 A 
ATOM     75  C   UNL A   1      42.425  27.722  26.377  1.00  0.00     0.012 A 
ATOM     76  C   UNL A   1      41.685  25.652  27.407  1.00  0.00     0.148 A 
ATOM     77  C   UNL A   1      42.823  27.023  25.238  1.00  0.00     0.002 A 
ATOM     78  C   UNL A   1      42.131  24.954  26.289  1.00  0.00     0.091 A 
ATOM     79  F   UNL A   1      41.109  25.029  28.445  1.00  0.00    -0.205 F 
ATOM     80  C   UNL A   1      42.685  25.639  25.197  1.00  0.00     0.022 A 
BRANCH  78  81
ATOM     81  S   UNL A   1      42.110  23.158  26.214  1.00  0.00     0.127 S 
ATOM     82  O   UNL A   1      40.680  22.872  26.284  1.00  0.00    -0.237 OA
ATOM     83  O   UNL A   1      42.728  22.898  24.913  1.00  0.00    -0.237 OA
ATOM     84  O   UNL A   1      42.908  22.718  27.350  1.00  0.00    -0.744 OA
ENDBRANCH  78  81
ENDBRANCH  50  74
BRANCH  62  85
ATOM     85  C   UNL A   1      44.247  27.500  34.006  1.00  0.00     0.023 A 
ATOM     86  C   UNL A   1      45.538  28.057  33.926  1.00  0.00     0.012 A 
ATOM     87  C   UNL A   1      44.026  26.375  34.823  1.00  0.00     0.148 A 
ATOM     88  C   UNL A   1      46.598  27.490  34.630  1.00  0.00     0.002 A 
ATOM     89  C   UNL A   1      45.078  25.841  35.557  1.00  0.00     0.091 A 
ATOM     90  F   UNL A   1      42.794  25.847  34.868  1.00  0.00    -0.205 F 
ATOM     91  C   UNL A   1      46.366  26.390  35.454  1.00  0.00     0.022 A 
BRANCH  89  92
ATOM     92  S   UNL A   1      44.844  24.486  36.713  1.00  0.00     0.127 S 
ATOM     93  O   UNL A   1      44.448  23.398  35.823  1.00  0.00    -0.237 OA
ATOM     94  O   UNL A   1      46.178  24.339  37.299  1.00  0.00    -0.237 OA
ATOM     95  O   UNL A   1      43.825  24.936  37.651  1.00  0.00    -0.744 OA
ENDBRANCH  89  92
ENDBRANCH  62  85
ENDBRANCH  36  37
ENDBRANCH  28  31
ENDBRANCH  26  27
ENDBRANCH   1  26
TORSDOF 15
ENDMDL
