MODEL 1
REMARK VINA RESULT:     -11.9      0.000      0.000
REMARK SMILES C[C@@H]1[C@@H](C(=O)NCCCCNC(=O)c2ccc(-c3c4nc(c(-c5cccc(S(=O)(=O)[O-])c5F)c5ccc([nH]5)c(-c5cccc(S(=O)(=O)[O-])c5F)c5nc(c(-c6cccc(S(=O)(=O)[O-])c6F)c6ccc3[nH]6)C=C5)C=C4)cc2)CCN1c1ccc(C(F)(F)F)cc1C#N
REMARK SMILES IDX 9 1 8 2 7 3 6 4 4 5 5 6 3 8 1 9 2 10 79 11 77 12 78 13 80 14
REMARK SMILES IDX 81 15 89 16 82 17 88 18 83 19 90 20 91 21 84 22 85 23 86 24
REMARK SMILES IDX 87 25 10 26 11 27 12 28 13 30 14 31 15 32 76 33 16 34 75 35
REMARK SMILES IDX 17 36 18 37 19 38 69 39 20 40 74 41 68 42 70 43 21 44 73 45
REMARK SMILES IDX 67 46 66 47 22 49 54 50 34 51 53 52 35 53 38 54 52 55 71 56
REMARK SMILES IDX 36 57 37 58 51 60 72 61 39 62 23 63 24 64 32 65 25 66 27 67
REMARK SMILES IDX 33 68 26 69 28 70 29 71 30 72 31 73 55 74 56 75 64 76 57 77
REMARK SMILES IDX 59 78 65 79 58 80 60 81 61 82 62 83 63 84 40 85 41 86 49 87
REMARK SMILES IDX 42 88 44 89 50 90 43 91 45 92 46 93 47 94 48 95
REMARK H PARENT 6 7 11 29 70 48 38 59
REMARK Flexibility Score: inf
ROOT
ATOM      1  C   UNL A   1      33.185  28.047  27.208  1.00  0.00     0.023 C 
ENDROOT
BRANCH   1   2
ATOM      2  C   UNL A   1      31.735  27.673  26.917  1.00  0.00     0.023 C 
BRANCH   2   3
ATOM      3  C   UNL A   1      31.438  27.258  25.483  1.00  0.00     0.116 C 
BRANCH   3   4
ATOM      4  N   UNL A   1      30.875  25.930  25.356  1.00  0.00    -0.356 N 
ATOM      5  C   UNL A   1      31.521  24.736  25.195  1.00  0.00     0.225 C 
ATOM      6  O   UNL A   1      30.836  23.713  25.195  1.00  0.00    -0.275 OA
ATOM      7  H   UNL A   1      29.892  25.879  25.388  1.00  0.00     0.163 HD
BRANCH   5   8
ATOM      8  C   UNL A   1      33.023  24.726  24.935  1.00  0.00     0.102 C 
ATOM      9  C   UNL A   1      34.511  24.008  23.036  1.00  0.00     0.032 C 
ATOM     10  C   UNL A   1      33.440  23.537  24.022  1.00  0.00     0.091 C 
ATOM     11  N   UNL A   1      34.001  22.538  24.965  1.00  0.00    -0.367 N 
ATOM     12  C   UNL A   1      33.890  24.516  26.180  1.00  0.00     0.037 C 
ATOM     13  C   UNL A   1      33.901  23.012  26.341  1.00  0.00     0.118 C 
BRANCH  11  14
ATOM     14  C   UNL A   1      33.923  21.172  24.747  1.00  0.00     0.055 A 
ATOM     15  C   UNL A   1      32.675  20.549  24.557  1.00  0.00     0.028 A 
ATOM     16  C   UNL A   1      35.055  20.339  24.818  1.00  0.00     0.076 A 
ATOM     17  C   UNL A   1      32.543  19.155  24.504  1.00  0.00     0.015 A 
ATOM     18  C   UNL A   1      34.924  18.939  24.739  1.00  0.00     0.034 A 
ATOM     19  C   UNL A   1      33.668  18.333  24.606  1.00  0.00     0.057 A 
BRANCH  16  20
ATOM     20  C   UNL A   1      36.373  20.863  25.062  1.00  0.00     0.101 C 
ATOM     21  N   UNL A   1      37.440  21.293  25.186  1.00  0.00    -0.192 NA
ENDBRANCH  16  20
BRANCH  19  22
ATOM     22  C   UNL A   1      33.521  16.833  24.620  1.00  0.00     0.416 C 
ATOM     23  F   UNL A   1      33.614  16.292  23.374  1.00  0.00    -0.166 F 
ATOM     24  F   UNL A   1      34.470  16.214  25.373  1.00  0.00    -0.166 F 
ATOM     25  F   UNL A   1      32.321  16.413  25.114  1.00  0.00    -0.166 F 
ENDBRANCH  19  22
ENDBRANCH  11  14
ENDBRANCH   5   8
ENDBRANCH   3   4
ENDBRANCH   2   3
ENDBRANCH   1   2
BRANCH   1  26
ATOM     26  C   UNL A   1      33.796  29.079  26.269  1.00  0.00     0.116 C 
BRANCH  26  27
ATOM     27  N   UNL A   1      33.760  30.432  26.808  1.00  0.00    -0.352 N 
ATOM     28  C   UNL A   1      34.615  31.042  27.697  1.00  0.00     0.251 C 
ATOM     29  H   UNL A   1      33.016  30.992  26.489  1.00  0.00     0.163 HD
ATOM     30  O   UNL A   1      34.335  32.146  28.154  1.00  0.00    -0.269 OA
BRANCH  28  31
ATOM     31  C   UNL A   1      35.854  30.352  28.117  1.00  0.00     0.039 A 
ATOM     32  C   UNL A   1      36.981  30.415  27.295  1.00  0.00     0.014 A 
ATOM     33  C   UNL A   1      35.908  29.665  29.332  1.00  0.00     0.014 A 
ATOM     34  C   UNL A   1      38.183  29.851  27.728  1.00  0.00     0.010 A 
ATOM     35  C   UNL A   1      37.129  29.197  29.805  1.00  0.00     0.010 A 
ATOM     36  C   UNL A   1      38.278  29.271  29.005  1.00  0.00    -0.014 A 
BRANCH  36  37
ATOM     37  C   UNL A   1      39.563  28.725  29.517  1.00  0.00     0.031 A 
ATOM     38  C   UNL A   1      40.278  29.416  30.648  1.00  0.00     0.074 A 
ATOM     39  C   UNL A   1      40.129  27.659  28.915  1.00  0.00     0.049 A 
ATOM     40  N   UNL A   1      41.432  29.130  31.192  1.00  0.00    -0.248 NA
ATOM     41  C   UNL A   1      39.625  30.603  31.225  1.00  0.00     0.031 C 
ATOM     42  C   UNL A   1      39.575  26.944  27.762  1.00  0.00     0.029 A 
ATOM     43  N   UNL A   1      41.308  27.007  29.174  1.00  0.00    -0.354 N 
ATOM     44  C   UNL A   1      41.659  30.116  32.144  1.00  0.00     0.074 A 
ATOM     45  C   UNL A   1      40.545  31.036  32.073  1.00  0.00     0.031 C 
ATOM     46  C   UNL A   1      40.406  25.944  27.424  1.00  0.00     0.029 A 
ATOM     47  C   UNL A   1      41.569  25.972  28.305  1.00  0.00     0.049 A 
ATOM     48  H   UNL A   1      41.911  27.254  29.912  1.00  0.00     0.167 HD
ATOM     49  C   UNL A   1      42.685  30.235  33.020  1.00  0.00     0.034 A 
ATOM     50  C   UNL A   1      42.629  25.144  28.219  1.00  0.00     0.034 A 
ATOM     51  C   UNL A   1      43.776  29.304  33.109  1.00  0.00     0.049 A 
ATOM     52  C   UNL A   1      43.749  25.285  29.216  1.00  0.00     0.074 A 
ATOM     53  C   UNL A   1      44.824  29.290  34.012  1.00  0.00     0.029 A 
ATOM     54  N   UNL A   1      43.971  28.229  32.255  1.00  0.00    -0.354 N 
ATOM     55  N   UNL A   1      43.877  26.142  30.200  1.00  0.00    -0.248 NA
ATOM     56  C   UNL A   1      44.855  24.321  29.113  1.00  0.00     0.031 C 
ATOM     57  C   UNL A   1      45.675  28.233  33.678  1.00  0.00     0.029 A 
ATOM     58  C   UNL A   1      45.128  27.553  32.601  1.00  0.00     0.049 A 
ATOM     59  H   UNL A   1      43.374  27.982  31.512  1.00  0.00     0.167 HD
ATOM     60  C   UNL A   1      45.048  25.792  30.861  1.00  0.00     0.074 A 
ATOM     61  C   UNL A   1      45.586  24.636  30.172  1.00  0.00     0.031 C 
ATOM     62  C   UNL A   1      45.629  26.375  31.938  1.00  0.00     0.034 A 
BRANCH  49  63
ATOM     63  C   UNL A   1      42.656  31.400  33.976  1.00  0.00     0.023 A 
ATOM     64  C   UNL A   1      43.318  32.600  33.644  1.00  0.00     0.012 A 
ATOM     65  C   UNL A   1      41.938  31.322  35.186  1.00  0.00     0.148 A 
ATOM     66  C   UNL A   1      43.306  33.686  34.518  1.00  0.00     0.002 A 
ATOM     67  C   UNL A   1      41.885  32.427  36.027  1.00  0.00     0.091 A 
ATOM     68  F   UNL A   1      41.331  30.168  35.496  1.00  0.00    -0.205 F 
ATOM     69  C   UNL A   1      42.581  33.602  35.703  1.00  0.00     0.022 A 
BRANCH  67  70
ATOM     70  S   UNL A   1      40.911  32.451  37.535  1.00  0.00     0.127 S 
ATOM     71  O   UNL A   1      41.792  31.746  38.466  1.00  0.00    -0.237 OA
ATOM     72  O   UNL A   1      40.777  33.885  37.790  1.00  0.00    -0.237 OA
ATOM     73  O   UNL A   1      39.664  31.769  37.220  1.00  0.00    -0.744 OA
ENDBRANCH  67  70
ENDBRANCH  49  63
BRANCH  50  74
ATOM     74  C   UNL A   1      42.660  24.072  27.185  1.00  0.00     0.023 A 
ATOM     75  C   UNL A   1      43.300  24.313  25.953  1.00  0.00     0.012 A 
ATOM     76  C   UNL A   1      42.073  22.814  27.419  1.00  0.00     0.148 A 
ATOM     77  C   UNL A   1      43.320  23.334  24.958  1.00  0.00     0.002 A 
ATOM     78  C   UNL A   1      42.147  21.824  26.446  1.00  0.00     0.091 A 
ATOM     79  F   UNL A   1      41.465  22.608  28.595  1.00  0.00    -0.205 F 
ATOM     80  C   UNL A   1      42.753  22.088  25.208  1.00  0.00     0.022 A 
BRANCH  78  81
ATOM     81  S   UNL A   1      41.557  20.152  26.725  1.00  0.00     0.127 S 
ATOM     82  O   UNL A   1      41.881  19.505  25.457  1.00  0.00    -0.237 OA
ATOM     83  O   UNL A   1      42.380  19.730  27.860  1.00  0.00    -0.237 OA
ATOM     84  O   UNL A   1      40.137  20.277  27.025  1.00  0.00    -0.744 OA
ENDBRANCH  78  81
ENDBRANCH  50  74
BRANCH  62  85
ATOM     85  C   UNL A   1      46.879  25.743  32.491  1.00  0.00     0.023 A 
ATOM     86  C   UNL A   1      48.145  26.102  31.985  1.00  0.00     0.012 A 
ATOM     87  C   UNL A   1      46.798  24.839  33.569  1.00  0.00     0.148 A 
ATOM     88  C   UNL A   1      49.305  25.538  32.515  1.00  0.00     0.002 A 
ATOM     89  C   UNL A   1      47.960  24.326  34.131  1.00  0.00     0.091 A 
ATOM     90  F   UNL A   1      45.584  24.497  34.026  1.00  0.00    -0.205 F 
ATOM     91  C   UNL A   1      49.214  24.662  33.595  1.00  0.00     0.022 A 
BRANCH  89  92
ATOM     92  S   UNL A   1      47.944  23.274  35.586  1.00  0.00     0.127 S 
ATOM     93  O   UNL A   1      47.259  24.123  36.560  1.00  0.00    -0.237 OA
ATOM     94  O   UNL A   1      47.166  22.123  35.125  1.00  0.00    -0.237 OA
ATOM     95  O   UNL A   1      49.338  22.981  35.888  1.00  0.00    -0.744 OA
ENDBRANCH  89  92
ENDBRANCH  62  85
ENDBRANCH  36  37
ENDBRANCH  28  31
ENDBRANCH  26  27
ENDBRANCH   1  26
TORSDOF 17
ENDMDL
MODEL 2
REMARK VINA RESULT:     -11.9      1.955      2.696
REMARK SMILES C[C@@H]1[C@@H](C(=O)NCCCCNC(=O)c2ccc(-c3c4nc(c(-c5cccc(S(=O)(=O)[O-])c5F)c5ccc([nH]5)c(-c5cccc(S(=O)(=O)[O-])c5F)c5nc(c(-c6cccc(S(=O)(=O)[O-])c6F)c6ccc3[nH]6)C=C5)C=C4)cc2)CCN1c1ccc(C(F)(F)F)cc1C#N
REMARK SMILES IDX 9 1 8 2 7 3 6 4 4 5 5 6 3 8 1 9 2 10 79 11 77 12 78 13 80 14
REMARK SMILES IDX 81 15 89 16 82 17 88 18 83 19 90 20 91 21 84 22 85 23 86 24
REMARK SMILES IDX 87 25 10 26 11 27 12 28 13 30 14 31 15 32 76 33 16 34 75 35
REMARK SMILES IDX 17 36 18 37 19 38 69 39 20 40 74 41 68 42 70 43 21 44 73 45
REMARK SMILES IDX 67 46 66 47 22 49 54 50 34 51 53 52 35 53 38 54 52 55 71 56
REMARK SMILES IDX 36 57 37 58 51 60 72 61 39 62 23 63 24 64 32 65 25 66 27 67
REMARK SMILES IDX 33 68 26 69 28 70 29 71 30 72 31 73 55 74 56 75 64 76 57 77
REMARK SMILES IDX 59 78 65 79 58 80 60 81 61 82 62 83 63 84 40 85 41 86 49 87
REMARK SMILES IDX 42 88 44 89 50 90 43 91 45 92 46 93 47 94 48 95
REMARK H PARENT 6 7 11 29 70 48 38 59
REMARK Flexibility Score: inf
ROOT
ATOM      1  C   UNL A   1      31.498  28.802  25.176  1.00  0.00     0.023 C 
ENDROOT
BRANCH   1   2
ATOM      2  C   UNL A   1      31.032  27.437  25.675  1.00  0.00     0.023 C 
BRANCH   2   3
ATOM      3  C   UNL A   1      30.380  26.543  24.631  1.00  0.00     0.116 C 
BRANCH   3   4
ATOM      4  N   UNL A   1      30.116  25.194  25.087  1.00  0.00    -0.356 N 
ATOM      5  C   UNL A   1      31.006  24.210  25.417  1.00  0.00     0.225 C 
ATOM      6  O   UNL A   1      30.552  23.159  25.865  1.00  0.00    -0.275 OA
ATOM      7  H   UNL A   1      29.166  24.952  25.171  1.00  0.00     0.163 HD
BRANCH   5   8
ATOM      8  C   UNL A   1      32.490  24.417  25.133  1.00  0.00     0.102 C 
ATOM      9  C   UNL A   1      34.017  24.008  23.174  1.00  0.00     0.032 C 
ATOM     10  C   UNL A   1      33.041  23.345  24.149  1.00  0.00     0.091 C 
ATOM     11  N   UNL A   1      33.752  22.382  25.026  1.00  0.00    -0.367 N 
ATOM     12  C   UNL A   1      33.406  24.260  26.351  1.00  0.00     0.037 C 
ATOM     13  C   UNL A   1      33.621  22.765  26.428  1.00  0.00     0.118 C 
BRANCH  11  14
ATOM     14  C   UNL A   1      33.852  21.031  24.733  1.00  0.00     0.055 A 
ATOM     15  C   UNL A   1      32.697  20.266  24.484  1.00  0.00     0.028 A 
ATOM     16  C   UNL A   1      35.080  20.346  24.783  1.00  0.00     0.076 A 
ATOM     17  C   UNL A   1      32.745  18.873  24.354  1.00  0.00     0.015 A 
ATOM     18  C   UNL A   1      35.131  18.948  24.626  1.00  0.00     0.034 A 
ATOM     19  C   UNL A   1      33.964  18.196  24.435  1.00  0.00     0.057 A 
BRANCH  16  20
ATOM     20  C   UNL A   1      36.317  21.018  25.081  1.00  0.00     0.101 C 
ATOM     21  N   UNL A   1      37.327  21.505  25.367  1.00  0.00    -0.192 NA
ENDBRANCH  16  20
BRANCH  19  22
ATOM     22  C   UNL A   1      34.010  16.690  24.365  1.00  0.00     0.416 C 
ATOM     23  F   UNL A   1      34.949  16.162  25.197  1.00  0.00    -0.166 F 
ATOM     24  F   UNL A   1      32.829  16.108  24.709  1.00  0.00    -0.166 F 
ATOM     25  F   UNL A   1      34.310  16.217  23.122  1.00  0.00    -0.166 F 
ENDBRANCH  19  22
ENDBRANCH  11  14
ENDBRANCH   5   8
ENDBRANCH   3   4
ENDBRANCH   2   3
ENDBRANCH   1   2
BRANCH   1  26
ATOM     26  C   UNL A   1      32.654  29.422  25.951  1.00  0.00     0.116 C 
BRANCH  26  27
ATOM     27  N   UNL A   1      32.431  30.823  26.282  1.00  0.00    -0.352 N 
ATOM     28  C   UNL A   1      33.144  31.646  27.124  1.00  0.00     0.251 C 
ATOM     29  H   UNL A   1      31.659  31.242  25.839  1.00  0.00     0.163 HD
ATOM     30  O   UNL A   1      32.713  32.762  27.396  1.00  0.00    -0.269 OA
BRANCH  28  31
ATOM     31  C   UNL A   1      34.412  31.171  27.718  1.00  0.00     0.039 A 
ATOM     32  C   UNL A   1      35.414  32.097  28.016  1.00  0.00     0.014 A 
ATOM     33  C   UNL A   1      34.601  29.816  28.002  1.00  0.00     0.014 A 
ATOM     34  C   UNL A   1      36.575  31.673  28.667  1.00  0.00     0.010 A 
ATOM     35  C   UNL A   1      35.708  29.415  28.741  1.00  0.00     0.010 A 
ATOM     36  C   UNL A   1      36.715  30.334  29.071  1.00  0.00    -0.014 A 
BRANCH  36  37
ATOM     37  C   UNL A   1      37.910  29.872  29.825  1.00  0.00     0.031 A 
ATOM     38  C   UNL A   1      38.170  30.389  31.216  1.00  0.00     0.074 A 
ATOM     39  C   UNL A   1      38.804  29.053  29.234  1.00  0.00     0.049 A 
ATOM     40  N   UNL A   1      39.182  30.152  32.008  1.00  0.00    -0.248 NA
ATOM     41  C   UNL A   1      37.176  31.319  31.779  1.00  0.00     0.031 C 
ATOM     42  C   UNL A   1      38.707  28.539  27.866  1.00  0.00     0.029 A 
ATOM     43  N   UNL A   1      39.983  28.528  29.702  1.00  0.00    -0.354 N 
ATOM     44  C   UNL A   1      38.968  30.927  33.142  1.00  0.00     0.074 A 
ATOM     45  C   UNL A   1      37.752  31.677  32.917  1.00  0.00     0.031 C 
ATOM     46  C   UNL A   1      39.773  27.763  27.611  1.00  0.00     0.029 A 
ATOM     47  C   UNL A   1      40.648  27.756  28.778  1.00  0.00     0.049 A 
ATOM     48  H   UNL A   1      40.320  28.688  30.613  1.00  0.00     0.167 HD
ATOM     49  C   UNL A   1      39.697  30.990  34.281  1.00  0.00     0.034 A 
ATOM     50  C   UNL A   1      41.835  27.122  28.857  1.00  0.00     0.034 A 
ATOM     51  C   UNL A   1      40.889  30.222  34.515  1.00  0.00     0.049 A 
ATOM     52  C   UNL A   1      42.619  27.193  30.141  1.00  0.00     0.074 A 
ATOM     53  C   UNL A   1      41.657  30.155  35.663  1.00  0.00     0.029 A 
ATOM     54  N   UNL A   1      41.496  29.398  33.579  1.00  0.00    -0.354 N 
ATOM     55  N   UNL A   1      42.327  27.821  31.253  1.00  0.00    -0.248 NA
ATOM     56  C   UNL A   1      43.879  26.437  30.192  1.00  0.00     0.031 C 
ATOM     57  C   UNL A   1      42.752  29.324  35.408  1.00  0.00     0.029 A 
ATOM     58  C   UNL A   1      42.636  28.829  34.119  1.00  0.00     0.049 A 
ATOM     59  H   UNL A   1      41.164  29.241  32.666  1.00  0.00     0.167 HD
ATOM     60  C   UNL A   1      43.339  27.500  32.150  1.00  0.00     0.074 A 
ATOM     61  C   UNL A   1      44.245  26.609  31.454  1.00  0.00     0.031 C 
ATOM     62  C   UNL A   1      43.505  27.907  33.433  1.00  0.00     0.034 A 
BRANCH  49  63
ATOM     63  C   UNL A   1      39.204  31.901  35.377  1.00  0.00     0.023 A 
ATOM     64  C   UNL A   1      38.219  31.448  36.279  1.00  0.00     0.012 A 
ATOM     65  C   UNL A   1      39.746  33.191  35.540  1.00  0.00     0.148 A 
ATOM     66  C   UNL A   1      37.748  32.278  37.295  1.00  0.00     0.002 A 
ATOM     67  C   UNL A   1      39.311  33.993  36.588  1.00  0.00     0.091 A 
ATOM     68  F   UNL A   1      40.667  33.613  34.662  1.00  0.00    -0.205 F 
ATOM     69  C   UNL A   1      38.301  33.546  37.455  1.00  0.00     0.022 A 
BRANCH  67  70
ATOM     70  S   UNL A   1      40.019  35.607  36.932  1.00  0.00     0.127 S 
ATOM     71  O   UNL A   1      39.382  35.942  38.206  1.00  0.00    -0.237 OA
ATOM     72  O   UNL A   1      41.446  35.301  37.026  1.00  0.00    -0.237 OA
ATOM     73  O   UNL A   1      39.651  36.457  35.809  1.00  0.00    -0.744 OA
ENDBRANCH  67  70
ENDBRANCH  49  63
BRANCH  50  74
ATOM     74  C   UNL A   1      42.332  26.318  27.704  1.00  0.00     0.023 A 
ATOM     75  C   UNL A   1      43.223  26.902  26.782  1.00  0.00     0.012 A 
ATOM     76  C   UNL A   1      41.938  24.978  27.525  1.00  0.00     0.148 A 
ATOM     77  C   UNL A   1      43.682  26.178  25.681  1.00  0.00     0.002 A 
ATOM     78  C   UNL A   1      42.444  24.245  26.458  1.00  0.00     0.091 A 
ATOM     79  F   UNL A   1      41.086  24.444  28.410  1.00  0.00    -0.205 F 
ATOM     80  C   UNL A   1      43.301  24.848  25.524  1.00  0.00     0.022 A 
BRANCH  78  81
ATOM     81  S   UNL A   1      42.111  22.494  26.246  1.00  0.00     0.127 S 
ATOM     82  O   UNL A   1      40.655  22.478  26.131  1.00  0.00    -0.237 OA
ATOM     83  O   UNL A   1      42.831  22.201  25.005  1.00  0.00    -0.237 OA
ATOM     84  O   UNL A   1      42.658  21.840  27.428  1.00  0.00    -0.744 OA
ENDBRANCH  78  81
ENDBRANCH  50  74
BRANCH  62  85
ATOM     85  C   UNL A   1      44.674  27.347  34.201  1.00  0.00     0.023 A 
ATOM     86  C   UNL A   1      45.899  28.041  34.243  1.00  0.00     0.012 A 
ATOM     87  C   UNL A   1      44.528  26.158  34.944  1.00  0.00     0.148 A 
ATOM     88  C   UNL A   1      46.973  27.538  34.977  1.00  0.00     0.002 A 
ATOM     89  C   UNL A   1      45.582  25.694  35.719  1.00  0.00     0.091 A 
ATOM     90  F   UNL A   1      43.359  25.503  34.879  1.00  0.00    -0.205 F 
ATOM     91  C   UNL A   1      46.811  26.374  35.725  1.00  0.00     0.022 A 
BRANCH  89  92
ATOM     92  S   UNL A   1      45.431  24.262  36.793  1.00  0.00     0.127 S 
ATOM     93  O   UNL A   1      46.818  24.053  37.207  1.00  0.00    -0.237 OA
ATOM     94  O   UNL A   1      44.547  24.760  37.847  1.00  0.00    -0.237 OA
ATOM     95  O   UNL A   1      44.859  23.202  35.974  1.00  0.00    -0.744 OA
ENDBRANCH  89  92
ENDBRANCH  62  85
ENDBRANCH  36  37
ENDBRANCH  28  31
ENDBRANCH  26  27
ENDBRANCH   1  26
TORSDOF 17
ENDMDL
MODEL 3
REMARK VINA RESULT:     -11.8      5.332     10.038
REMARK SMILES C[C@@H]1[C@@H](C(=O)NCCCCNC(=O)c2ccc(-c3c4nc(c(-c5cccc(S(=O)(=O)[O-])c5F)c5ccc([nH]5)c(-c5cccc(S(=O)(=O)[O-])c5F)c5nc(c(-c6cccc(S(=O)(=O)[O-])c6F)c6ccc3[nH]6)C=C5)C=C4)cc2)CCN1c1ccc(C(F)(F)F)cc1C#N
REMARK SMILES IDX 9 1 8 2 7 3 6 4 4 5 5 6 3 8 1 9 2 10 79 11 77 12 78 13 80 14
REMARK SMILES IDX 81 15 89 16 82 17 88 18 83 19 90 20 91 21 84 22 85 23 86 24
REMARK SMILES IDX 87 25 10 26 11 27 12 28 13 30 14 31 15 32 76 33 16 34 75 35
REMARK SMILES IDX 17 36 18 37 19 38 69 39 20 40 74 41 68 42 70 43 21 44 73 45
REMARK SMILES IDX 67 46 66 47 22 49 54 50 34 51 53 52 35 53 38 54 52 55 71 56
REMARK SMILES IDX 36 57 37 58 51 60 72 61 39 62 23 63 24 64 32 65 25 66 27 67
REMARK SMILES IDX 33 68 26 69 28 70 29 71 30 72 31 73 55 74 56 75 64 76 57 77
REMARK SMILES IDX 59 78 65 79 58 80 60 81 61 82 62 83 63 84 40 85 41 86 49 87
REMARK SMILES IDX 42 88 44 89 50 90 43 91 45 92 46 93 47 94 48 95
REMARK H PARENT 6 7 11 29 70 48 38 59
REMARK Flexibility Score: inf
ROOT
ATOM      1  C   UNL A   1      35.529  21.441  25.822  1.00  0.00     0.023 C 
ENDROOT
BRANCH   1   2
ATOM      2  C   UNL A   1      34.687  20.338  25.186  1.00  0.00     0.023 C 
BRANCH   2   3
ATOM      3  C   UNL A   1      33.669  20.802  24.155  1.00  0.00     0.116 C 
BRANCH   3   4
ATOM      4  N   UNL A   1      32.482  21.407  24.724  1.00  0.00    -0.356 N 
ATOM      5  C   UNL A   1      32.158  22.732  24.821  1.00  0.00     0.225 C 
ATOM      6  O   UNL A   1      31.048  23.015  25.269  1.00  0.00    -0.275 OA
ATOM      7  H   UNL A   1      31.819  20.780  25.092  1.00  0.00     0.163 HD
BRANCH   5   8
ATOM      8  C   UNL A   1      33.200  23.786  24.463  1.00  0.00     0.102 C 
ATOM      9  C   UNL A   1      33.929  25.990  25.435  1.00  0.00     0.032 C 
ATOM     10  C   UNL A   1      32.736  25.214  24.874  1.00  0.00     0.091 C 
ATOM     11  N   UNL A   1      32.268  25.821  23.604  1.00  0.00    -0.367 N 
ATOM     12  C   UNL A   1      33.472  23.938  22.964  1.00  0.00     0.037 C 
ATOM     13  C   UNL A   1      32.367  24.864  22.506  1.00  0.00     0.118 C 
BRANCH  11  14
ATOM     14  C   UNL A   1      31.252  26.761  23.549  1.00  0.00     0.055 A 
ATOM     15  C   UNL A   1      29.908  26.371  23.704  1.00  0.00     0.028 A 
ATOM     16  C   UNL A   1      31.499  28.109  23.229  1.00  0.00     0.076 A 
ATOM     17  C   UNL A   1      28.849  27.261  23.486  1.00  0.00     0.015 A 
ATOM     18  C   UNL A   1      30.434  29.009  23.037  1.00  0.00     0.034 A 
ATOM     19  C   UNL A   1      29.101  28.590  23.138  1.00  0.00     0.057 A 
BRANCH  16  20
ATOM     20  C   UNL A   1      32.829  28.606  22.997  1.00  0.00     0.101 C 
ATOM     21  N   UNL A   1      33.875  29.071  22.829  1.00  0.00    -0.192 NA
ENDBRANCH  16  20
BRANCH  19  22
ATOM     22  C   UNL A   1      27.962  29.531  22.836  1.00  0.00     0.416 C 
ATOM     23  F   UNL A   1      26.765  29.051  23.271  1.00  0.00    -0.166 F 
ATOM     24  F   UNL A   1      28.115  30.751  23.418  1.00  0.00    -0.166 F 
ATOM     25  F   UNL A   1      27.801  29.772  21.504  1.00  0.00    -0.166 F 
ENDBRANCH  19  22
ENDBRANCH  11  14
ENDBRANCH   5   8
ENDBRANCH   3   4
ENDBRANCH   2   3
ENDBRANCH   1   2
BRANCH   1  26
ATOM     26  C   UNL A   1      36.879  21.695  25.164  1.00  0.00     0.116 C 
BRANCH  26  27
ATOM     27  N   UNL A   1      37.866  20.669  25.474  1.00  0.00    -0.352 N 
ATOM     28  C   UNL A   1      39.135  20.805  25.989  1.00  0.00     0.251 C 
ATOM     29  H   UNL A   1      37.585  19.745  25.288  1.00  0.00     0.163 HD
ATOM     30  O   UNL A   1      39.881  19.831  26.039  1.00  0.00    -0.269 OA
BRANCH  28  31
ATOM     31  C   UNL A   1      39.603  22.128  26.455  1.00  0.00     0.039 A 
ATOM     32  C   UNL A   1      40.604  22.194  27.426  1.00  0.00     0.014 A 
ATOM     33  C   UNL A   1      39.071  23.301  25.915  1.00  0.00     0.014 A 
ATOM     34  C   UNL A   1      41.122  23.435  27.801  1.00  0.00     0.010 A 
ATOM     35  C   UNL A   1      39.659  24.525  26.212  1.00  0.00     0.010 A 
ATOM     36  C   UNL A   1      40.681  24.611  27.169  1.00  0.00    -0.014 A 
BRANCH  36  37
ATOM     37  C   UNL A   1      41.265  25.937  27.500  1.00  0.00     0.031 A 
ATOM     38  C   UNL A   1      42.684  26.255  27.108  1.00  0.00     0.074 A 
ATOM     39  C   UNL A   1      40.552  26.824  28.223  1.00  0.00     0.049 A 
ATOM     40  N   UNL A   1      43.388  27.329  27.358  1.00  0.00    -0.248 NA
ATOM     41  C   UNL A   1      43.419  25.220  26.362  1.00  0.00     0.031 C 
ATOM     42  C   UNL A   1      39.194  26.609  28.729  1.00  0.00     0.029 A 
ATOM     43  N   UNL A   1      40.880  28.076  28.680  1.00  0.00    -0.354 N 
ATOM     44  C   UNL A   1      44.652  27.084  26.836  1.00  0.00     0.074 A 
ATOM     45  C   UNL A   1      44.634  25.743  26.294  1.00  0.00     0.031 C 
ATOM     46  C   UNL A   1      38.801  27.697  29.411  1.00  0.00     0.029 A 
ATOM     47  C   UNL A   1      39.890  28.668  29.430  1.00  0.00     0.049 A 
ATOM     48  H   UNL A   1      41.743  28.511  28.489  1.00  0.00     0.167 HD
ATOM     49  C   UNL A   1      45.726  27.908  26.782  1.00  0.00     0.034 A 
ATOM     50  C   UNL A   1      39.864  29.854  30.069  1.00  0.00     0.034 A 
ATOM     51  C   UNL A   1      45.733  29.251  27.294  1.00  0.00     0.049 A 
ATOM     52  C   UNL A   1      41.063  30.759  29.980  1.00  0.00     0.074 A 
ATOM     53  C   UNL A   1      46.743  30.194  27.221  1.00  0.00     0.029 A 
ATOM     54  N   UNL A   1      44.687  29.839  27.988  1.00  0.00    -0.354 N 
ATOM     55  N   UNL A   1      42.201  30.564  29.361  1.00  0.00    -0.248 NA
ATOM     56  C   UNL A   1      40.961  32.065  30.649  1.00  0.00     0.031 C 
ATOM     57  C   UNL A   1      46.324  31.337  27.907  1.00  0.00     0.029 A 
ATOM     58  C   UNL A   1      45.032  31.127  28.360  1.00  0.00     0.049 A 
ATOM     59  H   UNL A   1      43.826  29.405  28.187  1.00  0.00     0.167 HD
ATOM     60  C   UNL A   1      42.931  31.737  29.523  1.00  0.00     0.074 A 
ATOM     61  C   UNL A   1      42.098  32.642  30.290  1.00  0.00     0.031 C 
ATOM     62  C   UNL A   1      44.177  32.036  29.082  1.00  0.00     0.034 A 
BRANCH  49  63
ATOM     63  C   UNL A   1      46.974  27.387  26.116  1.00  0.00     0.023 A 
ATOM     64  C   UNL A   1      47.185  27.613  24.740  1.00  0.00     0.012 A 
ATOM     65  C   UNL A   1      47.959  26.709  26.862  1.00  0.00     0.148 A 
ATOM     66  C   UNL A   1      48.331  27.135  24.107  1.00  0.00     0.002 A 
ATOM     67  C   UNL A   1      49.124  26.283  26.235  1.00  0.00     0.091 A 
ATOM     68  F   UNL A   1      47.735  26.485  28.164  1.00  0.00    -0.205 F 
ATOM     69  C   UNL A   1      49.304  26.480  24.857  1.00  0.00     0.022 A 
BRANCH  67  70
ATOM     70  S   UNL A   1      50.475  25.505  27.126  1.00  0.00     0.127 S 
ATOM     71  O   UNL A   1      51.472  25.345  26.068  1.00  0.00    -0.237 OA
ATOM     72  O   UNL A   1      50.805  26.519  28.126  1.00  0.00    -0.237 OA
ATOM     73  O   UNL A   1      49.939  24.265  27.670  1.00  0.00    -0.744 OA
ENDBRANCH  67  70
ENDBRANCH  49  63
BRANCH  50  74
ATOM     74  C   UNL A   1      38.640  30.280  30.806  1.00  0.00     0.023 A 
ATOM     75  C   UNL A   1      38.494  29.940  32.166  1.00  0.00     0.012 A 
ATOM     76  C   UNL A   1      37.630  31.030  30.174  1.00  0.00     0.148 A 
ATOM     77  C   UNL A   1      37.346  30.305  32.871  1.00  0.00     0.002 A 
ATOM     78  C   UNL A   1      36.517  31.440  30.896  1.00  0.00     0.091 A 
ATOM     79  F   UNL A   1      37.787  31.338  28.879  1.00  0.00    -0.205 F 
ATOM     80  C   UNL A   1      36.363  31.062  32.240  1.00  0.00     0.022 A 
BRANCH  78  81
ATOM     81  S   UNL A   1      35.262  32.522  30.206  1.00  0.00     0.127 S 
ATOM     82  O   UNL A   1      34.788  31.742  29.067  1.00  0.00    -0.237 OA
ATOM     83  O   UNL A   1      34.316  32.630  31.317  1.00  0.00    -0.237 OA
ATOM     84  O   UNL A   1      35.948  33.765  29.877  1.00  0.00    -0.744 OA
ENDBRANCH  78  81
ENDBRANCH  50  74
BRANCH  62  85
ATOM     85  C   UNL A   1      44.704  33.421  29.353  1.00  0.00     0.023 A 
ATOM     86  C   UNL A   1      45.400  33.700  30.545  1.00  0.00     0.012 A 
ATOM     87  C   UNL A   1      44.566  34.433  28.381  1.00  0.00     0.148 A 
ATOM     88  C   UNL A   1      45.913  34.975  30.784  1.00  0.00     0.002 A 
ATOM     89  C   UNL A   1      45.130  35.683  28.600  1.00  0.00     0.091 A 
ATOM     90  F   UNL A   1      43.886  34.154  27.259  1.00  0.00    -0.205 F 
ATOM     91  C   UNL A   1      45.790  35.961  29.808  1.00  0.00     0.022 A 
BRANCH  89  92
ATOM     92  S   UNL A   1      45.110  36.980  27.358  1.00  0.00     0.127 S 
ATOM     93  O   UNL A   1      45.699  38.102  28.089  1.00  0.00    -0.237 OA
ATOM     94  O   UNL A   1      45.964  36.418  26.312  1.00  0.00    -0.237 OA
ATOM     95  O   UNL A   1      43.715  37.151  26.975  1.00  0.00    -0.744 OA
ENDBRANCH  89  92
ENDBRANCH  62  85
ENDBRANCH  36  37
ENDBRANCH  28  31
ENDBRANCH  26  27
ENDBRANCH   1  26
TORSDOF 17
ENDMDL
