MODEL 1
REMARK VINA RESULT:     -10.0      0.000      0.000
REMARK SMILES COc1ccc([C@H]2CC(c3ccc(S(C)(=O)=O)cc3)=NN2c2ccc(C(=O)NCCCCNC(=O)c3ccc(-c4c5nc(c(-c6cccc(S(=O)(=O)[O-])c6F)c6ccc([nH]6)c(-c6cccc(S(=O)(=O)[O-])c6F)c6nc(c(-c7cccc(S(=O)(=O)[O-])c7F)c7ccc4[nH]7)C=C6)C=C5)cc3)cc2)cc1
REMARK SMILES IDX 30 1 29 2 28 3 26 4 27 5 25 7 22 8 23 9 100 10 24 11 99 12
REMARK SMILES IDX 21 13 7 14 8 15 9 16 20 17 6 18 3 19 4 20 102 21 5 22 101 23
REMARK SMILES IDX 2 24 1 25 10 26 11 27 19 28 12 29 18 30 13 31 14 32 15 33
REMARK SMILES IDX 16 34 17 35 31 36 32 37 33 38 34 39 35 41 36 42 37 43 98 44
REMARK SMILES IDX 38 45 97 46 39 47 40 48 41 49 91 50 42 51 96 52 90 53 92 54
REMARK SMILES IDX 43 55 95 56 89 57 88 58 44 60 76 61 56 62 75 63 57 64 60 65
REMARK SMILES IDX 74 66 93 67 58 68 59 69 73 71 94 72 61 73 45 74 46 75 54 76
REMARK SMILES IDX 47 77 49 78 55 79 48 80 50 81 51 82 52 83 53 84 77 85 78 86
REMARK SMILES IDX 86 87 79 88 81 89 87 90 80 91 82 92 83 93 84 94 85 95 62 96
REMARK SMILES IDX 63 97 71 98 64 99 66 100 72 101 65 102 67 103 68 104 69 105
REMARK SMILES IDX 70 106
REMARK H PARENT 28 6 33 40 92 59 60 70
REMARK Flexibility Score: inf
ROOT
ATOM      1  C   UNL A   1      42.914  22.087  25.402  1.00  0.00     0.023 C 
ENDROOT
BRANCH   1   2
ATOM      2  C   UNL A   1      43.300  23.249  26.321  1.00  0.00     0.116 C 
BRANCH   2   3
ATOM      3  N   UNL A   1      44.723  23.507  26.236  1.00  0.00    -0.352 N 
ATOM      4  C   UNL A   1      45.648  23.897  27.168  1.00  0.00     0.251 C 
ATOM      5  O   UNL A   1      46.812  24.036  26.790  1.00  0.00    -0.269 OA
ATOM      6  H   UNL A   1      45.097  23.377  25.334  1.00  0.00     0.163 HD
BRANCH   4   7
ATOM      7  C   UNL A   1      45.331  24.101  28.612  1.00  0.00     0.039 A 
ATOM      8  C   UNL A   1      44.958  24.556  31.385  1.00  0.00     0.060 A 
ATOM      9  C   UNL A   1      45.941  25.246  30.671  1.00  0.00     0.029 A 
ATOM     10  C   UNL A   1      44.122  23.686  30.680  1.00  0.00     0.029 A 
ATOM     11  C   UNL A   1      46.142  25.008  29.309  1.00  0.00     0.016 A 
ATOM     12  C   UNL A   1      44.282  23.492  29.303  1.00  0.00     0.016 A 
BRANCH   8  13
ATOM     13  N   UNL A   1      44.822  24.767  32.746  1.00  0.00    -0.257 N 
ATOM     14  C   UNL A   1      44.862  26.085  33.379  1.00  0.00     0.144 C 
ATOM     15  C   UNL A   1      44.973  25.739  34.870  1.00  0.00     0.091 C 
ATOM     16  C   UNL A   1      45.139  24.250  34.777  1.00  0.00     0.071 C 
ATOM     17  N   UNL A   1      45.055  23.732  33.594  1.00  0.00    -0.176 NA
BRANCH  14  18
ATOM     18  C   UNL A   1      43.617  26.896  33.062  1.00  0.00    -0.023 A 
ATOM     19  C   UNL A   1      41.286  28.380  32.477  1.00  0.00     0.118 A 
ATOM     20  C   UNL A   1      41.449  27.773  33.722  1.00  0.00     0.047 A 
ATOM     21  C   UNL A   1      42.303  28.272  31.530  1.00  0.00     0.047 A 
ATOM     22  C   UNL A   1      42.598  27.031  34.013  1.00  0.00     0.010 A 
ATOM     23  C   UNL A   1      43.458  27.539  31.822  1.00  0.00     0.010 A 
BRANCH  19  24
ATOM     24  O   UNL A   1      40.117  29.072  32.318  1.00  0.00    -0.497 OA
ATOM     25  C   UNL A   1      39.803  30.018  33.333  1.00  0.00     0.278 C 
ENDBRANCH  19  24
ENDBRANCH  14  18
BRANCH  16  26
ATOM     26  C   UNL A   1      45.405  23.444  35.968  1.00  0.00    -0.002 A 
ATOM     27  C   UNL A   1      45.392  24.066  37.220  1.00  0.00     0.011 A 
ATOM     28  C   UNL A   1      45.707  22.088  35.836  1.00  0.00     0.011 A 
ATOM     29  C   UNL A   1      45.670  23.318  38.362  1.00  0.00     0.021 A 
ATOM     30  C   UNL A   1      46.011  21.342  36.975  1.00  0.00     0.021 A 
ATOM     31  C   UNL A   1      45.994  21.962  38.231  1.00  0.00     0.067 A 
BRANCH  31  32
ATOM     32  S   UNL A   1      46.373  21.019  39.689  1.00  0.00     0.175 S 
ATOM     33  C   UNL A   1      48.144  21.060  39.785  1.00  0.00     0.163 C 
ATOM     34  O   UNL A   1      45.831  21.752  40.816  1.00  0.00    -0.224 OA
ATOM     35  O   UNL A   1      45.982  19.643  39.437  1.00  0.00    -0.224 OA
ENDBRANCH  31  32
ENDBRANCH  16  26
ENDBRANCH   8  13
ENDBRANCH   4   7
ENDBRANCH   2   3
ENDBRANCH   1   2
BRANCH   1  36
ATOM     36  C   UNL A   1      42.190  20.943  26.119  1.00  0.00     0.023 C 
BRANCH  36  37
ATOM     37  C   UNL A   1      41.122  21.384  27.113  1.00  0.00     0.116 C 
BRANCH  37  38
ATOM     38  N   UNL A   1      39.813  21.570  26.500  1.00  0.00    -0.352 N 
ATOM     39  C   UNL A   1      39.086  22.730  26.379  1.00  0.00     0.251 C 
ATOM     40  H   UNL A   1      39.396  20.760  26.127  1.00  0.00     0.163 HD
ATOM     41  O   UNL A   1      37.943  22.699  25.934  1.00  0.00    -0.269 OA
BRANCH  39  42
ATOM     42  C   UNL A   1      39.684  24.003  26.825  1.00  0.00     0.039 A 
ATOM     43  C   UNL A   1      40.033  24.957  25.866  1.00  0.00     0.014 A 
ATOM     44  C   UNL A   1      39.859  24.270  28.186  1.00  0.00     0.014 A 
ATOM     45  C   UNL A   1      40.500  26.207  26.276  1.00  0.00     0.010 A 
ATOM     46  C   UNL A   1      40.257  25.538  28.593  1.00  0.00     0.010 A 
ATOM     47  C   UNL A   1      40.584  26.519  27.643  1.00  0.00    -0.014 A 
BRANCH  47  48
ATOM     48  C   UNL A   1      40.991  27.872  28.100  1.00  0.00     0.031 A 
ATOM     49  C   UNL A   1      42.445  28.251  28.141  1.00  0.00     0.074 A 
ATOM     50  C   UNL A   1      40.056  28.721  28.571  1.00  0.00     0.049 A 
ATOM     51  N   UNL A   1      42.994  29.362  28.559  1.00  0.00    -0.248 NA
ATOM     52  C   UNL A   1      43.413  27.242  27.677  1.00  0.00     0.031 C 
ATOM     53  C   UNL A   1      38.624  28.433  28.671  1.00  0.00     0.029 A 
ATOM     54  N   UNL A   1      40.175  29.989  29.084  1.00  0.00    -0.354 N 
ATOM     55  C   UNL A   1      44.366  29.172  28.450  1.00  0.00     0.074 A 
ATOM     56  C   UNL A   1      44.569  27.829  27.953  1.00  0.00     0.031 C 
ATOM     57  C   UNL A   1      37.998  29.490  29.212  1.00  0.00     0.029 A 
ATOM     58  C   UNL A   1      38.985  30.520  29.522  1.00  0.00     0.049 A 
ATOM     59  H   UNL A   1      41.032  30.472  29.133  1.00  0.00     0.167 HD
ATOM     60  C   UNL A   1      45.366  30.046  28.712  1.00  0.00     0.034 A 
ATOM     61  C   UNL A   1      38.718  31.701  30.116  1.00  0.00     0.034 A 
ATOM     62  C   UNL A   1      45.158  31.398  29.157  1.00  0.00     0.049 A 
ATOM     63  C   UNL A   1      39.842  32.676  30.339  1.00  0.00     0.074 A 
ATOM     64  C   UNL A   1      46.097  32.395  29.345  1.00  0.00     0.029 A 
ATOM     65  N   UNL A   1      43.927  31.939  29.493  1.00  0.00    -0.354 N 
ATOM     66  N   UNL A   1      41.115  32.545  30.056  1.00  0.00    -0.248 NA
ATOM     67  C   UNL A   1      39.489  33.976  30.927  1.00  0.00     0.031 C 
ATOM     68  C   UNL A   1      45.437  33.534  29.817  1.00  0.00     0.029 A 
ATOM     69  C   UNL A   1      44.083  33.254  29.898  1.00  0.00     0.049 A 
ATOM     70  H   UNL A   1      43.068  31.460  29.449  1.00  0.00     0.167 HD
ATOM     71  C   UNL A   1      41.709  33.755  30.399  1.00  0.00     0.074 A 
ATOM     72  C   UNL A   1      40.651  34.615  30.888  1.00  0.00     0.031 C 
ATOM     73  C   UNL A   1      43.014  34.116  30.331  1.00  0.00     0.034 A 
BRANCH  60  74
ATOM     74  C   UNL A   1      46.781  29.589  28.471  1.00  0.00     0.023 A 
ATOM     75  C   UNL A   1      47.428  29.935  27.267  1.00  0.00     0.012 A 
ATOM     76  C   UNL A   1      47.492  28.879  29.457  1.00  0.00     0.148 A 
ATOM     77  C   UNL A   1      48.748  29.554  27.034  1.00  0.00     0.002 A 
ATOM     78  C   UNL A   1      48.822  28.541  29.236  1.00  0.00     0.091 A 
ATOM     79  F   UNL A   1      46.854  28.541  30.587  1.00  0.00    -0.205 F 
ATOM     80  C   UNL A   1      49.448  28.868  28.022  1.00  0.00     0.022 A 
BRANCH  78  81
ATOM     81  S   UNL A   1      49.835  27.728  30.477  1.00  0.00     0.127 S 
ATOM     82  O   UNL A   1      49.822  26.343  30.007  1.00  0.00    -0.237 OA
ATOM     83  O   UNL A   1      51.119  28.411  30.321  1.00  0.00    -0.237 OA
ATOM     84  O   UNL A   1      49.174  27.961  31.753  1.00  0.00    -0.744 OA
ENDBRANCH  78  81
ENDBRANCH  60  74
BRANCH  61  85
ATOM     85  C   UNL A   1      37.316  32.052  30.481  1.00  0.00     0.023 A 
ATOM     86  C   UNL A   1      36.835  31.731  31.765  1.00  0.00     0.012 A 
ATOM     87  C   UNL A   1      36.470  32.721  29.577  1.00  0.00     0.148 A 
ATOM     88  C   UNL A   1      35.523  32.039  32.131  1.00  0.00     0.002 A 
ATOM     89  C   UNL A   1      35.183  33.075  29.968  1.00  0.00     0.091 A 
ATOM     90  F   UNL A   1      36.942  33.007  28.356  1.00  0.00    -0.205 F 
ATOM     91  C   UNL A   1      34.702  32.719  31.237  1.00  0.00     0.022 A 
BRANCH  89  92
ATOM     92  S   UNL A   1      34.104  34.069  28.930  1.00  0.00     0.127 S 
ATOM     93  O   UNL A   1      33.628  33.083  27.963  1.00  0.00    -0.237 OA
ATOM     94  O   UNL A   1      33.098  34.526  29.890  1.00  0.00    -0.237 OA
ATOM     95  O   UNL A   1      34.946  35.130  28.396  1.00  0.00    -0.744 OA
ENDBRANCH  89  92
ENDBRANCH  61  85
BRANCH  73  96
ATOM     96  C   UNL A   1      43.378  35.512  30.763  1.00  0.00     0.023 A 
ATOM     97  C   UNL A   1      43.757  35.755  32.098  1.00  0.00     0.012 A 
ATOM     98  C   UNL A   1      43.419  36.566  29.828  1.00  0.00     0.148 A 
ATOM     99  C   UNL A   1      44.142  37.033  32.503  1.00  0.00     0.002 A 
ATOM    100  C   UNL A   1      43.852  37.824  30.228  1.00  0.00     0.091 A 
ATOM    101  F   UNL A   1      43.037  36.318  28.568  1.00  0.00    -0.205 F 
ATOM    102  C   UNL A   1      44.202  38.062  31.567  1.00  0.00     0.022 A 
BRANCH 100 103
ATOM    103  S   UNL A   1      44.054  39.183  29.072  1.00  0.00     0.127 S 
ATOM    104  O   UNL A   1      44.471  40.269  29.958  1.00  0.00    -0.237 OA
ATOM    105  O   UNL A   1      45.105  38.684  28.183  1.00  0.00    -0.237 OA
ATOM    106  O   UNL A   1      42.758  39.360  28.431  1.00  0.00    -0.744 OA
ENDBRANCH 100 103
ENDBRANCH  73  96
ENDBRANCH  47  48
ENDBRANCH  39  42
ENDBRANCH  37  38
ENDBRANCH  36  37
ENDBRANCH   1  36
TORSDOF 19
ENDMDL
MODEL 2
REMARK VINA RESULT:      -9.7      2.857      8.489
REMARK SMILES COc1ccc([C@H]2CC(c3ccc(S(C)(=O)=O)cc3)=NN2c2ccc(C(=O)NCCCCNC(=O)c3ccc(-c4c5nc(c(-c6cccc(S(=O)(=O)[O-])c6F)c6ccc([nH]6)c(-c6cccc(S(=O)(=O)[O-])c6F)c6nc(c(-c7cccc(S(=O)(=O)[O-])c7F)c7ccc4[nH]7)C=C6)C=C5)cc3)cc2)cc1
REMARK SMILES IDX 30 1 29 2 28 3 26 4 27 5 25 7 22 8 23 9 100 10 24 11 99 12
REMARK SMILES IDX 21 13 7 14 8 15 9 16 20 17 6 18 3 19 4 20 102 21 5 22 101 23
REMARK SMILES IDX 2 24 1 25 10 26 11 27 19 28 12 29 18 30 13 31 14 32 15 33
REMARK SMILES IDX 16 34 17 35 31 36 32 37 33 38 34 39 35 41 36 42 37 43 98 44
REMARK SMILES IDX 38 45 97 46 39 47 40 48 41 49 91 50 42 51 96 52 90 53 92 54
REMARK SMILES IDX 43 55 95 56 89 57 88 58 44 60 76 61 56 62 75 63 57 64 60 65
REMARK SMILES IDX 74 66 93 67 58 68 59 69 73 71 94 72 61 73 45 74 46 75 54 76
REMARK SMILES IDX 47 77 49 78 55 79 48 80 50 81 51 82 52 83 53 84 77 85 78 86
REMARK SMILES IDX 86 87 79 88 81 89 87 90 80 91 82 92 83 93 84 94 85 95 62 96
REMARK SMILES IDX 63 97 71 98 64 99 66 100 72 101 65 102 67 103 68 104 69 105
REMARK SMILES IDX 70 106
REMARK H PARENT 28 6 33 40 92 59 60 70
REMARK Flexibility Score: inf
ROOT
ATOM      1  C   UNL A   1      42.519  22.182  25.821  1.00  0.00     0.023 C 
ENDROOT
BRANCH   1   2
ATOM      2  C   UNL A   1      43.227  23.498  26.152  1.00  0.00     0.116 C 
BRANCH   2   3
ATOM      3  N   UNL A   1      44.663  23.335  26.058  1.00  0.00    -0.352 N 
ATOM      4  C   UNL A   1      45.678  23.566  26.949  1.00  0.00     0.251 C 
ATOM      5  O   UNL A   1      46.826  23.324  26.577  1.00  0.00    -0.269 OA
ATOM      6  H   UNL A   1      44.968  22.992  25.187  1.00  0.00     0.163 HD
BRANCH   4   7
ATOM      7  C   UNL A   1      45.459  24.033  28.349  1.00  0.00     0.039 A 
ATOM      8  C   UNL A   1      44.812  24.860  30.982  1.00  0.00     0.060 A 
ATOM      9  C   UNL A   1      44.069  23.865  30.341  1.00  0.00     0.029 A 
ATOM     10  C   UNL A   1      45.921  25.386  30.316  1.00  0.00     0.029 A 
ATOM     11  C   UNL A   1      44.372  23.472  29.034  1.00  0.00     0.016 A 
ATOM     12  C   UNL A   1      46.263  24.950  29.030  1.00  0.00     0.016 A 
BRANCH   8  13
ATOM     13  N   UNL A   1      44.452  25.273  32.254  1.00  0.00    -0.257 N 
ATOM     14  C   UNL A   1      44.212  24.363  33.374  1.00  0.00     0.144 C 
ATOM     15  C   UNL A   1      43.564  25.281  34.419  1.00  0.00     0.091 C 
ATOM     16  C   UNL A   1      43.414  26.533  33.605  1.00  0.00     0.071 C 
ATOM     17  N   UNL A   1      43.909  26.507  32.410  1.00  0.00    -0.176 NA
BRANCH  14  18
ATOM     18  C   UNL A   1      45.503  23.736  33.872  1.00  0.00    -0.023 A 
ATOM     19  C   UNL A   1      47.889  22.560  34.822  1.00  0.00     0.118 A 
ATOM     20  C   UNL A   1      46.749  21.784  34.612  1.00  0.00     0.047 A 
ATOM     21  C   UNL A   1      47.849  23.921  34.529  1.00  0.00     0.047 A 
ATOM     22  C   UNL A   1      45.563  22.364  34.148  1.00  0.00     0.010 A 
ATOM     23  C   UNL A   1      46.667  24.502  34.055  1.00  0.00     0.010 A 
BRANCH  19  24
ATOM     24  O   UNL A   1      48.980  21.873  35.279  1.00  0.00    -0.497 OA
ATOM     25  C   UNL A   1      48.935  21.450  36.636  1.00  0.00     0.278 C 
ENDBRANCH  19  24
ENDBRANCH  14  18
BRANCH  16  26
ATOM     26  C   UNL A   1      42.720  27.703  34.141  1.00  0.00    -0.002 A 
ATOM     27  C   UNL A   1      42.285  27.680  35.470  1.00  0.00     0.011 A 
ATOM     28  C   UNL A   1      42.467  28.800  33.315  1.00  0.00     0.011 A 
ATOM     29  C   UNL A   1      41.600  28.777  35.988  1.00  0.00     0.021 A 
ATOM     30  C   UNL A   1      41.758  29.889  33.824  1.00  0.00     0.021 A 
ATOM     31  C   UNL A   1      41.326  29.869  35.156  1.00  0.00     0.067 A 
BRANCH  31  32
ATOM     32  S   UNL A   1      40.427  31.254  35.815  1.00  0.00     0.175 S 
ATOM     33  C   UNL A   1      38.746  30.691  35.880  1.00  0.00     0.163 C 
ATOM     34  O   UNL A   1      40.901  31.455  37.170  1.00  0.00    -0.224 OA
ATOM     35  O   UNL A   1      40.492  32.326  34.837  1.00  0.00    -0.224 OA
ENDBRANCH  31  32
ENDBRANCH  16  26
ENDBRANCH   8  13
ENDBRANCH   4   7
ENDBRANCH   2   3
ENDBRANCH   1   2
BRANCH   1  36
ATOM     36  C   UNL A   1      41.997  21.432  27.049  1.00  0.00     0.023 C 
BRANCH  36  37
ATOM     37  C   UNL A   1      40.725  22.011  27.661  1.00  0.00     0.116 C 
BRANCH  37  38
ATOM     38  N   UNL A   1      39.630  22.118  26.706  1.00  0.00    -0.352 N 
ATOM     39  C   UNL A   1      38.859  23.218  26.415  1.00  0.00     0.251 C 
ATOM     40  H   UNL A   1      39.415  21.298  26.207  1.00  0.00     0.163 HD
ATOM     41  O   UNL A   1      37.895  23.114  25.663  1.00  0.00    -0.269 OA
BRANCH  39  42
ATOM     42  C   UNL A   1      39.182  24.511  27.048  1.00  0.00     0.039 A 
ATOM     43  C   UNL A   1      38.782  24.734  28.368  1.00  0.00     0.014 A 
ATOM     44  C   UNL A   1      39.912  25.481  26.356  1.00  0.00     0.014 A 
ATOM     45  C   UNL A   1      39.171  25.907  29.016  1.00  0.00     0.010 A 
ATOM     46  C   UNL A   1      40.357  26.615  27.025  1.00  0.00     0.010 A 
ATOM     47  C   UNL A   1      39.991  26.842  28.361  1.00  0.00    -0.014 A 
BRANCH  47  48
ATOM     48  C   UNL A   1      40.491  28.051  29.061  1.00  0.00     0.031 A 
ATOM     49  C   UNL A   1      39.529  29.112  29.520  1.00  0.00     0.074 A 
ATOM     50  C   UNL A   1      41.819  28.239  29.193  1.00  0.00     0.049 A 
ATOM     51  N   UNL A   1      39.782  30.258  30.097  1.00  0.00    -0.248 NA
ATOM     52  C   UNL A   1      38.097  28.868  29.275  1.00  0.00     0.031 C 
ATOM     53  C   UNL A   1      42.855  27.327  28.704  1.00  0.00     0.029 A 
ATOM     54  N   UNL A   1      42.526  29.275  29.751  1.00  0.00    -0.354 N 
ATOM     55  C   UNL A   1      38.553  30.888  30.247  1.00  0.00     0.074 A 
ATOM     56  C   UNL A   1      37.556  30.011  29.673  1.00  0.00     0.031 C 
ATOM     57  C   UNL A   1      44.063  27.844  28.981  1.00  0.00     0.029 A 
ATOM     58  C   UNL A   1      43.889  29.133  29.642  1.00  0.00     0.049 A 
ATOM     59  H   UNL A   1      42.098  30.047  30.187  1.00  0.00     0.167 HD
ATOM     60  C   UNL A   1      38.275  32.076  30.833  1.00  0.00     0.034 A 
ATOM     61  C   UNL A   1      44.889  29.954  30.024  1.00  0.00     0.034 A 
ATOM     62  C   UNL A   1      39.264  32.921  31.448  1.00  0.00     0.049 A 
ATOM     63  C   UNL A   1      44.549  31.239  30.728  1.00  0.00     0.074 A 
ATOM     64  C   UNL A   1      39.070  34.088  32.164  1.00  0.00     0.029 A 
ATOM     65  N   UNL A   1      40.630  32.695  31.411  1.00  0.00    -0.354 N 
ATOM     66  N   UNL A   1      43.371  31.731  31.024  1.00  0.00    -0.248 NA
ATOM     67  C   UNL A   1      45.676  32.066  31.185  1.00  0.00     0.031 C 
ATOM     68  C   UNL A   1      40.323  34.582  32.540  1.00  0.00     0.029 A 
ATOM     69  C   UNL A   1      41.295  33.707  32.082  1.00  0.00     0.049 A 
ATOM     70  H   UNL A   1      41.064  31.928  30.973  1.00  0.00     0.167 HD
ATOM     71  C   UNL A   1      43.612  32.904  31.730  1.00  0.00     0.074 A 
ATOM     72  C   UNL A   1      45.050  33.036  31.839  1.00  0.00     0.031 C 
ATOM     73  C   UNL A   1      42.725  33.799  32.229  1.00  0.00     0.034 A 
BRANCH  60  74
ATOM     74  C   UNL A   1      36.834  32.512  30.891  1.00  0.00     0.023 A 
ATOM     75  C   UNL A   1      36.113  32.371  32.095  1.00  0.00     0.012 A 
ATOM     76  C   UNL A   1      36.215  33.119  29.782  1.00  0.00     0.148 A 
ATOM     77  C   UNL A   1      34.790  32.798  32.185  1.00  0.00     0.002 A 
ATOM     78  C   UNL A   1      34.909  33.583  29.894  1.00  0.00     0.091 A 
ATOM     79  F   UNL A   1      36.909  33.225  28.640  1.00  0.00    -0.205 F 
ATOM     80  C   UNL A   1      34.191  33.414  31.089  1.00  0.00     0.022 A 
BRANCH  78  81
ATOM     81  S   UNL A   1      34.076  34.461  28.566  1.00  0.00     0.127 S 
ATOM     82  O   UNL A   1      34.194  33.508  27.463  1.00  0.00    -0.237 OA
ATOM     83  O   UNL A   1      32.721  34.610  29.099  1.00  0.00    -0.237 OA
ATOM     84  O   UNL A   1      34.801  35.711  28.392  1.00  0.00    -0.744 OA
ENDBRANCH  78  81
ENDBRANCH  60  74
BRANCH  61  85
ATOM     85  C   UNL A   1      46.308  29.552  29.807  1.00  0.00     0.023 A 
ATOM     86  C   UNL A   1      46.987  28.841  30.815  1.00  0.00     0.012 A 
ATOM     87  C   UNL A   1      46.976  29.845  28.604  1.00  0.00     0.148 A 
ATOM     88  C   UNL A   1      48.319  28.459  30.643  1.00  0.00     0.002 A 
ATOM     89  C   UNL A   1      48.285  29.413  28.416  1.00  0.00     0.091 A 
ATOM     90  F   UNL A   1      46.316  30.533  27.661  1.00  0.00    -0.205 F 
ATOM     91  C   UNL A   1      48.964  28.737  29.441  1.00  0.00     0.022 A 
BRANCH  89  92
ATOM     92  S   UNL A   1      49.146  29.609  26.851  1.00  0.00     0.127 S 
ATOM     93  O   UNL A   1      49.165  31.062  26.700  1.00  0.00    -0.237 OA
ATOM     94  O   UNL A   1      50.445  29.002  27.143  1.00  0.00    -0.237 OA
ATOM     95  O   UNL A   1      48.350  28.878  25.875  1.00  0.00    -0.744 OA
ENDBRANCH  89  92
ENDBRANCH  61  85
BRANCH  73  96
ATOM     96  C   UNL A   1      43.272  34.990  32.971  1.00  0.00     0.023 A 
ATOM     97  C   UNL A   1      43.549  36.182  32.273  1.00  0.00     0.012 A 
ATOM     98  C   UNL A   1      43.438  34.951  34.370  1.00  0.00     0.148 A 
ATOM     99  C   UNL A   1      44.012  37.309  32.952  1.00  0.00     0.002 A 
ATOM    100  C   UNL A   1      43.852  36.093  35.046  1.00  0.00     0.091 A 
ATOM    101  F   UNL A   1      43.187  33.802  35.012  1.00  0.00    -0.205 F 
ATOM    102  C   UNL A   1      44.151  37.268  34.337  1.00  0.00     0.022 A 
BRANCH 100 103
ATOM    103  S   UNL A   1      43.965  36.162  36.836  1.00  0.00     0.127 S 
ATOM    104  O   UNL A   1      45.076  35.250  37.101  1.00  0.00    -0.237 OA
ATOM    105  O   UNL A   1      44.265  37.575  37.076  1.00  0.00    -0.237 OA
ATOM    106  O   UNL A   1      42.667  35.729  37.337  1.00  0.00    -0.744 OA
ENDBRANCH 100 103
ENDBRANCH  73  96
ENDBRANCH  47  48
ENDBRANCH  39  42
ENDBRANCH  37  38
ENDBRANCH  36  37
ENDBRANCH   1  36
TORSDOF 19
ENDMDL
MODEL 3
REMARK VINA RESULT:      -9.6      4.083     10.331
REMARK SMILES COc1ccc([C@H]2CC(c3ccc(S(C)(=O)=O)cc3)=NN2c2ccc(C(=O)NCCCCNC(=O)c3ccc(-c4c5nc(c(-c6cccc(S(=O)(=O)[O-])c6F)c6ccc([nH]6)c(-c6cccc(S(=O)(=O)[O-])c6F)c6nc(c(-c7cccc(S(=O)(=O)[O-])c7F)c7ccc4[nH]7)C=C6)C=C5)cc3)cc2)cc1
REMARK SMILES IDX 30 1 29 2 28 3 26 4 27 5 25 7 22 8 23 9 100 10 24 11 99 12
REMARK SMILES IDX 21 13 7 14 8 15 9 16 20 17 6 18 3 19 4 20 102 21 5 22 101 23
REMARK SMILES IDX 2 24 1 25 10 26 11 27 19 28 12 29 18 30 13 31 14 32 15 33
REMARK SMILES IDX 16 34 17 35 31 36 32 37 33 38 34 39 35 41 36 42 37 43 98 44
REMARK SMILES IDX 38 45 97 46 39 47 40 48 41 49 91 50 42 51 96 52 90 53 92 54
REMARK SMILES IDX 43 55 95 56 89 57 88 58 44 60 76 61 56 62 75 63 57 64 60 65
REMARK SMILES IDX 74 66 93 67 58 68 59 69 73 71 94 72 61 73 45 74 46 75 54 76
REMARK SMILES IDX 47 77 49 78 55 79 48 80 50 81 51 82 52 83 53 84 77 85 78 86
REMARK SMILES IDX 86 87 79 88 81 89 87 90 80 91 82 92 83 93 84 94 85 95 62 96
REMARK SMILES IDX 63 97 71 98 64 99 66 100 72 101 65 102 67 103 68 104 69 105
REMARK SMILES IDX 70 106
REMARK H PARENT 28 6 33 40 92 59 60 70
REMARK Flexibility Score: inf
ROOT
ATOM      1  C   UNL A   1      34.102  34.850  29.098  1.00  0.00     0.023 C 
ENDROOT
BRANCH   1   2
ATOM      2  C   UNL A   1      34.765  34.718  30.471  1.00  0.00     0.116 C 
BRANCH   2   3
ATOM      3  N   UNL A   1      33.786  34.335  31.468  1.00  0.00    -0.352 N 
ATOM      4  C   UNL A   1      33.875  33.574  32.604  1.00  0.00     0.251 C 
ATOM      5  O   UNL A   1      32.849  33.424  33.268  1.00  0.00    -0.269 OA
ATOM      6  H   UNL A   1      32.884  34.691  31.297  1.00  0.00     0.163 HD
BRANCH   4   7
ATOM      7  C   UNL A   1      35.148  32.975  33.101  1.00  0.00     0.039 A 
ATOM      8  C   UNL A   1      37.605  32.043  34.163  1.00  0.00     0.060 A 
ATOM      9  C   UNL A   1      36.854  33.009  34.836  1.00  0.00     0.029 A 
ATOM     10  C   UNL A   1      37.079  31.501  32.987  1.00  0.00     0.029 A 
ATOM     11  C   UNL A   1      35.653  33.487  34.304  1.00  0.00     0.016 A 
ATOM     12  C   UNL A   1      35.846  31.935  32.484  1.00  0.00     0.016 A 
BRANCH   8  13
ATOM     13  N   UNL A   1      38.821  31.632  34.683  1.00  0.00    -0.257 N 
ATOM     14  C   UNL A   1      39.938  32.533  34.965  1.00  0.00     0.144 C 
ATOM     15  C   UNL A   1      41.098  31.562  35.219  1.00  0.00     0.091 C 
ATOM     16  C   UNL A   1      40.430  30.265  34.865  1.00  0.00     0.071 C 
ATOM     17  N   UNL A   1      39.172  30.325  34.569  1.00  0.00    -0.176 NA
BRANCH  14  18
ATOM     18  C   UNL A   1      39.651  33.423  36.162  1.00  0.00    -0.023 A 
ATOM     19  C   UNL A   1      39.144  35.088  38.387  1.00  0.00     0.118 A 
ATOM     20  C   UNL A   1      39.466  35.638  37.145  1.00  0.00     0.047 A 
ATOM     21  C   UNL A   1      39.046  33.704  38.512  1.00  0.00     0.047 A 
ATOM     22  C   UNL A   1      39.724  34.816  36.043  1.00  0.00     0.010 A 
ATOM     23  C   UNL A   1      39.294  32.880  37.409  1.00  0.00     0.010 A 
BRANCH  19  24
ATOM     24  O   UNL A   1      38.918  35.998  39.382  1.00  0.00    -0.497 OA
ATOM     25  C   UNL A   1      39.444  37.303  39.174  1.00  0.00     0.278 C 
ENDBRANCH  19  24
ENDBRANCH  14  18
BRANCH  16  26
ATOM     26  C   UNL A   1      41.182  29.011  34.838  1.00  0.00    -0.002 A 
ATOM     27  C   UNL A   1      41.894  28.626  35.979  1.00  0.00     0.011 A 
ATOM     28  C   UNL A   1      41.213  28.244  33.673  1.00  0.00     0.011 A 
ATOM     29  C   UNL A   1      42.636  27.448  35.960  1.00  0.00     0.021 A 
ATOM     30  C   UNL A   1      41.977  27.077  33.643  1.00  0.00     0.021 A 
ATOM     31  C   UNL A   1      42.686  26.688  34.786  1.00  0.00     0.067 A 
BRANCH  31  32
ATOM     32  S   UNL A   1      43.658  25.199  34.760  1.00  0.00     0.175 S 
ATOM     33  C   UNL A   1      44.763  25.376  36.137  1.00  0.00     0.163 C 
ATOM     34  O   UNL A   1      42.751  24.102  35.033  1.00  0.00    -0.224 OA
ATOM     35  O   UNL A   1      44.461  25.219  33.550  1.00  0.00    -0.224 OA
ENDBRANCH  31  32
ENDBRANCH  16  26
ENDBRANCH   8  13
ENDBRANCH   4   7
ENDBRANCH   2   3
ENDBRANCH   1   2
BRANCH   1  36
ATOM     36  C   UNL A   1      34.508  33.759  28.104  1.00  0.00     0.023 C 
BRANCH  36  37
ATOM     37  C   UNL A   1      35.128  32.517  28.735  1.00  0.00     0.116 C 
BRANCH  37  38
ATOM     38  N   UNL A   1      34.431  31.288  28.382  1.00  0.00    -0.352 N 
ATOM     39  C   UNL A   1      34.950  30.022  28.250  1.00  0.00     0.251 C 
ATOM     40  H   UNL A   1      33.464  31.375  28.216  1.00  0.00     0.163 HD
ATOM     41  O   UNL A   1      34.246  29.106  27.833  1.00  0.00    -0.269 OA
BRANCH  39  42
ATOM     42  C   UNL A   1      36.370  29.789  28.577  1.00  0.00     0.039 A 
ATOM     43  C   UNL A   1      36.696  29.271  29.832  1.00  0.00     0.014 A 
ATOM     44  C   UNL A   1      37.369  30.042  27.633  1.00  0.00     0.014 A 
ATOM     45  C   UNL A   1      38.023  28.945  30.119  1.00  0.00     0.010 A 
ATOM     46  C   UNL A   1      38.677  29.652  27.894  1.00  0.00     0.010 A 
ATOM     47  C   UNL A   1      39.019  29.101  29.140  1.00  0.00    -0.014 A 
BRANCH  47  48
ATOM     48  C   UNL A   1      40.419  28.677  29.392  1.00  0.00     0.031 A 
ATOM     49  C   UNL A   1      41.325  29.523  30.244  1.00  0.00     0.074 A 
ATOM     50  C   UNL A   1      40.901  27.581  28.773  1.00  0.00     0.049 A 
ATOM     51  N   UNL A   1      42.588  29.344  30.531  1.00  0.00    -0.248 NA
ATOM     52  C   UNL A   1      40.746  30.744  30.828  1.00  0.00     0.031 C 
ATOM     53  C   UNL A   1      40.147  26.731  27.849  1.00  0.00     0.029 A 
ATOM     54  N   UNL A   1      42.150  27.011  28.803  1.00  0.00    -0.354 N 
ATOM     55  C   UNL A   1      42.965  30.445  31.289  1.00  0.00     0.074 A 
ATOM     56  C   UNL A   1      41.805  31.303  31.395  1.00  0.00     0.031 C 
ATOM     57  C   UNL A   1      40.948  25.752  27.399  1.00  0.00     0.029 A 
ATOM     58  C   UNL A   1      42.276  25.917  27.980  1.00  0.00     0.049 A 
ATOM     59  H   UNL A   1      42.885  27.354  29.361  1.00  0.00     0.167 HD
ATOM     60  C   UNL A   1      44.160  30.705  31.870  1.00  0.00     0.034 A 
ATOM     61  C   UNL A   1      43.345  25.139  27.715  1.00  0.00     0.034 A 
ATOM     62  C   UNL A   1      45.295  29.824  31.805  1.00  0.00     0.049 A 
ATOM     63  C   UNL A   1      44.643  25.417  28.422  1.00  0.00     0.074 A 
ATOM     64  C   UNL A   1      46.513  29.944  32.449  1.00  0.00     0.029 A 
ATOM     65  N   UNL A   1      45.356  28.667  31.045  1.00  0.00    -0.354 N 
ATOM     66  N   UNL A   1      44.927  26.363  29.284  1.00  0.00    -0.248 NA
ATOM     67  C   UNL A   1      45.760  24.499  28.151  1.00  0.00     0.031 C 
ATOM     68  C   UNL A   1      47.320  28.870  32.059  1.00  0.00     0.029 A 
ATOM     69  C   UNL A   1      46.595  28.068  31.193  1.00  0.00     0.049 A 
ATOM     70  H   UNL A   1      44.626  28.322  30.482  1.00  0.00     0.167 HD
ATOM     71  C   UNL A   1      46.239  26.136  29.684  1.00  0.00     0.074 A 
ATOM     72  C   UNL A   1      46.686  24.947  28.988  1.00  0.00     0.031 C 
ATOM     73  C   UNL A   1      47.009  26.855  30.537  1.00  0.00     0.034 A 
BRANCH  60  74
ATOM     74  C   UNL A   1      44.289  31.970  32.677  1.00  0.00     0.023 A 
ATOM     75  C   UNL A   1      44.336  33.215  32.017  1.00  0.00     0.012 A 
ATOM     76  C   UNL A   1      44.296  31.934  34.085  1.00  0.00     0.148 A 
ATOM     77  C   UNL A   1      44.420  34.402  32.742  1.00  0.00     0.002 A 
ATOM     78  C   UNL A   1      44.335  33.125  34.802  1.00  0.00     0.091 A 
ATOM     79  F   UNL A   1      44.272  30.741  34.695  1.00  0.00    -0.205 F 
ATOM     80  C   UNL A   1      44.408  34.358  34.133  1.00  0.00     0.022 A 
BRANCH  78  81
ATOM     81  S   UNL A   1      44.244  33.180  36.595  1.00  0.00     0.127 S 
ATOM     82  O   UNL A   1      45.491  33.865  36.933  1.00  0.00    -0.237 OA
ATOM     83  O   UNL A   1      43.034  33.972  36.817  1.00  0.00    -0.237 OA
ATOM     84  O   UNL A   1      44.152  31.796  37.036  1.00  0.00    -0.744 OA
ENDBRANCH  78  81
ENDBRANCH  60  74
BRANCH  61  85
ATOM     85  C   UNL A   1      43.213  23.982  26.785  1.00  0.00     0.023 A 
ATOM     86  C   UNL A   1      43.796  24.053  25.505  1.00  0.00     0.012 A 
ATOM     87  C   UNL A   1      42.537  22.808  27.168  1.00  0.00     0.148 A 
ATOM     88  C   UNL A   1      43.679  22.988  24.609  1.00  0.00     0.002 A 
ATOM     89  C   UNL A   1      42.473  21.729  26.292  1.00  0.00     0.091 A 
ATOM     90  F   UNL A   1      41.979  22.764  28.386  1.00  0.00    -0.205 F 
ATOM     91  C   UNL A   1      43.027  21.824  25.006  1.00  0.00     0.022 A 
BRANCH  89  92
ATOM     92  S   UNL A   1      41.772  20.146  26.768  1.00  0.00     0.127 S 
ATOM     93  O   UNL A   1      40.420  20.526  27.170  1.00  0.00    -0.237 OA
ATOM     94  O   UNL A   1      41.854  19.390  25.518  1.00  0.00    -0.237 OA
ATOM     95  O   UNL A   1      42.632  19.641  27.829  1.00  0.00    -0.744 OA
ENDBRANCH  89  92
ENDBRANCH  61  85
BRANCH  73  96
ATOM     96  C   UNL A   1      48.409  26.365  30.799  1.00  0.00     0.023 A 
ATOM     97  C   UNL A   1      49.462  26.770  29.955  1.00  0.00     0.012 A 
ATOM     98  C   UNL A   1      48.692  25.568  31.926  1.00  0.00     0.148 A 
ATOM     99  C   UNL A   1      50.771  26.364  30.211  1.00  0.00     0.002 A 
ATOM    100  C   UNL A   1      50.006  25.209  32.203  1.00  0.00     0.091 A 
ATOM    101  F   UNL A   1      47.674  25.179  32.706  1.00  0.00    -0.205 F 
ATOM    102  C   UNL A   1      51.044  25.595  31.340  1.00  0.00     0.022 A 
BRANCH 100 103
ATOM    103  S   UNL A   1      50.463  24.304  33.685  1.00  0.00     0.127 S 
ATOM    104  O   UNL A   1      49.851  25.119  34.733  1.00  0.00    -0.237 OA
ATOM    105  O   UNL A   1      49.822  23.006  33.469  1.00  0.00    -0.237 OA
ATOM    106  O   UNL A   1      51.919  24.262  33.696  1.00  0.00    -0.744 OA
ENDBRANCH 100 103
ENDBRANCH  73  96
ENDBRANCH  47  48
ENDBRANCH  39  42
ENDBRANCH  37  38
ENDBRANCH  36  37
ENDBRANCH   1  36
TORSDOF 19
ENDMDL
