MODEL 1
REMARK VINA RESULT:     -12.2      0.000      0.000
REMARK SMILES O=C(NCCCCNC(=O)[C@H]1C[C@H]2CCCC[C@@H]2[N@@H+]1C1CCSCC1)c1ccc(-c2c3nc(c(-c4cccc(S(=O)(=O)[O-])c4F)c4ccc([nH]4)c(-c4cccc(S(=O)(=O)[O-])c4F)c4nc(c(-c5cccc(S(=O)(=O)[O-])c5F)c5ccc2[nH]5)C=C4)C=C3)cc1
REMARK SMILES IDX 4 1 3 2 1 3 2 4 26 6 27 7 88 8 28 9 87 10 29 11 30 12 31 13
REMARK SMILES IDX 81 14 32 15 86 16 80 17 82 18 33 19 85 20 79 21 78 22 34 24
REMARK SMILES IDX 66 25 46 26 65 27 47 28 50 29 64 30 83 31 48 32 49 33 63 35
REMARK SMILES IDX 84 36 51 37 35 38 36 39 44 40 37 41 39 42 45 43 38 44 40 45
REMARK SMILES IDX 41 46 42 47 43 48 67 49 68 50 76 51 69 52 71 53 77 54 70 55
REMARK SMILES IDX 72 56 73 57 74 58 75 59 52 60 53 61 61 62 54 63 56 64 62 65
REMARK SMILES IDX 55 66 57 67 58 68 59 69 60 70 5 71 6 72 7 73 8 74 9 75 10 77
REMARK SMILES IDX 11 78 12 79 19 80 13 81 18 82 14 84 17 85 15 86 16 87 20 88
REMARK SMILES IDX 21 89 25 90 22 91 24 92 23 93
REMARK H PARENT 3 5 82 23 50 34 8 76 19 83
REMARK Flexibility Score: inf
ROOT
ATOM      1  C   UNL A   1      33.023  29.729  25.471  1.00  0.00     0.116 C 
ENDROOT
BRANCH   1   2
ATOM      2  N   UNL A   1      32.501  30.943  26.082  1.00  0.00    -0.352 N 
ATOM      3  O   UNL A   1      32.464  32.663  27.547  1.00  0.00    -0.269 OA
ATOM      4  C   UNL A   1      33.064  31.717  27.076  1.00  0.00     0.251 C 
ATOM      5  H   UNL A   1      31.630  31.254  25.741  1.00  0.00     0.163 HD
BRANCH   4   6
ATOM      6  C   UNL A   1      34.397  31.325  27.577  1.00  0.00     0.039 A 
ATOM      7  C   UNL A   1      34.628  30.007  27.979  1.00  0.00     0.014 A 
ATOM      8  C   UNL A   1      35.369  32.310  27.747  1.00  0.00     0.014 A 
ATOM      9  C   UNL A   1      35.772  29.709  28.706  1.00  0.00     0.010 A 
ATOM     10  C   UNL A   1      36.557  31.986  28.401  1.00  0.00     0.010 A 
ATOM     11  C   UNL A   1      36.747  30.696  28.924  1.00  0.00    -0.014 A 
BRANCH  11  12
ATOM     12  C   UNL A   1      37.988  30.355  29.656  1.00  0.00     0.031 A 
ATOM     13  C   UNL A   1      39.004  29.420  29.063  1.00  0.00     0.074 A 
ATOM     14  C   UNL A   1      38.170  30.875  30.883  1.00  0.00     0.049 A 
ATOM     15  N   UNL A   1      40.100  28.951  29.601  1.00  0.00    -0.248 NA
ATOM     16  C   UNL A   1      38.755  28.939  27.693  1.00  0.00     0.031 C 
ATOM     17  C   UNL A   1      37.231  31.772  31.561  1.00  0.00     0.029 A 
ATOM     18  N   UNL A   1      39.186  30.711  31.787  1.00  0.00    -0.354 N 
ATOM     19  C   UNL A   1      40.644  28.081  28.663  1.00  0.00     0.074 A 
ATOM     20  C   UNL A   1      39.760  28.091  27.517  1.00  0.00     0.031 C 
ATOM     21  C   UNL A   1      37.713  32.079  32.772  1.00  0.00     0.029 A 
ATOM     22  C   UNL A   1      38.961  31.355  32.979  1.00  0.00     0.049 A 
ATOM     23  H   UNL A   1      39.997  30.184  31.600  1.00  0.00     0.167 HD
ATOM     24  C   UNL A   1      41.782  27.352  28.750  1.00  0.00     0.034 A 
ATOM     25  C   UNL A   1      39.663  31.341  34.127  1.00  0.00     0.034 A 
ATOM     26  C   UNL A   1      42.674  27.388  29.879  1.00  0.00     0.049 A 
ATOM     27  C   UNL A   1      40.933  30.548  34.187  1.00  0.00     0.074 A 
ATOM     28  C   UNL A   1      43.885  26.738  30.040  1.00  0.00     0.029 A 
ATOM     29  N   UNL A   1      42.451  28.113  31.041  1.00  0.00    -0.354 N 
ATOM     30  N   UNL A   1      41.489  29.816  33.251  1.00  0.00    -0.248 NA
ATOM     31  C   UNL A   1      41.689  30.596  35.444  1.00  0.00     0.031 C 
ATOM     32  C   UNL A   1      44.387  27.061  31.306  1.00  0.00     0.029 A 
ATOM     33  C   UNL A   1      43.498  27.924  31.926  1.00  0.00     0.049 A 
ATOM     34  H   UNL A   1      41.664  28.678  31.211  1.00  0.00     0.167 HD
ATOM     35  C   UNL A   1      42.673  29.338  33.795  1.00  0.00     0.074 A 
ATOM     36  C   UNL A   1      42.762  29.877  35.137  1.00  0.00     0.031 C 
ATOM     37  C   UNL A   1      43.594  28.514  33.237  1.00  0.00     0.034 A 
BRANCH  24  38
ATOM     38  C   UNL A   1      42.148  26.478  27.580  1.00  0.00     0.023 A 
ATOM     39  C   UNL A   1      42.904  27.016  26.519  1.00  0.00     0.012 A 
ATOM     40  C   UNL A   1      41.794  25.115  27.552  1.00  0.00     0.148 A 
ATOM     41  C   UNL A   1      43.277  26.219  25.436  1.00  0.00     0.002 A 
ATOM     42  C   UNL A   1      42.201  24.318  26.486  1.00  0.00     0.091 A 
ATOM     43  F   UNL A   1      41.052  24.622  28.555  1.00  0.00    -0.205 F 
ATOM     44  C   UNL A   1      42.934  24.869  25.424  1.00  0.00     0.022 A 
BRANCH  42  45
ATOM     45  S   UNL A   1      41.861  22.554  26.431  1.00  0.00     0.127 S 
ATOM     46  O   UNL A   1      42.469  22.175  25.158  1.00  0.00    -0.237 OA
ATOM     47  O   UNL A   1      42.568  22.058  27.614  1.00  0.00    -0.237 OA
ATOM     48  O   UNL A   1      40.412  22.431  26.506  1.00  0.00    -0.744 OA
ENDBRANCH  42  45
ENDBRANCH  24  38
BRANCH  25  49
ATOM     49  C   UNL A   1      39.175  32.147  35.279  1.00  0.00     0.023 A 
ATOM     50  C   UNL A   1      38.336  31.547  36.235  1.00  0.00     0.012 A 
ATOM     51  C   UNL A   1      39.629  33.464  35.487  1.00  0.00     0.148 A 
ATOM     52  C   UNL A   1      37.951  32.248  37.378  1.00  0.00     0.002 A 
ATOM     53  C   UNL A   1      39.290  34.136  36.656  1.00  0.00     0.091 A 
ATOM     54  F   UNL A   1      40.421  34.018  34.557  1.00  0.00    -0.205 F 
ATOM     55  C   UNL A   1      38.439  33.535  37.595  1.00  0.00     0.022 A 
BRANCH  53  56
ATOM     56  S   UNL A   1      39.998  35.730  37.089  1.00  0.00     0.127 S 
ATOM     57  O   UNL A   1      41.415  35.402  37.213  1.00  0.00    -0.237 OA
ATOM     58  O   UNL A   1      39.652  36.541  35.921  1.00  0.00    -0.237 OA
ATOM     59  O   UNL A   1      39.329  36.135  38.318  1.00  0.00    -0.744 OA
ENDBRANCH  53  56
ENDBRANCH  25  49
BRANCH  37  60
ATOM     60  C   UNL A   1      44.802  28.166  34.064  1.00  0.00     0.023 A 
ATOM     61  C   UNL A   1      45.912  29.031  34.073  1.00  0.00     0.012 A 
ATOM     62  C   UNL A   1      44.797  27.030  34.895  1.00  0.00     0.148 A 
ATOM     63  C   UNL A   1      47.010  28.761  34.887  1.00  0.00     0.002 A 
ATOM     64  C   UNL A   1      45.878  26.790  35.735  1.00  0.00     0.091 A 
ATOM     65  F   UNL A   1      43.738  26.209  34.852  1.00  0.00    -0.205 F 
ATOM     66  C   UNL A   1      46.988  27.649  35.726  1.00  0.00     0.022 A 
BRANCH  64  67
ATOM     67  S   UNL A   1      45.894  25.432  36.912  1.00  0.00     0.127 S 
ATOM     68  O   UNL A   1      45.797  24.272  36.029  1.00  0.00    -0.237 OA
ATOM     69  O   UNL A   1      47.196  25.599  37.561  1.00  0.00    -0.237 OA
ATOM     70  O   UNL A   1      44.752  25.649  37.789  1.00  0.00    -0.744 OA
ENDBRANCH  64  67
ENDBRANCH  37  60
ENDBRANCH  11  12
ENDBRANCH   4   6
ENDBRANCH   1   2
BRANCH   1  71
ATOM     71  C   UNL A   1      31.968  28.906  24.746  1.00  0.00     0.023 C 
BRANCH  71  72
ATOM     72  C   UNL A   1      31.219  27.911  25.619  1.00  0.00     0.023 C 
BRANCH  72  73
ATOM     73  C   UNL A   1      32.104  27.044  26.504  1.00  0.00     0.116 C 
BRANCH  73  74
ATOM     74  N   UNL A   1      31.480  25.824  26.949  1.00  0.00    -0.351 N 
ATOM     75  C   UNL A   1      31.787  24.524  26.676  1.00  0.00     0.278 C 
ATOM     76  H   UNL A   1      30.708  25.949  27.546  1.00  0.00     0.163 HD
ATOM     77  O   UNL A   1      31.175  23.676  27.339  1.00  0.00    -0.268 OA
BRANCH  75  78
ATOM     78  C   UNL A   1      32.802  24.069  25.592  1.00  0.00     0.275 C 
ATOM     79  C   UNL A   1      34.181  23.676  26.127  1.00  0.00     0.085 C 
ATOM     80  N   UNL A   1      32.307  22.943  24.752  1.00  0.00    -0.320 N 
ATOM     81  C   UNL A   1      34.556  22.448  25.317  1.00  0.00     0.054 C 
ATOM     82  C   UNL A   1      33.218  21.808  24.965  1.00  0.00     0.188 C 
ATOM     83  H   UNL A   1      31.371  22.701  25.077  1.00  0.00     0.349 HD
ATOM     84  C   UNL A   1      35.461  21.448  26.026  1.00  0.00     0.010 C 
ATOM     85  C   UNL A   1      33.411  20.638  23.997  1.00  0.00     0.065 C 
ATOM     86  C   UNL A   1      35.657  20.204  25.153  1.00  0.00     0.001 C 
ATOM     87  C   UNL A   1      34.335  19.600  24.662  1.00  0.00     0.006 C 
BRANCH  80  88
ATOM     88  C   UNL A   1      31.899  23.222  23.362  1.00  0.00     0.186 C 
ATOM     89  C   UNL A   1      30.541  23.950  23.245  1.00  0.00     0.076 C 
ATOM     90  C   UNL A   1      32.958  23.802  22.398  1.00  0.00     0.076 C 
ATOM     91  C   UNL A   1      30.552  25.474  23.256  1.00  0.00     0.075 C 
ATOM     92  C   UNL A   1      33.162  25.306  22.411  1.00  0.00     0.075 C 
ATOM     93  S   UNL A   1      31.638  26.180  21.986  1.00  0.00    -0.162 SA
ENDBRANCH  80  88
ENDBRANCH  75  78
ENDBRANCH  73  74
ENDBRANCH  72  73
ENDBRANCH  71  72
ENDBRANCH   1  71
TORSDOF 15
ENDMDL
MODEL 2
REMARK VINA RESULT:     -12.1      1.398      7.692
REMARK SMILES O=C(NCCCCNC(=O)[C@H]1C[C@H]2CCCC[C@@H]2[N@@H+]1C1CCSCC1)c1ccc(-c2c3nc(c(-c4cccc(S(=O)(=O)[O-])c4F)c4ccc([nH]4)c(-c4cccc(S(=O)(=O)[O-])c4F)c4nc(c(-c5cccc(S(=O)(=O)[O-])c5F)c5ccc2[nH]5)C=C4)C=C3)cc1
REMARK SMILES IDX 4 1 3 2 1 3 2 4 26 6 27 7 88 8 28 9 87 10 29 11 30 12 31 13
REMARK SMILES IDX 81 14 32 15 86 16 80 17 82 18 33 19 85 20 79 21 78 22 34 24
REMARK SMILES IDX 66 25 46 26 65 27 47 28 50 29 64 30 83 31 48 32 49 33 63 35
REMARK SMILES IDX 84 36 51 37 35 38 36 39 44 40 37 41 39 42 45 43 38 44 40 45
REMARK SMILES IDX 41 46 42 47 43 48 67 49 68 50 76 51 69 52 71 53 77 54 70 55
REMARK SMILES IDX 72 56 73 57 74 58 75 59 52 60 53 61 61 62 54 63 56 64 62 65
REMARK SMILES IDX 55 66 57 67 58 68 59 69 60 70 5 71 6 72 7 73 8 74 9 75 10 77
REMARK SMILES IDX 11 78 12 79 19 80 13 81 18 82 14 84 17 85 15 86 16 87 20 88
REMARK SMILES IDX 21 89 25 90 22 91 24 92 23 93
REMARK H PARENT 3 5 82 23 50 34 8 76 19 83
REMARK Flexibility Score: inf
ROOT
ATOM      1  C   UNL A   1      32.837  30.017  25.796  1.00  0.00     0.116 C 
ENDROOT
BRANCH   1   2
ATOM      2  N   UNL A   1      32.512  31.333  26.330  1.00  0.00    -0.352 N 
ATOM      3  O   UNL A   1      32.763  33.133  27.671  1.00  0.00    -0.269 OA
ATOM      4  C   UNL A   1      33.207  32.081  27.257  1.00  0.00     0.251 C 
ATOM      5  H   UNL A   1      31.686  31.743  25.983  1.00  0.00     0.163 HD
BRANCH   4   6
ATOM      6  C   UNL A   1      34.483  31.533  27.761  1.00  0.00     0.039 A 
ATOM      7  C   UNL A   1      34.564  30.188  28.131  1.00  0.00     0.014 A 
ATOM      8  C   UNL A   1      35.555  32.402  27.966  1.00  0.00     0.014 A 
ATOM      9  C   UNL A   1      35.659  29.750  28.862  1.00  0.00     0.010 A 
ATOM     10  C   UNL A   1      36.692  31.934  28.623  1.00  0.00     0.010 A 
ATOM     11  C   UNL A   1      36.734  30.618  29.114  1.00  0.00    -0.014 A 
BRANCH  11  12
ATOM     12  C   UNL A   1      37.921  30.127  29.850  1.00  0.00     0.031 A 
ATOM     13  C   UNL A   1      38.212  30.593  31.248  1.00  0.00     0.074 A 
ATOM     14  C   UNL A   1      38.756  29.278  29.222  1.00  0.00     0.049 A 
ATOM     15  N   UNL A   1      39.248  30.329  32.002  1.00  0.00    -0.248 NA
ATOM     16  C   UNL A   1      37.220  31.478  31.881  1.00  0.00     0.031 C 
ATOM     17  C   UNL A   1      38.578  28.785  27.854  1.00  0.00     0.029 A 
ATOM     18  N   UNL A   1      39.925  28.698  29.637  1.00  0.00    -0.354 N 
ATOM     19  C   UNL A   1      39.063  31.054  33.173  1.00  0.00     0.074 A 
ATOM     20  C   UNL A   1      37.811  31.766  33.034  1.00  0.00     0.031 C 
ATOM     21  C   UNL A   1      39.600  27.979  27.542  1.00  0.00     0.029 A 
ATOM     22  C   UNL A   1      40.533  27.946  28.661  1.00  0.00     0.049 A 
ATOM     23  H   UNL A   1      40.293  28.810  30.543  1.00  0.00     0.167 HD
ATOM     24  C   UNL A   1      39.862  31.109  34.265  1.00  0.00     0.034 A 
ATOM     25  C   UNL A   1      41.726  27.323  28.653  1.00  0.00     0.034 A 
ATOM     26  C   UNL A   1      41.082  30.360  34.406  1.00  0.00     0.049 A 
ATOM     27  C   UNL A   1      42.577  27.377  29.885  1.00  0.00     0.074 A 
ATOM     28  C   UNL A   1      41.931  30.294  35.497  1.00  0.00     0.029 A 
ATOM     29  N   UNL A   1      41.629  29.546  33.424  1.00  0.00    -0.354 N 
ATOM     30  N   UNL A   1      42.335  27.980  31.024  1.00  0.00    -0.248 NA
ATOM     31  C   UNL A   1      43.850  26.647  29.846  1.00  0.00     0.031 C 
ATOM     32  C   UNL A   1      42.998  29.450  35.168  1.00  0.00     0.029 A 
ATOM     33  C   UNL A   1      42.806  28.978  33.880  1.00  0.00     0.049 A 
ATOM     34  H   UNL A   1      41.238  29.396  32.534  1.00  0.00     0.167 HD
ATOM     35  C   UNL A   1      43.410  27.681  31.849  1.00  0.00     0.074 A 
ATOM     36  C   UNL A   1      44.298  26.829  31.083  1.00  0.00     0.031 C 
ATOM     37  C   UNL A   1      43.647  28.088  33.120  1.00  0.00     0.034 A 
BRANCH  24  38
ATOM     38  C   UNL A   1      39.425  31.983  35.411  1.00  0.00     0.023 A 
ATOM     39  C   UNL A   1      39.757  33.353  35.408  1.00  0.00     0.012 A 
ATOM     40  C   UNL A   1      38.641  31.468  36.461  1.00  0.00     0.148 A 
ATOM     41  C   UNL A   1      39.342  34.188  36.446  1.00  0.00     0.002 A 
ATOM     42  C   UNL A   1      38.199  32.313  37.474  1.00  0.00     0.091 A 
ATOM     43  F   UNL A   1      38.354  30.157  36.466  1.00  0.00    -0.205 F 
ATOM     44  C   UNL A   1      38.555  33.671  37.472  1.00  0.00     0.022 A 
BRANCH  42  45
ATOM     45  S   UNL A   1      37.123  31.740  38.794  1.00  0.00     0.127 S 
ATOM     46  O   UNL A   1      36.849  30.366  38.377  1.00  0.00    -0.237 OA
ATOM     47  O   UNL A   1      37.981  31.857  39.975  1.00  0.00    -0.237 OA
ATOM     48  O   UNL A   1      35.983  32.645  38.791  1.00  0.00    -0.744 OA
ENDBRANCH  42  45
ENDBRANCH  24  38
BRANCH  25  49
ATOM     49  C   UNL A   1      42.136  26.568  27.437  1.00  0.00     0.023 A 
ATOM     50  C   UNL A   1      42.880  27.222  26.438  1.00  0.00     0.012 A 
ATOM     51  C   UNL A   1      41.888  25.187  27.323  1.00  0.00     0.148 A 
ATOM     52  C   UNL A   1      43.366  26.511  25.340  1.00  0.00     0.002 A 
ATOM     53  C   UNL A   1      42.424  24.474  26.257  1.00  0.00     0.091 A 
ATOM     54  F   UNL A   1      41.168  24.588  28.283  1.00  0.00    -0.205 F 
ATOM     55  C   UNL A   1      43.151  25.137  25.257  1.00  0.00     0.022 A 
BRANCH  53  56
ATOM     56  S   UNL A   1      42.331  22.683  26.154  1.00  0.00     0.127 S 
ATOM     57  O   UNL A   1      40.888  22.458  26.162  1.00  0.00    -0.237 OA
ATOM     58  O   UNL A   1      42.989  22.419  24.874  1.00  0.00    -0.237 OA
ATOM     59  O   UNL A   1      43.057  22.184  27.315  1.00  0.00    -0.744 OA
ENDBRANCH  53  56
ENDBRANCH  25  49
BRANCH  37  60
ATOM     60  C   UNL A   1      44.904  27.594  33.783  1.00  0.00     0.023 A 
ATOM     61  C   UNL A   1      46.074  28.375  33.724  1.00  0.00     0.012 A 
ATOM     62  C   UNL A   1      44.897  26.404  34.535  1.00  0.00     0.148 A 
ATOM     63  C   UNL A   1      47.228  27.968  34.393  1.00  0.00     0.002 A 
ATOM     64  C   UNL A   1      46.039  26.026  35.232  1.00  0.00     0.091 A 
ATOM     65  F   UNL A   1      43.778  25.666  34.556  1.00  0.00    -0.205 F 
ATOM     66  C   UNL A   1      47.206  26.801  35.155  1.00  0.00     0.022 A 
BRANCH  64  67
ATOM     67  S   UNL A   1      46.071  24.588  36.309  1.00  0.00     0.127 S 
ATOM     68  O   UNL A   1      45.881  23.497  35.356  1.00  0.00    -0.237 OA
ATOM     69  O   UNL A   1      47.413  24.665  36.890  1.00  0.00    -0.237 OA
ATOM     70  O   UNL A   1      44.990  24.781  37.266  1.00  0.00    -0.744 OA
ENDBRANCH  64  67
ENDBRANCH  37  60
ENDBRANCH  11  12
ENDBRANCH   4   6
ENDBRANCH   1   2
BRANCH   1  71
ATOM     71  C   UNL A   1      31.648  29.069  25.738  1.00  0.00     0.023 C 
BRANCH  71  72
ATOM     72  C   UNL A   1      31.590  28.043  26.859  1.00  0.00     0.023 C 
BRANCH  72  73
ATOM     73  C   UNL A   1      32.251  26.709  26.540  1.00  0.00     0.116 C 
BRANCH  73  74
ATOM     74  N   UNL A   1      31.522  25.561  27.013  1.00  0.00    -0.351 N 
ATOM     75  C   UNL A   1      31.678  24.237  26.727  1.00  0.00     0.278 C 
ATOM     76  H   UNL A   1      30.795  25.764  27.644  1.00  0.00     0.163 HD
ATOM     77  O   UNL A   1      31.010  23.455  27.418  1.00  0.00    -0.268 OA
BRANCH  75  78
ATOM     78  C   UNL A   1      32.589  23.682  25.599  1.00  0.00     0.275 C 
ATOM     79  C   UNL A   1      33.746  22.804  26.081  1.00  0.00     0.085 C 
ATOM     80  N   UNL A   1      31.846  22.916  24.559  1.00  0.00    -0.320 N 
ATOM     81  C   UNL A   1      33.800  21.673  25.070  1.00  0.00     0.054 C 
ATOM     82  C   UNL A   1      32.361  21.539  24.581  1.00  0.00     0.188 C 
ATOM     83  H   UNL A   1      30.859  22.921  24.817  1.00  0.00     0.349 HD
ATOM     84  C   UNL A   1      34.313  20.341  25.603  1.00  0.00     0.010 C 
ATOM     85  C   UNL A   1      32.271  20.545  23.421  1.00  0.00     0.065 C 
ATOM     86  C   UNL A   1      34.195  19.261  24.523  1.00  0.00     0.001 C 
ATOM     87  C   UNL A   1      32.794  19.179  23.904  1.00  0.00     0.006 C 
BRANCH  80  88
ATOM     88  C   UNL A   1      31.643  23.534  23.235  1.00  0.00     0.186 C 
ATOM     89  C   UNL A   1      30.382  24.424  23.149  1.00  0.00     0.076 C 
ATOM     90  C   UNL A   1      32.862  24.181  22.542  1.00  0.00     0.076 C 
ATOM     91  C   UNL A   1      30.529  25.898  23.508  1.00  0.00     0.075 C 
ATOM     92  C   UNL A   1      33.199  25.613  22.917  1.00  0.00     0.075 C 
ATOM     93  S   UNL A   1      31.826  26.730  22.549  1.00  0.00    -0.162 SA
ENDBRANCH  80  88
ENDBRANCH  75  78
ENDBRANCH  73  74
ENDBRANCH  72  73
ENDBRANCH  71  72
ENDBRANCH   1  71
TORSDOF 15
ENDMDL
MODEL 3
REMARK VINA RESULT:     -12.0      2.008      7.972
REMARK SMILES O=C(NCCCCNC(=O)[C@H]1C[C@H]2CCCC[C@@H]2[N@@H+]1C1CCSCC1)c1ccc(-c2c3nc(c(-c4cccc(S(=O)(=O)[O-])c4F)c4ccc([nH]4)c(-c4cccc(S(=O)(=O)[O-])c4F)c4nc(c(-c5cccc(S(=O)(=O)[O-])c5F)c5ccc2[nH]5)C=C4)C=C3)cc1
REMARK SMILES IDX 4 1 3 2 1 3 2 4 26 6 27 7 88 8 28 9 87 10 29 11 30 12 31 13
REMARK SMILES IDX 81 14 32 15 86 16 80 17 82 18 33 19 85 20 79 21 78 22 34 24
REMARK SMILES IDX 66 25 46 26 65 27 47 28 50 29 64 30 83 31 48 32 49 33 63 35
REMARK SMILES IDX 84 36 51 37 35 38 36 39 44 40 37 41 39 42 45 43 38 44 40 45
REMARK SMILES IDX 41 46 42 47 43 48 67 49 68 50 76 51 69 52 71 53 77 54 70 55
REMARK SMILES IDX 72 56 73 57 74 58 75 59 52 60 53 61 61 62 54 63 56 64 62 65
REMARK SMILES IDX 55 66 57 67 58 68 59 69 60 70 5 71 6 72 7 73 8 74 9 75 10 77
REMARK SMILES IDX 11 78 12 79 19 80 13 81 18 82 14 84 17 85 15 86 16 87 20 88
REMARK SMILES IDX 21 89 25 90 22 91 24 92 23 93
REMARK H PARENT 3 5 82 23 50 34 8 76 19 83
REMARK Flexibility Score: inf
ROOT
ATOM      1  C   UNL A   1      32.876  32.385  27.263  1.00  0.00     0.116 C 
ENDROOT
BRANCH   1   2
ATOM      2  N   UNL A   1      32.577  33.776  27.576  1.00  0.00    -0.352 N 
ATOM      3  O   UNL A   1      32.752  35.715  28.722  1.00  0.00    -0.269 OA
ATOM      4  C   UNL A   1      33.170  34.593  28.516  1.00  0.00     0.251 C 
ATOM      5  H   UNL A   1      31.855  34.188  27.047  1.00  0.00     0.163 HD
BRANCH   4   6
ATOM      6  C   UNL A   1      34.298  34.038  29.292  1.00  0.00     0.039 A 
ATOM      7  C   UNL A   1      35.611  34.292  28.887  1.00  0.00     0.014 A 
ATOM      8  C   UNL A   1      34.026  33.173  30.351  1.00  0.00     0.014 A 
ATOM      9  C   UNL A   1      36.646  33.547  29.435  1.00  0.00     0.010 A 
ATOM     10  C   UNL A   1      35.080  32.493  30.960  1.00  0.00     0.010 A 
ATOM     11  C   UNL A   1      36.390  32.641  30.476  1.00  0.00    -0.014 A 
BRANCH  11  12
ATOM     12  C   UNL A   1      37.509  31.890  31.090  1.00  0.00     0.031 A 
ATOM     13  C   UNL A   1      37.975  32.200  32.485  1.00  0.00     0.074 A 
ATOM     14  C   UNL A   1      38.125  30.946  30.356  1.00  0.00     0.049 A 
ATOM     15  N   UNL A   1      38.989  31.699  33.141  1.00  0.00    -0.248 NA
ATOM     16  C   UNL A   1      37.212  33.209  33.240  1.00  0.00     0.031 C 
ATOM     17  C   UNL A   1      37.767  30.587  28.981  1.00  0.00     0.029 A 
ATOM     18  N   UNL A   1      39.188  30.133  30.647  1.00  0.00    -0.354 N 
ATOM     19  C   UNL A   1      39.022  32.365  34.360  1.00  0.00     0.074 A 
ATOM     20  C   UNL A   1      37.921  33.304  34.357  1.00  0.00     0.031 C 
ATOM     21  C   UNL A   1      38.595  29.629  28.548  1.00  0.00     0.029 A 
ATOM     22  C   UNL A   1      39.577  29.348  29.589  1.00  0.00     0.049 A 
ATOM     23  H   UNL A   1      39.630  30.114  31.527  1.00  0.00     0.167 HD
ATOM     24  C   UNL A   1      39.887  32.198  35.389  1.00  0.00     0.034 A 
ATOM     25  C   UNL A   1      40.627  28.518  29.455  1.00  0.00     0.034 A 
ATOM     26  C   UNL A   1      40.950  31.229  35.395  1.00  0.00     0.049 A 
ATOM     27  C   UNL A   1      41.552  28.331  30.619  1.00  0.00     0.074 A 
ATOM     28  C   UNL A   1      41.842  30.934  36.412  1.00  0.00     0.029 A 
ATOM     29  N   UNL A   1      41.267  30.396  34.332  1.00  0.00    -0.354 N 
ATOM     30  N   UNL A   1      41.504  28.890  31.804  1.00  0.00    -0.248 NA
ATOM     31  C   UNL A   1      42.659  27.382  30.442  1.00  0.00     0.031 C 
ATOM     32  C   UNL A   1      42.706  29.931  35.956  1.00  0.00     0.029 A 
ATOM     33  C   UNL A   1      42.342  29.590  34.663  1.00  0.00     0.049 A 
ATOM     34  H   UNL A   1      40.797  30.380  33.467  1.00  0.00     0.167 HD
ATOM     35  C   UNL A   1      42.555  28.343  32.526  1.00  0.00     0.074 A 
ATOM     36  C   UNL A   1      43.214  27.395  31.649  1.00  0.00     0.031 C 
ATOM     37  C   UNL A   1      42.948  28.613  33.795  1.00  0.00     0.034 A 
BRANCH  24  38
ATOM     38  C   UNL A   1      39.701  33.059  36.611  1.00  0.00     0.023 A 
ATOM     39  C   UNL A   1      40.304  34.332  36.664  1.00  0.00     0.012 A 
ATOM     40  C   UNL A   1      38.886  32.638  37.679  1.00  0.00     0.148 A 
ATOM     41  C   UNL A   1      40.124  35.158  37.774  1.00  0.00     0.002 A 
ATOM     42  C   UNL A   1      38.681  33.482  38.766  1.00  0.00     0.091 A 
ATOM     43  F   UNL A   1      38.339  31.414  37.627  1.00  0.00    -0.205 F 
ATOM     44  C   UNL A   1      39.306  34.737  38.819  1.00  0.00     0.022 A 
BRANCH  42  45
ATOM     45  S   UNL A   1      37.583  33.043  40.121  1.00  0.00     0.127 S 
ATOM     46  O   UNL A   1      36.326  32.802  39.415  1.00  0.00    -0.237 OA
ATOM     47  O   UNL A   1      38.217  31.840  40.664  1.00  0.00    -0.237 OA
ATOM     48  O   UNL A   1      37.598  34.186  41.022  1.00  0.00    -0.744 OA
ENDBRANCH  42  45
ENDBRANCH  24  38
BRANCH  25  49
ATOM     49  C   UNL A   1      40.805  27.784  28.172  1.00  0.00     0.023 A 
ATOM     50  C   UNL A   1      41.422  28.432  27.087  1.00  0.00     0.012 A 
ATOM     51  C   UNL A   1      40.470  26.420  28.064  1.00  0.00     0.148 A 
ATOM     52  C   UNL A   1      41.696  27.734  25.910  1.00  0.00     0.002 A 
ATOM     53  C   UNL A   1      40.798  25.717  26.911  1.00  0.00     0.091 A 
ATOM     54  F   UNL A   1      39.875  25.827  29.109  1.00  0.00    -0.205 F 
ATOM     55  C   UNL A   1      41.398  26.376  25.827  1.00  0.00     0.022 A 
BRANCH  53  56
ATOM     56  S   UNL A   1      40.595  23.937  26.780  1.00  0.00     0.127 S 
ATOM     57  O   UNL A   1      39.198  23.825  26.368  1.00  0.00    -0.237 OA
ATOM     58  O   UNL A   1      41.572  23.596  25.745  1.00  0.00    -0.237 OA
ATOM     59  O   UNL A   1      40.912  23.407  28.100  1.00  0.00    -0.744 OA
ENDBRANCH  53  56
ENDBRANCH  25  49
BRANCH  37  60
ATOM     60  C   UNL A   1      44.130  27.852  34.331  1.00  0.00     0.023 A 
ATOM     61  C   UNL A   1      45.423  28.395  34.206  1.00  0.00     0.012 A 
ATOM     62  C   UNL A   1      43.946  26.646  35.033  1.00  0.00     0.148 A 
ATOM     63  C   UNL A   1      46.521  27.738  34.760  1.00  0.00     0.002 A 
ATOM     64  C   UNL A   1      45.040  26.018  35.618  1.00  0.00     0.091 A 
ATOM     65  F   UNL A   1      42.709  26.136  35.118  1.00  0.00    -0.205 F 
ATOM     66  C   UNL A   1      46.328  26.558  35.475  1.00  0.00     0.022 A 
BRANCH  64  67
ATOM     67  S   UNL A   1      44.870  24.544  36.632  1.00  0.00     0.127 S 
ATOM     68  O   UNL A   1      46.240  24.348  37.102  1.00  0.00    -0.237 OA
ATOM     69  O   UNL A   1      43.927  24.982  37.662  1.00  0.00    -0.237 OA
ATOM     70  O   UNL A   1      44.356  23.508  35.748  1.00  0.00    -0.744 OA
ENDBRANCH  64  67
ENDBRANCH  37  60
ENDBRANCH  11  12
ENDBRANCH   4   6
ENDBRANCH   1   2
BRANCH   1  71
ATOM     71  C   UNL A   1      31.675  31.599  26.760  1.00  0.00     0.023 C 
BRANCH  71  72
ATOM     72  C   UNL A   1      31.991  30.206  26.240  1.00  0.00     0.023 C 
BRANCH  72  73
ATOM     73  C   UNL A   1      32.344  29.187  27.316  1.00  0.00     0.116 C 
BRANCH  73  74
ATOM     74  N   UNL A   1      31.527  28.000  27.296  1.00  0.00    -0.351 N 
ATOM     75  C   UNL A   1      31.653  26.854  26.570  1.00  0.00     0.278 C 
ATOM     76  H   UNL A   1      30.755  28.021  27.905  1.00  0.00     0.163 HD
ATOM     77  O   UNL A   1      30.892  25.929  26.888  1.00  0.00    -0.268 OA
BRANCH  75  78
ATOM     78  C   UNL A   1      32.640  26.666  25.386  1.00  0.00     0.275 C 
ATOM     79  C   UNL A   1      34.053  26.240  25.788  1.00  0.00     0.085 C 
ATOM     80  N   UNL A   1      32.155  25.704  24.357  1.00  0.00    -0.320 N 
ATOM     81  C   UNL A   1      34.443  25.212  24.741  1.00  0.00     0.054 C 
ATOM     82  C   UNL A   1      33.117  24.592  24.313  1.00  0.00     0.188 C 
ATOM     83  H   UNL A   1      31.243  25.362  24.658  1.00  0.00     0.349 HD
ATOM     84  C   UNL A   1      35.413  24.135  25.209  1.00  0.00     0.010 C 
ATOM     85  C   UNL A   1      33.316  23.645  23.128  1.00  0.00     0.065 C 
ATOM     86  C   UNL A   1      35.621  23.096  24.103  1.00  0.00     0.001 C 
ATOM     87  C   UNL A   1      34.305  22.540  23.545  1.00  0.00     0.006 C 
BRANCH  80  88
ATOM     88  C   UNL A   1      31.681  26.231  23.062  1.00  0.00     0.186 C 
ATOM     89  C   UNL A   1      30.174  26.574  23.043  1.00  0.00     0.076 C 
ATOM     90  C   UNL A   1      32.536  27.311  22.362  1.00  0.00     0.076 C 
ATOM     91  C   UNL A   1      29.764  27.983  23.454  1.00  0.00     0.075 C 
ATOM     92  C   UNL A   1      32.316  28.753  22.783  1.00  0.00     0.075 C 
ATOM     93  S   UNL A   1      30.608  29.271  22.494  1.00  0.00    -0.162 SA
ENDBRANCH  80  88
ENDBRANCH  75  78
ENDBRANCH  73  74
ENDBRANCH  72  73
ENDBRANCH  71  72
ENDBRANCH   1  71
TORSDOF 15
ENDMDL
