MODEL 1
REMARK VINA RESULT:     -10.6      0.000      0.000
REMARK SMILES CC(C)(Cn1ccnc1C(N)=S)C(=O)NCCCCNC(=O)c1ccc(-c2c3nc(c(-c4cccc(S(=O)(=O)[O-])c4F)c4ccc([nH]4)c(-c4cccc(S(=O)(=O)[O-])c4F)c4nc(c(-c5cccc(S(=O)(=O)[O-])c5F)c5ccc2[nH]5)C=C4)C=C3)cc1
REMARK SMILES IDX 17 1 16 2 15 3 13 4 14 5 2 7 1 8 3 9 4 10 5 11 6 12 9 13
REMARK SMILES IDX 7 14 8 15 10 16 12 17 11 18 18 21 19 22 20 23 21 24 22 26
REMARK SMILES IDX 23 27 24 28 85 29 25 30 84 31 26 32 27 33 28 34 78 35 29 36
REMARK SMILES IDX 83 37 77 38 79 39 30 40 82 41 76 42 75 43 31 45 63 46 43 47
REMARK SMILES IDX 62 48 44 49 47 50 61 51 80 52 45 53 46 54 60 56 81 57 48 58
REMARK SMILES IDX 32 59 33 60 41 61 34 62 36 63 42 64 35 65 37 66 38 67 39 68
REMARK SMILES IDX 40 69 64 70 65 71 73 72 66 73 68 74 74 75 67 76 69 77 70 78
REMARK SMILES IDX 71 79 72 80 49 81 50 82 58 83 51 84 53 85 59 86 52 87 54 88
REMARK SMILES IDX 55 89 56 90 57 91
REMARK H PARENT 15 6 11 19 11 20 20 25 79 44 47 55
REMARK Flexibility Score: inf
ROOT
ATOM      1  C   UNL A   1      34.120  31.078  27.555  1.00  0.00     0.023 C 
ENDROOT
BRANCH   1   2
ATOM      2  C   UNL A   1      33.915  29.638  27.077  1.00  0.00     0.116 C 
BRANCH   2   3
ATOM      3  N   UNL A   1      32.785  28.979  27.706  1.00  0.00    -0.356 N 
ATOM      4  C   UNL A   1      31.841  28.102  27.265  1.00  0.00     0.227 C 
ATOM      5  O   UNL A   1      30.990  27.771  28.095  1.00  0.00    -0.274 OA
ATOM      6  H   UNL A   1      32.678  29.218  28.656  1.00  0.00     0.163 HD
BRANCH   4   7
ATOM      7  C   UNL A   1      31.782  27.574  25.821  1.00  0.00     0.061 C 
ATOM      8  C   UNL A   1      31.348  28.720  24.869  1.00  0.00     0.023 C 
ATOM      9  C   UNL A   1      30.679  26.501  25.702  1.00  0.00     0.023 C 
BRANCH   7  10
ATOM     10  C   UNL A   1      33.150  27.022  25.349  1.00  0.00     0.140 C 
BRANCH  10  11
ATOM     11  N   UNL A   1      33.486  27.225  23.946  1.00  0.00    -0.328 N 
ATOM     12  C   UNL A   1      34.082  28.373  23.475  1.00  0.00     0.108 A 
ATOM     13  C   UNL A   1      33.304  26.385  22.854  1.00  0.00     0.167 A 
ATOM     14  C   UNL A   1      34.116  28.253  22.114  1.00  0.00     0.131 A 
ATOM     15  N   UNL A   1      33.644  27.033  21.739  1.00  0.00    -0.235 NA
BRANCH  13  16
ATOM     16  C   UNL A   1      32.827  25.016  22.715  1.00  0.00     0.140 C 
ATOM     17  S   UNL A   1      33.727  23.627  22.828  1.00  0.00    -0.057 S 
BRANCH  16  18
ATOM     18  N   UNL A   1      31.499  24.916  22.389  1.00  0.00    -0.387 N 
ATOM     19  H   UNL A   1      31.087  24.030  22.272  1.00  0.00     0.157 HD
ATOM     20  H   UNL A   1      30.958  25.730  22.271  1.00  0.00     0.157 HD
ENDBRANCH  16  18
ENDBRANCH  13  16
ENDBRANCH  10  11
ENDBRANCH   7  10
ENDBRANCH   4   7
ENDBRANCH   2   3
ENDBRANCH   1   2
BRANCH   1  21
ATOM     21  C   UNL A   1      32.856  31.932  27.705  1.00  0.00     0.023 C 
BRANCH  21  22
ATOM     22  C   UNL A   1      32.959  33.340  27.128  1.00  0.00     0.116 C 
BRANCH  22  23
ATOM     23  N   UNL A   1      32.549  34.364  28.085  1.00  0.00    -0.352 N 
ATOM     24  C   UNL A   1      33.106  34.666  29.310  1.00  0.00     0.251 C 
ATOM     25  H   UNL A   1      31.774  34.911  27.821  1.00  0.00     0.163 HD
ATOM     26  O   UNL A   1      32.464  35.299  30.140  1.00  0.00    -0.269 OA
BRANCH  24  27
ATOM     27  C   UNL A   1      34.472  34.206  29.618  1.00  0.00     0.039 A 
ATOM     28  C   UNL A   1      34.691  33.342  30.694  1.00  0.00     0.014 A 
ATOM     29  C   UNL A   1      35.532  34.622  28.813  1.00  0.00     0.014 A 
ATOM     30  C   UNL A   1      35.966  32.820  30.893  1.00  0.00     0.010 A 
ATOM     31  C   UNL A   1      36.773  34.037  28.955  1.00  0.00     0.010 A 
ATOM     32  C   UNL A   1      37.001  33.143  30.002  1.00  0.00    -0.014 A 
BRANCH  32  33
ATOM     33  C   UNL A   1      38.265  32.410  30.067  1.00  0.00     0.031 A 
ATOM     34  C   UNL A   1      38.234  31.039  29.478  1.00  0.00     0.074 A 
ATOM     35  C   UNL A   1      39.445  32.971  30.408  1.00  0.00     0.049 A 
ATOM     36  N   UNL A   1      38.435  29.914  30.082  1.00  0.00    -0.248 NA
ATOM     37  C   UNL A   1      37.821  30.894  28.074  1.00  0.00     0.031 C 
ATOM     38  C   UNL A   1      39.707  34.384  30.702  1.00  0.00     0.029 A 
ATOM     39  N   UNL A   1      40.694  32.421  30.406  1.00  0.00    -0.354 N 
ATOM     40  C   UNL A   1      38.395  28.933  29.090  1.00  0.00     0.074 A 
ATOM     41  C   UNL A   1      37.832  29.569  27.927  1.00  0.00     0.031 C 
ATOM     42  C   UNL A   1      41.031  34.623  30.585  1.00  0.00     0.029 A 
ATOM     43  C   UNL A   1      41.718  33.363  30.366  1.00  0.00     0.049 A 
ATOM     44  H   UNL A   1      40.855  31.450  30.431  1.00  0.00     0.167 HD
ATOM     45  C   UNL A   1      39.049  27.746  29.238  1.00  0.00     0.034 A 
ATOM     46  C   UNL A   1      43.030  33.137  30.119  1.00  0.00     0.034 A 
ATOM     47  C   UNL A   1      39.446  27.537  30.609  1.00  0.00     0.049 A 
ATOM     48  C   UNL A   1      43.291  31.706  30.383  1.00  0.00     0.074 A 
ATOM     49  C   UNL A   1      38.797  27.480  31.826  1.00  0.00     0.029 A 
ATOM     50  N   UNL A   1      40.779  27.692  30.898  1.00  0.00    -0.354 N 
ATOM     51  N   UNL A   1      43.271  31.176  31.574  1.00  0.00    -0.248 NA
ATOM     52  C   UNL A   1      43.217  30.764  29.279  1.00  0.00     0.031 C 
ATOM     53  C   UNL A   1      39.705  28.070  32.754  1.00  0.00     0.029 A 
ATOM     54  C   UNL A   1      40.871  28.402  32.063  1.00  0.00     0.049 A 
ATOM     55  H   UNL A   1      41.533  27.354  30.363  1.00  0.00     0.167 HD
ATOM     56  C   UNL A   1      42.714  29.922  31.380  1.00  0.00     0.074 A 
ATOM     57  C   UNL A   1      42.844  29.670  29.947  1.00  0.00     0.031 C 
ATOM     58  C   UNL A   1      41.929  29.347  32.340  1.00  0.00     0.034 A 
BRANCH  45  59
ATOM     59  C   UNL A   1      39.681  26.930  28.123  1.00  0.00     0.023 A 
ATOM     60  C   UNL A   1      39.344  25.555  28.068  1.00  0.00     0.012 A 
ATOM     61  C   UNL A   1      40.779  27.343  27.335  1.00  0.00     0.148 A 
ATOM     62  C   UNL A   1      40.116  24.630  27.356  1.00  0.00     0.002 A 
ATOM     63  C   UNL A   1      41.494  26.432  26.563  1.00  0.00     0.091 A 
ATOM     64  F   UNL A   1      41.234  28.594  27.415  1.00  0.00    -0.205 F 
ATOM     65  C   UNL A   1      41.194  25.068  26.601  1.00  0.00     0.022 A 
BRANCH  63  66
ATOM     66  S   UNL A   1      42.860  26.954  25.518  1.00  0.00     0.127 S 
ATOM     67  O   UNL A   1      43.241  25.695  24.884  1.00  0.00    -0.237 OA
ATOM     68  O   UNL A   1      42.210  27.923  24.635  1.00  0.00    -0.237 OA
ATOM     69  O   UNL A   1      43.841  27.539  26.423  1.00  0.00    -0.744 OA
ENDBRANCH  63  66
ENDBRANCH  45  59
BRANCH  46  70
ATOM     70  C   UNL A   1      44.066  34.027  29.546  1.00  0.00     0.023 A 
ATOM     71  C   UNL A   1      44.863  34.809  30.404  1.00  0.00     0.012 A 
ATOM     72  C   UNL A   1      44.450  33.923  28.191  1.00  0.00     0.148 A 
ATOM     73  C   UNL A   1      46.023  35.438  29.939  1.00  0.00     0.002 A 
ATOM     74  C   UNL A   1      45.597  34.563  27.729  1.00  0.00     0.091 A 
ATOM     75  F   UNL A   1      43.747  33.125  27.376  1.00  0.00    -0.205 F 
ATOM     76  C   UNL A   1      46.394  35.311  28.605  1.00  0.00     0.022 A 
BRANCH  74  77
ATOM     77  S   UNL A   1      46.136  34.429  26.019  1.00  0.00     0.127 S 
ATOM     78  O   UNL A   1      47.151  35.480  25.933  1.00  0.00    -0.237 OA
ATOM     79  O   UNL A   1      46.660  33.066  25.975  1.00  0.00    -0.237 OA
ATOM     80  O   UNL A   1      44.949  34.682  25.214  1.00  0.00    -0.744 OA
ENDBRANCH  74  77
ENDBRANCH  46  70
BRANCH  58  81
ATOM     81  C   UNL A   1      41.946  29.937  33.729  1.00  0.00     0.023 A 
ATOM     82  C   UNL A   1      42.911  29.574  34.691  1.00  0.00     0.012 A 
ATOM     83  C   UNL A   1      41.079  31.007  34.010  1.00  0.00     0.148 A 
ATOM     84  C   UNL A   1      42.988  30.239  35.917  1.00  0.00     0.002 A 
ATOM     85  C   UNL A   1      41.195  31.702  35.208  1.00  0.00     0.091 A 
ATOM     86  F   UNL A   1      40.165  31.345  33.088  1.00  0.00    -0.205 F 
ATOM     87  C   UNL A   1      42.140  31.314  36.169  1.00  0.00     0.022 A 
BRANCH  85  88
ATOM     88  S   UNL A   1      40.227  33.182  35.519  1.00  0.00     0.127 S 
ATOM     89  O   UNL A   1      38.870  32.648  35.605  1.00  0.00    -0.237 OA
ATOM     90  O   UNL A   1      40.777  33.662  36.789  1.00  0.00    -0.237 OA
ATOM     91  O   UNL A   1      40.489  34.067  34.391  1.00  0.00    -0.744 OA
ENDBRANCH  85  88
ENDBRANCH  58  81
ENDBRANCH  32  33
ENDBRANCH  24  27
ENDBRANCH  22  23
ENDBRANCH  21  22
ENDBRANCH   1  21
TORSDOF 18
ENDMDL
MODEL 2
REMARK VINA RESULT:     -10.3      3.953      7.706
REMARK SMILES CC(C)(Cn1ccnc1C(N)=S)C(=O)NCCCCNC(=O)c1ccc(-c2c3nc(c(-c4cccc(S(=O)(=O)[O-])c4F)c4ccc([nH]4)c(-c4cccc(S(=O)(=O)[O-])c4F)c4nc(c(-c5cccc(S(=O)(=O)[O-])c5F)c5ccc2[nH]5)C=C4)C=C3)cc1
REMARK SMILES IDX 17 1 16 2 15 3 13 4 14 5 2 7 1 8 3 9 4 10 5 11 6 12 9 13
REMARK SMILES IDX 7 14 8 15 10 16 12 17 11 18 18 21 19 22 20 23 21 24 22 26
REMARK SMILES IDX 23 27 24 28 85 29 25 30 84 31 26 32 27 33 28 34 78 35 29 36
REMARK SMILES IDX 83 37 77 38 79 39 30 40 82 41 76 42 75 43 31 45 63 46 43 47
REMARK SMILES IDX 62 48 44 49 47 50 61 51 80 52 45 53 46 54 60 56 81 57 48 58
REMARK SMILES IDX 32 59 33 60 41 61 34 62 36 63 42 64 35 65 37 66 38 67 39 68
REMARK SMILES IDX 40 69 64 70 65 71 73 72 66 73 68 74 74 75 67 76 69 77 70 78
REMARK SMILES IDX 71 79 72 80 49 81 50 82 58 83 51 84 53 85 59 86 52 87 54 88
REMARK SMILES IDX 55 89 56 90 57 91
REMARK H PARENT 15 6 11 19 11 20 20 25 79 44 47 55
REMARK Flexibility Score: inf
ROOT
ATOM      1  C   UNL A   1      35.016  29.826  27.379  1.00  0.00     0.023 C 
ENDROOT
BRANCH   1   2
ATOM      2  C   UNL A   1      34.280  28.757  26.566  1.00  0.00     0.116 C 
BRANCH   2   3
ATOM      3  N   UNL A   1      34.042  29.146  25.188  1.00  0.00    -0.356 N 
ATOM      4  C   UNL A   1      33.178  28.719  24.225  1.00  0.00     0.227 C 
ATOM      5  O   UNL A   1      33.285  29.274  23.128  1.00  0.00    -0.274 OA
ATOM      6  H   UNL A   1      34.632  29.873  24.884  1.00  0.00     0.163 HD
BRANCH   4   7
ATOM      7  C   UNL A   1      32.154  27.591  24.442  1.00  0.00     0.061 C 
ATOM      8  C   UNL A   1      31.211  27.968  25.614  1.00  0.00     0.023 C 
ATOM      9  C   UNL A   1      32.880  26.307  24.893  1.00  0.00     0.023 C 
BRANCH   7  10
ATOM     10  C   UNL A   1      31.301  27.334  23.175  1.00  0.00     0.140 C 
BRANCH  10  11
ATOM     11  N   UNL A   1      29.872  27.601  23.285  1.00  0.00    -0.328 N 
ATOM     12  C   UNL A   1      28.972  26.681  23.773  1.00  0.00     0.108 A 
ATOM     13  C   UNL A   1      29.151  28.742  22.957  1.00  0.00     0.167 A 
ATOM     14  C   UNL A   1      27.734  27.232  23.601  1.00  0.00     0.131 A 
ATOM     15  N   UNL A   1      27.848  28.496  23.106  1.00  0.00    -0.235 NA
BRANCH  13  16
ATOM     16  C   UNL A   1      29.533  30.069  22.498  1.00  0.00     0.140 C 
ATOM     17  S   UNL A   1      28.780  31.505  22.851  1.00  0.00    -0.057 S 
BRANCH  16  18
ATOM     18  N   UNL A   1      30.593  30.077  21.629  1.00  0.00    -0.387 N 
ATOM     19  H   UNL A   1      30.933  29.230  21.260  1.00  0.00     0.157 HD
ATOM     20  H   UNL A   1      31.015  30.929  21.374  1.00  0.00     0.157 HD
ENDBRANCH  16  18
ENDBRANCH  13  16
ENDBRANCH  10  11
ENDBRANCH   7  10
ENDBRANCH   4   7
ENDBRANCH   2   3
ENDBRANCH   1   2
BRANCH   1  21
ATOM     21  C   UNL A   1      34.257  31.135  27.626  1.00  0.00     0.023 C 
BRANCH  21  22
ATOM     22  C   UNL A   1      35.134  32.326  27.999  1.00  0.00     0.116 C 
BRANCH  22  23
ATOM     23  N   UNL A   1      35.061  32.647  29.421  1.00  0.00    -0.352 N 
ATOM     24  C   UNL A   1      35.764  32.084  30.465  1.00  0.00     0.251 C 
ATOM     25  H   UNL A   1      34.427  33.359  29.667  1.00  0.00     0.163 HD
ATOM     26  O   UNL A   1      35.361  32.204  31.616  1.00  0.00    -0.269 OA
BRANCH  24  27
ATOM     27  C   UNL A   1      36.994  31.321  30.183  1.00  0.00     0.039 A 
ATOM     28  C   UNL A   1      38.215  31.988  30.059  1.00  0.00     0.014 A 
ATOM     29  C   UNL A   1      36.926  29.933  30.066  1.00  0.00     0.014 A 
ATOM     30  C   UNL A   1      39.381  31.242  29.917  1.00  0.00     0.010 A 
ATOM     31  C   UNL A   1      38.087  29.191  30.014  1.00  0.00     0.010 A 
ATOM     32  C   UNL A   1      39.320  29.840  29.928  1.00  0.00    -0.014 A 
BRANCH  32  33
ATOM     33  C   UNL A   1      40.556  29.063  30.024  1.00  0.00     0.031 A 
ATOM     34  C   UNL A   1      40.982  28.720  31.412  1.00  0.00     0.074 A 
ATOM     35  C   UNL A   1      41.166  28.484  28.967  1.00  0.00     0.049 A 
ATOM     36  N   UNL A   1      42.065  29.080  32.018  1.00  0.00    -0.248 NA
ATOM     37  C   UNL A   1      40.041  27.980  32.266  1.00  0.00     0.031 C 
ATOM     38  C   UNL A   1      40.700  28.452  27.578  1.00  0.00     0.029 A 
ATOM     39  N   UNL A   1      42.254  27.660  28.946  1.00  0.00    -0.354 N 
ATOM     40  C   UNL A   1      42.049  28.428  33.253  1.00  0.00     0.074 A 
ATOM     41  C   UNL A   1      40.709  27.930  33.419  1.00  0.00     0.031 C 
ATOM     42  C   UNL A   1      41.331  27.455  26.921  1.00  0.00     0.029 A 
ATOM     43  C   UNL A   1      42.346  26.889  27.791  1.00  0.00     0.049 A 
ATOM     44  H   UNL A   1      42.911  27.615  29.678  1.00  0.00     0.167 HD
ATOM     45  C   UNL A   1      43.202  28.150  33.924  1.00  0.00     0.034 A 
ATOM     46  C   UNL A   1      43.159  25.827  27.577  1.00  0.00     0.034 A 
ATOM     47  C   UNL A   1      44.314  28.893  33.383  1.00  0.00     0.049 A 
ATOM     48  C   UNL A   1      44.266  25.912  28.553  1.00  0.00     0.074 A 
ATOM     49  C   UNL A   1      44.602  30.228  33.179  1.00  0.00     0.029 A 
ATOM     50  N   UNL A   1      45.219  28.191  32.626  1.00  0.00    -0.354 N 
ATOM     51  N   UNL A   1      45.198  26.823  28.511  1.00  0.00    -0.248 NA
ATOM     52  C   UNL A   1      44.145  25.200  29.814  1.00  0.00     0.031 C 
ATOM     53  C   UNL A   1      45.345  30.261  31.963  1.00  0.00     0.029 A 
ATOM     54  C   UNL A   1      45.512  28.947  31.525  1.00  0.00     0.049 A 
ATOM     55  H   UNL A   1      45.588  27.303  32.837  1.00  0.00     0.167 HD
ATOM     56  C   UNL A   1      45.444  27.120  29.842  1.00  0.00     0.074 A 
ATOM     57  C   UNL A   1      44.887  25.995  30.589  1.00  0.00     0.031 C 
ATOM     58  C   UNL A   1      45.797  28.384  30.224  1.00  0.00     0.034 A 
BRANCH  45  59
ATOM     59  C   UNL A   1      43.447  26.943  34.816  1.00  0.00     0.023 A 
ATOM     60  C   UNL A   1      43.654  27.199  36.194  1.00  0.00     0.012 A 
ATOM     61  C   UNL A   1      43.774  25.648  34.358  1.00  0.00     0.148 A 
ATOM     62  C   UNL A   1      44.249  26.258  37.042  1.00  0.00     0.002 A 
ATOM     63  C   UNL A   1      44.288  24.687  35.224  1.00  0.00     0.091 A 
ATOM     64  F   UNL A   1      43.716  25.357  33.058  1.00  0.00    -0.205 F 
ATOM     65  C   UNL A   1      44.566  24.998  36.557  1.00  0.00     0.022 A 
BRANCH  63  66
ATOM     66  S   UNL A   1      44.659  23.019  34.665  1.00  0.00     0.127 S 
ATOM     67  O   UNL A   1      45.864  23.239  33.869  1.00  0.00    -0.237 OA
ATOM     68  O   UNL A   1      44.870  22.317  35.931  1.00  0.00    -0.237 OA
ATOM     69  O   UNL A   1      43.477  22.582  33.932  1.00  0.00    -0.744 OA
ENDBRANCH  63  66
ENDBRANCH  45  59
BRANCH  46  70
ATOM     70  C   UNL A   1      42.997  24.660  26.680  1.00  0.00     0.023 A 
ATOM     71  C   UNL A   1      43.994  24.372  25.727  1.00  0.00     0.012 A 
ATOM     72  C   UNL A   1      42.006  23.684  26.921  1.00  0.00     0.148 A 
ATOM     73  C   UNL A   1      44.025  23.141  25.062  1.00  0.00     0.002 A 
ATOM     74  C   UNL A   1      42.032  22.466  26.246  1.00  0.00     0.091 A 
ATOM     75  F   UNL A   1      41.093  23.908  27.876  1.00  0.00    -0.205 F 
ATOM     76  C   UNL A   1      43.049  22.186  25.325  1.00  0.00     0.022 A 
BRANCH  74  77
ATOM     77  S   UNL A   1      40.806  21.186  26.549  1.00  0.00     0.127 S 
ATOM     78  O   UNL A   1      39.591  21.787  25.997  1.00  0.00    -0.237 OA
ATOM     79  O   UNL A   1      41.341  20.068  25.778  1.00  0.00    -0.237 OA
ATOM     80  O   UNL A   1      40.776  21.008  27.995  1.00  0.00    -0.744 OA
ENDBRANCH  74  77
ENDBRANCH  46  70
BRANCH  58  81
ATOM     81  C   UNL A   1      46.234  29.361  29.160  1.00  0.00     0.023 A 
ATOM     82  C   UNL A   1      47.548  29.381  28.649  1.00  0.00     0.012 A 
ATOM     83  C   UNL A   1      45.254  30.153  28.539  1.00  0.00     0.148 A 
ATOM     84  C   UNL A   1      47.885  30.198  27.567  1.00  0.00     0.002 A 
ATOM     85  C   UNL A   1      45.579  30.921  27.427  1.00  0.00     0.091 A 
ATOM     86  F   UNL A   1      44.005  30.125  29.031  1.00  0.00    -0.205 F 
ATOM     87  C   UNL A   1      46.896  30.957  26.946  1.00  0.00     0.022 A 
BRANCH  85  88
ATOM     88  S   UNL A   1      44.315  31.801  26.505  1.00  0.00     0.127 S 
ATOM     89  O   UNL A   1      45.071  32.325  25.370  1.00  0.00    -0.237 OA
ATOM     90  O   UNL A   1      43.367  30.737  26.169  1.00  0.00    -0.237 OA
ATOM     91  O   UNL A   1      43.780  32.799  27.423  1.00  0.00    -0.744 OA
ENDBRANCH  85  88
ENDBRANCH  58  81
ENDBRANCH  32  33
ENDBRANCH  24  27
ENDBRANCH  22  23
ENDBRANCH  21  22
ENDBRANCH   1  21
TORSDOF 18
ENDMDL
MODEL 3
REMARK VINA RESULT:     -10.0      3.532      7.650
REMARK SMILES CC(C)(Cn1ccnc1C(N)=S)C(=O)NCCCCNC(=O)c1ccc(-c2c3nc(c(-c4cccc(S(=O)(=O)[O-])c4F)c4ccc([nH]4)c(-c4cccc(S(=O)(=O)[O-])c4F)c4nc(c(-c5cccc(S(=O)(=O)[O-])c5F)c5ccc2[nH]5)C=C4)C=C3)cc1
REMARK SMILES IDX 17 1 16 2 15 3 13 4 14 5 2 7 1 8 3 9 4 10 5 11 6 12 9 13
REMARK SMILES IDX 7 14 8 15 10 16 12 17 11 18 18 21 19 22 20 23 21 24 22 26
REMARK SMILES IDX 23 27 24 28 85 29 25 30 84 31 26 32 27 33 28 34 78 35 29 36
REMARK SMILES IDX 83 37 77 38 79 39 30 40 82 41 76 42 75 43 31 45 63 46 43 47
REMARK SMILES IDX 62 48 44 49 47 50 61 51 80 52 45 53 46 54 60 56 81 57 48 58
REMARK SMILES IDX 32 59 33 60 41 61 34 62 36 63 42 64 35 65 37 66 38 67 39 68
REMARK SMILES IDX 40 69 64 70 65 71 73 72 66 73 68 74 74 75 67 76 69 77 70 78
REMARK SMILES IDX 71 79 72 80 49 81 50 82 58 83 51 84 53 85 59 86 52 87 54 88
REMARK SMILES IDX 55 89 56 90 57 91
REMARK H PARENT 15 6 11 19 11 20 20 25 79 44 47 55
REMARK Flexibility Score: inf
ROOT
ATOM      1  C   UNL A   1      32.188  31.123  26.620  1.00  0.00     0.023 C 
ENDROOT
BRANCH   1   2
ATOM      2  C   UNL A   1      31.750  29.923  25.775  1.00  0.00     0.116 C 
BRANCH   2   3
ATOM      3  N   UNL A   1      32.579  29.714  24.602  1.00  0.00    -0.356 N 
ATOM      4  C   UNL A   1      33.195  28.624  24.066  1.00  0.00     0.227 C 
ATOM      5  O   UNL A   1      33.862  28.833  23.049  1.00  0.00    -0.274 OA
ATOM      6  H   UNL A   1      32.727  30.537  24.081  1.00  0.00     0.163 HD
BRANCH   4   7
ATOM      7  C   UNL A   1      33.125  27.218  24.688  1.00  0.00     0.061 C 
ATOM      8  C   UNL A   1      33.790  27.239  26.089  1.00  0.00     0.023 C 
ATOM      9  C   UNL A   1      33.965  26.233  23.848  1.00  0.00     0.023 C 
BRANCH   7  10
ATOM     10  C   UNL A   1      31.665  26.722  24.834  1.00  0.00     0.140 C 
BRANCH  10  11
ATOM     11  N   UNL A   1      31.391  25.361  24.387  1.00  0.00    -0.328 N 
ATOM     12  C   UNL A   1      30.803  25.074  23.176  1.00  0.00     0.108 A 
ATOM     13  C   UNL A   1      31.636  24.149  25.018  1.00  0.00     0.167 A 
ATOM     14  C   UNL A   1      30.589  23.724  23.169  1.00  0.00     0.131 A 
ATOM     15  N   UNL A   1      31.104  23.162  24.296  1.00  0.00    -0.235 NA
BRANCH  13  16
ATOM     16  C   UNL A   1      32.315  23.785  26.254  1.00  0.00     0.140 C 
ATOM     17  S   UNL A   1      33.917  23.392  26.437  1.00  0.00    -0.057 S 
BRANCH  16  18
ATOM     18  N   UNL A   1      31.489  23.705  27.345  1.00  0.00    -0.387 N 
ATOM     19  H   UNL A   1      31.806  23.276  28.172  1.00  0.00     0.157 HD
ATOM     20  H   UNL A   1      30.578  24.077  27.302  1.00  0.00     0.157 HD
ENDBRANCH  16  18
ENDBRANCH  13  16
ENDBRANCH  10  11
ENDBRANCH   7  10
ENDBRANCH   4   7
ENDBRANCH   2   3
ENDBRANCH   1   2
BRANCH   1  21
ATOM     21  C   UNL A   1      33.356  30.888  27.584  1.00  0.00     0.023 C 
BRANCH  21  22
ATOM     22  C   UNL A   1      34.238  32.105  27.835  1.00  0.00     0.116 C 
BRANCH  22  23
ATOM     23  N   UNL A   1      34.233  32.518  29.235  1.00  0.00    -0.352 N 
ATOM     24  C   UNL A   1      35.050  32.087  30.260  1.00  0.00     0.251 C 
ATOM     25  H   UNL A   1      33.558  33.192  29.480  1.00  0.00     0.163 HD
ATOM     26  O   UNL A   1      34.716  32.255  31.427  1.00  0.00    -0.269 OA
BRANCH  24  27
ATOM     27  C   UNL A   1      36.319  31.409  29.938  1.00  0.00     0.039 A 
ATOM     28  C   UNL A   1      37.472  32.162  29.705  1.00  0.00     0.014 A 
ATOM     29  C   UNL A   1      36.357  30.016  29.893  1.00  0.00     0.014 A 
ATOM     30  C   UNL A   1      38.685  31.503  29.527  1.00  0.00     0.010 A 
ATOM     31  C   UNL A   1      37.570  29.365  29.806  1.00  0.00     0.010 A 
ATOM     32  C   UNL A   1      38.739  30.103  29.611  1.00  0.00    -0.014 A 
BRANCH  32  33
ATOM     33  C   UNL A   1      40.038  29.432  29.667  1.00  0.00     0.031 A 
ATOM     34  C   UNL A   1      40.585  29.225  31.039  1.00  0.00     0.074 A 
ATOM     35  C   UNL A   1      40.618  28.824  28.609  1.00  0.00     0.049 A 
ATOM     36  N   UNL A   1      41.675  29.711  31.537  1.00  0.00    -0.248 NA
ATOM     37  C   UNL A   1      39.768  28.481  32.009  1.00  0.00     0.031 C 
ATOM     38  C   UNL A   1      40.061  28.653  27.264  1.00  0.00     0.029 A 
ATOM     39  N   UNL A   1      41.765  28.085  28.563  1.00  0.00    -0.354 N 
ATOM     40  C   UNL A   1      41.797  29.152  32.811  1.00  0.00     0.074 A 
ATOM     41  C   UNL A   1      40.516  28.567  33.111  1.00  0.00     0.031 C 
ATOM     42  C   UNL A   1      40.724  27.662  26.632  1.00  0.00     0.029 A 
ATOM     43  C   UNL A   1      41.839  27.240  27.460  1.00  0.00     0.049 A 
ATOM     44  H   UNL A   1      42.473  28.145  29.245  1.00  0.00     0.167 HD
ATOM     45  C   UNL A   1      43.013  29.013  33.411  1.00  0.00     0.034 A 
ATOM     46  C   UNL A   1      42.719  26.230  27.259  1.00  0.00     0.034 A 
ATOM     47  C   UNL A   1      44.020  29.796  32.739  1.00  0.00     0.049 A 
ATOM     48  C   UNL A   1      43.880  26.471  28.141  1.00  0.00     0.074 A 
ATOM     49  C   UNL A   1      44.184  31.130  32.424  1.00  0.00     0.029 A 
ATOM     50  N   UNL A   1      44.924  29.111  31.966  1.00  0.00    -0.354 N 
ATOM     51  N   UNL A   1      44.730  27.444  27.967  1.00  0.00    -0.248 NA
ATOM     52  C   UNL A   1      43.905  25.847  29.453  1.00  0.00     0.031 C 
ATOM     53  C   UNL A   1      44.836  31.130  31.155  1.00  0.00     0.029 A 
ATOM     54  C   UNL A   1      45.079  29.803  30.798  1.00  0.00     0.049 A 
ATOM     55  H   UNL A   1      45.378  28.272  32.209  1.00  0.00     0.167 HD
ATOM     56  C   UNL A   1      45.043  27.857  29.253  1.00  0.00     0.074 A 
ATOM     57  C   UNL A   1      44.631  26.752  30.114  1.00  0.00     0.031 C 
ATOM     58  C   UNL A   1      45.318  29.169  29.520  1.00  0.00     0.034 A 
BRANCH  45  59
ATOM     59  C   UNL A   1      43.415  27.898  34.362  1.00  0.00     0.023 A 
ATOM     60  C   UNL A   1      43.988  28.288  35.598  1.00  0.00     0.012 A 
ATOM     61  C   UNL A   1      43.541  26.535  34.011  1.00  0.00     0.148 A 
ATOM     62  C   UNL A   1      44.731  27.400  36.385  1.00  0.00     0.002 A 
ATOM     63  C   UNL A   1      44.210  25.637  34.837  1.00  0.00     0.091 A 
ATOM     64  F   UNL A   1      43.131  26.106  32.816  1.00  0.00    -0.205 F 
ATOM     65  C   UNL A   1      44.842  26.071  36.004  1.00  0.00     0.022 A 
BRANCH  63  66
ATOM     66  S   UNL A   1      44.332  23.892  34.425  1.00  0.00     0.127 S 
ATOM     67  O   UNL A   1      45.121  23.936  33.198  1.00  0.00    -0.237 OA
ATOM     68  O   UNL A   1      45.031  23.355  35.594  1.00  0.00    -0.237 OA
ATOM     69  O   UNL A   1      42.957  23.427  34.289  1.00  0.00    -0.744 OA
ENDBRANCH  63  66
ENDBRANCH  45  59
BRANCH  46  70
ATOM     70  C   UNL A   1      42.590  24.991  26.458  1.00  0.00     0.023 A 
ATOM     71  C   UNL A   1      43.523  24.724  25.436  1.00  0.00     0.012 A 
ATOM     72  C   UNL A   1      41.721  23.952  26.854  1.00  0.00     0.148 A 
ATOM     73  C   UNL A   1      43.612  23.455  24.852  1.00  0.00     0.002 A 
ATOM     74  C   UNL A   1      41.803  22.694  26.259  1.00  0.00     0.091 A 
ATOM     75  F   UNL A   1      40.878  24.162  27.873  1.00  0.00    -0.205 F 
ATOM     76  C   UNL A   1      42.758  22.439  25.267  1.00  0.00     0.022 A 
BRANCH  74  77
ATOM     77  S   UNL A   1      40.735  21.337  26.758  1.00  0.00     0.127 S 
ATOM     78  O   UNL A   1      39.431  21.772  26.257  1.00  0.00    -0.237 OA
ATOM     79  O   UNL A   1      41.324  20.211  26.039  1.00  0.00    -0.237 OA
ATOM     80  O   UNL A   1      40.825  21.282  28.212  1.00  0.00    -0.744 OA
ENDBRANCH  74  77
ENDBRANCH  46  70
BRANCH  58  81
ATOM     81  C   UNL A   1      45.600  30.095  28.362  1.00  0.00     0.023 A 
ATOM     82  C   UNL A   1      44.570  30.713  27.624  1.00  0.00     0.012 A 
ATOM     83  C   UNL A   1      46.929  30.486  28.129  1.00  0.00     0.148 A 
ATOM     84  C   UNL A   1      44.861  31.674  26.652  1.00  0.00     0.002 A 
ATOM     85  C   UNL A   1      47.210  31.481  27.201  1.00  0.00     0.091 A 
ATOM     86  F   UNL A   1      47.902  29.892  28.838  1.00  0.00    -0.205 F 
ATOM     87  C   UNL A   1      46.181  32.069  26.451  1.00  0.00     0.022 A 
BRANCH  85  88
ATOM     88  S   UNL A   1      48.874  32.128  27.009  1.00  0.00     0.127 S 
ATOM     89  O   UNL A   1      48.700  33.112  25.944  1.00  0.00    -0.237 OA
ATOM     90  O   UNL A   1      49.148  32.699  28.330  1.00  0.00    -0.237 OA
ATOM     91  O   UNL A   1      49.707  30.978  26.679  1.00  0.00    -0.744 OA
ENDBRANCH  85  88
ENDBRANCH  58  81
ENDBRANCH  32  33
ENDBRANCH  24  27
ENDBRANCH  22  23
ENDBRANCH  21  22
ENDBRANCH   1  21
TORSDOF 18
ENDMDL
