MODEL 1
REMARK VINA RESULT:     -10.9      0.000      0.000
REMARK SMILES C=CCCC[C@@]1(C(=O)NCCCCNC(=O)c2ccc(-c3c4nc(c(-c5cccc(S(=O)(=O)[O-])c5F)c5ccc([nH]5)c(-c5cccc(S(=O)(=O)[O-])c5F)c5nc(c(-c6cccc(S(=O)(=O)[O-])c6F)c6ccc3[nH]6)C=C5)C=C4)cc2)CCCN(C(=O)OC(C)(C)C)C1
REMARK SMILES IDX 11 1 10 2 9 3 7 4 8 5 6 7 80 8 91 9 81 10 83 11 82 12 5 13
REMARK SMILES IDX 4 14 3 15 2 16 1 17 84 18 85 19 86 20 87 21 88 22 89 23
REMARK SMILES IDX 90 24 12 25 13 26 14 27 15 28 16 30 17 31 18 32 79 33 19 34
REMARK SMILES IDX 78 35 20 36 21 37 22 38 72 39 23 40 77 41 71 42 73 43 24 44
REMARK SMILES IDX 76 45 70 46 69 47 25 49 57 50 37 51 56 52 38 53 41 54 55 55
REMARK SMILES IDX 74 56 39 57 40 58 54 60 75 61 42 62 26 63 27 64 35 65 28 66
REMARK SMILES IDX 30 67 36 68 29 69 31 70 32 71 33 72 34 73 58 74 59 75 67 76
REMARK SMILES IDX 60 77 62 78 68 79 61 80 63 81 64 82 65 83 66 84 43 85 44 86
REMARK SMILES IDX 52 87 45 88 47 89 53 90 46 91 48 92 49 93 50 94 51 95
REMARK H PARENT 9 6 14 29 73 48 41 59
REMARK Flexibility Score: inf
ROOT
ATOM      1  C   UNL A   1      31.780  30.387  26.688  1.00  0.00     0.023 C 
ENDROOT
BRANCH   1   2
ATOM      2  C   UNL A   1      31.516  29.764  25.331  1.00  0.00     0.116 C 
BRANCH   2   3
ATOM      3  N   UNL A   1      32.607  29.002  24.782  1.00  0.00    -0.356 N 
ATOM      4  C   UNL A   1      32.597  27.955  23.916  1.00  0.00     0.228 C 
ATOM      5  O   UNL A   1      33.705  27.651  23.455  1.00  0.00    -0.274 OA
ATOM      6  H   UNL A   1      33.502  29.284  25.081  1.00  0.00     0.163 HD
BRANCH   4   7
ATOM      7  C   UNL A   1      31.361  27.042  23.649  1.00  0.00     0.067 C 
ATOM      8  C   UNL A   1      30.755  26.691  25.047  1.00  0.00     0.020 C 
ATOM      9  C   UNL A   1      31.584  25.648  23.000  1.00  0.00     0.140 C 
ATOM     10  C   UNL A   1      31.677  25.762  25.866  1.00  0.00     0.023 C 
ATOM     11  N   UNL A   1      32.503  24.809  23.752  1.00  0.00    -0.307 N 
ATOM     12  C   UNL A   1      32.087  24.500  25.110  1.00  0.00     0.123 C 
BRANCH   7  13
ATOM     13  C   UNL A   1      30.444  27.887  22.694  1.00  0.00     0.019 C 
BRANCH  13  14
ATOM     14  C   UNL A   1      29.024  28.279  23.127  1.00  0.00     0.005 C 
BRANCH  14  15
ATOM     15  C   UNL A   1      28.376  29.496  22.453  1.00  0.00     0.027 C 
BRANCH  15  16
ATOM     16  C   UNL A   1      28.621  30.810  23.136  1.00  0.00    -0.035 C 
ATOM     17  C   UNL A   1      27.650  31.655  23.506  1.00  0.00     0.004 C 
ENDBRANCH  15  16
ENDBRANCH  14  15
ENDBRANCH  13  14
ENDBRANCH   7  13
BRANCH  11  18
ATOM     18  C   UNL A   1      33.643  24.310  23.139  1.00  0.00     0.410 C 
ATOM     19  O   UNL A   1      33.653  23.884  21.996  1.00  0.00    -0.224 OA
BRANCH  18  20
ATOM     20  O   UNL A   1      34.746  24.389  23.929  1.00  0.00    -0.444 OA
BRANCH  20  21
ATOM     21  C   UNL A   1      35.454  23.184  24.336  1.00  0.00     0.106 C 
ATOM     22  C   UNL A   1      34.548  21.948  24.416  1.00  0.00     0.056 C 
ATOM     23  C   UNL A   1      36.653  22.938  23.414  1.00  0.00     0.056 C 
ATOM     24  C   UNL A   1      35.973  23.494  25.747  1.00  0.00     0.056 C 
ENDBRANCH  20  21
ENDBRANCH  18  20
ENDBRANCH  11  18
ENDBRANCH   4   7
ENDBRANCH   2   3
ENDBRANCH   1   2
BRANCH   1  25
ATOM     25  C   UNL A   1      31.403  31.854  26.826  1.00  0.00     0.023 C 
BRANCH  25  26
ATOM     26  C   UNL A   1      32.548  32.849  26.689  1.00  0.00     0.116 C 
BRANCH  26  27
ATOM     27  N   UNL A   1      32.335  34.108  27.394  1.00  0.00    -0.352 N 
ATOM     28  C   UNL A   1      33.047  34.625  28.452  1.00  0.00     0.251 C 
ATOM     29  H   UNL A   1      31.586  34.659  27.071  1.00  0.00     0.163 HD
ATOM     30  O   UNL A   1      32.701  35.673  28.991  1.00  0.00    -0.269 OA
BRANCH  28  31
ATOM     31  C   UNL A   1      34.220  33.883  28.954  1.00  0.00     0.039 A 
ATOM     32  C   UNL A   1      35.492  34.433  28.798  1.00  0.00     0.014 A 
ATOM     33  C   UNL A   1      34.046  32.678  29.642  1.00  0.00     0.014 A 
ATOM     34  C   UNL A   1      36.588  33.807  29.397  1.00  0.00     0.010 A 
ATOM     35  C   UNL A   1      35.120  32.113  30.315  1.00  0.00     0.010 A 
ATOM     36  C   UNL A   1      36.406  32.662  30.191  1.00  0.00    -0.014 A 
BRANCH  36  37
ATOM     37  C   UNL A   1      37.549  32.020  30.889  1.00  0.00     0.031 A 
ATOM     38  C   UNL A   1      38.396  31.004  30.170  1.00  0.00     0.074 A 
ATOM     39  C   UNL A   1      37.781  32.292  32.190  1.00  0.00     0.049 A 
ATOM     40  N   UNL A   1      39.414  30.315  30.616  1.00  0.00    -0.248 NA
ATOM     41  C   UNL A   1      38.032  30.697  28.776  1.00  0.00     0.031 C 
ATOM     42  C   UNL A   1      36.978  33.190  33.024  1.00  0.00     0.029 A 
ATOM     43  N   UNL A   1      38.747  31.823  33.044  1.00  0.00    -0.354 N 
ATOM     44  C   UNL A   1      39.787  29.473  29.576  1.00  0.00     0.074 A 
ATOM     45  C   UNL A   1      38.858  29.701  28.492  1.00  0.00     0.031 C 
ATOM     46  C   UNL A   1      37.494  33.217  34.263  1.00  0.00     0.029 A 
ATOM     47  C   UNL A   1      38.643  32.320  34.323  1.00  0.00     0.049 A 
ATOM     48  H   UNL A   1      39.450  31.191  32.768  1.00  0.00     0.167 HD
ATOM     49  C   UNL A   1      40.829  28.611  29.512  1.00  0.00     0.034 A 
ATOM     50  C   UNL A   1      39.387  32.076  35.420  1.00  0.00     0.034 A 
ATOM     51  C   UNL A   1      41.776  28.416  30.575  1.00  0.00     0.049 A 
ATOM     52  C   UNL A   1      40.566  31.147  35.310  1.00  0.00     0.074 A 
ATOM     53  C   UNL A   1      42.917  27.634  30.579  1.00  0.00     0.029 A 
ATOM     54  N   UNL A   1      41.687  29.001  31.830  1.00  0.00    -0.354 N 
ATOM     55  N   UNL A   1      41.000  30.482  34.267  1.00  0.00    -0.248 NA
ATOM     56  C   UNL A   1      41.385  30.967  36.518  1.00  0.00     0.031 C 
ATOM     57  C   UNL A   1      43.500  27.720  31.848  1.00  0.00     0.029 A 
ATOM     58  C   UNL A   1      42.746  28.590  32.620  1.00  0.00     0.049 A 
ATOM     59  H   UNL A   1      40.974  29.618  32.116  1.00  0.00     0.167 HD
ATOM     60  C   UNL A   1      42.162  29.839  34.679  1.00  0.00     0.074 A 
ATOM     61  C   UNL A   1      42.375  30.211  36.062  1.00  0.00     0.031 C 
ATOM     62  C   UNL A   1      42.974  29.008  33.978  1.00  0.00     0.034 A 
BRANCH  49  63
ATOM     63  C   UNL A   1      41.026  27.848  28.227  1.00  0.00     0.023 A 
ATOM     64  C   UNL A   1      41.538  28.509  27.091  1.00  0.00     0.012 A 
ATOM     65  C   UNL A   1      40.752  26.469  28.156  1.00  0.00     0.148 A 
ATOM     66  C   UNL A   1      41.732  27.822  25.894  1.00  0.00     0.002 A 
ATOM     67  C   UNL A   1      40.996  25.779  26.974  1.00  0.00     0.091 A 
ATOM     68  F   UNL A   1      40.247  25.859  29.238  1.00  0.00    -0.205 F 
ATOM     69  C   UNL A   1      41.472  26.456  25.839  1.00  0.00     0.022 A 
BRANCH  67  70
ATOM     70  S   UNL A   1      40.774  24.003  26.823  1.00  0.00     0.127 S 
ATOM     71  O   UNL A   1      41.703  23.680  25.742  1.00  0.00    -0.237 OA
ATOM     72  O   UNL A   1      41.188  23.530  28.145  1.00  0.00    -0.237 OA
ATOM     73  O   UNL A   1      39.365  23.799  26.518  1.00  0.00    -0.744 OA
ENDBRANCH  67  70
ENDBRANCH  49  63
BRANCH  50  74
ATOM     74  C   UNL A   1      39.081  32.773  36.703  1.00  0.00     0.023 A 
ATOM     75  C   UNL A   1      39.630  34.047  36.947  1.00  0.00     0.012 A 
ATOM     76  C   UNL A   1      38.239  32.191  37.669  1.00  0.00     0.148 A 
ATOM     77  C   UNL A   1      39.377  34.712  38.148  1.00  0.00     0.002 A 
ATOM     78  C   UNL A   1      37.947  32.883  38.839  1.00  0.00     0.091 A 
ATOM     79  F   UNL A   1      37.735  30.975  37.420  1.00  0.00    -0.205 F 
ATOM     80  C   UNL A   1      38.529  34.134  39.089  1.00  0.00     0.022 A 
BRANCH  78  81
ATOM     81  S   UNL A   1      36.766  32.276  40.049  1.00  0.00     0.127 S 
ATOM     82  O   UNL A   1      36.771  33.351  41.038  1.00  0.00    -0.237 OA
ATOM     83  O   UNL A   1      35.544  32.176  39.251  1.00  0.00    -0.237 OA
ATOM     84  O   UNL A   1      37.292  30.996  40.505  1.00  0.00    -0.744 OA
ENDBRANCH  78  81
ENDBRANCH  50  74
BRANCH  62  85
ATOM     85  C   UNL A   1      44.200  28.479  34.675  1.00  0.00     0.023 A 
ATOM     86  C   UNL A   1      45.406  29.205  34.636  1.00  0.00     0.012 A 
ATOM     87  C   UNL A   1      44.134  27.288  35.426  1.00  0.00     0.148 A 
ATOM     88  C   UNL A   1      46.538  28.734  35.301  1.00  0.00     0.002 A 
ATOM     89  C   UNL A   1      45.250  26.854  36.130  1.00  0.00     0.091 A 
ATOM     90  F   UNL A   1      42.983  26.600  35.437  1.00  0.00    -0.205 F 
ATOM     91  C   UNL A   1      46.457  27.566  36.057  1.00  0.00     0.022 A 
BRANCH  89  92
ATOM     92  S   UNL A   1      45.207  25.419  37.211  1.00  0.00     0.127 S 
ATOM     93  O   UNL A   1      44.208  25.821  38.199  1.00  0.00    -0.237 OA
ATOM     94  O   UNL A   1      44.773  24.359  36.300  1.00  0.00    -0.237 OA
ATOM     95  O   UNL A   1      46.562  25.258  37.720  1.00  0.00    -0.744 OA
ENDBRANCH  89  92
ENDBRANCH  62  85
ENDBRANCH  36  37
ENDBRANCH  28  31
ENDBRANCH  26  27
ENDBRANCH  25  26
ENDBRANCH   1  25
TORSDOF 21
ENDMDL
MODEL 2
REMARK VINA RESULT:     -10.8      5.194      8.646
REMARK SMILES C=CCCC[C@@]1(C(=O)NCCCCNC(=O)c2ccc(-c3c4nc(c(-c5cccc(S(=O)(=O)[O-])c5F)c5ccc([nH]5)c(-c5cccc(S(=O)(=O)[O-])c5F)c5nc(c(-c6cccc(S(=O)(=O)[O-])c6F)c6ccc3[nH]6)C=C5)C=C4)cc2)CCCN(C(=O)OC(C)(C)C)C1
REMARK SMILES IDX 11 1 10 2 9 3 7 4 8 5 6 7 80 8 91 9 81 10 83 11 82 12 5 13
REMARK SMILES IDX 4 14 3 15 2 16 1 17 84 18 85 19 86 20 87 21 88 22 89 23
REMARK SMILES IDX 90 24 12 25 13 26 14 27 15 28 16 30 17 31 18 32 79 33 19 34
REMARK SMILES IDX 78 35 20 36 21 37 22 38 72 39 23 40 77 41 71 42 73 43 24 44
REMARK SMILES IDX 76 45 70 46 69 47 25 49 57 50 37 51 56 52 38 53 41 54 55 55
REMARK SMILES IDX 74 56 39 57 40 58 54 60 75 61 42 62 26 63 27 64 35 65 28 66
REMARK SMILES IDX 30 67 36 68 29 69 31 70 32 71 33 72 34 73 58 74 59 75 67 76
REMARK SMILES IDX 60 77 62 78 68 79 61 80 63 81 64 82 65 83 66 84 43 85 44 86
REMARK SMILES IDX 52 87 45 88 47 89 53 90 46 91 48 92 49 93 50 94 51 95
REMARK H PARENT 9 6 14 29 73 48 41 59
REMARK Flexibility Score: inf
ROOT
ATOM      1  C   UNL A   1      34.935  22.761  23.510  1.00  0.00     0.023 C 
ENDROOT
BRANCH   1   2
ATOM      2  C   UNL A   1      34.293  23.969  24.165  1.00  0.00     0.116 C 
BRANCH   2   3
ATOM      3  N   UNL A   1      34.075  25.095  23.295  1.00  0.00    -0.356 N 
ATOM      4  C   UNL A   1      33.503  26.301  23.549  1.00  0.00     0.228 C 
ATOM      5  O   UNL A   1      33.658  27.148  22.659  1.00  0.00    -0.274 OA
ATOM      6  H   UNL A   1      34.390  24.973  22.370  1.00  0.00     0.163 HD
BRANCH   4   7
ATOM      7  C   UNL A   1      32.544  26.590  24.744  1.00  0.00     0.067 C 
ATOM      8  C   UNL A   1      31.612  25.342  24.880  1.00  0.00     0.020 C 
ATOM      9  C   UNL A   1      31.541  27.770  24.634  1.00  0.00     0.140 C 
ATOM     10  C   UNL A   1      30.629  25.216  23.695  1.00  0.00     0.023 C 
ATOM     11  N   UNL A   1      30.664  27.667  23.479  1.00  0.00    -0.307 N 
ATOM     12  C   UNL A   1      29.819  26.486  23.447  1.00  0.00     0.123 C 
BRANCH   7  13
ATOM     13  C   UNL A   1      33.499  26.869  25.960  1.00  0.00     0.019 C 
BRANCH  13  14
ATOM     14  C   UNL A   1      33.080  27.840  27.072  1.00  0.00     0.005 C 
BRANCH  14  15
ATOM     15  C   UNL A   1      33.670  29.256  27.052  1.00  0.00     0.027 C 
BRANCH  15  16
ATOM     16  C   UNL A   1      35.169  29.322  26.994  1.00  0.00    -0.035 C 
ATOM     17  C   UNL A   1      35.961  29.330  28.074  1.00  0.00     0.004 C 
ENDBRANCH  15  16
ENDBRANCH  14  15
ENDBRANCH  13  14
ENDBRANCH   7  13
BRANCH  11  18
ATOM     18  C   UNL A   1      30.630  28.692  22.544  1.00  0.00     0.410 C 
ATOM     19  O   UNL A   1      31.605  29.370  22.262  1.00  0.00    -0.224 OA
BRANCH  18  20
ATOM     20  O   UNL A   1      29.414  28.827  21.952  1.00  0.00    -0.444 OA
BRANCH  20  21
ATOM     21  C   UNL A   1      28.453  29.803  22.447  1.00  0.00     0.106 C 
ATOM     22  C   UNL A   1      27.182  29.164  23.021  1.00  0.00     0.056 C 
ATOM     23  C   UNL A   1      29.121  30.732  23.467  1.00  0.00     0.056 C 
ATOM     24  C   UNL A   1      28.063  30.627  21.212  1.00  0.00     0.056 C 
ENDBRANCH  20  21
ENDBRANCH  18  20
ENDBRANCH  11  18
ENDBRANCH   4   7
ENDBRANCH   2   3
ENDBRANCH   1   2
BRANCH   1  25
ATOM     25  C   UNL A   1      36.402  22.532  23.841  1.00  0.00     0.023 C 
BRANCH  25  26
ATOM     26  C   UNL A   1      36.708  22.180  25.291  1.00  0.00     0.116 C 
BRANCH  26  27
ATOM     27  N   UNL A   1      37.662  21.090  25.455  1.00  0.00    -0.352 N 
ATOM     28  C   UNL A   1      38.931  21.137  25.987  1.00  0.00     0.251 C 
ATOM     29  H   UNL A   1      37.361  20.206  25.144  1.00  0.00     0.163 HD
ATOM     30  O   UNL A   1      39.649  20.141  25.992  1.00  0.00    -0.269 OA
BRANCH  28  31
ATOM     31  C   UNL A   1      39.431  22.418  26.526  1.00  0.00     0.039 A 
ATOM     32  C   UNL A   1      40.546  22.415  27.364  1.00  0.00     0.014 A 
ATOM     33  C   UNL A   1      38.835  23.622  26.139  1.00  0.00     0.014 A 
ATOM     34  C   UNL A   1      41.109  23.630  27.759  1.00  0.00     0.010 A 
ATOM     35  C   UNL A   1      39.454  24.824  26.454  1.00  0.00     0.010 A 
ATOM     36  C   UNL A   1      40.590  24.844  27.278  1.00  0.00    -0.014 A 
BRANCH  36  37
ATOM     37  C   UNL A   1      41.215  26.144  27.633  1.00  0.00     0.031 A 
ATOM     38  C   UNL A   1      42.619  26.452  27.185  1.00  0.00     0.074 A 
ATOM     39  C   UNL A   1      40.552  27.016  28.420  1.00  0.00     0.049 A 
ATOM     40  N   UNL A   1      43.346  27.513  27.418  1.00  0.00    -0.248 NA
ATOM     41  C   UNL A   1      43.312  25.416  26.398  1.00  0.00     0.031 C 
ATOM     42  C   UNL A   1      39.222  26.798  28.993  1.00  0.00     0.029 A 
ATOM     43  N   UNL A   1      40.917  28.253  28.891  1.00  0.00    -0.354 N 
ATOM     44  C   UNL A   1      44.584  27.261  26.842  1.00  0.00     0.074 A 
ATOM     45  C   UNL A   1      44.529  25.926  26.288  1.00  0.00     0.031 C 
ATOM     46  C   UNL A   1      38.877  27.870  29.725  1.00  0.00     0.029 A 
ATOM     47  C   UNL A   1      39.969  28.837  29.699  1.00  0.00     0.049 A 
ATOM     48  H   UNL A   1      41.775  28.682  28.671  1.00  0.00     0.167 HD
ATOM     49  C   UNL A   1      45.661  28.076  26.749  1.00  0.00     0.034 A 
ATOM     50  C   UNL A   1      39.982  30.018  30.349  1.00  0.00     0.034 A 
ATOM     51  C   UNL A   1      45.699  29.417  27.264  1.00  0.00     0.049 A 
ATOM     52  C   UNL A   1      41.174  30.924  30.193  1.00  0.00     0.074 A 
ATOM     53  C   UNL A   1      46.707  30.356  27.145  1.00  0.00     0.029 A 
ATOM     54  N   UNL A   1      44.687  30.008  28.006  1.00  0.00    -0.354 N 
ATOM     55  N   UNL A   1      42.273  30.732  29.506  1.00  0.00    -0.248 NA
ATOM     56  C   UNL A   1      41.108  32.229  30.868  1.00  0.00     0.031 C 
ATOM     57  C   UNL A   1      46.318  31.504  27.843  1.00  0.00     0.029 A 
ATOM     58  C   UNL A   1      45.050  31.295  28.361  1.00  0.00     0.049 A 
ATOM     59  H   UNL A   1      43.836  29.574  28.245  1.00  0.00     0.167 HD
ATOM     60  C   UNL A   1      43.012  31.904  29.631  1.00  0.00     0.074 A 
ATOM     61  C   UNL A   1      42.224  32.808  30.444  1.00  0.00     0.031 C 
ATOM     62  C   UNL A   1      44.235  32.201  29.127  1.00  0.00     0.034 A 
BRANCH  49  63
ATOM     63  C   UNL A   1      46.872  27.553  26.020  1.00  0.00     0.023 A 
ATOM     64  C   UNL A   1      47.009  27.783  24.635  1.00  0.00     0.012 A 
ATOM     65  C   UNL A   1      47.896  26.877  26.711  1.00  0.00     0.148 A 
ATOM     66  C   UNL A   1      48.123  27.312  23.942  1.00  0.00     0.002 A 
ATOM     67  C   UNL A   1      49.028  26.455  26.023  1.00  0.00     0.091 A 
ATOM     68  F   UNL A   1      47.741  26.648  28.023  1.00  0.00    -0.205 F 
ATOM     69  C   UNL A   1      49.136  26.658  24.637  1.00  0.00     0.022 A 
BRANCH  67  70
ATOM     70  S   UNL A   1      50.427  25.679  26.839  1.00  0.00     0.127 S 
ATOM     71  O   UNL A   1      51.337  25.456  25.718  1.00  0.00    -0.237 OA
ATOM     72  O   UNL A   1      50.853  26.722  27.773  1.00  0.00    -0.237 OA
ATOM     73  O   UNL A   1      49.907  24.474  27.470  1.00  0.00    -0.744 OA
ENDBRANCH  67  70
ENDBRANCH  49  63
BRANCH  50  74
ATOM     74  C   UNL A   1      38.799  30.443  31.153  1.00  0.00     0.023 A 
ATOM     75  C   UNL A   1      38.706  30.056  32.505  1.00  0.00     0.012 A 
ATOM     76  C   UNL A   1      37.781  31.238  30.595  1.00  0.00     0.148 A 
ATOM     77  C   UNL A   1      37.600  30.421  33.275  1.00  0.00     0.002 A 
ATOM     78  C   UNL A   1      36.710  31.645  31.382  1.00  0.00     0.091 A 
ATOM     79  F   UNL A   1      37.886  31.587  29.305  1.00  0.00    -0.205 F 
ATOM     80  C   UNL A   1      36.608  31.222  32.716  1.00  0.00     0.022 A 
BRANCH  78  81
ATOM     81  S   UNL A   1      35.452  32.781  30.787  1.00  0.00     0.127 S 
ATOM     82  O   UNL A   1      36.188  34.042  30.735  1.00  0.00    -0.237 OA
ATOM     83  O   UNL A   1      35.121  32.205  29.484  1.00  0.00    -0.237 OA
ATOM     84  O   UNL A   1      34.372  32.719  31.763  1.00  0.00    -0.744 OA
ENDBRANCH  78  81
ENDBRANCH  50  74
BRANCH  62  85
ATOM     85  C   UNL A   1      44.785  33.579  29.392  1.00  0.00     0.023 A 
ATOM     86  C   UNL A   1      45.558  33.824  30.543  1.00  0.00     0.012 A 
ATOM     87  C   UNL A   1      44.587  34.616  28.458  1.00  0.00     0.148 A 
ATOM     88  C   UNL A   1      46.093  35.089  30.782  1.00  0.00     0.002 A 
ATOM     89  C   UNL A   1      45.169  35.859  28.676  1.00  0.00     0.091 A 
ATOM     90  F   UNL A   1      43.833  34.370  27.377  1.00  0.00    -0.205 F 
ATOM     91  C   UNL A   1      45.909  36.103  29.843  1.00  0.00     0.022 A 
BRANCH  89  92
ATOM     92  S   UNL A   1      45.071  37.190  27.472  1.00  0.00     0.127 S 
ATOM     93  O   UNL A   1      45.932  36.688  26.403  1.00  0.00    -0.237 OA
ATOM     94  O   UNL A   1      43.643  37.210  27.149  1.00  0.00    -0.237 OA
ATOM     95  O   UNL A   1      45.551  38.384  28.153  1.00  0.00    -0.744 OA
ENDBRANCH  89  92
ENDBRANCH  62  85
ENDBRANCH  36  37
ENDBRANCH  28  31
ENDBRANCH  26  27
ENDBRANCH  25  26
ENDBRANCH   1  25
TORSDOF 21
ENDMDL
MODEL 3
REMARK VINA RESULT:     -10.4      5.265      8.232
REMARK SMILES C=CCCC[C@@]1(C(=O)NCCCCNC(=O)c2ccc(-c3c4nc(c(-c5cccc(S(=O)(=O)[O-])c5F)c5ccc([nH]5)c(-c5cccc(S(=O)(=O)[O-])c5F)c5nc(c(-c6cccc(S(=O)(=O)[O-])c6F)c6ccc3[nH]6)C=C5)C=C4)cc2)CCCN(C(=O)OC(C)(C)C)C1
REMARK SMILES IDX 11 1 10 2 9 3 7 4 8 5 6 7 80 8 91 9 81 10 83 11 82 12 5 13
REMARK SMILES IDX 4 14 3 15 2 16 1 17 84 18 85 19 86 20 87 21 88 22 89 23
REMARK SMILES IDX 90 24 12 25 13 26 14 27 15 28 16 30 17 31 18 32 79 33 19 34
REMARK SMILES IDX 78 35 20 36 21 37 22 38 72 39 23 40 77 41 71 42 73 43 24 44
REMARK SMILES IDX 76 45 70 46 69 47 25 49 57 50 37 51 56 52 38 53 41 54 55 55
REMARK SMILES IDX 74 56 39 57 40 58 54 60 75 61 42 62 26 63 27 64 35 65 28 66
REMARK SMILES IDX 30 67 36 68 29 69 31 70 32 71 33 72 34 73 58 74 59 75 67 76
REMARK SMILES IDX 60 77 62 78 68 79 61 80 63 81 64 82 65 83 66 84 43 85 44 86
REMARK SMILES IDX 52 87 45 88 47 89 53 90 46 91 48 92 49 93 50 94 51 95
REMARK H PARENT 9 6 14 29 73 48 41 59
REMARK Flexibility Score: inf
ROOT
ATOM      1  C   UNL A   1      34.494  23.008  24.708  1.00  0.00     0.023 C 
ENDROOT
BRANCH   1   2
ATOM      2  C   UNL A   1      33.875  24.280  25.255  1.00  0.00     0.116 C 
BRANCH   2   3
ATOM      3  N   UNL A   1      33.686  25.334  24.292  1.00  0.00    -0.356 N 
ATOM      4  C   UNL A   1      33.084  26.545  24.426  1.00  0.00     0.228 C 
ATOM      5  O   UNL A   1      33.272  27.325  23.483  1.00  0.00    -0.274 OA
ATOM      6  H   UNL A   1      34.049  25.148  23.396  1.00  0.00     0.163 HD
BRANCH   4   7
ATOM      7  C   UNL A   1      32.062  26.905  25.547  1.00  0.00     0.067 C 
ATOM      8  C   UNL A   1      31.241  25.606  25.836  1.00  0.00     0.020 C 
ATOM      9  C   UNL A   1      30.962  27.961  25.249  1.00  0.00     0.140 C 
ATOM     10  C   UNL A   1      30.315  25.228  24.659  1.00  0.00     0.023 C 
ATOM     11  N   UNL A   1      30.139  27.618  24.101  1.00  0.00    -0.307 N 
ATOM     12  C   UNL A   1      29.404  26.370  24.217  1.00  0.00     0.123 C 
BRANCH   7  13
ATOM     13  C   UNL A   1      32.945  27.437  26.732  1.00  0.00     0.019 C 
BRANCH  13  14
ATOM     14  C   UNL A   1      32.857  28.906  27.170  1.00  0.00     0.005 C 
BRANCH  14  15
ATOM     15  C   UNL A   1      33.854  29.901  26.560  1.00  0.00     0.027 C 
BRANCH  15  16
ATOM     16  C   UNL A   1      34.906  30.408  27.502  1.00  0.00    -0.035 C 
ATOM     17  C   UNL A   1      35.682  29.617  28.255  1.00  0.00     0.004 C 
ENDBRANCH  15  16
ENDBRANCH  14  15
ENDBRANCH  13  14
ENDBRANCH   7  13
BRANCH  11  18
ATOM     18  C   UNL A   1      30.046  28.496  23.031  1.00  0.00     0.410 C 
ATOM     19  O   UNL A   1      30.416  28.214  21.902  1.00  0.00    -0.224 OA
BRANCH  18  20
ATOM     20  O   UNL A   1      29.464  29.677  23.365  1.00  0.00    -0.444 OA
BRANCH  20  21
ATOM     21  C   UNL A   1      28.169  30.048  22.813  1.00  0.00     0.106 C 
ATOM     22  C   UNL A   1      28.236  30.455  21.334  1.00  0.00     0.056 C 
ATOM     23  C   UNL A   1      27.156  28.920  23.036  1.00  0.00     0.056 C 
ATOM     24  C   UNL A   1      27.732  31.272  23.630  1.00  0.00     0.056 C 
ENDBRANCH  20  21
ENDBRANCH  18  20
ENDBRANCH  11  18
ENDBRANCH   4   7
ENDBRANCH   2   3
ENDBRANCH   1   2
BRANCH   1  25
ATOM     25  C   UNL A   1      36.013  22.992  24.632  1.00  0.00     0.023 C 
BRANCH  25  26
ATOM     26  C   UNL A   1      36.741  22.773  25.952  1.00  0.00     0.116 C 
BRANCH  26  27
ATOM     27  N   UNL A   1      37.726  21.698  25.921  1.00  0.00    -0.352 N 
ATOM     28  C   UNL A   1      39.070  21.762  26.213  1.00  0.00     0.251 C 
ATOM     29  H   UNL A   1      37.387  20.813  25.657  1.00  0.00     0.163 HD
ATOM     30  O   UNL A   1      39.792  20.779  26.071  1.00  0.00    -0.269 OA
BRANCH  28  31
ATOM     31  C   UNL A   1      39.640  23.045  26.672  1.00  0.00     0.039 A 
ATOM     32  C   UNL A   1      40.584  23.042  27.698  1.00  0.00     0.014 A 
ATOM     33  C   UNL A   1      39.289  24.237  26.031  1.00  0.00     0.014 A 
ATOM     34  C   UNL A   1      41.231  24.232  28.037  1.00  0.00     0.010 A 
ATOM     35  C   UNL A   1      40.003  25.396  26.304  1.00  0.00     0.010 A 
ATOM     36  C   UNL A   1      40.974  25.411  27.318  1.00  0.00    -0.014 A 
BRANCH  36  37
ATOM     37  C   UNL A   1      41.700  26.672  27.619  1.00  0.00     0.031 A 
ATOM     38  C   UNL A   1      43.138  26.830  27.202  1.00  0.00     0.074 A 
ATOM     39  C   UNL A   1      41.094  27.643  28.331  1.00  0.00     0.049 A 
ATOM     40  N   UNL A   1      43.948  27.837  27.399  1.00  0.00    -0.248 NA
ATOM     41  C   UNL A   1      43.760  25.693  26.501  1.00  0.00     0.031 C 
ATOM     42  C   UNL A   1      39.733  27.576  28.870  1.00  0.00     0.029 A 
ATOM     43  N   UNL A   1      41.551  28.870  28.742  1.00  0.00    -0.354 N 
ATOM     44  C   UNL A   1      45.175  27.445  26.880  1.00  0.00     0.074 A 
ATOM     45  C   UNL A   1      45.020  26.089  26.403  1.00  0.00     0.031 C 
ATOM     46  C   UNL A   1      39.463  28.716  29.526  1.00  0.00     0.029 A 
ATOM     47  C   UNL A   1      40.636  29.582  29.482  1.00  0.00     0.049 A 
ATOM     48  H   UNL A   1      42.451  29.210  28.527  1.00  0.00     0.167 HD
ATOM     49  C   UNL A   1      46.322  28.157  26.777  1.00  0.00     0.034 A 
ATOM     50  C   UNL A   1      40.733  30.795  30.063  1.00  0.00     0.034 A 
ATOM     51  C   UNL A   1      46.463  29.518  27.215  1.00  0.00     0.049 A 
ATOM     52  C   UNL A   1      42.004  31.584  29.896  1.00  0.00     0.074 A 
ATOM     53  C   UNL A   1      47.553  30.358  27.077  1.00  0.00     0.029 A 
ATOM     54  N   UNL A   1      45.486  30.238  27.887  1.00  0.00    -0.354 N 
ATOM     55  N   UNL A   1      43.102  31.257  29.259  1.00  0.00    -0.248 NA
ATOM     56  C   UNL A   1      42.034  32.928  30.492  1.00  0.00     0.031 C 
ATOM     57  C   UNL A   1      47.246  31.576  27.694  1.00  0.00     0.029 A 
ATOM     58  C   UNL A   1      45.950  31.508  28.179  1.00  0.00     0.049 A 
ATOM     59  H   UNL A   1      44.593  29.895  28.121  1.00  0.00     0.167 HD
ATOM     60  C   UNL A   1      43.937  32.366  29.341  1.00  0.00     0.074 A 
ATOM     61  C   UNL A   1      43.208  33.382  30.073  1.00  0.00     0.031 C 
ATOM     62  C   UNL A   1      45.195  32.526  28.863  1.00  0.00     0.034 A 
BRANCH  49  63
ATOM     63  C   UNL A   1      47.503  27.488  26.122  1.00  0.00     0.023 A 
ATOM     64  C   UNL A   1      47.714  27.641  24.735  1.00  0.00     0.012 A 
ATOM     65  C   UNL A   1      48.430  26.750  26.882  1.00  0.00     0.148 A 
ATOM     66  C   UNL A   1      48.801  27.035  24.110  1.00  0.00     0.002 A 
ATOM     67  C   UNL A   1      49.541  26.192  26.260  1.00  0.00     0.091 A 
ATOM     68  F   UNL A   1      48.205  26.597  28.195  1.00  0.00    -0.205 F 
ATOM     69  C   UNL A   1      49.720  26.321  24.873  1.00  0.00     0.022 A 
BRANCH  67  70
ATOM     70  S   UNL A   1      50.827  25.324  27.165  1.00  0.00     0.127 S 
ATOM     71  O   UNL A   1      51.297  26.363  28.079  1.00  0.00    -0.237 OA
ATOM     72  O   UNL A   1      50.074  24.244  27.805  1.00  0.00    -0.237 OA
ATOM     73  O   UNL A   1      51.793  24.884  26.169  1.00  0.00    -0.744 OA
ENDBRANCH  67  70
ENDBRANCH  49  63
BRANCH  50  74
ATOM     74  C   UNL A   1      39.570  31.367  30.800  1.00  0.00     0.023 A 
ATOM     75  C   UNL A   1      38.509  31.949  30.078  1.00  0.00     0.012 A 
ATOM     76  C   UNL A   1      39.501  31.323  32.205  1.00  0.00     0.148 A 
ATOM     77  C   UNL A   1      37.419  32.511  30.744  1.00  0.00     0.002 A 
ATOM     78  C   UNL A   1      38.385  31.834  32.860  1.00  0.00     0.091 A 
ATOM     79  F   UNL A   1      40.524  30.772  32.873  1.00  0.00    -0.205 F 
ATOM     80  C   UNL A   1      37.353  32.446  32.133  1.00  0.00     0.022 A 
BRANCH  78  81
ATOM     81  S   UNL A   1      38.154  31.681  34.635  1.00  0.00     0.127 S 
ATOM     82  O   UNL A   1      36.858  32.328  34.824  1.00  0.00    -0.237 OA
ATOM     83  O   UNL A   1      38.151  30.228  34.811  1.00  0.00    -0.237 OA
ATOM     84  O   UNL A   1      39.293  32.358  35.241  1.00  0.00    -0.744 OA
ENDBRANCH  78  81
ENDBRANCH  50  74
BRANCH  62  85
ATOM     85  C   UNL A   1      45.856  33.865  29.067  1.00  0.00     0.023 A 
ATOM     86  C   UNL A   1      45.705  34.884  28.107  1.00  0.00     0.012 A 
ATOM     87  C   UNL A   1      46.575  34.130  30.251  1.00  0.00     0.148 A 
ATOM     88  C   UNL A   1      46.291  36.134  28.303  1.00  0.00     0.002 A 
ATOM     89  C   UNL A   1      47.109  35.395  30.463  1.00  0.00     0.091 A 
ATOM     90  F   UNL A   1      46.724  33.142  31.145  1.00  0.00    -0.205 F 
ATOM     91  C   UNL A   1      46.982  36.393  29.485  1.00  0.00     0.022 A 
BRANCH  89  92
ATOM     92  S   UNL A   1      47.925  35.848  31.999  1.00  0.00     0.127 S 
ATOM     93  O   UNL A   1      49.199  35.142  31.878  1.00  0.00    -0.237 OA
ATOM     94  O   UNL A   1      48.020  37.304  31.880  1.00  0.00    -0.237 OA
ATOM     95  O   UNL A   1      47.052  35.386  33.069  1.00  0.00    -0.744 OA
ENDBRANCH  89  92
ENDBRANCH  62  85
ENDBRANCH  36  37
ENDBRANCH  28  31
ENDBRANCH  26  27
ENDBRANCH  25  26
ENDBRANCH   1  25
TORSDOF 21
ENDMDL
