MODEL 1
REMARK VINA RESULT:     -14.0      0.000      0.000
REMARK SMILES C[N@@H+]1CCO[C@H](c2noc(-c3ccccc3C(=O)NCCCCNC(=O)c3ccc(-c4c5nc(c(-c6cccc(S(=O)(=O)[O-])c6F)c6ccc([nH]6)c(-c6cccc(S(=O)(=O)[O-])c6F)c6nc(c(-c7cccc(S(=O)(=O)[O-])c7F)c7ccc4[nH]7)C=C6)C=C5)cc3)n2)C1
REMARK SMILES IDX 22 1 21 2 20 3 19 4 17 5 18 6 16 8 11 9 12 10 13 11 15 12
REMARK SMILES IDX 14 13 10 14 7 15 8 16 90 17 9 18 6 19 1 20 2 21 3 22 91 23
REMARK SMILES IDX 4 25 5 26 23 27 24 28 25 29 26 31 27 32 28 33 89 34 29 35
REMARK SMILES IDX 88 36 30 37 31 38 32 39 82 40 33 41 87 42 81 43 83 44 34 45
REMARK SMILES IDX 86 46 80 47 79 48 35 50 67 51 47 52 66 53 48 54 51 55 65 56
REMARK SMILES IDX 84 57 49 58 50 59 64 61 85 62 52 63 36 64 37 65 45 66 38 67
REMARK SMILES IDX 40 68 46 69 39 70 41 71 42 72 43 73 44 74 68 75 69 76 77 77
REMARK SMILES IDX 70 78 72 79 78 80 71 81 73 82 74 83 75 84 76 85 53 86 54 87
REMARK SMILES IDX 62 88 55 89 57 90 63 91 56 92 58 93 59 94 60 95 61 96
REMARK H PARENT 19 7 2 24 24 30 83 49 51 60
REMARK Flexibility Score: inf
ROOT
ATOM      1  C   UNL A   1      31.441  30.115  25.472  1.00  0.00     0.023 C 
ENDROOT
BRANCH   1   2
ATOM      2  C   UNL A   1      32.864  29.646  25.072  1.00  0.00     0.023 C 
BRANCH   2   3
ATOM      3  C   UNL A   1      33.307  28.238  25.512  1.00  0.00     0.116 C 
BRANCH   3   4
ATOM      4  N   UNL A   1      33.509  27.327  24.401  1.00  0.00    -0.352 N 
ATOM      5  C   UNL A   1      32.672  26.753  23.488  1.00  0.00     0.252 C 
ATOM      6  O   UNL A   1      33.166  25.997  22.649  1.00  0.00    -0.269 OA
ATOM      7  H   UNL A   1      34.451  27.066  24.280  1.00  0.00     0.163 HD
BRANCH   5   8
ATOM      8  C   UNL A   1      31.196  26.855  23.531  1.00  0.00     0.052 A 
ATOM      9  C   UNL A   1      30.337  26.202  24.432  1.00  0.00     0.053 A 
ATOM     10  C   UNL A   1      28.962  26.520  24.391  1.00  0.00     0.015 A 
ATOM     11  C   UNL A   1      28.456  27.471  23.500  1.00  0.00     0.001 A 
ATOM     12  C   UNL A   1      30.671  27.816  22.639  1.00  0.00     0.014 A 
ATOM     13  C   UNL A   1      29.313  28.121  22.622  1.00  0.00     0.001 A 
BRANCH   9  14
ATOM     14  C   UNL A   1      30.797  25.230  25.409  1.00  0.00     0.258 A 
ATOM     15  C   UNL A   1      31.486  23.515  26.409  1.00  0.00     0.206 A 
ATOM     16  N   UNL A   1      30.453  23.912  27.165  1.00  0.00    -0.059 NA
ATOM     17  N   UNL A   1      31.772  24.356  25.353  1.00  0.00    -0.189 NA
ATOM     18  O   UNL A   1      29.996  25.059  26.507  1.00  0.00    -0.334 OA
BRANCH  15  19
ATOM     19  C   UNL A   1      32.146  22.158  26.570  1.00  0.00     0.245 C 
ATOM     20  C   UNL A   1      36.566  21.544  25.743  1.00  0.00     0.332 C 
ATOM     21  N   UNL A   1      35.193  21.124  25.848  1.00  0.00    -0.333 N 
ATOM     22  C   UNL A   1      34.502  19.927  24.647  1.00  0.00     0.290 C 
ATOM     23  C   UNL A   1      34.087  22.325  26.640  1.00  0.00     0.303 C 
ATOM     24  H   UNL A   1      35.276  20.395  26.556  1.00  0.00     0.348 HD
ATOM     25  C   UNL A   1      32.566  19.584  24.599  1.00  0.00     0.222 C 
ATOM     26  O   UNL A   1      31.474  20.900  25.362  1.00  0.00    -0.358 OA
ENDBRANCH  15  19
ENDBRANCH   9  14
ENDBRANCH   5   8
ENDBRANCH   3   4
ENDBRANCH   2   3
ENDBRANCH   1   2
BRANCH   1  27
ATOM     27  C   UNL A   1      31.261  31.469  26.412  1.00  0.00     0.116 C 
BRANCH  27  28
ATOM     28  N   UNL A   1      32.575  32.548  27.493  1.00  0.00    -0.352 N 
ATOM     29  C   UNL A   1      33.846  33.194  27.714  1.00  0.00     0.251 C 
ATOM     30  H   UNL A   1      32.081  32.737  28.323  1.00  0.00     0.163 HD
ATOM     31  O   UNL A   1      33.834  34.376  28.081  1.00  0.00    -0.269 OA
BRANCH  29  32
ATOM     32  C   UNL A   1      35.114  32.444  27.985  1.00  0.00     0.039 A 
ATOM     33  C   UNL A   1      36.281  33.155  28.290  1.00  0.00     0.014 A 
ATOM     34  C   UNL A   1      35.156  31.055  28.009  1.00  0.00     0.014 A 
ATOM     35  C   UNL A   1      37.416  32.482  28.776  1.00  0.00     0.010 A 
ATOM     36  C   UNL A   1      36.224  30.409  28.638  1.00  0.00     0.010 A 
ATOM     37  C   UNL A   1      37.373  31.106  29.054  1.00  0.00    -0.014 A 
BRANCH  37  38
ATOM     38  C   UNL A   1      38.473  30.361  29.765  1.00  0.00     0.031 A 
ATOM     39  C   UNL A   1      38.704  30.605  31.243  1.00  0.00     0.074 A 
ATOM     40  C   UNL A   1      39.371  29.593  29.105  1.00  0.00     0.049 A 
ATOM     41  N   UNL A   1      39.785  30.422  31.958  1.00  0.00    -0.248 NA
ATOM     42  C   UNL A   1      37.601  31.228  31.991  1.00  0.00     0.031 C 
ATOM     43  C   UNL A   1      39.378  29.301  27.670  1.00  0.00     0.029 A 
ATOM     44  N   UNL A   1      40.488  28.927  29.568  1.00  0.00    -0.354 N 
ATOM     45  C   UNL A   1      39.552  31.066  33.171  1.00  0.00     0.074 A 
ATOM     46  C   UNL A   1      38.218  31.622  33.096  1.00  0.00     0.031 C 
ATOM     47  C   UNL A   1      40.409  28.488  27.380  1.00  0.00     0.029 A 
ATOM     48  C   UNL A   1      41.174  28.236  28.594  1.00  0.00     0.049 A 
ATOM     49  H   UNL A   1      40.768  28.944  30.512  1.00  0.00     0.167 HD
ATOM     50  C   UNL A   1      40.362  31.169  34.253  1.00  0.00     0.034 A 
ATOM     51  C   UNL A   1      42.292  27.483  28.667  1.00  0.00     0.034 A 
ATOM     52  C   UNL A   1      41.571  30.408  34.416  1.00  0.00     0.049 A 
ATOM     53  C   UNL A   1      42.995  27.333  29.991  1.00  0.00     0.074 A 
ATOM     54  C   UNL A   1      42.415  30.341  35.511  1.00  0.00     0.029 A 
ATOM     55  N   UNL A   1      42.053  29.500  33.487  1.00  0.00    -0.354 N 
ATOM     56  N   UNL A   1      42.744  27.937  31.127  1.00  0.00    -0.248 NA
ATOM     57  C   UNL A   1      44.110  26.374  30.058  1.00  0.00     0.031 C 
ATOM     58  C   UNL A   1      43.364  29.339  35.272  1.00  0.00     0.029 A 
ATOM     59  C   UNL A   1      43.123  28.805  34.017  1.00  0.00     0.049 A 
ATOM     60  H   UNL A   1      41.686  29.370  32.582  1.00  0.00     0.167 HD
ATOM     61  C   UNL A   1      43.638  27.404  32.047  1.00  0.00     0.074 A 
ATOM     62  C   UNL A   1      44.428  26.414  31.345  1.00  0.00     0.031 C 
ATOM     63  C   UNL A   1      43.812  27.733  33.350  1.00  0.00     0.034 A 
BRANCH  50  64
ATOM     64  C   UNL A   1      39.918  32.055  35.389  1.00  0.00     0.023 A 
ATOM     65  C   UNL A   1      40.360  33.391  35.447  1.00  0.00     0.012 A 
ATOM     66  C   UNL A   1      39.031  31.581  36.378  1.00  0.00     0.148 A 
ATOM     67  C   UNL A   1      39.982  34.222  36.502  1.00  0.00     0.002 A 
ATOM     68  C   UNL A   1      38.615  32.432  37.399  1.00  0.00     0.091 A 
ATOM     69  F   UNL A   1      38.623  30.305  36.321  1.00  0.00    -0.205 F 
ATOM     70  C   UNL A   1      39.104  33.746  37.472  1.00  0.00     0.022 A 
BRANCH  68  71
ATOM     71  S   UNL A   1      37.403  31.928  38.628  1.00  0.00     0.127 S 
ATOM     72  O   UNL A   1      36.361  32.937  38.452  1.00  0.00    -0.237 OA
ATOM     73  O   UNL A   1      37.031  30.586  38.175  1.00  0.00    -0.237 OA
ATOM     74  O   UNL A   1      38.108  31.954  39.902  1.00  0.00    -0.744 OA
ENDBRANCH  68  71
ENDBRANCH  50  64
BRANCH  51  75
ATOM     75  C   UNL A   1      42.740  26.691  27.485  1.00  0.00     0.023 A 
ATOM     76  C   UNL A   1      43.558  27.326  26.528  1.00  0.00     0.012 A 
ATOM     77  C   UNL A   1      42.396  25.340  27.299  1.00  0.00     0.148 A 
ATOM     78  C   UNL A   1      43.994  26.645  25.393  1.00  0.00     0.002 A 
ATOM     79  C   UNL A   1      42.872  24.652  26.185  1.00  0.00     0.091 A 
ATOM     80  F   UNL A   1      41.607  24.749  28.208  1.00  0.00    -0.205 F 
ATOM     81  C   UNL A   1      43.659  25.305  25.224  1.00  0.00     0.022 A 
BRANCH  79  82
ATOM     82  S   UNL A   1      42.577  22.892  25.973  1.00  0.00     0.127 S 
ATOM     83  O   UNL A   1      41.135  22.799  26.168  1.00  0.00    -0.237 OA
ATOM     84  O   UNL A   1      43.028  22.656  24.601  1.00  0.00    -0.237 OA
ATOM     85  O   UNL A   1      43.411  22.254  26.986  1.00  0.00    -0.744 OA
ENDBRANCH  79  82
ENDBRANCH  51  75
BRANCH  63  86
ATOM     86  C   UNL A   1      44.834  26.969  34.143  1.00  0.00     0.023 A 
ATOM     87  C   UNL A   1      46.155  27.448  34.218  1.00  0.00     0.012 A 
ATOM     88  C   UNL A   1      44.461  25.834  34.887  1.00  0.00     0.148 A 
ATOM     89  C   UNL A   1      47.096  26.801  35.018  1.00  0.00     0.002 A 
ATOM     90  C   UNL A   1      45.398  25.210  35.703  1.00  0.00     0.091 A 
ATOM     91  F   UNL A   1      43.206  25.375  34.777  1.00  0.00    -0.205 F 
ATOM     92  C   UNL A   1      46.716  25.691  35.769  1.00  0.00     0.022 A 
BRANCH  90  93
ATOM     93  S   UNL A   1      44.953  23.820  36.752  1.00  0.00     0.127 S 
ATOM     94  O   UNL A   1      44.034  24.442  37.702  1.00  0.00    -0.237 OA
ATOM     95  O   UNL A   1      44.319  22.896  35.809  1.00  0.00    -0.237 OA
ATOM     96  O   UNL A   1      46.211  23.335  37.305  1.00  0.00    -0.744 OA
ENDBRANCH  90  93
ENDBRANCH  63  86
ENDBRANCH  37  38
ENDBRANCH  29  32
ENDBRANCH  27  28
ENDBRANCH   1  27
TORSDOF 16
ENDMDL
MODEL 2
REMARK VINA RESULT:     -13.8      4.903      7.758
REMARK SMILES C[N@@H+]1CCO[C@H](c2noc(-c3ccccc3C(=O)NCCCCNC(=O)c3ccc(-c4c5nc(c(-c6cccc(S(=O)(=O)[O-])c6F)c6ccc([nH]6)c(-c6cccc(S(=O)(=O)[O-])c6F)c6nc(c(-c7cccc(S(=O)(=O)[O-])c7F)c7ccc4[nH]7)C=C6)C=C5)cc3)n2)C1
REMARK SMILES IDX 22 1 21 2 20 3 19 4 17 5 18 6 16 8 11 9 12 10 13 11 15 12
REMARK SMILES IDX 14 13 10 14 7 15 8 16 90 17 9 18 6 19 1 20 2 21 3 22 91 23
REMARK SMILES IDX 4 25 5 26 23 27 24 28 25 29 26 31 27 32 28 33 89 34 29 35
REMARK SMILES IDX 88 36 30 37 31 38 32 39 82 40 33 41 87 42 81 43 83 44 34 45
REMARK SMILES IDX 86 46 80 47 79 48 35 50 67 51 47 52 66 53 48 54 51 55 65 56
REMARK SMILES IDX 84 57 49 58 50 59 64 61 85 62 52 63 36 64 37 65 45 66 38 67
REMARK SMILES IDX 40 68 46 69 39 70 41 71 42 72 43 73 44 74 68 75 69 76 77 77
REMARK SMILES IDX 70 78 72 79 78 80 71 81 73 82 74 83 75 84 76 85 53 86 54 87
REMARK SMILES IDX 62 88 55 89 57 90 63 91 56 92 58 93 59 94 60 95 61 96
REMARK H PARENT 19 7 2 24 24 30 83 49 51 60
REMARK Flexibility Score: inf
ROOT
ATOM      1  C   UNL A   1      34.770  24.262  23.787  1.00  0.00     0.023 C 
ENDROOT
BRANCH   1   2
ATOM      2  C   UNL A   1      34.711  24.860  25.216  1.00  0.00     0.023 C 
BRANCH   2   3
ATOM      3  C   UNL A   1      33.554  25.822  25.546  1.00  0.00     0.116 C 
BRANCH   3   4
ATOM      4  N   UNL A   1      32.533  25.225  26.384  1.00  0.00    -0.352 N 
ATOM      5  C   UNL A   1      31.794  24.080  26.300  1.00  0.00     0.252 C 
ATOM      6  O   UNL A   1      30.979  23.853  27.197  1.00  0.00    -0.269 OA
ATOM      7  H   UNL A   1      32.327  25.760  27.185  1.00  0.00     0.163 HD
BRANCH   5   8
ATOM      8  C   UNL A   1      31.795  23.172  25.131  1.00  0.00     0.052 A 
ATOM      9  C   UNL A   1      31.384  23.487  23.824  1.00  0.00     0.053 A 
ATOM     10  C   UNL A   1      31.571  22.519  22.815  1.00  0.00     0.015 A 
ATOM     11  C   UNL A   1      32.169  21.285  23.086  1.00  0.00     0.001 A 
ATOM     12  C   UNL A   1      32.400  21.922  25.389  1.00  0.00     0.014 A 
ATOM     13  C   UNL A   1      32.585  20.985  24.376  1.00  0.00     0.001 A 
BRANCH   9  14
ATOM     14  C   UNL A   1      30.789  24.763  23.463  1.00  0.00     0.258 A 
ATOM     15  C   UNL A   1      30.384  26.793  23.100  1.00  0.00     0.206 A 
ATOM     16  N   UNL A   1      29.304  26.385  23.782  1.00  0.00    -0.059 NA
ATOM     17  N   UNL A   1      31.289  25.789  22.820  1.00  0.00    -0.189 NA
ATOM     18  O   UNL A   1      29.566  25.033  24.020  1.00  0.00    -0.334 OA
BRANCH  15  19
ATOM     19  C   UNL A   1      30.687  28.257  22.842  1.00  0.00     0.245 C 
ATOM     20  C   UNL A   1      31.301  31.199  26.243  1.00  0.00     0.332 C 
ATOM     21  N   UNL A   1      30.939  30.820  24.902  1.00  0.00    -0.333 N 
ATOM     22  C   UNL A   1      29.526  31.630  24.065  1.00  0.00     0.290 C 
ATOM     23  C   UNL A   1      31.386  29.122  24.443  1.00  0.00     0.303 C 
ATOM     24  H   UNL A   1      31.602  31.378  24.366  1.00  0.00     0.348 HD
ATOM     25  C   UNL A   1      28.841  30.913  22.367  1.00  0.00     0.222 C 
ATOM     26  O   UNL A   1      29.271  29.129  21.990  1.00  0.00    -0.358 OA
ENDBRANCH  15  19
ENDBRANCH   9  14
ENDBRANCH   5   8
ENDBRANCH   3   4
ENDBRANCH   2   3
ENDBRANCH   1   2
BRANCH   1  27
ATOM     27  C   UNL A   1      35.656  22.887  23.511  1.00  0.00     0.116 C 
BRANCH  27  28
ATOM     28  N   UNL A   1      37.335  22.169  24.362  1.00  0.00    -0.352 N 
ATOM     29  C   UNL A   1      38.165  21.814  25.487  1.00  0.00     0.251 C 
ATOM     30  H   UNL A   1      37.895  21.932  23.587  1.00  0.00     0.163 HD
ATOM     31  O   UNL A   1      38.659  20.679  25.502  1.00  0.00    -0.269 OA
BRANCH  29  32
ATOM     32  C   UNL A   1      38.837  22.824  26.366  1.00  0.00     0.039 A 
ATOM     33  C   UNL A   1      40.038  22.491  27.002  1.00  0.00     0.014 A 
ATOM     34  C   UNL A   1      38.340  24.113  26.518  1.00  0.00     0.014 A 
ATOM     35  C   UNL A   1      40.807  23.484  27.636  1.00  0.00     0.010 A 
ATOM     36  C   UNL A   1      39.175  25.121  27.007  1.00  0.00     0.010 A 
ATOM     37  C   UNL A   1      40.437  24.836  27.562  1.00  0.00    -0.014 A 
BRANCH  37  38
ATOM     38  C   UNL A   1      41.310  25.970  28.033  1.00  0.00     0.031 A 
ATOM     39  C   UNL A   1      40.721  27.041  28.930  1.00  0.00     0.074 A 
ATOM     40  C   UNL A   1      42.566  26.159  27.565  1.00  0.00     0.049 A 
ATOM     41  N   UNL A   1      41.117  28.274  29.122  1.00  0.00    -0.248 NA
ATOM     42  C   UNL A   1      39.467  26.709  29.623  1.00  0.00     0.031 C 
ATOM     43  C   UNL A   1      43.285  25.292  26.628  1.00  0.00     0.029 A 
ATOM     44  N   UNL A   1      43.462  27.181  27.802  1.00  0.00    -0.354 N 
ATOM     45  C   UNL A   1      40.077  28.904  29.802  1.00  0.00     0.074 A 
ATOM     46  C   UNL A   1      39.047  27.907  30.003  1.00  0.00     0.031 C 
ATOM     47  C   UNL A   1      44.515  25.789  26.409  1.00  0.00     0.029 A 
ATOM     48  C   UNL A   1      44.664  27.039  27.143  1.00  0.00     0.049 A 
ATOM     49  H   UNL A   1      43.261  27.944  28.391  1.00  0.00     0.167 HD
ATOM     50  C   UNL A   1      39.993  30.186  30.236  1.00  0.00     0.034 A 
ATOM     51  C   UNL A   1      45.763  27.823  27.130  1.00  0.00     0.034 A 
ATOM     52  C   UNL A   1      41.109  31.092  30.259  1.00  0.00     0.049 A 
ATOM     53  C   UNL A   1      45.762  29.106  27.921  1.00  0.00     0.074 A 
ATOM     54  C   UNL A   1      41.177  32.375  30.775  1.00  0.00     0.029 A 
ATOM     55  N   UNL A   1      42.386  30.769  29.827  1.00  0.00    -0.354 N 
ATOM     56  N   UNL A   1      44.773  29.670  28.570  1.00  0.00    -0.248 NA
ATOM     57  C   UNL A   1      47.033  29.842  28.010  1.00  0.00     0.031 C 
ATOM     58  C   UNL A   1      42.512  32.796  30.724  1.00  0.00     0.029 A 
ATOM     59  C   UNL A   1      43.264  31.786  30.149  1.00  0.00     0.049 A 
ATOM     60  H   UNL A   1      42.630  29.937  29.361  1.00  0.00     0.167 HD
ATOM     61  C   UNL A   1      45.309  30.800  29.174  1.00  0.00     0.074 A 
ATOM     62  C   UNL A   1      46.716  30.835  28.832  1.00  0.00     0.031 C 
ATOM     63  C   UNL A   1      44.683  31.744  29.917  1.00  0.00     0.034 A 
BRANCH  50  64
ATOM     64  C   UNL A   1      38.683  30.652  30.818  1.00  0.00     0.023 A 
ATOM     65  C   UNL A   1      38.435  30.497  32.196  1.00  0.00     0.012 A 
ATOM     66  C   UNL A   1      37.711  31.281  30.012  1.00  0.00     0.148 A 
ATOM     67  C   UNL A   1      37.220  30.898  32.752  1.00  0.00     0.002 A 
ATOM     68  C   UNL A   1      36.523  31.728  30.583  1.00  0.00     0.091 A 
ATOM     69  F   UNL A   1      37.950  31.416  28.700  1.00  0.00    -0.205 F 
ATOM     70  C   UNL A   1      36.269  31.520  31.948  1.00  0.00     0.022 A 
BRANCH  68  71
ATOM     71  S   UNL A   1      35.290  32.633  29.638  1.00  0.00     0.127 S 
ATOM     72  O   UNL A   1      36.078  33.739  29.099  1.00  0.00    -0.237 OA
ATOM     73  O   UNL A   1      34.866  31.646  28.643  1.00  0.00    -0.237 OA
ATOM     74  O   UNL A   1      34.255  32.996  30.597  1.00  0.00    -0.744 OA
ENDBRANCH  68  71
ENDBRANCH  50  64
BRANCH  51  75
ATOM     75  C   UNL A   1      47.011  27.352  26.463  1.00  0.00     0.023 A 
ATOM     76  C   UNL A   1      47.222  27.711  25.115  1.00  0.00     0.012 A 
ATOM     77  C   UNL A   1      47.985  26.585  27.126  1.00  0.00     0.148 A 
ATOM     78  C   UNL A   1      48.361  27.287  24.432  1.00  0.00     0.002 A 
ATOM     79  C   UNL A   1      49.142  26.202  26.450  1.00  0.00     0.091 A 
ATOM     80  F   UNL A   1      47.768  26.238  28.402  1.00  0.00    -0.205 F 
ATOM     81  C   UNL A   1      49.325  26.539  25.100  1.00  0.00     0.022 A 
BRANCH  79  82
ATOM     82  S   UNL A   1      50.478  25.343  27.289  1.00  0.00     0.127 S 
ATOM     83  O   UNL A   1      50.920  26.340  28.258  1.00  0.00    -0.237 OA
ATOM     84  O   UNL A   1      49.798  24.184  27.869  1.00  0.00    -0.237 OA
ATOM     85  O   UNL A   1      51.422  25.005  26.230  1.00  0.00    -0.744 OA
ENDBRANCH  79  82
ENDBRANCH  51  75
BRANCH  63  86
ATOM     86  C   UNL A   1      45.511  32.857  30.492  1.00  0.00     0.023 A 
ATOM     87  C   UNL A   1      46.084  32.707  31.769  1.00  0.00     0.012 A 
ATOM     88  C   UNL A   1      45.798  34.005  29.729  1.00  0.00     0.148 A 
ATOM     89  C   UNL A   1      46.927  33.692  32.283  1.00  0.00     0.002 A 
ATOM     90  C   UNL A   1      46.660  34.969  30.239  1.00  0.00     0.091 A 
ATOM     91  F   UNL A   1      45.217  34.142  28.528  1.00  0.00    -0.205 F 
ATOM     92  C   UNL A   1      47.224  34.816  31.515  1.00  0.00     0.022 A 
BRANCH  90  93
ATOM     93  S   UNL A   1      47.141  36.405  29.269  1.00  0.00     0.127 S 
ATOM     94  O   UNL A   1      48.098  37.061  30.158  1.00  0.00    -0.237 OA
ATOM     95  O   UNL A   1      47.734  35.803  28.074  1.00  0.00    -0.237 OA
ATOM     96  O   UNL A   1      45.904  37.133  29.017  1.00  0.00    -0.744 OA
ENDBRANCH  90  93
ENDBRANCH  63  86
ENDBRANCH  37  38
ENDBRANCH  29  32
ENDBRANCH  27  28
ENDBRANCH   1  27
TORSDOF 16
ENDMDL
MODEL 3
REMARK VINA RESULT:     -13.8      1.233      3.267
REMARK SMILES C[N@@H+]1CCO[C@H](c2noc(-c3ccccc3C(=O)NCCCCNC(=O)c3ccc(-c4c5nc(c(-c6cccc(S(=O)(=O)[O-])c6F)c6ccc([nH]6)c(-c6cccc(S(=O)(=O)[O-])c6F)c6nc(c(-c7cccc(S(=O)(=O)[O-])c7F)c7ccc4[nH]7)C=C6)C=C5)cc3)n2)C1
REMARK SMILES IDX 22 1 21 2 20 3 19 4 17 5 18 6 16 8 11 9 12 10 13 11 15 12
REMARK SMILES IDX 14 13 10 14 7 15 8 16 90 17 9 18 6 19 1 20 2 21 3 22 91 23
REMARK SMILES IDX 4 25 5 26 23 27 24 28 25 29 26 31 27 32 28 33 89 34 29 35
REMARK SMILES IDX 88 36 30 37 31 38 32 39 82 40 33 41 87 42 81 43 83 44 34 45
REMARK SMILES IDX 86 46 80 47 79 48 35 50 67 51 47 52 66 53 48 54 51 55 65 56
REMARK SMILES IDX 84 57 49 58 50 59 64 61 85 62 52 63 36 64 37 65 45 66 38 67
REMARK SMILES IDX 40 68 46 69 39 70 41 71 42 72 43 73 44 74 68 75 69 76 77 77
REMARK SMILES IDX 70 78 72 79 78 80 71 81 73 82 74 83 75 84 76 85 53 86 54 87
REMARK SMILES IDX 62 88 55 89 57 90 63 91 56 92 58 93 59 94 60 95 61 96
REMARK H PARENT 19 7 2 24 24 30 83 49 51 60
REMARK Flexibility Score: inf
ROOT
ATOM      1  C   UNL A   1      31.712  29.208  25.120  1.00  0.00     0.023 C 
ENDROOT
BRANCH   1   2
ATOM      2  C   UNL A   1      32.441  28.025  25.807  1.00  0.00     0.023 C 
BRANCH   2   3
ATOM      3  C   UNL A   1      33.912  27.769  25.429  1.00  0.00     0.116 C 
BRANCH   3   4
ATOM      4  N   UNL A   1      34.067  26.890  24.285  1.00  0.00    -0.352 N 
ATOM      5  C   UNL A   1      34.073  25.534  24.133  1.00  0.00     0.252 C 
ATOM      6  O   UNL A   1      34.238  25.083  22.997  1.00  0.00    -0.269 OA
ATOM      7  H   UNL A   1      34.195  27.376  23.439  1.00  0.00     0.163 HD
BRANCH   5   8
ATOM      8  C   UNL A   1      34.048  24.568  25.254  1.00  0.00     0.052 A 
ATOM      9  C   UNL A   1      32.907  24.072  25.908  1.00  0.00     0.053 A 
ATOM     10  C   UNL A   1      33.081  23.063  26.879  1.00  0.00     0.015 A 
ATOM     11  C   UNL A   1      34.344  22.544  27.178  1.00  0.00     0.001 A 
ATOM     12  C   UNL A   1      35.317  24.031  25.563  1.00  0.00     0.014 A 
ATOM     13  C   UNL A   1      35.465  23.028  26.518  1.00  0.00     0.001 A 
BRANCH   9  14
ATOM     14  C   UNL A   1      31.561  24.539  25.623  1.00  0.00     0.258 A 
ATOM     15  C   UNL A   1      29.844  25.436  24.806  1.00  0.00     0.206 A 
ATOM     16  N   UNL A   1      29.785  25.788  26.099  1.00  0.00    -0.059 NA
ATOM     17  N   UNL A   1      30.895  24.597  24.496  1.00  0.00    -0.189 NA
ATOM     18  O   UNL A   1      30.921  25.186  26.648  1.00  0.00    -0.334 OA
BRANCH  15  19
ATOM     19  C   UNL A   1      28.966  26.069  23.743  1.00  0.00     0.245 C 
ATOM     20  C   UNL A   1      29.922  30.136  21.970  1.00  0.00     0.332 C 
ATOM     21  N   UNL A   1      29.048  29.058  22.352  1.00  0.00    -0.333 N 
ATOM     22  C   UNL A   1      27.382  29.415  23.024  1.00  0.00     0.290 C 
ATOM     23  C   UNL A   1      29.893  27.529  22.843  1.00  0.00     0.303 C 
ATOM     24  H   UNL A   1      28.650  28.812  21.445  1.00  0.00     0.348 HD
ATOM     25  C   UNL A   1      26.310  27.973  23.823  1.00  0.00     0.222 C 
ATOM     26  O   UNL A   1      27.253  26.455  24.383  1.00  0.00    -0.358 OA
ENDBRANCH  15  19
ENDBRANCH   9  14
ENDBRANCH   5   8
ENDBRANCH   3   4
ENDBRANCH   2   3
ENDBRANCH   1   2
BRANCH   1  27
ATOM     27  C   UNL A   1      31.428  30.601  25.976  1.00  0.00     0.116 C 
BRANCH  27  28
ATOM     28  N   UNL A   1      32.577  31.667  27.242  1.00  0.00    -0.352 N 
ATOM     29  C   UNL A   1      33.771  32.389  27.608  1.00  0.00     0.251 C 
ATOM     30  H   UNL A   1      32.021  31.728  28.052  1.00  0.00     0.163 HD
ATOM     31  O   UNL A   1      33.633  33.522  28.088  1.00  0.00    -0.269 OA
BRANCH  29  32
ATOM     32  C   UNL A   1      35.083  31.723  27.888  1.00  0.00     0.039 A 
ATOM     33  C   UNL A   1      36.188  32.503  28.244  1.00  0.00     0.014 A 
ATOM     34  C   UNL A   1      35.224  30.340  27.870  1.00  0.00     0.014 A 
ATOM     35  C   UNL A   1      37.358  31.897  28.737  1.00  0.00     0.010 A 
ATOM     36  C   UNL A   1      36.320  29.750  28.506  1.00  0.00     0.010 A 
ATOM     37  C   UNL A   1      37.407  30.513  28.972  1.00  0.00    -0.014 A 
BRANCH  37  38
ATOM     38  C   UNL A   1      38.540  29.825  29.687  1.00  0.00     0.031 A 
ATOM     39  C   UNL A   1      38.825  30.168  31.136  1.00  0.00     0.074 A 
ATOM     40  C   UNL A   1      39.420  29.022  29.045  1.00  0.00     0.049 A 
ATOM     41  N   UNL A   1      39.935  30.041  31.818  1.00  0.00    -0.248 NA
ATOM     42  C   UNL A   1      37.745  30.831  31.883  1.00  0.00     0.031 C 
ATOM     43  C   UNL A   1      39.375  28.636  27.632  1.00  0.00     0.029 A 
ATOM     44  N   UNL A   1      40.560  28.397  29.507  1.00  0.00    -0.354 N 
ATOM     45  C   UNL A   1      39.741  30.761  32.994  1.00  0.00     0.074 A 
ATOM     46  C   UNL A   1      38.400  31.302  32.935  1.00  0.00     0.031 C 
ATOM     47  C   UNL A   1      40.402  27.813  27.357  1.00  0.00     0.029 A 
ATOM     48  C   UNL A   1      41.216  27.647  28.555  1.00  0.00     0.049 A 
ATOM     49  H   UNL A   1      40.876  28.478  30.436  1.00  0.00     0.167 HD
ATOM     50  C   UNL A   1      40.591  30.942  34.035  1.00  0.00     0.034 A 
ATOM     51  C   UNL A   1      42.343  26.909  28.634  1.00  0.00     0.034 A 
ATOM     52  C   UNL A   1      41.813  30.202  34.201  1.00  0.00     0.049 A 
ATOM     53  C   UNL A   1      43.098  26.852  29.936  1.00  0.00     0.074 A 
ATOM     54  C   UNL A   1      42.699  30.215  35.265  1.00  0.00     0.029 A 
ATOM     55  N   UNL A   1      42.268  29.239  33.316  1.00  0.00    -0.354 N 
ATOM     56  N   UNL A   1      42.884  27.528  31.039  1.00  0.00    -0.248 NA
ATOM     57  C   UNL A   1      44.223  25.908  30.022  1.00  0.00     0.031 C 
ATOM     58  C   UNL A   1      43.648  29.206  35.055  1.00  0.00     0.029 A 
ATOM     59  C   UNL A   1      43.365  28.588  33.848  1.00  0.00     0.049 A 
ATOM     60  H   UNL A   1      41.868  29.046  32.437  1.00  0.00     0.167 HD
ATOM     61  C   UNL A   1      43.818  27.064  31.957  1.00  0.00     0.074 A 
ATOM     62  C   UNL A   1      44.590  26.035  31.291  1.00  0.00     0.031 C 
ATOM     63  C   UNL A   1      44.038  27.480  33.227  1.00  0.00     0.034 A 
BRANCH  50  64
ATOM     64  C   UNL A   1      40.182  31.898  35.127  1.00  0.00     0.023 A 
ATOM     65  C   UNL A   1      40.706  33.205  35.145  1.00  0.00     0.012 A 
ATOM     66  C   UNL A   1      39.247  31.519  36.114  1.00  0.00     0.148 A 
ATOM     67  C   UNL A   1      40.361  34.098  36.158  1.00  0.00     0.002 A 
ATOM     68  C   UNL A   1      38.866  32.434  37.092  1.00  0.00     0.091 A 
ATOM     69  F   UNL A   1      38.760  30.271  36.096  1.00  0.00    -0.205 F 
ATOM     70  C   UNL A   1      39.436  33.716  37.126  1.00  0.00     0.022 A 
BRANCH  68  71
ATOM     71  S   UNL A   1      37.600  32.056  38.312  1.00  0.00     0.127 S 
ATOM     72  O   UNL A   1      37.336  30.644  38.042  1.00  0.00    -0.237 OA
ATOM     73  O   UNL A   1      38.292  32.313  39.577  1.00  0.00    -0.237 OA
ATOM     74  O   UNL A   1      36.505  32.975  38.032  1.00  0.00    -0.744 OA
ENDBRANCH  68  71
ENDBRANCH  50  64
BRANCH  51  75
ATOM     75  C   UNL A   1      42.753  26.044  27.490  1.00  0.00     0.023 A 
ATOM     76  C   UNL A   1      43.633  26.583  26.528  1.00  0.00     0.012 A 
ATOM     77  C   UNL A   1      42.314  24.716  27.344  1.00  0.00     0.148 A 
ATOM     78  C   UNL A   1      44.040  25.831  25.427  1.00  0.00     0.002 A 
ATOM     79  C   UNL A   1      42.759  23.955  26.265  1.00  0.00     0.091 A 
ATOM     80  F   UNL A   1      41.467  24.217  28.255  1.00  0.00    -0.205 F 
ATOM     81  C   UNL A   1      43.609  24.514  25.298  1.00  0.00     0.022 A 
BRANCH  79  82
ATOM     82  S   UNL A   1      42.340  22.215  26.108  1.00  0.00     0.127 S 
ATOM     83  O   UNL A   1      40.900  22.268  25.876  1.00  0.00    -0.237 OA
ATOM     84  O   UNL A   1      43.133  21.798  24.950  1.00  0.00    -0.237 OA
ATOM     85  O   UNL A   1      42.772  21.616  27.366  1.00  0.00    -0.744 OA
ENDBRANCH  79  82
ENDBRANCH  51  75
BRANCH  63  86
ATOM     86  C   UNL A   1      45.097  26.778  34.028  1.00  0.00     0.023 A 
ATOM     87  C   UNL A   1      46.424  27.245  33.986  1.00  0.00     0.012 A 
ATOM     88  C   UNL A   1      44.759  25.719  34.892  1.00  0.00     0.148 A 
ATOM     89  C   UNL A   1      47.404  26.661  34.788  1.00  0.00     0.002 A 
ATOM     90  C   UNL A   1      45.735  25.160  35.708  1.00  0.00     0.091 A 
ATOM     91  F   UNL A   1      43.495  25.268  34.894  1.00  0.00    -0.205 F 
ATOM     92  C   UNL A   1      47.058  25.627  35.657  1.00  0.00     0.022 A 
BRANCH  90  93
ATOM     93  S   UNL A   1      45.339  23.875  36.902  1.00  0.00     0.127 S 
ATOM     94  O   UNL A   1      44.294  24.516  37.697  1.00  0.00    -0.237 OA
ATOM     95  O   UNL A   1      44.870  22.779  36.052  1.00  0.00    -0.237 OA
ATOM     96  O   UNL A   1      46.589  23.595  37.598  1.00  0.00    -0.744 OA
ENDBRANCH  90  93
ENDBRANCH  63  86
ENDBRANCH  37  38
ENDBRANCH  29  32
ENDBRANCH  27  28
ENDBRANCH   1  27
TORSDOF 16
ENDMDL
