MODEL 1
REMARK VINA RESULT:     -12.4      0.000      0.000
REMARK SMILES CC(C)[C@H](NC(=O)[C@H]1CC(=O)N(c2ccc(F)cc2)C1)C(=O)N1CCC[C@@H]1C(=O)NCCCCNC(=O)c1ccc(-c2c3nc(c(-c4cccc(S(=O)(=O)[O-])c4F)c4ccc([nH]4)c(-c4cccc(S(=O)(=O)[O-])c4F)c4nc(c(-c5cccc(S(=O)(=O)[O-])c5F)c5ccc2[nH]5)C=C4)C=C3)cc1
REMARK SMILES IDX 31 1 30 2 28 3 29 4 27 6 23 7 24 8 25 9 26 10 21 11 22 12
REMARK SMILES IDX 4 13 2 14 1 15 3 16 5 17 6 18 7 20 8 21 9 22 20 23 10 24
REMARK SMILES IDX 12 25 11 26 13 27 14 28 19 29 15 30 18 31 16 32 17 33 32 34
REMARK SMILES IDX 33 35 34 36 35 37 36 38 37 40 38 41 39 42 100 43 40 44 99 45
REMARK SMILES IDX 41 46 42 47 43 48 93 49 44 50 98 51 92 52 94 53 45 54 97 55
REMARK SMILES IDX 91 56 90 57 46 59 78 60 58 61 77 62 59 63 62 64 76 65 95 66
REMARK SMILES IDX 60 67 61 68 75 70 96 71 63 72 47 73 48 74 56 75 49 76 51 77
REMARK SMILES IDX 57 78 50 79 52 80 53 81 54 82 55 83 79 84 80 85 88 86 81 87
REMARK SMILES IDX 83 88 89 89 82 90 84 91 85 92 86 93 87 94 64 95 65 96 73 97
REMARK SMILES IDX 66 98 68 99 74 100 67 101 69 102 70 103 71 104 72 105
REMARK H PARENT 30 5 5 19 35 39 94 58 62 69
REMARK Flexibility Score: inf
ROOT
ATOM      1  C   UNL A   1      33.546  29.591  26.629  1.00  0.00     0.116 C 
ENDROOT
BRANCH   1   2
ATOM      2  N   UNL A   1      33.902  28.770  25.495  1.00  0.00    -0.354 N 
ATOM      3  C   UNL A   1      33.123  28.130  24.575  1.00  0.00     0.242 C 
ATOM      4  O   UNL A   1      33.698  27.341  23.817  1.00  0.00    -0.273 OA
ATOM      5  H   UNL A   1      34.869  28.651  25.365  1.00  0.00     0.163 HD
BRANCH   3   6
ATOM      6  C   UNL A   1      31.577  28.220  24.570  1.00  0.00     0.174 C 
ATOM      7  N   UNL A   1      30.866  26.940  24.540  1.00  0.00    -0.329 N 
ATOM      8  C   UNL A   1      29.812  26.947  23.544  1.00  0.00     0.120 C 
ATOM      9  C   UNL A   1      30.166  28.063  22.576  1.00  0.00     0.024 C 
ATOM     10  C   UNL A   1      31.067  29.013  23.361  1.00  0.00     0.037 C 
BRANCH   7  11
ATOM     11  C   UNL A   1      30.954  26.089  25.631  1.00  0.00     0.246 C 
ATOM     12  O   UNL A   1      30.913  26.530  26.783  1.00  0.00    -0.272 OA
BRANCH  11  13
ATOM     13  C   UNL A   1      31.384  24.608  25.409  1.00  0.00     0.174 C 
BRANCH  13  14
ATOM     14  C   UNL A   1      31.429  23.918  26.802  1.00  0.00     0.015 C 
ATOM     15  C   UNL A   1      30.371  22.812  26.888  1.00  0.00     0.010 C 
ATOM     16  C   UNL A   1      32.783  23.382  27.260  1.00  0.00     0.010 C 
ENDBRANCH  13  14
BRANCH  13  17
ATOM     17  N   UNL A   1      32.604  24.454  24.626  1.00  0.00    -0.344 N 
ATOM     18  C   UNL A   1      33.076  23.336  24.012  1.00  0.00     0.226 C 
ATOM     19  H   UNL A   1      33.157  25.262  24.529  1.00  0.00     0.164 HD
ATOM     20  O   UNL A   1      34.196  23.388  23.503  1.00  0.00    -0.275 OA
BRANCH  18  21
ATOM     21  C   UNL A   1      32.221  22.089  23.939  1.00  0.00     0.107 C 
ATOM     22  C   UNL A   1      32.101  21.635  22.487  1.00  0.00     0.116 C 
ATOM     23  C   UNL A   1      32.894  20.928  24.655  1.00  0.00     0.139 C 
ATOM     24  C   UNL A   1      32.243  20.140  22.539  1.00  0.00     0.227 C 
ATOM     25  N   UNL A   1      32.638  19.776  23.824  1.00  0.00    -0.312 N 
ATOM     26  O   UNL A   1      32.010  19.413  21.582  1.00  0.00    -0.274 OA
BRANCH  25  27
ATOM     27  C   UNL A   1      32.913  18.453  24.238  1.00  0.00     0.044 A 
ATOM     28  C   UNL A   1      33.759  17.633  23.478  1.00  0.00     0.029 A 
ATOM     29  C   UNL A   1      32.331  17.929  25.400  1.00  0.00     0.029 A 
ATOM     30  C   UNL A   1      34.024  16.318  23.870  1.00  0.00     0.041 A 
ATOM     31  C   UNL A   1      32.562  16.600  25.770  1.00  0.00     0.041 A 
ATOM     32  C   UNL A   1      33.412  15.809  25.006  1.00  0.00     0.123 A 
ATOM     33  F   UNL A   1      33.639  14.539  25.366  1.00  0.00    -0.207 F 
ENDBRANCH  25  27
ENDBRANCH  18  21
ENDBRANCH  13  17
ENDBRANCH  11  13
ENDBRANCH   7  11
ENDBRANCH   3   6
ENDBRANCH   1   2
BRANCH   1  34
ATOM     34  C   UNL A   1      34.744  30.313  27.232  1.00  0.00     0.023 C 
BRANCH  34  35
ATOM     35  C   UNL A   1      34.501  31.799  27.494  1.00  0.00     0.023 C 
BRANCH  35  36
ATOM     36  C   UNL A   1      33.062  32.184  27.833  1.00  0.00     0.116 C 
BRANCH  36  37
ATOM     37  N   UNL A   1      32.823  33.622  27.828  1.00  0.00    -0.352 N 
ATOM     38  C   UNL A   1      33.463  34.588  28.571  1.00  0.00     0.251 C 
ATOM     39  H   UNL A   1      32.118  33.942  27.221  1.00  0.00     0.163 HD
ATOM     40  O   UNL A   1      33.092  35.756  28.530  1.00  0.00    -0.269 OA
BRANCH  38  41
ATOM     41  C   UNL A   1      34.583  34.183  29.445  1.00  0.00     0.039 A 
ATOM     42  C   UNL A   1      34.316  33.405  30.573  1.00  0.00     0.014 A 
ATOM     43  C   UNL A   1      35.897  34.503  29.094  1.00  0.00     0.014 A 
ATOM     44  C   UNL A   1      35.380  32.882  31.311  1.00  0.00     0.010 A 
ATOM     45  C   UNL A   1      36.953  33.922  29.789  1.00  0.00     0.010 A 
ATOM     46  C   UNL A   1      36.706  33.101  30.901  1.00  0.00    -0.014 A 
BRANCH  46  47
ATOM     47  C   UNL A   1      37.847  32.457  31.599  1.00  0.00     0.031 A 
ATOM     48  C   UNL A   1      38.577  31.308  30.958  1.00  0.00     0.074 A 
ATOM     49  C   UNL A   1      38.171  32.848  32.848  1.00  0.00     0.049 A 
ATOM     50  N   UNL A   1      39.553  30.585  31.439  1.00  0.00    -0.248 NA
ATOM     51  C   UNL A   1      38.137  30.904  29.613  1.00  0.00     0.031 C 
ATOM     52  C   UNL A   1      37.491  33.901  33.606  1.00  0.00     0.029 A 
ATOM     53  N   UNL A   1      39.140  32.394  33.709  1.00  0.00    -0.354 N 
ATOM     54  C   UNL A   1      39.826  29.625  30.472  1.00  0.00     0.074 A 
ATOM     55  C   UNL A   1      38.885  29.833  29.393  1.00  0.00     0.031 C 
ATOM     56  C   UNL A   1      38.071  34.021  34.810  1.00  0.00     0.029 A 
ATOM     57  C   UNL A   1      39.142  33.034  34.927  1.00  0.00     0.049 A 
ATOM     58  H   UNL A   1      39.773  31.677  33.475  1.00  0.00     0.167 HD
ATOM     59  C   UNL A   1      40.793  28.679  30.467  1.00  0.00     0.034 A 
ATOM     60  C   UNL A   1      39.914  32.849  36.016  1.00  0.00     0.034 A 
ATOM     61  C   UNL A   1      41.754  28.505  31.522  1.00  0.00     0.049 A 
ATOM     62  C   UNL A   1      41.000  31.808  35.975  1.00  0.00     0.074 A 
ATOM     63  C   UNL A   1      42.820  27.624  31.573  1.00  0.00     0.029 A 
ATOM     64  N   UNL A   1      41.767  29.219  32.710  1.00  0.00    -0.354 N 
ATOM     65  N   UNL A   1      41.332  31.003  34.994  1.00  0.00    -0.248 NA
ATOM     66  C   UNL A   1      41.841  31.671  37.173  1.00  0.00     0.031 C 
ATOM     67  C   UNL A   1      43.464  27.788  32.801  1.00  0.00     0.029 A 
ATOM     68  C   UNL A   1      42.818  28.794  33.503  1.00  0.00     0.049 A 
ATOM     69  H   UNL A   1      41.124  29.923  32.953  1.00  0.00     0.167 HD
ATOM     70  C   UNL A   1      42.437  30.288  35.443  1.00  0.00     0.074 A 
ATOM     71  C   UNL A   1      42.731  30.768  36.778  1.00  0.00     0.031 C 
ATOM     72  C   UNL A   1      43.136  29.315  34.809  1.00  0.00     0.034 A 
BRANCH  59  73
ATOM     73  C   UNL A   1      40.911  27.796  29.252  1.00  0.00     0.023 A 
ATOM     74  C   UNL A   1      40.126  26.627  29.170  1.00  0.00     0.012 A 
ATOM     75  C   UNL A   1      41.721  28.164  28.160  1.00  0.00     0.148 A 
ATOM     76  C   UNL A   1      40.164  25.824  28.031  1.00  0.00     0.002 A 
ATOM     77  C   UNL A   1      41.717  27.384  27.010  1.00  0.00     0.091 A 
ATOM     78  F   UNL A   1      42.474  29.267  28.267  1.00  0.00    -0.205 F 
ATOM     79  C   UNL A   1      40.948  26.210  26.947  1.00  0.00     0.022 A 
BRANCH  77  80
ATOM     80  S   UNL A   1      42.625  27.837  25.527  1.00  0.00     0.127 S 
ATOM     81  O   UNL A   1      42.478  26.631  24.713  1.00  0.00    -0.237 OA
ATOM     82  O   UNL A   1      41.868  28.993  25.046  1.00  0.00    -0.237 OA
ATOM     83  O   UNL A   1      43.982  28.134  25.961  1.00  0.00    -0.744 OA
ENDBRANCH  77  80
ENDBRANCH  59  73
BRANCH  60  84
ATOM     84  C   UNL A   1      39.735  33.729  37.205  1.00  0.00     0.023 A 
ATOM     85  C   UNL A   1      40.180  35.065  37.145  1.00  0.00     0.012 A 
ATOM     86  C   UNL A   1      39.073  33.277  38.363  1.00  0.00     0.148 A 
ATOM     87  C   UNL A   1      39.986  35.928  38.224  1.00  0.00     0.002 A 
ATOM     88  C   UNL A   1      38.831  34.159  39.410  1.00  0.00     0.091 A 
ATOM     89  F   UNL A   1      38.666  32.001  38.403  1.00  0.00    -0.205 F 
ATOM     90  C   UNL A   1      39.301  35.480  39.350  1.00  0.00     0.022 A 
BRANCH  88  91
ATOM     91  S   UNL A   1      37.834  33.715  40.837  1.00  0.00     0.127 S 
ATOM     92  O   UNL A   1      37.727  34.992  41.538  1.00  0.00    -0.237 OA
ATOM     93  O   UNL A   1      36.598  33.251  40.205  1.00  0.00    -0.237 OA
ATOM     94  O   UNL A   1      38.580  32.675  41.533  1.00  0.00    -0.744 OA
ENDBRANCH  88  91
ENDBRANCH  60  84
BRANCH  72  95
ATOM     95  C   UNL A   1      44.314  28.704  35.523  1.00  0.00     0.023 A 
ATOM     96  C   UNL A   1      45.604  29.233  35.325  1.00  0.00     0.012 A 
ATOM     97  C   UNL A   1      44.120  27.690  36.484  1.00  0.00     0.148 A 
ATOM     98  C   UNL A   1      46.687  28.752  36.059  1.00  0.00     0.002 A 
ATOM     99  C   UNL A   1      45.196  27.252  37.248  1.00  0.00     0.091 A 
ATOM    100  F   UNL A   1      42.888  27.190  36.645  1.00  0.00    -0.205 F 
ATOM    101  C   UNL A   1      46.480  27.774  37.028  1.00  0.00     0.022 A 
BRANCH  99 102
ATOM    102  S   UNL A   1      45.009  26.074  38.592  1.00  0.00     0.127 S 
ATOM    103  O   UNL A   1      46.381  25.964  39.084  1.00  0.00    -0.237 OA
ATOM    104  O   UNL A   1      44.092  26.775  39.491  1.00  0.00    -0.237 OA
ATOM    105  O   UNL A   1      44.464  24.863  37.993  1.00  0.00    -0.744 OA
ENDBRANCH  99 102
ENDBRANCH  72  95
ENDBRANCH  46  47
ENDBRANCH  38  41
ENDBRANCH  36  37
ENDBRANCH  35  36
ENDBRANCH  34  35
ENDBRANCH   1  34
TORSDOF 20
ENDMDL
MODEL 2
REMARK VINA RESULT:     -12.1      1.039      7.410
REMARK SMILES CC(C)[C@H](NC(=O)[C@H]1CC(=O)N(c2ccc(F)cc2)C1)C(=O)N1CCC[C@@H]1C(=O)NCCCCNC(=O)c1ccc(-c2c3nc(c(-c4cccc(S(=O)(=O)[O-])c4F)c4ccc([nH]4)c(-c4cccc(S(=O)(=O)[O-])c4F)c4nc(c(-c5cccc(S(=O)(=O)[O-])c5F)c5ccc2[nH]5)C=C4)C=C3)cc1
REMARK SMILES IDX 31 1 30 2 28 3 29 4 27 6 23 7 24 8 25 9 26 10 21 11 22 12
REMARK SMILES IDX 4 13 2 14 1 15 3 16 5 17 6 18 7 20 8 21 9 22 20 23 10 24
REMARK SMILES IDX 12 25 11 26 13 27 14 28 19 29 15 30 18 31 16 32 17 33 32 34
REMARK SMILES IDX 33 35 34 36 35 37 36 38 37 40 38 41 39 42 100 43 40 44 99 45
REMARK SMILES IDX 41 46 42 47 43 48 93 49 44 50 98 51 92 52 94 53 45 54 97 55
REMARK SMILES IDX 91 56 90 57 46 59 78 60 58 61 77 62 59 63 62 64 76 65 95 66
REMARK SMILES IDX 60 67 61 68 75 70 96 71 63 72 47 73 48 74 56 75 49 76 51 77
REMARK SMILES IDX 57 78 50 79 52 80 53 81 54 82 55 83 79 84 80 85 88 86 81 87
REMARK SMILES IDX 83 88 89 89 82 90 84 91 85 92 86 93 87 94 64 95 65 96 73 97
REMARK SMILES IDX 66 98 68 99 74 100 67 101 69 102 70 103 71 104 72 105
REMARK H PARENT 30 5 5 19 35 39 94 58 62 69
REMARK Flexibility Score: inf
ROOT
ATOM      1  C   UNL A   1      33.808  29.054  26.447  1.00  0.00     0.116 C 
ENDROOT
BRANCH   1   2
ATOM      2  N   UNL A   1      33.987  29.419  25.061  1.00  0.00    -0.354 N 
ATOM      3  C   UNL A   1      33.329  29.013  23.937  1.00  0.00     0.242 C 
ATOM      4  O   UNL A   1      33.820  29.353  22.855  1.00  0.00    -0.273 OA
ATOM      5  H   UNL A   1      34.706  30.071  24.900  1.00  0.00     0.163 HD
BRANCH   3   6
ATOM      6  C   UNL A   1      32.136  28.025  23.968  1.00  0.00     0.174 C 
ATOM      7  N   UNL A   1      32.037  27.111  22.828  1.00  0.00    -0.329 N 
ATOM      8  C   UNL A   1      30.687  27.070  22.302  1.00  0.00     0.120 C 
ATOM      9  C   UNL A   1      30.015  28.343  22.789  1.00  0.00     0.024 C 
ATOM     10  C   UNL A   1      30.797  28.767  24.030  1.00  0.00     0.037 C 
BRANCH   7  11
ATOM     11  C   UNL A   1      33.015  26.146  22.644  1.00  0.00     0.246 C 
ATOM     12  O   UNL A   1      33.687  26.115  21.610  1.00  0.00    -0.272 OA
BRANCH  11  13
ATOM     13  C   UNL A   1      33.079  24.931  23.617  1.00  0.00     0.174 C 
BRANCH  13  14
ATOM     14  C   UNL A   1      32.529  25.400  24.992  1.00  0.00     0.015 C 
ATOM     15  C   UNL A   1      31.234  24.654  25.336  1.00  0.00     0.010 C 
ATOM     16  C   UNL A   1      33.492  25.344  26.175  1.00  0.00     0.010 C 
ENDBRANCH  13  14
BRANCH  13  17
ATOM     17  N   UNL A   1      34.388  24.290  23.683  1.00  0.00    -0.344 N 
ATOM     18  C   UNL A   1      34.691  23.034  24.108  1.00  0.00     0.226 C 
ATOM     19  H   UNL A   1      35.150  24.837  23.384  1.00  0.00     0.164 HD
ATOM     20  O   UNL A   1      35.880  22.730  24.202  1.00  0.00    -0.275 OA
BRANCH  18  21
ATOM     21  C   UNL A   1      33.586  22.047  24.416  1.00  0.00     0.107 C 
ATOM     22  C   UNL A   1      32.827  21.712  23.135  1.00  0.00     0.116 C 
ATOM     23  C   UNL A   1      34.160  20.719  24.886  1.00  0.00     0.139 C 
ATOM     24  C   UNL A   1      32.596  20.229  23.202  1.00  0.00     0.227 C 
ATOM     25  N   UNL A   1      33.334  19.712  24.265  1.00  0.00    -0.312 N 
ATOM     26  O   UNL A   1      31.851  19.634  22.435  1.00  0.00    -0.274 OA
BRANCH  25  27
ATOM     27  C   UNL A   1      33.400  18.344  24.610  1.00  0.00     0.044 A 
ATOM     28  C   UNL A   1      34.324  17.497  23.980  1.00  0.00     0.029 A 
ATOM     29  C   UNL A   1      32.532  17.802  25.568  1.00  0.00     0.029 A 
ATOM     30  C   UNL A   1      34.385  16.138  24.302  1.00  0.00     0.041 A 
ATOM     31  C   UNL A   1      32.565  16.434  25.860  1.00  0.00     0.041 A 
ATOM     32  C   UNL A   1      33.496  15.617  25.229  1.00  0.00     0.123 A 
ATOM     33  F   UNL A   1      33.531  14.309  25.515  1.00  0.00    -0.207 F 
ENDBRANCH  25  27
ENDBRANCH  18  21
ENDBRANCH  13  17
ENDBRANCH  11  13
ENDBRANCH   7  11
ENDBRANCH   3   6
ENDBRANCH   1   2
BRANCH   1  34
ATOM     34  C   UNL A   1      34.608  29.936  27.396  1.00  0.00     0.023 C 
BRANCH  34  35
ATOM     35  C   UNL A   1      34.261  31.422  27.299  1.00  0.00     0.023 C 
BRANCH  35  36
ATOM     36  C   UNL A   1      32.835  31.795  27.703  1.00  0.00     0.116 C 
BRANCH  36  37
ATOM     37  N   UNL A   1      32.590  33.232  27.729  1.00  0.00    -0.352 N 
ATOM     38  C   UNL A   1      33.247  34.187  28.471  1.00  0.00     0.251 C 
ATOM     39  H   UNL A   1      31.868  33.558  27.146  1.00  0.00     0.163 HD
ATOM     40  O   UNL A   1      32.870  35.354  28.460  1.00  0.00    -0.269 OA
BRANCH  38  41
ATOM     41  C   UNL A   1      34.391  33.773  29.307  1.00  0.00     0.039 A 
ATOM     42  C   UNL A   1      34.161  32.954  30.414  1.00  0.00     0.014 A 
ATOM     43  C   UNL A   1      35.693  34.125  28.939  1.00  0.00     0.014 A 
ATOM     44  C   UNL A   1      35.249  32.425  31.113  1.00  0.00     0.010 A 
ATOM     45  C   UNL A   1      36.772  33.539  29.592  1.00  0.00     0.010 A 
ATOM     46  C   UNL A   1      36.562  32.679  30.681  1.00  0.00    -0.014 A 
BRANCH  46  47
ATOM     47  C   UNL A   1      37.728  32.031  31.334  1.00  0.00     0.031 A 
ATOM     48  C   UNL A   1      38.266  32.569  32.631  1.00  0.00     0.074 A 
ATOM     49  C   UNL A   1      38.356  31.012  30.715  1.00  0.00     0.049 A 
ATOM     50  N   UNL A   1      39.307  32.176  33.315  1.00  0.00    -0.248 NA
ATOM     51  C   UNL A   1      37.557  33.715  33.225  1.00  0.00     0.031 C 
ATOM     52  C   UNL A   1      37.976  30.447  29.418  1.00  0.00     0.029 A 
ATOM     53  N   UNL A   1      39.461  30.282  31.082  1.00  0.00    -0.354 N 
ATOM     54  C   UNL A   1      39.397  33.037  34.401  1.00  0.00     0.074 A 
ATOM     55  C   UNL A   1      38.327  34.001  34.264  1.00  0.00     0.031 C 
ATOM     56  C   UNL A   1      38.821  29.452  29.106  1.00  0.00     0.029 A 
ATOM     57  C   UNL A   1      39.825  29.327  30.160  1.00  0.00     0.049 A 
ATOM     58  H   UNL A   1      39.946  30.428  31.926  1.00  0.00     0.167 HD
ATOM     59  C   UNL A   1      40.268  33.009  35.436  1.00  0.00     0.034 A 
ATOM     60  C   UNL A   1      40.850  28.452  30.158  1.00  0.00     0.034 A 
ATOM     61  C   UNL A   1      41.303  32.022  35.590  1.00  0.00     0.049 A 
ATOM     62  C   UNL A   1      41.789  28.423  31.333  1.00  0.00     0.074 A 
ATOM     63  C   UNL A   1      42.185  31.864  36.643  1.00  0.00     0.029 A 
ATOM     64  N   UNL A   1      41.596  31.029  34.669  1.00  0.00    -0.354 N 
ATOM     65  N   UNL A   1      41.772  29.158  32.420  1.00  0.00    -0.248 NA
ATOM     66  C   UNL A   1      42.868  27.424  31.303  1.00  0.00     0.031 C 
ATOM     67  C   UNL A   1      43.029  30.791  36.349  1.00  0.00     0.029 A 
ATOM     68  C   UNL A   1      42.651  30.259  35.126  1.00  0.00     0.049 A 
ATOM     69  H   UNL A   1      41.124  30.891  33.816  1.00  0.00     0.167 HD
ATOM     70  C   UNL A   1      42.812  28.691  33.215  1.00  0.00     0.074 A 
ATOM     71  C   UNL A   1      43.430  27.596  32.493  1.00  0.00     0.031 C 
ATOM     72  C   UNL A   1      43.224  29.137  34.426  1.00  0.00     0.034 A 
BRANCH  59  73
ATOM     73  C   UNL A   1      40.104  34.036  36.526  1.00  0.00     0.023 A 
ATOM     74  C   UNL A   1      40.392  35.388  36.248  1.00  0.00     0.012 A 
ATOM     75  C   UNL A   1      39.583  33.682  37.786  1.00  0.00     0.148 A 
ATOM     76  C   UNL A   1      40.188  36.370  37.216  1.00  0.00     0.002 A 
ATOM     77  C   UNL A   1      39.338  34.674  38.729  1.00  0.00     0.091 A 
ATOM     78  F   UNL A   1      39.336  32.389  38.036  1.00  0.00    -0.205 F 
ATOM     79  C   UNL A   1      39.649  36.015  38.450  1.00  0.00     0.022 A 
BRANCH  77  80
ATOM     80  S   UNL A   1      38.567  34.335  40.316  1.00  0.00     0.127 S 
ATOM     81  O   UNL A   1      39.645  33.646  41.024  1.00  0.00    -0.237 OA
ATOM     82  O   UNL A   1      38.276  35.681  40.808  1.00  0.00    -0.237 OA
ATOM     83  O   UNL A   1      37.393  33.524  40.028  1.00  0.00    -0.744 OA
ENDBRANCH  77  80
ENDBRANCH  59  73
BRANCH  60  84
ATOM     84  C   UNL A   1      40.986  27.478  29.038  1.00  0.00     0.023 A 
ATOM     85  C   UNL A   1      40.157  26.338  29.013  1.00  0.00     0.012 A 
ATOM     86  C   UNL A   1      41.876  27.703  27.970  1.00  0.00     0.148 A 
ATOM     87  C   UNL A   1      40.227  25.431  27.957  1.00  0.00     0.002 A 
ATOM     88  C   UNL A   1      41.898  26.826  26.892  1.00  0.00     0.091 A 
ATOM     89  F   UNL A   1      42.661  28.788  28.018  1.00  0.00    -0.205 F 
ATOM     90  C   UNL A   1      41.087  25.681  26.891  1.00  0.00     0.022 A 
BRANCH  88  91
ATOM     91  S   UNL A   1      42.865  27.140  25.410  1.00  0.00     0.127 S 
ATOM     92  O   UNL A   1      44.199  27.360  25.964  1.00  0.00    -0.237 OA
ATOM     93  O   UNL A   1      42.701  25.885  24.675  1.00  0.00    -0.237 OA
ATOM     94  O   UNL A   1      42.249  28.295  24.773  1.00  0.00    -0.744 OA
ENDBRANCH  88  91
ENDBRANCH  60  84
BRANCH  72  95
ATOM     95  C   UNL A   1      44.384  28.438  35.085  1.00  0.00     0.023 A 
ATOM     96  C   UNL A   1      45.702  28.834  34.786  1.00  0.00     0.012 A 
ATOM     97  C   UNL A   1      44.161  27.477  36.093  1.00  0.00     0.148 A 
ATOM     98  C   UNL A   1      46.782  28.273  35.467  1.00  0.00     0.002 A 
ATOM     99  C   UNL A   1      45.240  26.961  36.803  1.00  0.00     0.091 A 
ATOM    100  F   UNL A   1      42.901  27.102  36.350  1.00  0.00    -0.205 F 
ATOM    101  C   UNL A   1      46.550  27.350  36.483  1.00  0.00     0.022 A 
BRANCH  99 102
ATOM    102  S   UNL A   1      45.034  25.848  38.198  1.00  0.00     0.127 S 
ATOM    103  O   UNL A   1      44.210  24.790  37.617  1.00  0.00    -0.237 OA
ATOM    104  O   UNL A   1      46.413  25.457  38.488  1.00  0.00    -0.237 OA
ATOM    105  O   UNL A   1      44.392  26.631  39.246  1.00  0.00    -0.744 OA
ENDBRANCH  99 102
ENDBRANCH  72  95
ENDBRANCH  46  47
ENDBRANCH  38  41
ENDBRANCH  36  37
ENDBRANCH  35  36
ENDBRANCH  34  35
ENDBRANCH   1  34
TORSDOF 20
ENDMDL
MODEL 3
REMARK VINA RESULT:     -11.1      3.805      8.555
REMARK SMILES CC(C)[C@H](NC(=O)[C@H]1CC(=O)N(c2ccc(F)cc2)C1)C(=O)N1CCC[C@@H]1C(=O)NCCCCNC(=O)c1ccc(-c2c3nc(c(-c4cccc(S(=O)(=O)[O-])c4F)c4ccc([nH]4)c(-c4cccc(S(=O)(=O)[O-])c4F)c4nc(c(-c5cccc(S(=O)(=O)[O-])c5F)c5ccc2[nH]5)C=C4)C=C3)cc1
REMARK SMILES IDX 31 1 30 2 28 3 29 4 27 6 23 7 24 8 25 9 26 10 21 11 22 12
REMARK SMILES IDX 4 13 2 14 1 15 3 16 5 17 6 18 7 20 8 21 9 22 20 23 10 24
REMARK SMILES IDX 12 25 11 26 13 27 14 28 19 29 15 30 18 31 16 32 17 33 32 34
REMARK SMILES IDX 33 35 34 36 35 37 36 38 37 40 38 41 39 42 100 43 40 44 99 45
REMARK SMILES IDX 41 46 42 47 43 48 93 49 44 50 98 51 92 52 94 53 45 54 97 55
REMARK SMILES IDX 91 56 90 57 46 59 78 60 58 61 77 62 59 63 62 64 76 65 95 66
REMARK SMILES IDX 60 67 61 68 75 70 96 71 63 72 47 73 48 74 56 75 49 76 51 77
REMARK SMILES IDX 57 78 50 79 52 80 53 81 54 82 55 83 79 84 80 85 88 86 81 87
REMARK SMILES IDX 83 88 89 89 82 90 84 91 85 92 86 93 87 94 64 95 65 96 73 97
REMARK SMILES IDX 66 98 68 99 74 100 67 101 69 102 70 103 71 104 72 105
REMARK H PARENT 30 5 5 19 35 39 94 58 62 69
REMARK Flexibility Score: inf
ROOT
ATOM      1  C   UNL A   1      33.866  28.419  24.028  1.00  0.00     0.116 C 
ENDROOT
BRANCH   1   2
ATOM      2  N   UNL A   1      33.800  27.827  22.712  1.00  0.00    -0.354 N 
ATOM      3  C   UNL A   1      33.323  26.617  22.298  1.00  0.00     0.242 C 
ATOM      4  O   UNL A   1      33.564  26.298  21.129  1.00  0.00    -0.273 OA
ATOM      5  H   UNL A   1      34.161  28.392  21.992  1.00  0.00     0.163 HD
BRANCH   3   6
ATOM      6  C   UNL A   1      32.673  25.593  23.261  1.00  0.00     0.174 C 
ATOM      7  N   UNL A   1      32.847  24.184  22.902  1.00  0.00    -0.329 N 
ATOM      8  C   UNL A   1      31.593  23.461  22.984  1.00  0.00     0.120 C 
ATOM      9  C   UNL A   1      30.502  24.517  22.912  1.00  0.00     0.024 C 
ATOM     10  C   UNL A   1      31.161  25.814  23.375  1.00  0.00     0.037 C 
BRANCH   7  11
ATOM     11  C   UNL A   1      34.116  23.625  22.938  1.00  0.00     0.246 C 
ATOM     12  O   UNL A   1      34.711  23.340  21.896  1.00  0.00    -0.272 OA
BRANCH  11  13
ATOM     13  C   UNL A   1      34.679  23.098  24.292  1.00  0.00     0.174 C 
BRANCH  13  14
ATOM     14  C   UNL A   1      35.625  24.190  24.864  1.00  0.00     0.015 C 
ATOM     15  C   UNL A   1      34.860  25.122  25.811  1.00  0.00     0.010 C 
ATOM     16  C   UNL A   1      36.909  23.706  25.533  1.00  0.00     0.010 C 
ENDBRANCH  13  14
BRANCH  13  17
ATOM     17  N   UNL A   1      35.276  21.771  24.211  1.00  0.00    -0.344 N 
ATOM     18  C   UNL A   1      35.044  20.692  25.005  1.00  0.00     0.226 C 
ATOM     19  H   UNL A   1      35.933  21.639  23.489  1.00  0.00     0.164 HD
ATOM     20  O   UNL A   1      35.750  19.696  24.844  1.00  0.00    -0.275 OA
BRANCH  18  21
ATOM     21  C   UNL A   1      33.926  20.724  26.025  1.00  0.00     0.107 C 
ATOM     22  C   UNL A   1      34.425  21.379  27.310  1.00  0.00     0.116 C 
ATOM     23  C   UNL A   1      32.786  21.612  25.553  1.00  0.00     0.139 C 
ATOM     24  C   UNL A   1      33.296  22.267  27.751  1.00  0.00     0.227 C 
ATOM     25  N   UNL A   1      32.347  22.319  26.732  1.00  0.00    -0.312 N 
ATOM     26  O   UNL A   1      33.262  22.809  28.849  1.00  0.00    -0.274 OA
BRANCH  25  27
ATOM     27  C   UNL A   1      31.166  23.092  26.770  1.00  0.00     0.044 A 
ATOM     28  C   UNL A   1      31.211  24.470  26.513  1.00  0.00     0.029 A 
ATOM     29  C   UNL A   1      29.933  22.505  27.087  1.00  0.00     0.029 A 
ATOM     30  C   UNL A   1      30.050  25.247  26.565  1.00  0.00     0.041 A 
ATOM     31  C   UNL A   1      28.778  23.290  27.179  1.00  0.00     0.041 A 
ATOM     32  C   UNL A   1      28.846  24.651  26.911  1.00  0.00     0.123 A 
ATOM     33  F   UNL A   1      27.739  25.400  26.992  1.00  0.00    -0.207 F 
ENDBRANCH  25  27
ENDBRANCH  18  21
ENDBRANCH  13  17
ENDBRANCH  11  13
ENDBRANCH   7  11
ENDBRANCH   3   6
ENDBRANCH   1   2
BRANCH   1  34
ATOM     34  C   UNL A   1      32.537  29.010  24.475  1.00  0.00     0.023 C 
BRANCH  34  35
ATOM     35  C   UNL A   1      32.233  28.797  25.958  1.00  0.00     0.023 C 
BRANCH  35  36
ATOM     36  C   UNL A   1      33.372  29.132  26.921  1.00  0.00     0.116 C 
BRANCH  36  37
ATOM     37  N   UNL A   1      33.549  30.561  27.145  1.00  0.00    -0.352 N 
ATOM     38  C   UNL A   1      34.621  31.199  27.729  1.00  0.00     0.251 C 
ATOM     39  H   UNL A   1      32.814  31.141  26.844  1.00  0.00     0.163 HD
ATOM     40  O   UNL A   1      34.591  32.407  27.935  1.00  0.00    -0.269 OA
BRANCH  38  41
ATOM     41  C   UNL A   1      35.790  30.393  28.133  1.00  0.00     0.039 A 
ATOM     42  C   UNL A   1      36.915  30.365  27.306  1.00  0.00     0.014 A 
ATOM     43  C   UNL A   1      35.799  29.742  29.370  1.00  0.00     0.014 A 
ATOM     44  C   UNL A   1      38.080  29.742  27.755  1.00  0.00     0.010 A 
ATOM     45  C   UNL A   1      36.983  29.185  29.842  1.00  0.00     0.010 A 
ATOM     46  C   UNL A   1      38.137  29.185  29.043  1.00  0.00    -0.014 A 
BRANCH  46  47
ATOM     47  C   UNL A   1      39.400  28.624  29.588  1.00  0.00     0.031 A 
ATOM     48  C   UNL A   1      40.043  29.242  30.799  1.00  0.00     0.074 A 
ATOM     49  C   UNL A   1      40.015  27.615  28.940  1.00  0.00     0.049 A 
ATOM     50  N   UNL A   1      41.172  28.930  31.379  1.00  0.00    -0.248 NA
ATOM     51  C   UNL A   1      39.339  30.373  31.426  1.00  0.00     0.031 C 
ATOM     52  C   UNL A   1      39.530  26.979  27.713  1.00  0.00     0.029 A 
ATOM     53  N   UNL A   1      41.191  26.957  29.210  1.00  0.00    -0.354 N 
ATOM     54  C   UNL A   1      41.329  29.839  32.418  1.00  0.00     0.074 A 
ATOM     55  C   UNL A   1      40.199  30.741  32.365  1.00  0.00     0.031 C 
ATOM     56  C   UNL A   1      40.391  26.017  27.345  1.00  0.00     0.029 A 
ATOM     57  C   UNL A   1      41.506  25.986  28.287  1.00  0.00     0.049 A 
ATOM     58  H   UNL A   1      41.754  27.163  29.991  1.00  0.00     0.167 HD
ATOM     59  C   UNL A   1      42.306  29.897  33.353  1.00  0.00     0.034 A 
ATOM     60  C   UNL A   1      42.572  25.166  28.205  1.00  0.00     0.034 A 
ATOM     61  C   UNL A   1      43.404  28.972  33.427  1.00  0.00     0.049 A 
ATOM     62  C   UNL A   1      43.632  25.232  29.271  1.00  0.00     0.074 A 
ATOM     63  C   UNL A   1      44.401  28.903  34.384  1.00  0.00     0.029 A 
ATOM     64  N   UNL A   1      43.652  27.958  32.515  1.00  0.00    -0.354 N 
ATOM     65  N   UNL A   1      43.690  26.009  30.327  1.00  0.00    -0.248 NA
ATOM     66  C   UNL A   1      44.755  24.290  29.159  1.00  0.00     0.031 C 
ATOM     67  C   UNL A   1      45.267  27.863  34.037  1.00  0.00     0.029 A 
ATOM     68  C   UNL A   1      44.790  27.263  32.882  1.00  0.00     0.049 A 
ATOM     69  H   UNL A   1      43.100  27.762  31.724  1.00  0.00     0.167 HD
ATOM     70  C   UNL A   1      44.834  25.629  31.020  1.00  0.00     0.074 A 
ATOM     71  C   UNL A   1      45.430  24.539  30.274  1.00  0.00     0.031 C 
ATOM     72  C   UNL A   1      45.347  26.145  32.163  1.00  0.00     0.034 A 
BRANCH  59  73
ATOM     73  C   UNL A   1      42.202  30.958  34.417  1.00  0.00     0.023 A 
ATOM     74  C   UNL A   1      41.587  30.644  35.646  1.00  0.00     0.012 A 
ATOM     75  C   UNL A   1      42.789  32.226  34.240  1.00  0.00     0.148 A 
ATOM     76  C   UNL A   1      41.533  31.584  36.675  1.00  0.00     0.002 A 
ATOM     77  C   UNL A   1      42.774  33.140  35.287  1.00  0.00     0.091 A 
ATOM     78  F   UNL A   1      43.351  32.511  33.057  1.00  0.00    -0.205 F 
ATOM     79  C   UNL A   1      42.138  32.825  36.500  1.00  0.00     0.022 A 
BRANCH  77  80
ATOM     80  S   UNL A   1      43.598  34.734  35.195  1.00  0.00     0.127 S 
ATOM     81  O   UNL A   1      43.084  35.258  33.930  1.00  0.00    -0.237 OA
ATOM     82  O   UNL A   1      43.087  35.411  36.388  1.00  0.00    -0.237 OA
ATOM     83  O   UNL A   1      45.025  34.452  35.219  1.00  0.00    -0.744 OA
ENDBRANCH  77  80
ENDBRANCH  59  73
BRANCH  60  84
ATOM     84  C   UNL A   1      42.642  24.155  27.111  1.00  0.00     0.023 A 
ATOM     85  C   UNL A   1      43.379  24.451  25.947  1.00  0.00     0.012 A 
ATOM     86  C   UNL A   1      42.042  22.888  27.240  1.00  0.00     0.148 A 
ATOM     87  C   UNL A   1      43.501  23.511  24.924  1.00  0.00     0.002 A 
ATOM     88  C   UNL A   1      42.217  21.935  26.244  1.00  0.00     0.091 A 
ATOM     89  F   UNL A   1      41.337  22.630  28.351  1.00  0.00    -0.205 F 
ATOM     90  C   UNL A   1      42.933  22.250  25.078  1.00  0.00     0.022 A 
BRANCH  88  91
ATOM     91  S   UNL A   1      41.646  20.240  26.415  1.00  0.00     0.127 S 
ATOM     92  O   UNL A   1      40.205  20.389  26.223  1.00  0.00    -0.237 OA
ATOM     93  O   UNL A   1      42.350  19.575  25.318  1.00  0.00    -0.237 OA
ATOM     94  O   UNL A   1      42.064  19.814  27.743  1.00  0.00    -0.744 OA
ENDBRANCH  88  91
ENDBRANCH  60  84
BRANCH  72  95
ATOM     95  C   UNL A   1      46.608  25.533  32.716  1.00  0.00     0.023 A 
ATOM     96  C   UNL A   1      47.861  26.066  32.356  1.00  0.00     0.012 A 
ATOM     97  C   UNL A   1      46.542  24.515  33.690  1.00  0.00     0.148 A 
ATOM     98  C   UNL A   1      49.030  25.583  32.942  1.00  0.00     0.002 A 
ATOM     99  C   UNL A   1      47.707  24.075  34.306  1.00  0.00     0.091 A 
ATOM    100  F   UNL A   1      45.341  24.011  34.006  1.00  0.00    -0.205 F 
ATOM    101  C   UNL A   1      48.952  24.601  33.926  1.00  0.00     0.022 A 
BRANCH  99 102
ATOM    102  S   UNL A   1      47.697  22.891  35.658  1.00  0.00     0.127 S 
ATOM    103  O   UNL A   1      49.126  22.673  35.874  1.00  0.00    -0.237 OA
ATOM    104  O   UNL A   1      47.027  23.642  36.720  1.00  0.00    -0.237 OA
ATOM    105  O   UNL A   1      46.958  21.734  35.174  1.00  0.00    -0.744 OA
ENDBRANCH  99 102
ENDBRANCH  72  95
ENDBRANCH  46  47
ENDBRANCH  38  41
ENDBRANCH  36  37
ENDBRANCH  35  36
ENDBRANCH  34  35
ENDBRANCH   1  34
TORSDOF 20
ENDMDL
