MODEL 1
REMARK VINA RESULT:     -10.9      0.000      0.000
REMARK SMILES CN(CC1CCC1)C(=O)N(CC(=O)NCCCCNC(=O)c1ccc(-c2c3nc(c(-c4cccc(S(=O)(=O)[O-])c4F)c4ccc([nH]4)c(-c4cccc(S(=O)(=O)[O-])c4F)c4nc(c(-c5cccc(S(=O)(=O)[O-])c5F)c5ccc2[nH]5)C=C4)C=C3)cc1)C(C)(C)C
REMARK SMILES IDX 15 1 14 2 12 3 13 4 11 6 10 7 8 8 9 9 2 10 1 11 3 12 4 13
REMARK SMILES IDX 5 14 7 15 6 16 85 17 86 18 87 19 88 20 16 21 17 22 18 23
REMARK SMILES IDX 19 24 20 25 21 27 22 28 23 29 84 30 24 31 83 32 25 33 26 34
REMARK SMILES IDX 27 35 77 36 28 37 82 38 76 39 78 40 29 41 81 42 75 43 74 44
REMARK SMILES IDX 30 46 62 47 42 48 61 49 43 50 46 51 60 52 79 53 44 54 45 55
REMARK SMILES IDX 59 57 80 58 47 59 31 60 32 61 40 62 33 63 35 64 41 65 34 66
REMARK SMILES IDX 36 67 37 68 38 69 39 70 63 71 64 72 72 73 65 74 67 75 73 76
REMARK SMILES IDX 66 77 68 78 69 79 70 80 71 81 48 82 49 83 57 84 50 85 52 86
REMARK SMILES IDX 58 87 51 88 53 89 54 90 55 91 56 92
REMARK H PARENT 14 5 19 26 78 45 46 56
REMARK Flexibility Score: inf
ROOT
ATOM      1  C   UNL A   1      33.400  27.253  26.129  1.00  0.00     0.116 C 
ENDROOT
BRANCH   1   2
ATOM      2  N   UNL A   1      32.408  26.213  25.992  1.00  0.00    -0.355 N 
ATOM      3  C   UNL A   1      32.571  24.863  26.079  1.00  0.00     0.239 C 
ATOM      4  O   UNL A   1      31.562  24.182  26.301  1.00  0.00    -0.273 OA
ATOM      5  H   UNL A   1      31.489  26.521  25.811  1.00  0.00     0.163 HD
BRANCH   3   6
ATOM      6  C   UNL A   1      33.957  24.188  26.091  1.00  0.00     0.221 C 
BRANCH   6   7
ATOM      7  N   UNL A   1      34.415  23.409  24.939  1.00  0.00    -0.311 N 
BRANCH   7   8
ATOM      8  C   UNL A   1      33.619  23.007  23.865  1.00  0.00     0.320 C 
ATOM      9  O   UNL A   1      33.565  23.715  22.850  1.00  0.00    -0.248 OA
BRANCH   8  10
ATOM     10  N   UNL A   1      32.953  21.780  23.820  1.00  0.00    -0.327 N 
ATOM     11  C   UNL A   1      32.159  21.615  22.596  1.00  0.00     0.148 C 
BRANCH  10  12
ATOM     12  C   UNL A   1      32.502  20.916  24.922  1.00  0.00     0.124 C 
BRANCH  12  13
ATOM     13  C   UNL A   1      32.712  19.416  24.625  1.00  0.00     0.008 C 
ATOM     14  C   UNL A   1      34.084  18.755  24.271  1.00  0.00     0.005 C 
ATOM     15  C   UNL A   1      32.588  18.341  25.744  1.00  0.00     0.005 C 
ATOM     16  C   UNL A   1      33.600  17.476  24.980  1.00  0.00     0.001 C 
ENDBRANCH  12  13
ENDBRANCH  10  12
ENDBRANCH   8  10
ENDBRANCH   7   8
BRANCH   7  17
ATOM     17  C   UNL A   1      35.831  22.832  25.043  1.00  0.00     0.037 C 
ATOM     18  C   UNL A   1      35.849  21.566  25.929  1.00  0.00     0.034 C 
ATOM     19  C   UNL A   1      36.416  22.494  23.650  1.00  0.00     0.034 C 
ATOM     20  C   UNL A   1      36.869  23.804  25.676  1.00  0.00     0.034 C 
ENDBRANCH   7  17
ENDBRANCH   6   7
ENDBRANCH   3   6
ENDBRANCH   1   2
BRANCH   1  21
ATOM     21  C   UNL A   1      33.469  28.217  24.953  1.00  0.00     0.023 C 
BRANCH  21  22
ATOM     22  C   UNL A   1      32.698  29.515  25.150  1.00  0.00     0.023 C 
BRANCH  22  23
ATOM     23  C   UNL A   1      32.412  29.886  26.602  1.00  0.00     0.116 C 
BRANCH  23  24
ATOM     24  N   UNL A   1      32.391  31.324  26.842  1.00  0.00    -0.352 N 
ATOM     25  C   UNL A   1      33.335  32.117  27.450  1.00  0.00     0.251 C 
ATOM     26  H   UNL A   1      31.585  31.793  26.525  1.00  0.00     0.163 HD
ATOM     27  O   UNL A   1      33.101  33.305  27.665  1.00  0.00    -0.269 OA
BRANCH  25  28
ATOM     28  C   UNL A   1      34.620  31.525  27.880  1.00  0.00     0.039 A 
ATOM     29  C   UNL A   1      35.736  32.354  28.019  1.00  0.00     0.014 A 
ATOM     30  C   UNL A   1      34.706  30.169  28.206  1.00  0.00     0.014 A 
ATOM     31  C   UNL A   1      36.910  31.841  28.577  1.00  0.00     0.010 A 
ATOM     32  C   UNL A   1      35.844  29.685  28.844  1.00  0.00     0.010 A 
ATOM     33  C   UNL A   1      36.958  30.516  29.044  1.00  0.00    -0.014 A 
BRANCH  33  34
ATOM     34  C   UNL A   1      38.145  29.996  29.774  1.00  0.00     0.031 A 
ATOM     35  C   UNL A   1      38.459  30.481  31.165  1.00  0.00     0.074 A 
ATOM     36  C   UNL A   1      38.997  29.159  29.148  1.00  0.00     0.049 A 
ATOM     37  N   UNL A   1      39.476  30.181  31.931  1.00  0.00    -0.248 NA
ATOM     38  C   UNL A   1      37.527  31.452  31.764  1.00  0.00     0.031 C 
ATOM     39  C   UNL A   1      38.863  28.688  27.767  1.00  0.00     0.029 A 
ATOM     40  N   UNL A   1      40.166  28.579  29.580  1.00  0.00    -0.354 N 
ATOM     41  C   UNL A   1      39.331  30.950  33.079  1.00  0.00     0.074 A 
ATOM     42  C   UNL A   1      38.142  31.754  32.900  1.00  0.00     0.031 C 
ATOM     43  C   UNL A   1      39.903  27.893  27.468  1.00  0.00     0.029 A 
ATOM     44  C   UNL A   1      40.795  27.817  28.621  1.00  0.00     0.049 A 
ATOM     45  H   UNL A   1      40.520  28.695  30.491  1.00  0.00     0.167 HD
ATOM     46  C   UNL A   1      40.099  30.966  34.193  1.00  0.00     0.034 A 
ATOM     47  C   UNL A   1      41.962  27.143  28.660  1.00  0.00     0.034 A 
ATOM     48  C   UNL A   1      41.247  30.125  34.395  1.00  0.00     0.049 A 
ATOM     49  C   UNL A   1      42.759  27.131  29.936  1.00  0.00     0.074 A 
ATOM     50  C   UNL A   1      42.020  29.990  35.535  1.00  0.00     0.029 A 
ATOM     51  N   UNL A   1      41.793  29.285  33.439  1.00  0.00    -0.354 N 
ATOM     52  N   UNL A   1      42.500  27.721  31.077  1.00  0.00    -0.248 NA
ATOM     53  C   UNL A   1      43.991  26.327  29.944  1.00  0.00     0.031 C 
ATOM     54  C   UNL A   1      43.051  29.085  35.259  1.00  0.00     0.029 A 
ATOM     55  C   UNL A   1      42.901  28.636  33.958  1.00  0.00     0.049 A 
ATOM     56  H   UNL A   1      41.445  29.166  32.526  1.00  0.00     0.167 HD
ATOM     57  C   UNL A   1      43.513  27.331  31.946  1.00  0.00     0.074 A 
ATOM     58  C   UNL A   1      44.377  26.435  31.208  1.00  0.00     0.031 C 
ATOM     59  C   UNL A   1      43.719  27.698  33.235  1.00  0.00     0.034 A 
BRANCH  46  60
ATOM     60  C   UNL A   1      39.694  31.880  35.318  1.00  0.00     0.023 A 
ATOM     61  C   UNL A   1      40.076  33.237  35.284  1.00  0.00     0.012 A 
ATOM     62  C   UNL A   1      38.858  31.423  36.356  1.00  0.00     0.148 A 
ATOM     63  C   UNL A   1      39.652  34.119  36.276  1.00  0.00     0.002 A 
ATOM     64  C   UNL A   1      38.404  32.318  37.318  1.00  0.00     0.091 A 
ATOM     65  F   UNL A   1      38.522  30.125  36.382  1.00  0.00    -0.205 F 
ATOM     66  C   UNL A   1      38.808  33.663  37.285  1.00  0.00     0.022 A 
BRANCH  64  67
ATOM     67  S   UNL A   1      37.250  31.851  38.613  1.00  0.00     0.127 S 
ATOM     68  O   UNL A   1      36.934  30.472  38.244  1.00  0.00    -0.237 OA
ATOM     69  O   UNL A   1      38.070  31.988  39.816  1.00  0.00    -0.237 OA
ATOM     70  O   UNL A   1      36.140  32.790  38.521  1.00  0.00    -0.744 OA
ENDBRANCH  64  67
ENDBRANCH  46  60
BRANCH  47  71
ATOM     71  C   UNL A   1      42.424  26.373  27.469  1.00  0.00     0.023 A 
ATOM     72  C   UNL A   1      43.177  27.024  26.471  1.00  0.00     0.012 A 
ATOM     73  C   UNL A   1      42.125  25.006  27.318  1.00  0.00     0.148 A 
ATOM     74  C   UNL A   1      43.585  26.338  25.327  1.00  0.00     0.002 A 
ATOM     75  C   UNL A   1      42.585  24.315  26.204  1.00  0.00     0.091 A 
ATOM     76  F   UNL A   1      41.395  24.406  28.269  1.00  0.00    -0.205 F 
ATOM     77  C   UNL A   1      43.298  24.983  25.197  1.00  0.00     0.022 A 
BRANCH  75  78
ATOM     78  S   UNL A   1      42.375  22.540  26.026  1.00  0.00     0.127 S 
ATOM     79  O   UNL A   1      42.973  22.297  24.716  1.00  0.00    -0.237 OA
ATOM     80  O   UNL A   1      43.143  22.025  27.160  1.00  0.00    -0.237 OA
ATOM     81  O   UNL A   1      40.940  22.308  26.125  1.00  0.00    -0.744 OA
ENDBRANCH  75  78
ENDBRANCH  47  71
BRANCH  59  82
ATOM     82  C   UNL A   1      44.902  27.103  33.954  1.00  0.00     0.023 A 
ATOM     83  C   UNL A   1      46.140  27.776  33.945  1.00  0.00     0.012 A 
ATOM     84  C   UNL A   1      44.765  25.916  34.701  1.00  0.00     0.148 A 
ATOM     85  C   UNL A   1      47.232  27.258  34.640  1.00  0.00     0.002 A 
ATOM     86  C   UNL A   1      45.843  25.434  35.431  1.00  0.00     0.091 A 
ATOM     87  F   UNL A   1      43.583  25.281  34.682  1.00  0.00    -0.205 F 
ATOM     88  C   UNL A   1      47.080  26.096  35.392  1.00  0.00     0.022 A 
BRANCH  86  89
ATOM     89  S   UNL A   1      45.712  24.000  36.505  1.00  0.00     0.127 S 
ATOM     90  O   UNL A   1      45.004  23.050  35.649  1.00  0.00    -0.237 OA
ATOM     91  O   UNL A   1      47.115  23.667  36.755  1.00  0.00    -0.237 OA
ATOM     92  O   UNL A   1      44.980  24.447  37.684  1.00  0.00    -0.744 OA
ENDBRANCH  86  89
ENDBRANCH  59  82
ENDBRANCH  33  34
ENDBRANCH  25  28
ENDBRANCH  23  24
ENDBRANCH  22  23
ENDBRANCH  21  22
ENDBRANCH   1  21
TORSDOF 20
ENDMDL
MODEL 2
REMARK VINA RESULT:     -10.7      2.417      8.416
REMARK SMILES CN(CC1CCC1)C(=O)N(CC(=O)NCCCCNC(=O)c1ccc(-c2c3nc(c(-c4cccc(S(=O)(=O)[O-])c4F)c4ccc([nH]4)c(-c4cccc(S(=O)(=O)[O-])c4F)c4nc(c(-c5cccc(S(=O)(=O)[O-])c5F)c5ccc2[nH]5)C=C4)C=C3)cc1)C(C)(C)C
REMARK SMILES IDX 15 1 14 2 12 3 13 4 11 6 10 7 8 8 9 9 2 10 1 11 3 12 4 13
REMARK SMILES IDX 5 14 7 15 6 16 85 17 86 18 87 19 88 20 16 21 17 22 18 23
REMARK SMILES IDX 19 24 20 25 21 27 22 28 23 29 84 30 24 31 83 32 25 33 26 34
REMARK SMILES IDX 27 35 77 36 28 37 82 38 76 39 78 40 29 41 81 42 75 43 74 44
REMARK SMILES IDX 30 46 62 47 42 48 61 49 43 50 46 51 60 52 79 53 44 54 45 55
REMARK SMILES IDX 59 57 80 58 47 59 31 60 32 61 40 62 33 63 35 64 41 65 34 66
REMARK SMILES IDX 36 67 37 68 38 69 39 70 63 71 64 72 72 73 65 74 67 75 73 76
REMARK SMILES IDX 66 77 68 78 69 79 70 80 71 81 48 82 49 83 57 84 50 85 52 86
REMARK SMILES IDX 58 87 51 88 53 89 54 90 55 91 56 92
REMARK H PARENT 14 5 19 26 78 45 46 56
REMARK Flexibility Score: inf
ROOT
ATOM      1  C   UNL A   1      34.300  29.580  27.319  1.00  0.00     0.116 C 
ENDROOT
BRANCH   1   2
ATOM      2  N   UNL A   1      32.929  29.203  27.577  1.00  0.00    -0.355 N 
ATOM      3  C   UNL A   1      32.301  28.027  27.292  1.00  0.00     0.239 C 
ATOM      4  O   UNL A   1      31.263  27.773  27.915  1.00  0.00    -0.273 OA
ATOM      5  H   UNL A   1      32.375  29.887  28.018  1.00  0.00     0.163 HD
BRANCH   3   6
ATOM      6  C   UNL A   1      32.918  26.950  26.379  1.00  0.00     0.221 C 
BRANCH   6   7
ATOM      7  N   UNL A   1      32.071  25.932  25.752  1.00  0.00    -0.311 N 
BRANCH   7   8
ATOM      8  C   UNL A   1      31.837  24.652  26.257  1.00  0.00     0.320 C 
ATOM      9  O   UNL A   1      30.779  24.419  26.857  1.00  0.00    -0.248 OA
BRANCH   8  10
ATOM     10  N   UNL A   1      32.689  23.568  26.026  1.00  0.00    -0.327 N 
ATOM     11  C   UNL A   1      31.971  22.288  25.978  1.00  0.00     0.148 C 
BRANCH  10  12
ATOM     12  C   UNL A   1      34.119  23.417  26.335  1.00  0.00     0.124 C 
BRANCH  12  13
ATOM     13  C   UNL A   1      35.013  23.542  25.082  1.00  0.00     0.008 C 
ATOM     14  C   UNL A   1      36.548  23.838  25.102  1.00  0.00     0.005 C 
ATOM     15  C   UNL A   1      35.357  22.306  24.201  1.00  0.00     0.005 C 
ATOM     16  C   UNL A   1      36.684  22.980  23.830  1.00  0.00     0.001 C 
ENDBRANCH  12  13
ENDBRANCH  10  12
ENDBRANCH   8  10
ENDBRANCH   7   8
BRANCH   7  17
ATOM     17  C   UNL A   1      31.580  26.251  24.336  1.00  0.00     0.037 C 
ATOM     18  C   UNL A   1      30.192  26.931  24.371  1.00  0.00     0.034 C 
ATOM     19  C   UNL A   1      32.578  27.156  23.575  1.00  0.00     0.034 C 
ATOM     20  C   UNL A   1      31.414  25.001  23.423  1.00  0.00     0.034 C 
ENDBRANCH   7  17
ENDBRANCH   6   7
ENDBRANCH   3   6
ENDBRANCH   1   2
BRANCH   1  21
ATOM     21  C   UNL A   1      34.738  30.867  28.001  1.00  0.00     0.023 C 
BRANCH  21  22
ATOM     22  C   UNL A   1      33.615  31.864  28.258  1.00  0.00     0.023 C 
BRANCH  22  23
ATOM     23  C   UNL A   1      33.425  32.919  27.173  1.00  0.00     0.116 C 
BRANCH  23  24
ATOM     24  N   UNL A   1      32.831  34.157  27.663  1.00  0.00    -0.352 N 
ATOM     25  C   UNL A   1      33.176  34.912  28.760  1.00  0.00     0.251 C 
ATOM     26  H   UNL A   1      32.076  34.502  27.133  1.00  0.00     0.163 HD
ATOM     27  O   UNL A   1      32.490  35.878  29.088  1.00  0.00    -0.269 OA
BRANCH  25  28
ATOM     28  C   UNL A   1      34.353  34.529  29.569  1.00  0.00     0.039 A 
ATOM     29  C   UNL A   1      34.155  33.998  30.845  1.00  0.00     0.014 A 
ATOM     30  C   UNL A   1      35.644  34.635  29.044  1.00  0.00     0.014 A 
ATOM     31  C   UNL A   1      35.244  33.484  31.555  1.00  0.00     0.010 A 
ATOM     32  C   UNL A   1      36.711  34.042  29.713  1.00  0.00     0.010 A 
ATOM     33  C   UNL A   1      36.523  33.453  30.973  1.00  0.00    -0.014 A 
BRANCH  33  34
ATOM     34  C   UNL A   1      37.664  32.778  31.648  1.00  0.00     0.031 A 
ATOM     35  C   UNL A   1      38.367  31.621  30.988  1.00  0.00     0.074 A 
ATOM     36  C   UNL A   1      38.006  33.142  32.901  1.00  0.00     0.049 A 
ATOM     37  N   UNL A   1      39.341  30.880  31.448  1.00  0.00    -0.248 NA
ATOM     38  C   UNL A   1      37.897  31.226  29.650  1.00  0.00     0.031 C 
ATOM     39  C   UNL A   1      37.342  34.182  33.694  1.00  0.00     0.029 A 
ATOM     40  N   UNL A   1      38.977  32.658  33.744  1.00  0.00    -0.354 N 
ATOM     41  C   UNL A   1      39.574  29.911  30.480  1.00  0.00     0.074 A 
ATOM     42  C   UNL A   1      38.620  30.138  29.417  1.00  0.00     0.031 C 
ATOM     43  C   UNL A   1      37.925  34.257  34.901  1.00  0.00     0.029 A 
ATOM     44  C   UNL A   1      38.984  33.256  34.984  1.00  0.00     0.049 A 
ATOM     45  H   UNL A   1      39.610  31.950  33.485  1.00  0.00     0.167 HD
ATOM     46  C   UNL A   1      40.514  28.938  30.462  1.00  0.00     0.034 A 
ATOM     47  C   UNL A   1      39.748  33.020  36.070  1.00  0.00     0.034 A 
ATOM     48  C   UNL A   1      41.500  28.747  31.490  1.00  0.00     0.049 A 
ATOM     49  C   UNL A   1      40.826  31.972  35.994  1.00  0.00     0.074 A 
ATOM     50  C   UNL A   1      42.562  27.860  31.506  1.00  0.00     0.029 A 
ATOM     51  N   UNL A   1      41.543  29.444  32.687  1.00  0.00    -0.354 N 
ATOM     52  N   UNL A   1      41.149  31.191  34.992  1.00  0.00    -0.248 NA
ATOM     53  C   UNL A   1      41.672  31.799  37.185  1.00  0.00     0.031 C 
ATOM     54  C   UNL A   1      43.234  28.003  32.724  1.00  0.00     0.029 A 
ATOM     55  C   UNL A   1      42.607  29.000  33.454  1.00  0.00     0.049 A 
ATOM     56  H   UNL A   1      40.912  30.150  32.952  1.00  0.00     0.167 HD
ATOM     57  C   UNL A   1      42.255  30.464  35.417  1.00  0.00     0.074 A 
ATOM     58  C   UNL A   1      42.562  30.914  36.758  1.00  0.00     0.031 C 
ATOM     59  C   UNL A   1      42.942  29.497  34.762  1.00  0.00     0.034 A 
BRANCH  46  60
ATOM     60  C   UNL A   1      40.570  28.030  29.262  1.00  0.00     0.023 A 
ATOM     61  C   UNL A   1      39.644  26.973  29.145  1.00  0.00     0.012 A 
ATOM     62  C   UNL A   1      41.472  28.280  28.208  1.00  0.00     0.148 A 
ATOM     63  C   UNL A   1      39.629  26.165  28.009  1.00  0.00     0.002 A 
ATOM     64  C   UNL A   1      41.421  27.498  27.061  1.00  0.00     0.091 A 
ATOM     65  F   UNL A   1      42.357  29.277  28.348  1.00  0.00    -0.205 F 
ATOM     66  C   UNL A   1      40.508  26.434  26.964  1.00  0.00     0.022 A 
BRANCH  64  67
ATOM     67  S   UNL A   1      42.454  27.810  25.625  1.00  0.00     0.127 S 
ATOM     68  O   UNL A   1      42.207  26.616  24.818  1.00  0.00    -0.237 OA
ATOM     69  O   UNL A   1      41.869  29.040  25.090  1.00  0.00    -0.237 OA
ATOM     70  O   UNL A   1      43.813  27.950  26.128  1.00  0.00    -0.744 OA
ENDBRANCH  64  67
ENDBRANCH  46  60
BRANCH  47  71
ATOM     71  C   UNL A   1      39.561  33.827  37.310  1.00  0.00     0.023 A 
ATOM     72  C   UNL A   1      40.134  35.113  37.394  1.00  0.00     0.012 A 
ATOM     73  C   UNL A   1      38.823  33.334  38.403  1.00  0.00     0.148 A 
ATOM     74  C   UNL A   1      40.010  35.872  38.558  1.00  0.00     0.002 A 
ATOM     75  C   UNL A   1      38.656  34.120  39.537  1.00  0.00     0.091 A 
ATOM     76  F   UNL A   1      38.299  32.104  38.312  1.00  0.00    -0.205 F 
ATOM     77  C   UNL A   1      39.265  35.380  39.625  1.00  0.00     0.022 A 
BRANCH  75  78
ATOM     78  S   UNL A   1      37.599  33.618  40.899  1.00  0.00     0.127 S 
ATOM     79  O   UNL A   1      36.433  33.090  40.196  1.00  0.00    -0.237 OA
ATOM     80  O   UNL A   1      38.422  32.611  41.571  1.00  0.00    -0.237 OA
ATOM     81  O   UNL A   1      37.378  34.826  41.684  1.00  0.00    -0.744 OA
ENDBRANCH  75  78
ENDBRANCH  47  71
BRANCH  59  82
ATOM     82  C   UNL A   1      44.126  28.879  35.462  1.00  0.00     0.023 A 
ATOM     83  C   UNL A   1      45.413  29.420  35.273  1.00  0.00     0.012 A 
ATOM     84  C   UNL A   1      43.949  27.811  36.364  1.00  0.00     0.148 A 
ATOM     85  C   UNL A   1      46.511  28.885  35.945  1.00  0.00     0.002 A 
ATOM     86  C   UNL A   1      45.040  27.317  37.067  1.00  0.00     0.091 A 
ATOM     87  F   UNL A   1      42.719  27.299  36.516  1.00  0.00    -0.205 F 
ATOM     88  C   UNL A   1      46.323  27.843  36.850  1.00  0.00     0.022 A 
BRANCH  86  89
ATOM     89  S   UNL A   1      44.876  26.044  38.324  1.00  0.00     0.127 S 
ATOM     90  O   UNL A   1      46.263  25.870  38.754  1.00  0.00    -0.237 OA
ATOM     91  O   UNL A   1      44.009  26.690  39.311  1.00  0.00    -0.237 OA
ATOM     92  O   UNL A   1      44.278  24.895  37.657  1.00  0.00    -0.744 OA
ENDBRANCH  86  89
ENDBRANCH  59  82
ENDBRANCH  33  34
ENDBRANCH  25  28
ENDBRANCH  23  24
ENDBRANCH  22  23
ENDBRANCH  21  22
ENDBRANCH   1  21
TORSDOF 20
ENDMDL
MODEL 3
REMARK VINA RESULT:     -10.6      5.653      8.836
REMARK SMILES CN(CC1CCC1)C(=O)N(CC(=O)NCCCCNC(=O)c1ccc(-c2c3nc(c(-c4cccc(S(=O)(=O)[O-])c4F)c4ccc([nH]4)c(-c4cccc(S(=O)(=O)[O-])c4F)c4nc(c(-c5cccc(S(=O)(=O)[O-])c5F)c5ccc2[nH]5)C=C4)C=C3)cc1)C(C)(C)C
REMARK SMILES IDX 15 1 14 2 12 3 13 4 11 6 10 7 8 8 9 9 2 10 1 11 3 12 4 13
REMARK SMILES IDX 5 14 7 15 6 16 85 17 86 18 87 19 88 20 16 21 17 22 18 23
REMARK SMILES IDX 19 24 20 25 21 27 22 28 23 29 84 30 24 31 83 32 25 33 26 34
REMARK SMILES IDX 27 35 77 36 28 37 82 38 76 39 78 40 29 41 81 42 75 43 74 44
REMARK SMILES IDX 30 46 62 47 42 48 61 49 43 50 46 51 60 52 79 53 44 54 45 55
REMARK SMILES IDX 59 57 80 58 47 59 31 60 32 61 40 62 33 63 35 64 41 65 34 66
REMARK SMILES IDX 36 67 37 68 38 69 39 70 63 71 64 72 72 73 65 74 67 75 73 76
REMARK SMILES IDX 66 77 68 78 69 79 70 80 71 81 48 82 49 83 57 84 50 85 52 86
REMARK SMILES IDX 58 87 51 88 53 89 54 90 55 91 56 92
REMARK H PARENT 14 5 19 26 78 45 46 56
REMARK Flexibility Score: inf
ROOT
ATOM      1  C   UNL A   1      36.820  22.892  25.364  1.00  0.00     0.116 C 
ENDROOT
BRANCH   1   2
ATOM      2  N   UNL A   1      35.937  22.491  26.435  1.00  0.00    -0.355 N 
ATOM      3  C   UNL A   1      34.649  22.052  26.358  1.00  0.00     0.239 C 
ATOM      4  O   UNL A   1      34.207  21.419  27.325  1.00  0.00    -0.273 OA
ATOM      5  H   UNL A   1      36.317  22.542  27.343  1.00  0.00     0.163 HD
BRANCH   3   6
ATOM      6  C   UNL A   1      33.807  22.154  25.072  1.00  0.00     0.221 C 
BRANCH   6   7
ATOM      7  N   UNL A   1      33.337  23.456  24.592  1.00  0.00    -0.311 N 
BRANCH   7   8
ATOM      8  C   UNL A   1      33.396  24.652  25.309  1.00  0.00     0.320 C 
ATOM      9  O   UNL A   1      34.421  25.345  25.252  1.00  0.00    -0.248 OA
BRANCH   8  10
ATOM     10  N   UNL A   1      32.310  25.179  26.013  1.00  0.00    -0.327 N 
ATOM     11  C   UNL A   1      31.643  24.176  26.853  1.00  0.00     0.148 C 
BRANCH  10  12
ATOM     12  C   UNL A   1      31.447  26.325  25.686  1.00  0.00     0.124 C 
BRANCH  12  13
ATOM     13  C   UNL A   1      32.030  27.667  26.177  1.00  0.00     0.008 C 
ATOM     14  C   UNL A   1      31.654  29.072  25.604  1.00  0.00     0.005 C 
ATOM     15  C   UNL A   1      31.671  28.246  27.577  1.00  0.00     0.005 C 
ATOM     16  C   UNL A   1      31.878  29.657  27.011  1.00  0.00     0.001 C 
ENDBRANCH  12  13
ENDBRANCH  10  12
ENDBRANCH   8  10
ENDBRANCH   7   8
BRANCH   7  17
ATOM     17  C   UNL A   1      32.541  23.438  23.283  1.00  0.00     0.037 C 
ATOM     18  C   UNL A   1      32.801  22.133  22.495  1.00  0.00     0.034 C 
ATOM     19  C   UNL A   1      31.022  23.594  23.534  1.00  0.00     0.034 C 
ATOM     20  C   UNL A   1      32.895  24.597  22.306  1.00  0.00     0.034 C 
ENDBRANCH   7  17
ENDBRANCH   6   7
ENDBRANCH   3   6
ENDBRANCH   1   2
BRANCH   1  21
ATOM     21  C   UNL A   1      37.173  21.778  24.389  1.00  0.00     0.023 C 
BRANCH  21  22
ATOM     22  C   UNL A   1      37.802  20.548  25.030  1.00  0.00     0.023 C 
BRANCH  22  23
ATOM     23  C   UNL A   1      39.118  20.800  25.760  1.00  0.00     0.116 C 
BRANCH  23  24
ATOM     24  N   UNL A   1      39.962  19.616  25.862  1.00  0.00    -0.352 N 
ATOM     25  C   UNL A   1      41.313  19.530  26.105  1.00  0.00     0.251 C 
ATOM     26  H   UNL A   1      39.499  18.755  25.740  1.00  0.00     0.163 HD
ATOM     27  O   UNL A   1      41.885  18.443  26.050  1.00  0.00    -0.269 OA
BRANCH  25  28
ATOM     28  C   UNL A   1      42.083  20.759  26.393  1.00  0.00     0.039 A 
ATOM     29  C   UNL A   1      42.534  21.542  25.328  1.00  0.00     0.014 A 
ATOM     30  C   UNL A   1      42.304  21.170  27.710  1.00  0.00     0.014 A 
ATOM     31  C   UNL A   1      43.120  22.784  25.585  1.00  0.00     0.010 A 
ATOM     32  C   UNL A   1      42.804  22.445  27.959  1.00  0.00     0.010 A 
ATOM     33  C   UNL A   1      43.212  23.270  26.900  1.00  0.00    -0.014 A 
BRANCH  33  34
ATOM     34  C   UNL A   1      43.695  24.649  27.183  1.00  0.00     0.031 A 
ATOM     35  C   UNL A   1      42.746  25.701  27.695  1.00  0.00     0.074 A 
ATOM     36  C   UNL A   1      44.968  24.982  26.886  1.00  0.00     0.049 A 
ATOM     37  N   UNL A   1      42.976  26.963  27.945  1.00  0.00    -0.248 NA
ATOM     38  C   UNL A   1      41.352  25.290  27.929  1.00  0.00     0.031 C 
ATOM     39  C   UNL A   1      45.964  24.085  26.293  1.00  0.00     0.029 A 
ATOM     40  N   UNL A   1      45.636  26.177  27.012  1.00  0.00    -0.354 N 
ATOM     41  C   UNL A   1      41.755  27.506  28.325  1.00  0.00     0.074 A 
ATOM     42  C   UNL A   1      40.778  26.443  28.247  1.00  0.00     0.031 C 
ATOM     43  C   UNL A   1      47.111  24.759  26.110  1.00  0.00     0.029 A 
ATOM     44  C   UNL A   1      46.930  26.140  26.543  1.00  0.00     0.049 A 
ATOM     45  H   UNL A   1      45.228  26.983  27.402  1.00  0.00     0.167 HD
ATOM     46  C   UNL A   1      41.475  28.766  28.732  1.00  0.00     0.034 A 
ATOM     47  C   UNL A   1      47.862  27.111  26.460  1.00  0.00     0.034 A 
ATOM     48  C   UNL A   1      42.456  29.808  28.867  1.00  0.00     0.049 A 
ATOM     49  C   UNL A   1      47.538  28.486  26.979  1.00  0.00     0.074 A 
ATOM     50  C   UNL A   1      42.287  31.084  29.377  1.00  0.00     0.029 A 
ATOM     51  N   UNL A   1      43.783  29.703  28.482  1.00  0.00    -0.354 N 
ATOM     52  N   UNL A   1      46.423  28.926  27.511  1.00  0.00    -0.248 NA
ATOM     53  C   UNL A   1      48.612  29.489  26.923  1.00  0.00     0.031 C 
ATOM     54  C   UNL A   1      43.508  31.759  29.279  1.00  0.00     0.029 A 
ATOM     55  C   UNL A   1      44.443  30.894  28.734  1.00  0.00     0.049 A 
ATOM     56  H   UNL A   1      44.195  28.901  28.089  1.00  0.00     0.167 HD
ATOM     57  C   UNL A   1      46.673  30.240  27.886  1.00  0.00     0.074 A 
ATOM     58  C   UNL A   1      48.052  30.519  27.543  1.00  0.00     0.031 C 
ATOM     59  C   UNL A   1      45.831  31.142  28.446  1.00  0.00     0.034 A 
BRANCH  46  60
ATOM     60  C   UNL A   1      40.057  29.085  29.124  1.00  0.00     0.023 A 
ATOM     61  C   UNL A   1      39.087  29.288  28.120  1.00  0.00     0.012 A 
ATOM     62  C   UNL A   1      39.665  29.089  30.477  1.00  0.00     0.148 A 
ATOM     63  C   UNL A   1      37.753  29.513  28.458  1.00  0.00     0.002 A 
ATOM     64  C   UNL A   1      38.326  29.270  30.803  1.00  0.00     0.091 A 
ATOM     65  F   UNL A   1      40.605  28.913  31.416  1.00  0.00    -0.205 F 
ATOM     66  C   UNL A   1      37.371  29.492  29.796  1.00  0.00     0.022 A 
BRANCH  64  67
ATOM     67  S   UNL A   1      37.716  29.180  32.490  1.00  0.00     0.127 S 
ATOM     68  O   UNL A   1      36.361  29.710  32.343  1.00  0.00    -0.237 OA
ATOM     69  O   UNL A   1      37.782  27.745  32.763  1.00  0.00    -0.237 OA
ATOM     70  O   UNL A   1      38.619  29.995  33.290  1.00  0.00    -0.744 OA
ENDBRANCH  64  67
ENDBRANCH  46  60
BRANCH  47  71
ATOM     71  C   UNL A   1      49.216  26.807  25.913  1.00  0.00     0.023 A 
ATOM     72  C   UNL A   1      50.140  26.092  26.702  1.00  0.00     0.012 A 
ATOM     73  C   UNL A   1      49.594  27.217  24.620  1.00  0.00     0.148 A 
ATOM     74  C   UNL A   1      51.427  25.831  26.231  1.00  0.00     0.002 A 
ATOM     75  C   UNL A   1      50.858  26.904  24.136  1.00  0.00     0.091 A 
ATOM     76  F   UNL A   1      48.709  27.909  23.889  1.00  0.00    -0.205 F 
ATOM     77  C   UNL A   1      51.783  26.229  24.946  1.00  0.00     0.022 A 
BRANCH  75  78
ATOM     78  S   UNL A   1      51.348  27.258  22.444  1.00  0.00     0.127 S 
ATOM     79  O   UNL A   1      52.632  26.569  22.354  1.00  0.00    -0.237 OA
ATOM     80  O   UNL A   1      50.264  26.646  21.676  1.00  0.00    -0.237 OA
ATOM     81  O   UNL A   1      51.396  28.712  22.352  1.00  0.00    -0.744 OA
ENDBRANCH  75  78
ENDBRANCH  47  71
BRANCH  59  82
ATOM     82  C   UNL A   1      46.378  32.509  28.768  1.00  0.00     0.023 A 
ATOM     83  C   UNL A   1      47.081  32.718  29.972  1.00  0.00     0.012 A 
ATOM     84  C   UNL A   1      46.258  33.566  27.844  1.00  0.00     0.148 A 
ATOM     85  C   UNL A   1      47.627  33.967  30.264  1.00  0.00     0.002 A 
ATOM     86  C   UNL A   1      46.849  34.793  28.121  1.00  0.00     0.091 A 
ATOM     87  F   UNL A   1      45.570  33.352  26.713  1.00  0.00    -0.205 F 
ATOM     88  C   UNL A   1      47.522  34.999  29.335  1.00  0.00     0.022 A 
BRANCH  86  89
ATOM     89  S   UNL A   1      46.849  36.147  26.940  1.00  0.00     0.127 S 
ATOM     90  O   UNL A   1      47.490  35.530  25.780  1.00  0.00    -0.237 OA
ATOM     91  O   UNL A   1      45.420  36.417  26.775  1.00  0.00    -0.237 OA
ATOM     92  O   UNL A   1      47.598  37.227  27.569  1.00  0.00    -0.744 OA
ENDBRANCH  86  89
ENDBRANCH  59  82
ENDBRANCH  33  34
ENDBRANCH  25  28
ENDBRANCH  23  24
ENDBRANCH  22  23
ENDBRANCH  21  22
ENDBRANCH   1  21
TORSDOF 20
ENDMDL
