MODEL 1
REMARK VINA RESULT:     -12.4      0.000      0.000
REMARK SMILES O=C(NCCCCNC(=O)c1ccccc1C[NH2+]C1CCCC1)c1ccc(-c2c3nc(c(-c4cccc(S(=O)(=O)[O-])c4F)c4ccc([nH]4)c(-c4cccc(S(=O)(=O)[O-])c4F)c4nc(c(-c5cccc(S(=O)(=O)[O-])c5F)c5ccc2[nH]5)C=C4)C=C3)cc1
REMARK SMILES IDX 5 1 4 2 3 3 1 4 2 5 24 7 25 8 86 9 26 10 85 11 27 12 28 13
REMARK SMILES IDX 29 14 79 15 30 16 84 17 78 18 80 19 31 20 83 21 77 22 76 23
REMARK SMILES IDX 32 25 64 26 44 27 63 28 45 29 48 30 62 31 81 32 46 33 47 34
REMARK SMILES IDX 61 36 82 37 49 38 33 39 34 40 42 41 35 42 37 43 43 44 36 45
REMARK SMILES IDX 38 46 39 47 40 48 41 49 65 50 66 51 74 52 67 53 69 54 75 55
REMARK SMILES IDX 68 56 70 57 71 58 72 59 73 60 50 61 51 62 59 63 52 64 54 65
REMARK SMILES IDX 60 66 53 67 55 68 56 69 57 70 58 71 6 72 7 73 8 74 9 75
REMARK SMILES IDX 10 77 11 78 12 79 16 80 13 81 15 82 14 83 17 84 18 85 19 88
REMARK SMILES IDX 20 89 23 90 21 91 22 92
REMARK H PARENT 3 6 80 24 48 35 8 76 18 86 18 87
REMARK Flexibility Score: inf
ROOT
ATOM      1  C   UNL A   1      31.576  28.232  25.839  1.00  0.00     0.023 C 
ENDROOT
BRANCH   1   2
ATOM      2  C   UNL A   1      32.674  29.277  25.668  1.00  0.00     0.116 C 
BRANCH   2   3
ATOM      3  N   UNL A   1      32.255  30.616  26.051  1.00  0.00    -0.352 N 
ATOM      4  O   UNL A   1      32.249  32.535  27.232  1.00  0.00    -0.269 OA
ATOM      5  C   UNL A   1      32.839  31.501  26.929  1.00  0.00     0.251 C 
ATOM      6  H   UNL A   1      31.430  30.937  25.619  1.00  0.00     0.163 HD
BRANCH   5   7
ATOM      7  C   UNL A   1      34.157  31.189  27.529  1.00  0.00     0.039 A 
ATOM      8  C   UNL A   1      34.497  29.875  27.851  1.00  0.00     0.014 A 
ATOM      9  C   UNL A   1      35.061  32.224  27.788  1.00  0.00     0.014 A 
ATOM     10  C   UNL A   1      35.645  29.621  28.592  1.00  0.00     0.010 A 
ATOM     11  C   UNL A   1      36.268  31.951  28.444  1.00  0.00     0.010 A 
ATOM     12  C   UNL A   1      36.551  30.653  28.892  1.00  0.00    -0.014 A 
BRANCH  12  13
ATOM     13  C   UNL A   1      37.808  30.311  29.614  1.00  0.00     0.031 A 
ATOM     14  C   UNL A   1      38.066  30.768  31.025  1.00  0.00     0.074 A 
ATOM     15  C   UNL A   1      38.708  29.526  28.988  1.00  0.00     0.049 A 
ATOM     16  N   UNL A   1      39.066  30.463  31.814  1.00  0.00    -0.248 NA
ATOM     17  C   UNL A   1      37.091  31.690  31.630  1.00  0.00     0.031 C 
ATOM     18  C   UNL A   1      38.600  29.071  27.599  1.00  0.00     0.029 A 
ATOM     19  N   UNL A   1      39.873  28.956  29.433  1.00  0.00    -0.354 N 
ATOM     20  C   UNL A   1      38.860  31.172  32.992  1.00  0.00     0.074 A 
ATOM     21  C   UNL A   1      37.644  31.937  32.811  1.00  0.00     0.031 C 
ATOM     22  C   UNL A   1      39.626  28.255  27.321  1.00  0.00     0.029 A 
ATOM     23  C   UNL A   1      40.491  28.165  28.492  1.00  0.00     0.049 A 
ATOM     24  H   UNL A   1      40.233  29.100  30.338  1.00  0.00     0.167 HD
ATOM     25  C   UNL A   1      39.602  31.169  34.126  1.00  0.00     0.034 A 
ATOM     26  C   UNL A   1      41.625  27.443  28.559  1.00  0.00     0.034 A 
ATOM     27  C   UNL A   1      40.791  30.378  34.316  1.00  0.00     0.049 A 
ATOM     28  C   UNL A   1      42.391  27.412  29.848  1.00  0.00     0.074 A 
ATOM     29  C   UNL A   1      41.586  30.277  35.446  1.00  0.00     0.029 A 
ATOM     30  N   UNL A   1      41.353  29.547  33.360  1.00  0.00    -0.354 N 
ATOM     31  N   UNL A   1      42.108  27.993  30.988  1.00  0.00    -0.248 NA
ATOM     32  C   UNL A   1      43.618  26.604  29.873  1.00  0.00     0.031 C 
ATOM     33  C   UNL A   1      42.632  29.390  35.170  1.00  0.00     0.029 A 
ATOM     34  C   UNL A   1      42.484  28.930  33.871  1.00  0.00     0.049 A 
ATOM     35  H   UNL A   1      41.002  29.415  32.450  1.00  0.00     0.167 HD
ATOM     36  C   UNL A   1      43.115  27.618  31.866  1.00  0.00     0.074 A 
ATOM     37  C   UNL A   1      43.990  26.721  31.139  1.00  0.00     0.031 C 
ATOM     38  C   UNL A   1      43.320  28.009  33.148  1.00  0.00     0.034 A 
BRANCH  25  39
ATOM     39  C   UNL A   1      39.123  32.002  35.287  1.00  0.00     0.023 A 
ATOM     40  C   UNL A   1      39.233  33.406  35.218  1.00  0.00     0.012 A 
ATOM     41  C   UNL A   1      38.480  31.414  36.395  1.00  0.00     0.148 A 
ATOM     42  C   UNL A   1      38.726  34.210  36.238  1.00  0.00     0.002 A 
ATOM     43  C   UNL A   1      37.947  32.224  37.393  1.00  0.00     0.091 A 
ATOM     44  F   UNL A   1      38.401  30.077  36.452  1.00  0.00    -0.205 F 
ATOM     45  C   UNL A   1      38.075  33.621  37.318  1.00  0.00     0.022 A 
BRANCH  43  46
ATOM     46  S   UNL A   1      37.029  31.569  38.792  1.00  0.00     0.127 S 
ATOM     47  O   UNL A   1      35.871  32.460  38.828  1.00  0.00    -0.237 OA
ATOM     48  O   UNL A   1      36.734  30.204  38.356  1.00  0.00    -0.237 OA
ATOM     49  O   UNL A   1      37.924  31.660  39.937  1.00  0.00    -0.744 OA
ENDBRANCH  43  46
ENDBRANCH  25  39
BRANCH  26  50
ATOM     50  C   UNL A   1      42.066  26.654  27.375  1.00  0.00     0.023 A 
ATOM     51  C   UNL A   1      42.792  27.284  26.347  1.00  0.00     0.012 A 
ATOM     52  C   UNL A   1      41.821  25.270  27.291  1.00  0.00     0.148 A 
ATOM     53  C   UNL A   1      43.246  26.554  25.247  1.00  0.00     0.002 A 
ATOM     54  C   UNL A   1      42.333  24.537  26.227  1.00  0.00     0.091 A 
ATOM     55  F   UNL A   1      41.108  24.686  28.266  1.00  0.00    -0.205 F 
ATOM     56  C   UNL A   1      43.030  25.179  25.195  1.00  0.00     0.022 A 
BRANCH  54  57
ATOM     57  S   UNL A   1      42.231  22.744  26.199  1.00  0.00     0.127 S 
ATOM     58  O   UNL A   1      42.819  22.428  24.900  1.00  0.00    -0.237 OA
ATOM     59  O   UNL A   1      43.047  22.363  27.352  1.00  0.00    -0.237 OA
ATOM     60  O   UNL A   1      40.813  22.449  26.355  1.00  0.00    -0.744 OA
ENDBRANCH  54  57
ENDBRANCH  26  50
BRANCH  38  61
ATOM     61  C   UNL A   1      44.544  27.470  33.840  1.00  0.00     0.023 A 
ATOM     62  C   UNL A   1      45.749  28.197  33.768  1.00  0.00     0.012 A 
ATOM     63  C   UNL A   1      44.497  26.277  34.584  1.00  0.00     0.148 A 
ATOM     64  C   UNL A   1      46.901  27.725  34.397  1.00  0.00     0.002 A 
ATOM     65  C   UNL A   1      45.639  25.833  35.241  1.00  0.00     0.091 A 
ATOM     66  F   UNL A   1      43.349  25.586  34.621  1.00  0.00    -0.205 F 
ATOM     67  C   UNL A   1      46.844  26.549  35.140  1.00  0.00     0.022 A 
BRANCH  65  68
ATOM     68  S   UNL A   1      45.626  24.370  36.285  1.00  0.00     0.127 S 
ATOM     69  O   UNL A   1      47.015  24.316  36.739  1.00  0.00    -0.237 OA
ATOM     70  O   UNL A   1      44.660  24.729  37.323  1.00  0.00    -0.237 OA
ATOM     71  O   UNL A   1      45.199  23.277  35.421  1.00  0.00    -0.744 OA
ENDBRANCH  65  68
ENDBRANCH  38  61
ENDBRANCH  12  13
ENDBRANCH   5   7
ENDBRANCH   2   3
ENDBRANCH   1   2
BRANCH   1  72
ATOM     72  C   UNL A   1      31.957  26.996  26.655  1.00  0.00     0.023 C 
BRANCH  72  73
ATOM     73  C   UNL A   1      31.655  25.657  25.993  1.00  0.00     0.116 C 
BRANCH  73  74
ATOM     74  N   UNL A   1      31.593  24.545  26.926  1.00  0.00    -0.352 N 
ATOM     75  C   UNL A   1      32.401  23.438  26.996  1.00  0.00     0.251 C 
ATOM     76  H   UNL A   1      30.874  24.591  27.597  1.00  0.00     0.163 HD
ATOM     77  O   UNL A   1      32.222  22.588  27.862  1.00  0.00    -0.269 OA
BRANCH  75  78
ATOM     78  C   UNL A   1      33.477  23.243  26.000  1.00  0.00     0.048 A 
ATOM     79  C   UNL A   1      34.567  24.120  26.099  1.00  0.00     0.014 A 
ATOM     80  C   UNL A   1      33.424  22.260  24.992  1.00  0.00     0.019 A 
ATOM     81  C   UNL A   1      35.645  23.990  25.228  1.00  0.00     0.001 A 
ATOM     82  C   UNL A   1      34.528  22.142  24.131  1.00  0.00     0.010 A 
ATOM     83  C   UNL A   1      35.628  22.998  24.250  1.00  0.00     0.001 A 
BRANCH  80  84
ATOM     84  C   UNL A   1      32.283  21.272  24.909  1.00  0.00     0.298 C 
BRANCH  84  85
ATOM     85  N   UNL A   1      32.469  20.042  25.674  1.00  0.00    -0.340 N 
ATOM     86  H   UNL A   1      31.640  19.891  26.251  1.00  0.00     0.346 HD
ATOM     87  H   UNL A   1      33.311  20.159  26.237  1.00  0.00     0.346 HD
BRANCH  85  88
ATOM     88  C   UNL A   1      32.671  18.855  24.829  1.00  0.00     0.182 C 
ATOM     89  C   UNL A   1      32.207  19.106  23.395  1.00  0.00     0.065 C 
ATOM     90  C   UNL A   1      34.087  18.298  24.603  1.00  0.00     0.065 C 
ATOM     91  C   UNL A   1      32.713  17.885  22.631  1.00  0.00     0.006 C 
ATOM     92  C   UNL A   1      33.961  17.407  23.371  1.00  0.00     0.006 C 
ENDBRANCH  85  88
ENDBRANCH  84  85
ENDBRANCH  80  84
ENDBRANCH  75  78
ENDBRANCH  73  74
ENDBRANCH  72  73
ENDBRANCH   1  72
TORSDOF 17
ENDMDL
MODEL 2
REMARK VINA RESULT:     -12.2      1.790      2.528
REMARK SMILES O=C(NCCCCNC(=O)c1ccccc1C[NH2+]C1CCCC1)c1ccc(-c2c3nc(c(-c4cccc(S(=O)(=O)[O-])c4F)c4ccc([nH]4)c(-c4cccc(S(=O)(=O)[O-])c4F)c4nc(c(-c5cccc(S(=O)(=O)[O-])c5F)c5ccc2[nH]5)C=C4)C=C3)cc1
REMARK SMILES IDX 5 1 4 2 3 3 1 4 2 5 24 7 25 8 86 9 26 10 85 11 27 12 28 13
REMARK SMILES IDX 29 14 79 15 30 16 84 17 78 18 80 19 31 20 83 21 77 22 76 23
REMARK SMILES IDX 32 25 64 26 44 27 63 28 45 29 48 30 62 31 81 32 46 33 47 34
REMARK SMILES IDX 61 36 82 37 49 38 33 39 34 40 42 41 35 42 37 43 43 44 36 45
REMARK SMILES IDX 38 46 39 47 40 48 41 49 65 50 66 51 74 52 67 53 69 54 75 55
REMARK SMILES IDX 68 56 70 57 71 58 72 59 73 60 50 61 51 62 59 63 52 64 54 65
REMARK SMILES IDX 60 66 53 67 55 68 56 69 57 70 58 71 6 72 7 73 8 74 9 75
REMARK SMILES IDX 10 77 11 78 12 79 16 80 13 81 15 82 14 83 17 84 18 85 19 88
REMARK SMILES IDX 20 89 23 90 21 91 22 92
REMARK H PARENT 3 6 80 24 48 35 8 76 18 86 18 87
REMARK Flexibility Score: inf
ROOT
ATOM      1  C   UNL A   1      31.773  28.387  25.542  1.00  0.00     0.023 C 
ENDROOT
BRANCH   1   2
ATOM      2  C   UNL A   1      32.854  29.461  25.467  1.00  0.00     0.116 C 
BRANCH   2   3
ATOM      3  N   UNL A   1      32.402  30.762  25.936  1.00  0.00    -0.352 N 
ATOM      4  O   UNL A   1      32.330  32.584  27.259  1.00  0.00    -0.269 OA
ATOM      5  C   UNL A   1      32.944  31.584  26.899  1.00  0.00     0.251 C 
ATOM      6  H   UNL A   1      31.588  31.105  25.501  1.00  0.00     0.163 HD
BRANCH   5   7
ATOM      7  C   UNL A   1      34.246  31.243  27.518  1.00  0.00     0.039 A 
ATOM      8  C   UNL A   1      34.517  29.936  27.925  1.00  0.00     0.014 A 
ATOM      9  C   UNL A   1      35.205  32.243  27.708  1.00  0.00     0.014 A 
ATOM     10  C   UNL A   1      35.653  29.671  28.682  1.00  0.00     0.010 A 
ATOM     11  C   UNL A   1      36.398  31.949  28.380  1.00  0.00     0.010 A 
ATOM     12  C   UNL A   1      36.614  30.671  28.913  1.00  0.00    -0.014 A 
BRANCH  12  13
ATOM     13  C   UNL A   1      37.852  30.311  29.655  1.00  0.00     0.031 A 
ATOM     14  C   UNL A   1      38.104  30.782  31.063  1.00  0.00     0.074 A 
ATOM     15  C   UNL A   1      38.743  29.497  29.052  1.00  0.00     0.049 A 
ATOM     16  N   UNL A   1      39.086  30.466  31.870  1.00  0.00    -0.248 NA
ATOM     17  C   UNL A   1      37.142  31.734  31.643  1.00  0.00     0.031 C 
ATOM     18  C   UNL A   1      38.642  29.026  27.669  1.00  0.00     0.029 A 
ATOM     19  N   UNL A   1      39.889  28.908  29.520  1.00  0.00    -0.354 N 
ATOM     20  C   UNL A   1      38.881  31.196  33.035  1.00  0.00     0.074 A 
ATOM     21  C   UNL A   1      37.685  31.986  32.828  1.00  0.00     0.031 C 
ATOM     22  C   UNL A   1      39.653  28.183  27.416  1.00  0.00     0.029 A 
ATOM     23  C   UNL A   1      40.500  28.090  28.599  1.00  0.00     0.049 A 
ATOM     24  H   UNL A   1      40.241  29.056  30.428  1.00  0.00     0.167 HD
ATOM     25  C   UNL A   1      39.609  31.193  34.179  1.00  0.00     0.034 A 
ATOM     26  C   UNL A   1      41.617  27.344  28.690  1.00  0.00     0.034 A 
ATOM     27  C   UNL A   1      40.776  30.377  34.395  1.00  0.00     0.049 A 
ATOM     28  C   UNL A   1      42.366  27.313  29.990  1.00  0.00     0.074 A 
ATOM     29  C   UNL A   1      41.554  30.275  35.536  1.00  0.00     0.029 A 
ATOM     30  N   UNL A   1      41.332  29.521  33.457  1.00  0.00    -0.354 N 
ATOM     31  N   UNL A   1      42.081  27.917  31.118  1.00  0.00    -0.248 NA
ATOM     32  C   UNL A   1      43.574  26.479  30.041  1.00  0.00     0.031 C 
ATOM     33  C   UNL A   1      42.584  29.361  35.286  1.00  0.00     0.029 A 
ATOM     34  C   UNL A   1      42.442  28.886  33.992  1.00  0.00     0.049 A 
ATOM     35  H   UNL A   1      40.989  29.384  32.545  1.00  0.00     0.167 HD
ATOM     36  C   UNL A   1      43.069  27.532  32.014  1.00  0.00     0.074 A 
ATOM     37  C   UNL A   1      43.932  26.605  31.311  1.00  0.00     0.031 C 
ATOM     38  C   UNL A   1      43.266  27.936  33.293  1.00  0.00     0.034 A 
BRANCH  25  39
ATOM     39  C   UNL A   1      39.134  32.052  35.322  1.00  0.00     0.023 A 
ATOM     40  C   UNL A   1      38.218  31.517  36.250  1.00  0.00     0.012 A 
ATOM     41  C   UNL A   1      39.660  33.343  35.536  1.00  0.00     0.148 A 
ATOM     42  C   UNL A   1      37.821  32.255  37.364  1.00  0.00     0.002 A 
ATOM     43  C   UNL A   1      39.284  34.060  36.668  1.00  0.00     0.091 A 
ATOM     44  F   UNL A   1      40.515  33.842  34.633  1.00  0.00    -0.205 F 
ATOM     45  C   UNL A   1      38.361  33.520  37.579  1.00  0.00     0.022 A 
BRANCH  43  46
ATOM     46  S   UNL A   1      39.973  35.670  37.073  1.00  0.00     0.127 S 
ATOM     47  O   UNL A   1      41.390  35.351  37.236  1.00  0.00    -0.237 OA
ATOM     48  O   UNL A   1      39.658  36.450  35.876  1.00  0.00    -0.237 OA
ATOM     49  O   UNL A   1      39.288  36.107  38.281  1.00  0.00    -0.744 OA
ENDBRANCH  43  46
ENDBRANCH  25  39
BRANCH  26  50
ATOM     50  C   UNL A   1      42.055  26.528  27.523  1.00  0.00     0.023 A 
ATOM     51  C   UNL A   1      42.885  27.102  26.542  1.00  0.00     0.012 A 
ATOM     52  C   UNL A   1      41.702  25.170  27.412  1.00  0.00     0.148 A 
ATOM     53  C   UNL A   1      43.337  26.344  25.461  1.00  0.00     0.002 A 
ATOM     54  C   UNL A   1      42.209  24.404  26.369  1.00  0.00     0.091 A 
ATOM     55  F   UNL A   1      40.891  24.641  28.340  1.00  0.00    -0.205 F 
ATOM     56  C   UNL A   1      43.011  24.992  25.382  1.00  0.00     0.022 A 
BRANCH  54  57
ATOM     57  S   UNL A   1      41.961  22.625  26.315  1.00  0.00     0.127 S 
ATOM     58  O   UNL A   1      42.640  22.263  25.075  1.00  0.00    -0.237 OA
ATOM     59  O   UNL A   1      42.631  22.177  27.537  1.00  0.00    -0.237 OA
ATOM     60  O   UNL A   1      40.515  22.449  26.336  1.00  0.00    -0.744 OA
ENDBRANCH  54  57
ENDBRANCH  26  50
BRANCH  38  61
ATOM     61  C   UNL A   1      44.468  27.380  34.007  1.00  0.00     0.023 A 
ATOM     62  C   UNL A   1      45.672  28.113  34.001  1.00  0.00     0.012 A 
ATOM     63  C   UNL A   1      44.403  26.162  34.711  1.00  0.00     0.148 A 
ATOM     64  C   UNL A   1      46.804  27.625  34.652  1.00  0.00     0.002 A 
ATOM     65  C   UNL A   1      45.524  25.702  35.391  1.00  0.00     0.091 A 
ATOM     66  F   UNL A   1      43.258  25.466  34.686  1.00  0.00    -0.205 F 
ATOM     67  C   UNL A   1      46.728  26.425  35.355  1.00  0.00     0.022 A 
BRANCH  65  68
ATOM     68  S   UNL A   1      45.484  24.206  36.385  1.00  0.00     0.127 S 
ATOM     69  O   UNL A   1      46.907  23.911  36.539  1.00  0.00    -0.237 OA
ATOM     70  O   UNL A   1      44.819  24.655  37.609  1.00  0.00    -0.237 OA
ATOM     71  O   UNL A   1      44.717  23.240  35.608  1.00  0.00    -0.744 OA
ENDBRANCH  65  68
ENDBRANCH  38  61
ENDBRANCH  12  13
ENDBRANCH   5   7
ENDBRANCH   2   3
ENDBRANCH   1   2
BRANCH   1  72
ATOM     72  C   UNL A   1      31.844  27.457  26.753  1.00  0.00     0.023 C 
BRANCH  72  73
ATOM     73  C   UNL A   1      32.084  25.986  26.434  1.00  0.00     0.116 C 
BRANCH  73  74
ATOM     74  N   UNL A   1      30.985  25.117  26.819  1.00  0.00    -0.352 N 
ATOM     75  C   UNL A   1      30.957  23.747  26.884  1.00  0.00     0.251 C 
ATOM     76  H   UNL A   1      30.148  25.574  27.067  1.00  0.00     0.163 HD
ATOM     77  O   UNL A   1      29.943  23.159  27.246  1.00  0.00    -0.269 OA
BRANCH  75  78
ATOM     78  C   UNL A   1      32.144  22.963  26.480  1.00  0.00     0.048 A 
ATOM     79  C   UNL A   1      33.000  22.572  27.519  1.00  0.00     0.014 A 
ATOM     80  C   UNL A   1      32.430  22.635  25.140  1.00  0.00     0.019 A 
ATOM     81  C   UNL A   1      34.124  21.799  27.240  1.00  0.00     0.001 A 
ATOM     82  C   UNL A   1      33.564  21.847  24.885  1.00  0.00     0.010 A 
ATOM     83  C   UNL A   1      34.402  21.432  25.926  1.00  0.00     0.001 A 
BRANCH  80  84
ATOM     84  C   UNL A   1      31.487  23.000  24.016  1.00  0.00     0.298 C 
BRANCH  84  85
ATOM     85  N   UNL A   1      32.102  23.095  22.695  1.00  0.00    -0.340 N 
ATOM     86  H   UNL A   1      31.407  22.835  21.994  1.00  0.00     0.346 HD
ATOM     87  H   UNL A   1      32.906  22.467  22.688  1.00  0.00     0.346 HD
BRANCH  85  88
ATOM     88  C   UNL A   1      32.600  24.443  22.380  1.00  0.00     0.182 C 
ATOM     89  C   UNL A   1      31.482  25.482  22.452  1.00  0.00     0.065 C 
ATOM     90  C   UNL A   1      33.684  25.092  23.258  1.00  0.00     0.065 C 
ATOM     91  C   UNL A   1      32.218  26.815  22.345  1.00  0.00     0.006 C 
ATOM     92  C   UNL A   1      33.612  26.579  22.925  1.00  0.00     0.006 C 
ENDBRANCH  85  88
ENDBRANCH  84  85
ENDBRANCH  80  84
ENDBRANCH  75  78
ENDBRANCH  73  74
ENDBRANCH  72  73
ENDBRANCH   1  72
TORSDOF 17
ENDMDL
MODEL 3
REMARK VINA RESULT:     -12.1      2.294      3.843
REMARK SMILES O=C(NCCCCNC(=O)c1ccccc1C[NH2+]C1CCCC1)c1ccc(-c2c3nc(c(-c4cccc(S(=O)(=O)[O-])c4F)c4ccc([nH]4)c(-c4cccc(S(=O)(=O)[O-])c4F)c4nc(c(-c5cccc(S(=O)(=O)[O-])c5F)c5ccc2[nH]5)C=C4)C=C3)cc1
REMARK SMILES IDX 5 1 4 2 3 3 1 4 2 5 24 7 25 8 86 9 26 10 85 11 27 12 28 13
REMARK SMILES IDX 29 14 79 15 30 16 84 17 78 18 80 19 31 20 83 21 77 22 76 23
REMARK SMILES IDX 32 25 64 26 44 27 63 28 45 29 48 30 62 31 81 32 46 33 47 34
REMARK SMILES IDX 61 36 82 37 49 38 33 39 34 40 42 41 35 42 37 43 43 44 36 45
REMARK SMILES IDX 38 46 39 47 40 48 41 49 65 50 66 51 74 52 67 53 69 54 75 55
REMARK SMILES IDX 68 56 70 57 71 58 72 59 73 60 50 61 51 62 59 63 52 64 54 65
REMARK SMILES IDX 60 66 53 67 55 68 56 69 57 70 58 71 6 72 7 73 8 74 9 75
REMARK SMILES IDX 10 77 11 78 12 79 16 80 13 81 15 82 14 83 17 84 18 85 19 88
REMARK SMILES IDX 20 89 23 90 21 91 22 92
REMARK H PARENT 3 6 80 24 48 35 8 76 18 86 18 87
REMARK Flexibility Score: inf
ROOT
ATOM      1  C   UNL A   1      31.690  29.141  26.615  1.00  0.00     0.023 C 
ENDROOT
BRANCH   1   2
ATOM      2  C   UNL A   1      32.861  30.047  26.250  1.00  0.00     0.116 C 
BRANCH   2   3
ATOM      3  N   UNL A   1      32.639  31.441  26.603  1.00  0.00    -0.352 N 
ATOM      4  O   UNL A   1      32.944  33.380  27.710  1.00  0.00    -0.269 OA
ATOM      5  C   UNL A   1      33.379  32.269  27.417  1.00  0.00     0.251 C 
ATOM      6  H   UNL A   1      31.841  31.854  26.199  1.00  0.00     0.163 HD
BRANCH   5   7
ATOM      7  C   UNL A   1      34.676  31.807  27.963  1.00  0.00     0.039 A 
ATOM      8  C   UNL A   1      34.817  30.507  28.452  1.00  0.00     0.014 A 
ATOM      9  C   UNL A   1      35.763  32.685  28.001  1.00  0.00     0.014 A 
ATOM     10  C   UNL A   1      35.970  30.150  29.140  1.00  0.00     0.010 A 
ATOM     11  C   UNL A   1      36.963  32.287  28.604  1.00  0.00     0.010 A 
ATOM     12  C   UNL A   1      37.063  31.032  29.220  1.00  0.00    -0.014 A 
BRANCH  12  13
ATOM     13  C   UNL A   1      38.306  30.567  29.894  1.00  0.00     0.031 A 
ATOM     14  C   UNL A   1      38.644  30.966  31.306  1.00  0.00     0.074 A 
ATOM     15  C   UNL A   1      39.117  29.725  29.224  1.00  0.00     0.049 A 
ATOM     16  N   UNL A   1      39.636  30.559  32.057  1.00  0.00    -0.248 NA
ATOM     17  C   UNL A   1      37.769  31.952  31.961  1.00  0.00     0.031 C 
ATOM     18  C   UNL A   1      38.931  29.315  27.829  1.00  0.00     0.029 A 
ATOM     19  N   UNL A   1      40.242  29.048  29.620  1.00  0.00    -0.354 N 
ATOM     20  C   UNL A   1      39.525  31.254  33.256  1.00  0.00     0.074 A 
ATOM     21  C   UNL A   1      38.375  32.123  33.130  1.00  0.00     0.031 C 
ATOM     22  C   UNL A   1      39.875  28.422  27.502  1.00  0.00     0.029 A 
ATOM     23  C   UNL A   1      40.763  28.230  28.643  1.00  0.00     0.049 A 
ATOM     24  H   UNL A   1      40.639  29.138  30.516  1.00  0.00     0.167 HD
ATOM     25  C   UNL A   1      40.297  31.160  34.366  1.00  0.00     0.034 A 
ATOM     26  C   UNL A   1      41.833  27.414  28.658  1.00  0.00     0.034 A 
ATOM     27  C   UNL A   1      41.419  30.266  34.502  1.00  0.00     0.049 A 
ATOM     28  C   UNL A   1      42.631  27.286  29.923  1.00  0.00     0.074 A 
ATOM     29  C   UNL A   1      42.235  30.072  35.604  1.00  0.00     0.029 A 
ATOM     30  N   UNL A   1      41.881  29.415  33.511  1.00  0.00    -0.354 N 
ATOM     31  N   UNL A   1      42.431  27.861  31.084  1.00  0.00    -0.248 NA
ATOM     32  C   UNL A   1      43.785  26.377  29.891  1.00  0.00     0.031 C 
ATOM     33  C   UNL A   1      43.194  29.106  35.277  1.00  0.00     0.029 A 
ATOM     34  C   UNL A   1      42.969  28.692  33.973  1.00  0.00     0.049 A 
ATOM     35  H   UNL A   1      41.493  29.335  32.609  1.00  0.00     0.167 HD
ATOM     36  C   UNL A   1      43.428  27.381  31.922  1.00  0.00     0.074 A 
ATOM     37  C   UNL A   1      44.201  26.431  31.148  1.00  0.00     0.031 C 
ATOM     38  C   UNL A   1      43.702  27.721  33.205  1.00  0.00     0.034 A 
BRANCH  25  39
ATOM     39  C   UNL A   1      39.925  32.002  35.560  1.00  0.00     0.023 A 
ATOM     40  C   UNL A   1      40.498  33.282  35.704  1.00  0.00     0.012 A 
ATOM     41  C   UNL A   1      38.945  31.576  36.480  1.00  0.00     0.148 A 
ATOM     42  C   UNL A   1      40.114  34.119  36.752  1.00  0.00     0.002 A 
ATOM     43  C   UNL A   1      38.544  32.430  37.502  1.00  0.00     0.091 A 
ATOM     44  F   UNL A   1      38.425  30.349  36.337  1.00  0.00    -0.205 F 
ATOM     45  C   UNL A   1      39.131  33.698  37.643  1.00  0.00     0.022 A 
BRANCH  43  46
ATOM     46  S   UNL A   1      37.236  32.012  38.662  1.00  0.00     0.127 S 
ATOM     47  O   UNL A   1      37.044  30.589  38.389  1.00  0.00    -0.237 OA
ATOM     48  O   UNL A   1      37.861  32.306  39.952  1.00  0.00    -0.237 OA
ATOM     49  O   UNL A   1      36.109  32.870  38.324  1.00  0.00    -0.744 OA
ENDBRANCH  43  46
ENDBRANCH  25  39
BRANCH  26  50
ATOM     50  C   UNL A   1      42.171  26.619  27.445  1.00  0.00     0.023 A 
ATOM     51  C   UNL A   1      42.872  27.226  26.386  1.00  0.00     0.012 A 
ATOM     52  C   UNL A   1      41.851  25.250  27.360  1.00  0.00     0.148 A 
ATOM     53  C   UNL A   1      43.231  26.489  25.256  1.00  0.00     0.002 A 
ATOM     54  C   UNL A   1      42.269  24.507  26.262  1.00  0.00     0.091 A 
ATOM     55  F   UNL A   1      41.161  24.690  28.364  1.00  0.00    -0.205 F 
ATOM     56  C   UNL A   1      42.943  25.127  25.201  1.00  0.00     0.022 A 
BRANCH  54  57
ATOM     57  S   UNL A   1      42.074  22.722  26.220  1.00  0.00     0.127 S 
ATOM     58  O   UNL A   1      42.683  22.382  24.937  1.00  0.00    -0.237 OA
ATOM     59  O   UNL A   1      42.835  22.294  27.394  1.00  0.00    -0.237 OA
ATOM     60  O   UNL A   1      40.639  22.500  26.333  1.00  0.00    -0.744 OA
ENDBRANCH  54  57
ENDBRANCH  26  50
BRANCH  38  61
ATOM     61  C   UNL A   1      44.895  27.065  33.846  1.00  0.00     0.023 A 
ATOM     62  C   UNL A   1      46.162  27.671  33.725  1.00  0.00     0.012 A 
ATOM     63  C   UNL A   1      44.764  25.879  34.592  1.00  0.00     0.148 A 
ATOM     64  C   UNL A   1      47.286  27.088  34.306  1.00  0.00     0.002 A 
ATOM     65  C   UNL A   1      45.883  25.324  35.203  1.00  0.00     0.091 A 
ATOM     66  F   UNL A   1      43.557  25.303  34.676  1.00  0.00    -0.205 F 
ATOM     67  C   UNL A   1      47.146  25.920  35.052  1.00  0.00     0.022 A 
BRANCH  65  68
ATOM     68  S   UNL A   1      45.771  23.866  36.246  1.00  0.00     0.127 S 
ATOM     69  O   UNL A   1      45.372  22.841  35.284  1.00  0.00    -0.237 OA
ATOM     70  O   UNL A   1      47.138  23.730  36.750  1.00  0.00    -0.237 OA
ATOM     71  O   UNL A   1      44.787  24.192  37.270  1.00  0.00    -0.744 OA
ENDBRANCH  65  68
ENDBRANCH  38  61
ENDBRANCH  12  13
ENDBRANCH   5   7
ENDBRANCH   2   3
ENDBRANCH   1   2
BRANCH   1  72
ATOM     72  C   UNL A   1      32.054  27.841  27.332  1.00  0.00     0.023 C 
BRANCH  72  73
ATOM     73  C   UNL A   1      31.795  26.564  26.541  1.00  0.00     0.116 C 
BRANCH  73  74
ATOM     74  N   UNL A   1      30.472  26.505  25.944  1.00  0.00    -0.352 N 
ATOM     75  C   UNL A   1      30.134  26.303  24.629  1.00  0.00     0.251 C 
ATOM     76  H   UNL A   1      29.718  26.626  26.565  1.00  0.00     0.163 HD
ATOM     77  O   UNL A   1      28.956  26.267  24.286  1.00  0.00    -0.269 OA
BRANCH  75  78
ATOM     78  C   UNL A   1      31.191  26.165  23.605  1.00  0.00     0.048 A 
ATOM     79  C   UNL A   1      31.584  24.853  23.306  1.00  0.00     0.014 A 
ATOM     80  C   UNL A   1      31.798  27.268  22.971  1.00  0.00     0.019 A 
ATOM     81  C   UNL A   1      32.548  24.621  22.328  1.00  0.00     0.001 A 
ATOM     82  C   UNL A   1      32.761  27.008  21.982  1.00  0.00     0.010 A 
ATOM     83  C   UNL A   1      33.130  25.697  21.663  1.00  0.00     0.001 A 
BRANCH  80  84
ATOM     84  C   UNL A   1      31.345  28.685  23.242  1.00  0.00     0.298 C 
BRANCH  84  85
ATOM     85  N   UNL A   1      30.854  29.414  22.075  1.00  0.00    -0.340 N 
ATOM     86  H   UNL A   1      30.764  28.759  21.298  1.00  0.00     0.346 HD
ATOM     87  H   UNL A   1      31.527  30.154  21.876  1.00  0.00     0.346 HD
BRANCH  85  88
ATOM     88  C   UNL A   1      29.551  30.057  22.298  1.00  0.00     0.182 C 
ATOM     89  C   UNL A   1      28.447  29.022  22.514  1.00  0.00     0.065 C 
ATOM     90  C   UNL A   1      29.343  30.989  23.505  1.00  0.00     0.065 C 
ATOM     91  C   UNL A   1      27.251  29.857  22.966  1.00  0.00     0.006 C 
ATOM     92  C   UNL A   1      27.828  31.088  23.661  1.00  0.00     0.006 C 
ENDBRANCH  85  88
ENDBRANCH  84  85
ENDBRANCH  80  84
ENDBRANCH  75  78
ENDBRANCH  73  74
ENDBRANCH  72  73
ENDBRANCH   1  72
TORSDOF 17
ENDMDL
