MODEL 1
REMARK VINA RESULT:     -12.8      0.000      0.000
REMARK SMILES CCc1ccc2c(CC(=O)NCCCCNC(=O)c3ccc(-c4c5nc(c(-c6cccc(S(=O)(=O)[O-])c6F)c6ccc([nH]6)c(-c6cccc(S(=O)(=O)[O-])c6F)c6nc(c(-c7cccc(S(=O)(=O)[O-])c7F)c7ccc4[nH]7)C=C6)C=C5)cc3)c(C(=O)c3cc(C)ccn3)[nH]c2c1
REMARK SMILES IDX 13 1 12 2 11 3 9 4 10 5 8 7 7 8 3 9 4 10 94 11 5 12 93 13
REMARK SMILES IDX 6 14 92 15 82 16 2 18 1 19 83 20 84 21 85 22 86 23 91 24
REMARK SMILES IDX 87 25 90 26 88 27 89 28 14 29 15 30 16 31 17 32 18 34 19 35
REMARK SMILES IDX 20 36 81 37 21 38 80 39 22 40 23 41 24 42 74 43 25 44 79 45
REMARK SMILES IDX 73 46 75 47 26 48 78 49 72 50 71 51 27 53 59 54 39 55 58 56
REMARK SMILES IDX 40 57 43 58 57 59 76 60 41 61 42 62 56 64 77 65 44 66 28 67
REMARK SMILES IDX 29 68 37 69 30 70 32 71 38 72 31 73 33 74 34 75 35 76 36 77
REMARK SMILES IDX 60 78 61 79 69 80 62 81 64 82 70 83 63 84 65 85 66 86 67 87
REMARK SMILES IDX 68 88 45 89 46 90 54 91 47 92 49 93 55 94 48 95 50 96 51 97
REMARK SMILES IDX 52 98 53 99
REMARK H PARENT 11 6 92 17 16 33 75 52 43 63
REMARK Flexibility Score: inf
ROOT
ATOM      1  C   UNL A   1      33.904  28.446  25.556  1.00  0.00     0.023 C 
ENDROOT
BRANCH   1   2
ATOM      2  C   UNL A   1      33.626  27.095  24.901  1.00  0.00     0.116 C 
BRANCH   2   3
ATOM      3  N   UNL A   1      33.836  25.981  25.802  1.00  0.00    -0.356 N 
ATOM      4  C   UNL A   1      34.367  24.747  25.552  1.00  0.00     0.224 C 
ATOM      5  O   UNL A   1      34.632  24.044  26.531  1.00  0.00    -0.275 OA
ATOM      6  H   UNL A   1      33.553  26.136  26.731  1.00  0.00     0.163 HD
BRANCH   4   7
ATOM      7  C   UNL A   1      34.750  24.312  24.142  1.00  0.00     0.138 C 
BRANCH   7   8
ATOM      8  C   UNL A   1      33.750  23.426  23.445  1.00  0.00    -0.002 A 
ATOM      9  C   UNL A   1      32.736  19.330  23.706  1.00  0.00    -0.046 A 
ATOM     10  C   UNL A   1      33.664  19.789  24.646  1.00  0.00     0.004 A 
ATOM     11  C   UNL A   1      32.197  20.220  22.761  1.00  0.00     0.030 A 
ATOM     12  C   UNL A   1      34.065  21.129  24.669  1.00  0.00     0.011 A 
ATOM     13  C   UNL A   1      32.608  21.559  22.806  1.00  0.00     0.046 A 
ATOM     14  C   UNL A   1      33.533  22.035  23.729  1.00  0.00     0.004 A 
ATOM     15  N   UNL A   1      32.252  22.622  22.012  1.00  0.00    -0.352 N 
ATOM     16  C   UNL A   1      32.840  23.792  22.450  1.00  0.00     0.093 A 
ATOM     17  H   UNL A   1      31.654  22.558  21.232  1.00  0.00     0.167 HD
BRANCH   9  18
ATOM     18  C   UNL A   1      32.342  17.874  23.689  1.00  0.00     0.032 C 
ATOM     19  C   UNL A   1      33.542  16.963  23.479  1.00  0.00     0.009 C 
ENDBRANCH   9  18
BRANCH  16  20
ATOM     20  C   UNL A   1      32.557  25.124  21.927  1.00  0.00     0.227 C 
ATOM     21  O   UNL A   1      33.252  25.675  21.073  1.00  0.00    -0.285 OA
BRANCH  20  22
ATOM     22  C   UNL A   1      31.441  25.910  22.512  1.00  0.00     0.113 A 
ATOM     23  C   UNL A   1      31.264  27.239  22.135  1.00  0.00     0.036 A 
ATOM     24  N   UNL A   1      30.631  25.258  23.380  1.00  0.00    -0.253 NA
ATOM     25  C   UNL A   1      30.193  27.947  22.683  1.00  0.00    -0.047 A 
ATOM     26  C   UNL A   1      29.585  25.953  23.870  1.00  0.00     0.112 A 
ATOM     27  C   UNL A   1      29.942  29.379  22.321  1.00  0.00     0.044 C 
ATOM     28  C   UNL A   1      29.331  27.281  23.558  1.00  0.00     0.023 A 
ENDBRANCH  20  22
ENDBRANCH  16  20
ENDBRANCH   7   8
ENDBRANCH   4   7
ENDBRANCH   2   3
ENDBRANCH   1   2
BRANCH   1  29
ATOM     29  C   UNL A   1      32.803  29.497  25.377  1.00  0.00     0.023 C 
BRANCH  29  30
ATOM     30  C   UNL A   1      32.173  30.029  26.661  1.00  0.00     0.116 C 
BRANCH  30  31
ATOM     31  N   UNL A   1      32.183  31.482  26.750  1.00  0.00    -0.352 N 
ATOM     32  C   UNL A   1      33.113  32.314  27.323  1.00  0.00     0.251 C 
ATOM     33  H   UNL A   1      31.410  31.933  26.340  1.00  0.00     0.163 HD
ATOM     34  O   UNL A   1      32.888  33.523  27.371  1.00  0.00    -0.269 OA
BRANCH  32  35
ATOM     35  C   UNL A   1      34.358  31.771  27.916  1.00  0.00     0.039 A 
ATOM     36  C   UNL A   1      35.482  32.601  27.974  1.00  0.00     0.014 A 
ATOM     37  C   UNL A   1      34.438  30.461  28.395  1.00  0.00     0.014 A 
ATOM     38  C   UNL A   1      36.661  32.140  28.564  1.00  0.00     0.010 A 
ATOM     39  C   UNL A   1      35.597  30.021  29.038  1.00  0.00     0.010 A 
ATOM     40  C   UNL A   1      36.721  30.855  29.127  1.00  0.00    -0.014 A 
BRANCH  40  41
ATOM     41  C   UNL A   1      37.941  30.396  29.839  1.00  0.00     0.031 A 
ATOM     42  C   UNL A   1      38.252  30.872  31.232  1.00  0.00     0.074 A 
ATOM     43  C   UNL A   1      38.813  29.593  29.197  1.00  0.00     0.049 A 
ATOM     44  N   UNL A   1      39.252  30.544  32.009  1.00  0.00    -0.248 NA
ATOM     45  C   UNL A   1      37.334  31.861  31.822  1.00  0.00     0.031 C 
ATOM     46  C   UNL A   1      38.683  29.145  27.809  1.00  0.00     0.029 A 
ATOM     47  N   UNL A   1      39.989  29.026  29.620  1.00  0.00    -0.354 N 
ATOM     48  C   UNL A   1      39.103  31.302  33.164  1.00  0.00     0.074 A 
ATOM     49  C   UNL A   1      37.932  32.132  32.974  1.00  0.00     0.031 C 
ATOM     50  C   UNL A   1      39.731  28.363  27.499  1.00  0.00     0.029 A 
ATOM     51  C   UNL A   1      40.610  28.262  28.659  1.00  0.00     0.049 A 
ATOM     52  H   UNL A   1      40.354  29.154  30.525  1.00  0.00     0.167 HD
ATOM     53  C   UNL A   1      39.849  31.284  34.295  1.00  0.00     0.034 A 
ATOM     54  C   UNL A   1      41.751  27.546  28.711  1.00  0.00     0.034 A 
ATOM     55  C   UNL A   1      40.983  30.422  34.501  1.00  0.00     0.049 A 
ATOM     56  C   UNL A   1      42.514  27.478  30.006  1.00  0.00     0.074 A 
ATOM     57  C   UNL A   1      41.743  30.259  35.647  1.00  0.00     0.029 A 
ATOM     58  N   UNL A   1      41.521  29.579  33.542  1.00  0.00    -0.354 N 
ATOM     59  N   UNL A   1      42.244  28.052  31.154  1.00  0.00    -0.248 NA
ATOM     60  C   UNL A   1      43.710  26.625  30.028  1.00  0.00     0.031 C 
ATOM     61  C   UNL A   1      42.746  29.320  35.377  1.00  0.00     0.029 A 
ATOM     62  C   UNL A   1      42.605  28.894  34.066  1.00  0.00     0.049 A 
ATOM     63  H   UNL A   1      41.183  29.482  32.623  1.00  0.00     0.167 HD
ATOM     64  C   UNL A   1      43.219  27.609  32.040  1.00  0.00     0.074 A 
ATOM     65  C   UNL A   1      44.068  26.695  31.302  1.00  0.00     0.031 C 
ATOM     66  C   UNL A   1      43.409  27.945  33.340  1.00  0.00     0.034 A 
BRANCH  53  67
ATOM     67  C   UNL A   1      39.415  32.171  35.432  1.00  0.00     0.023 A 
ATOM     68  C   UNL A   1      38.535  31.655  36.406  1.00  0.00     0.012 A 
ATOM     69  C   UNL A   1      39.916  33.480  35.576  1.00  0.00     0.148 A 
ATOM     70  C   UNL A   1      38.137  32.436  37.489  1.00  0.00     0.002 A 
ATOM     71  C   UNL A   1      39.544  34.239  36.680  1.00  0.00     0.091 A 
ATOM     72  F   UNL A   1      40.733  33.961  34.629  1.00  0.00    -0.205 F 
ATOM     73  C   UNL A   1      38.648  33.723  37.631  1.00  0.00     0.022 A 
BRANCH  71  74
ATOM     74  S   UNL A   1      40.205  35.881  36.990  1.00  0.00     0.127 S 
ATOM     75  O   UNL A   1      39.610  36.198  38.287  1.00  0.00    -0.237 OA
ATOM     76  O   UNL A   1      41.648  35.634  37.026  1.00  0.00    -0.237 OA
ATOM     77  O   UNL A   1      39.762  36.705  35.875  1.00  0.00    -0.744 OA
ENDBRANCH  71  74
ENDBRANCH  53  67
BRANCH  54  78
ATOM     78  C   UNL A   1      42.179  26.750  27.527  1.00  0.00     0.023 A 
ATOM     79  C   UNL A   1      42.938  27.375  26.519  1.00  0.00     0.012 A 
ATOM     80  C   UNL A   1      41.882  25.379  27.412  1.00  0.00     0.148 A 
ATOM     81  C   UNL A   1      43.369  26.658  25.403  1.00  0.00     0.002 A 
ATOM     82  C   UNL A   1      42.359  24.656  26.324  1.00  0.00     0.091 A 
ATOM     83  F   UNL A   1      41.145  24.804  28.374  1.00  0.00    -0.205 F 
ATOM     84  C   UNL A   1      43.089  25.296  25.311  1.00  0.00     0.022 A 
BRANCH  82  85
ATOM     85  S   UNL A   1      42.158  22.875  26.199  1.00  0.00     0.127 S 
ATOM     86  O   UNL A   1      42.817  22.587  24.928  1.00  0.00    -0.237 OA
ATOM     87  O   UNL A   1      42.874  22.401  27.384  1.00  0.00    -0.237 OA
ATOM     88  O   UNL A   1      40.720  22.646  26.242  1.00  0.00    -0.744 OA
ENDBRANCH  82  85
ENDBRANCH  54  78
BRANCH  66  89
ATOM     89  C   UNL A   1      44.573  27.314  34.057  1.00  0.00     0.023 A 
ATOM     90  C   UNL A   1      45.845  27.914  33.973  1.00  0.00     0.012 A 
ATOM     91  C   UNL A   1      44.402  26.166  34.853  1.00  0.00     0.148 A 
ATOM     92  C   UNL A   1      46.935  27.362  34.645  1.00  0.00     0.002 A 
ATOM     93  C   UNL A   1      45.485  25.646  35.554  1.00  0.00     0.091 A 
ATOM     94  F   UNL A   1      43.190  25.592  34.903  1.00  0.00    -0.205 F 
ATOM     95  C   UNL A   1      46.754  26.235  35.442  1.00  0.00     0.022 A 
BRANCH  93  96
ATOM     96  S   UNL A   1      45.305  24.248  36.669  1.00  0.00     0.127 S 
ATOM     97  O   UNL A   1      44.826  23.203  35.767  1.00  0.00    -0.237 OA
ATOM     98  O   UNL A   1      46.672  24.051  37.156  1.00  0.00    -0.237 OA
ATOM     99  O   UNL A   1      44.365  24.686  37.693  1.00  0.00    -0.744 OA
ENDBRANCH  93  96
ENDBRANCH  66  89
ENDBRANCH  40  41
ENDBRANCH  32  35
ENDBRANCH  30  31
ENDBRANCH  29  30
ENDBRANCH   1  29
TORSDOF 18
ENDMDL
MODEL 2
REMARK VINA RESULT:     -12.5      1.903      4.271
REMARK SMILES CCc1ccc2c(CC(=O)NCCCCNC(=O)c3ccc(-c4c5nc(c(-c6cccc(S(=O)(=O)[O-])c6F)c6ccc([nH]6)c(-c6cccc(S(=O)(=O)[O-])c6F)c6nc(c(-c7cccc(S(=O)(=O)[O-])c7F)c7ccc4[nH]7)C=C6)C=C5)cc3)c(C(=O)c3cc(C)ccn3)[nH]c2c1
REMARK SMILES IDX 13 1 12 2 11 3 9 4 10 5 8 7 7 8 3 9 4 10 94 11 5 12 93 13
REMARK SMILES IDX 6 14 92 15 82 16 2 18 1 19 83 20 84 21 85 22 86 23 91 24
REMARK SMILES IDX 87 25 90 26 88 27 89 28 14 29 15 30 16 31 17 32 18 34 19 35
REMARK SMILES IDX 20 36 81 37 21 38 80 39 22 40 23 41 24 42 74 43 25 44 79 45
REMARK SMILES IDX 73 46 75 47 26 48 78 49 72 50 71 51 27 53 59 54 39 55 58 56
REMARK SMILES IDX 40 57 43 58 57 59 76 60 41 61 42 62 56 64 77 65 44 66 28 67
REMARK SMILES IDX 29 68 37 69 30 70 32 71 38 72 31 73 33 74 34 75 35 76 36 77
REMARK SMILES IDX 60 78 61 79 69 80 62 81 64 82 70 83 63 84 65 85 66 86 67 87
REMARK SMILES IDX 68 88 45 89 46 90 54 91 47 92 49 93 55 94 48 95 50 96 51 97
REMARK SMILES IDX 52 98 53 99
REMARK H PARENT 11 6 92 17 16 33 75 52 43 63
REMARK Flexibility Score: inf
ROOT
ATOM      1  C   UNL A   1      32.560  27.547  27.023  1.00  0.00     0.023 C 
ENDROOT
BRANCH   1   2
ATOM      2  C   UNL A   1      32.074  26.213  26.461  1.00  0.00     0.116 C 
BRANCH   2   3
ATOM      3  N   UNL A   1      30.631  26.132  26.377  1.00  0.00    -0.356 N 
ATOM      4  C   UNL A   1      29.831  25.941  25.286  1.00  0.00     0.224 C 
ATOM      5  O   UNL A   1      28.640  25.700  25.500  1.00  0.00    -0.275 OA
ATOM      6  H   UNL A   1      30.156  26.229  27.233  1.00  0.00     0.163 HD
BRANCH   4   7
ATOM      7  C   UNL A   1      30.406  25.882  23.874  1.00  0.00     0.138 C 
BRANCH   7   8
ATOM      8  C   UNL A   1      30.719  27.217  23.249  1.00  0.00    -0.002 A 
ATOM      9  C   UNL A   1      28.400  30.548  22.065  1.00  0.00    -0.046 A 
ATOM     10  C   UNL A   1      27.711  29.534  22.737  1.00  0.00     0.004 A 
ATOM     11  C   UNL A   1      29.781  30.422  21.832  1.00  0.00     0.030 A 
ATOM     12  C   UNL A   1      28.374  28.389  23.192  1.00  0.00     0.011 A 
ATOM     13  C   UNL A   1      30.427  29.270  22.302  1.00  0.00     0.046 A 
ATOM     14  C   UNL A   1      29.760  28.248  22.968  1.00  0.00     0.004 A 
ATOM     15  N   UNL A   1      31.745  28.894  22.208  1.00  0.00    -0.352 N 
ATOM     16  C   UNL A   1      31.973  27.707  22.876  1.00  0.00     0.093 A 
ATOM     17  H   UNL A   1      32.436  29.403  21.728  1.00  0.00     0.167 HD
BRANCH   9  18
ATOM     18  C   UNL A   1      27.653  31.759  21.563  1.00  0.00     0.032 C 
ATOM     19  C   UNL A   1      28.040  32.113  20.135  1.00  0.00     0.009 C 
ENDBRANCH   9  18
BRANCH  16  20
ATOM     20  C   UNL A   1      33.283  27.105  23.101  1.00  0.00     0.227 C 
ATOM     21  O   UNL A   1      34.281  27.758  23.408  1.00  0.00    -0.285 OA
BRANCH  20  22
ATOM     22  C   UNL A   1      33.466  25.652  22.854  1.00  0.00     0.113 A 
ATOM     23  C   UNL A   1      33.910  24.830  23.886  1.00  0.00     0.036 A 
ATOM     24  N   UNL A   1      33.156  25.206  21.613  1.00  0.00    -0.253 NA
ATOM     25  C   UNL A   1      34.050  23.464  23.633  1.00  0.00    -0.047 A 
ATOM     26  C   UNL A   1      33.269  23.879  21.403  1.00  0.00     0.112 A 
ATOM     27  C   UNL A   1      34.521  22.521  24.698  1.00  0.00     0.044 C 
ATOM     28  C   UNL A   1      33.708  22.982  22.367  1.00  0.00     0.023 A 
ENDBRANCH  20  22
ENDBRANCH  16  20
ENDBRANCH   7   8
ENDBRANCH   4   7
ENDBRANCH   2   3
ENDBRANCH   1   2
BRANCH   1  29
ATOM     29  C   UNL A   1      31.975  28.792  26.347  1.00  0.00     0.023 C 
BRANCH  29  30
ATOM     30  C   UNL A   1      32.987  29.827  25.862  1.00  0.00     0.116 C 
BRANCH  30  31
ATOM     31  N   UNL A   1      32.748  31.161  26.391  1.00  0.00    -0.352 N 
ATOM     32  C   UNL A   1      33.464  31.871  27.323  1.00  0.00     0.251 C 
ATOM     33  H   UNL A   1      31.958  31.621  26.026  1.00  0.00     0.163 HD
ATOM     34  O   UNL A   1      33.039  32.962  27.703  1.00  0.00    -0.269 OA
BRANCH  32  35
ATOM     35  C   UNL A   1      34.713  31.325  27.902  1.00  0.00     0.039 A 
ATOM     36  C   UNL A   1      35.827  32.166  27.992  1.00  0.00     0.014 A 
ATOM     37  C   UNL A   1      34.809  30.000  28.337  1.00  0.00     0.014 A 
ATOM     38  C   UNL A   1      37.010  31.700  28.570  1.00  0.00     0.010 A 
ATOM     39  C   UNL A   1      35.971  29.553  28.969  1.00  0.00     0.010 A 
ATOM     40  C   UNL A   1      37.084  30.398  29.091  1.00  0.00    -0.014 A 
BRANCH  40  41
ATOM     41  C   UNL A   1      38.308  29.931  29.791  1.00  0.00     0.031 A 
ATOM     42  C   UNL A   1      38.656  30.436  31.164  1.00  0.00     0.074 A 
ATOM     43  C   UNL A   1      39.149  29.092  29.154  1.00  0.00     0.049 A 
ATOM     44  N   UNL A   1      39.664  30.106  31.931  1.00  0.00    -0.248 NA
ATOM     45  C   UNL A   1      37.772  31.460  31.746  1.00  0.00     0.031 C 
ATOM     46  C   UNL A   1      38.982  28.610  27.781  1.00  0.00     0.029 A 
ATOM     47  N   UNL A   1      40.321  28.510  29.570  1.00  0.00    -0.354 N 
ATOM     48  C   UNL A   1      39.554  30.897  33.068  1.00  0.00     0.074 A 
ATOM     49  C   UNL A   1      38.398  31.748  32.879  1.00  0.00     0.031 C 
ATOM     50  C   UNL A   1      40.007  27.798  27.472  1.00  0.00     0.029 A 
ATOM     51  C   UNL A   1      40.906  27.707  28.618  1.00  0.00     0.049 A 
ATOM     52  H   UNL A   1      40.706  28.654  30.464  1.00  0.00     0.167 HD
ATOM     53  C   UNL A   1      40.322  30.892  34.185  1.00  0.00     0.034 A 
ATOM     54  C   UNL A   1      42.032  26.968  28.667  1.00  0.00     0.034 A 
ATOM     55  C   UNL A   1      41.440  30.011  34.392  1.00  0.00     0.049 A 
ATOM     56  C   UNL A   1      42.818  26.917  29.948  1.00  0.00     0.074 A 
ATOM     57  C   UNL A   1      42.219  29.860  35.527  1.00  0.00     0.029 A 
ATOM     58  N   UNL A   1      41.941  29.131  33.446  1.00  0.00    -0.354 N 
ATOM     59  N   UNL A   1      42.584  27.526  31.086  1.00  0.00    -0.248 NA
ATOM     60  C   UNL A   1      43.996  26.038  29.970  1.00  0.00     0.031 C 
ATOM     61  C   UNL A   1      43.195  28.893  35.263  1.00  0.00     0.029 A 
ATOM     62  C   UNL A   1      43.020  28.436  33.967  1.00  0.00     0.049 A 
ATOM     63  H   UNL A   1      41.583  29.018  32.536  1.00  0.00     0.167 HD
ATOM     64  C   UNL A   1      43.566  27.085  31.964  1.00  0.00     0.074 A 
ATOM     65  C   UNL A   1      44.380  26.133  31.236  1.00  0.00     0.031 C 
ATOM     66  C   UNL A   1      43.788  27.451  33.251  1.00  0.00     0.034 A 
BRANCH  53  67
ATOM     67  C   UNL A   1      39.929  31.818  35.306  1.00  0.00     0.023 A 
ATOM     68  C   UNL A   1      40.458  33.125  35.332  1.00  0.00     0.012 A 
ATOM     69  C   UNL A   1      39.000  31.428  36.291  1.00  0.00     0.148 A 
ATOM     70  C   UNL A   1      40.092  34.020  36.336  1.00  0.00     0.002 A 
ATOM     71  C   UNL A   1      38.611  32.339  37.267  1.00  0.00     0.091 A 
ATOM     72  F   UNL A   1      38.525  30.175  36.263  1.00  0.00    -0.205 F 
ATOM     73  C   UNL A   1      39.163  33.630  37.297  1.00  0.00     0.022 A 
BRANCH  71  74
ATOM     74  S   UNL A   1      37.365  31.956  38.504  1.00  0.00     0.127 S 
ATOM     75  O   UNL A   1      38.071  32.277  39.743  1.00  0.00    -0.237 OA
ATOM     76  O   UNL A   1      36.288  32.885  38.159  1.00  0.00    -0.237 OA
ATOM     77  O   UNL A   1      37.035  30.551  38.313  1.00  0.00    -0.744 OA
ENDBRANCH  71  74
ENDBRANCH  53  67
BRANCH  54  78
ATOM     78  C   UNL A   1      42.419  26.131  27.496  1.00  0.00     0.023 A 
ATOM     79  C   UNL A   1      43.234  26.692  26.494  1.00  0.00     0.012 A 
ATOM     80  C   UNL A   1      42.028  24.783  27.390  1.00  0.00     0.148 A 
ATOM     81  C   UNL A   1      43.629  25.934  25.391  1.00  0.00     0.002 A 
ATOM     82  C   UNL A   1      42.468  24.018  26.315  1.00  0.00     0.091 A 
ATOM     83  F   UNL A   1      41.239  24.272  28.346  1.00  0.00    -0.205 F 
ATOM     84  C   UNL A   1      43.255  24.595  25.307  1.00  0.00     0.022 A 
BRANCH  82  85
ATOM     85  S   UNL A   1      42.145  22.254  26.204  1.00  0.00     0.127 S 
ATOM     86  O   UNL A   1      42.884  21.889  24.999  1.00  0.00    -0.237 OA
ATOM     87  O   UNL A   1      42.721  21.756  27.453  1.00  0.00    -0.237 OA
ATOM     88  O   UNL A   1      40.695  22.133  26.128  1.00  0.00    -0.744 OA
ENDBRANCH  82  85
ENDBRANCH  54  78
BRANCH  66  89
ATOM     89  C   UNL A   1      44.952  26.813  33.962  1.00  0.00     0.023 A 
ATOM     90  C   UNL A   1      46.232  27.393  33.855  1.00  0.00     0.012 A 
ATOM     91  C   UNL A   1      44.774  25.679  34.777  1.00  0.00     0.148 A 
ATOM     92  C   UNL A   1      47.322  26.835  34.521  1.00  0.00     0.002 A 
ATOM     93  C   UNL A   1      45.859  25.152  35.472  1.00  0.00     0.091 A 
ATOM     94  F   UNL A   1      43.556  25.123  34.851  1.00  0.00    -0.205 F 
ATOM     95  C   UNL A   1      47.135  25.722  35.336  1.00  0.00     0.022 A 
BRANCH  93  96
ATOM     96  S   UNL A   1      45.673  23.773  36.608  1.00  0.00     0.127 S 
ATOM     97  O   UNL A   1      47.055  23.535  37.022  1.00  0.00    -0.237 OA
ATOM     98  O   UNL A   1      44.813  24.334  37.653  1.00  0.00    -0.237 OA
ATOM     99  O   UNL A   1      45.050  22.710  35.831  1.00  0.00    -0.744 OA
ENDBRANCH  93  96
ENDBRANCH  66  89
ENDBRANCH  40  41
ENDBRANCH  32  35
ENDBRANCH  30  31
ENDBRANCH  29  30
ENDBRANCH   1  29
TORSDOF 18
ENDMDL
MODEL 3
REMARK VINA RESULT:     -12.2      4.567     10.031
REMARK SMILES CCc1ccc2c(CC(=O)NCCCCNC(=O)c3ccc(-c4c5nc(c(-c6cccc(S(=O)(=O)[O-])c6F)c6ccc([nH]6)c(-c6cccc(S(=O)(=O)[O-])c6F)c6nc(c(-c7cccc(S(=O)(=O)[O-])c7F)c7ccc4[nH]7)C=C6)C=C5)cc3)c(C(=O)c3cc(C)ccn3)[nH]c2c1
REMARK SMILES IDX 13 1 12 2 11 3 9 4 10 5 8 7 7 8 3 9 4 10 94 11 5 12 93 13
REMARK SMILES IDX 6 14 92 15 82 16 2 18 1 19 83 20 84 21 85 22 86 23 91 24
REMARK SMILES IDX 87 25 90 26 88 27 89 28 14 29 15 30 16 31 17 32 18 34 19 35
REMARK SMILES IDX 20 36 81 37 21 38 80 39 22 40 23 41 24 42 74 43 25 44 79 45
REMARK SMILES IDX 73 46 75 47 26 48 78 49 72 50 71 51 27 53 59 54 39 55 58 56
REMARK SMILES IDX 40 57 43 58 57 59 76 60 41 61 42 62 56 64 77 65 44 66 28 67
REMARK SMILES IDX 29 68 37 69 30 70 32 71 38 72 31 73 33 74 34 75 35 76 36 77
REMARK SMILES IDX 60 78 61 79 69 80 62 81 64 82 70 83 63 84 65 85 66 86 67 87
REMARK SMILES IDX 68 88 45 89 46 90 54 91 47 92 49 93 55 94 48 95 50 96 51 97
REMARK SMILES IDX 52 98 53 99
REMARK H PARENT 11 6 92 17 16 33 75 52 43 63
REMARK Flexibility Score: inf
ROOT
ATOM      1  C   UNL A   1      34.770  22.874  23.220  1.00  0.00     0.023 C 
ENDROOT
BRANCH   1   2
ATOM      2  C   UNL A   1      33.924  24.036  23.734  1.00  0.00     0.116 C 
BRANCH   2   3
ATOM      3  N   UNL A   1      33.251  24.753  22.672  1.00  0.00    -0.356 N 
ATOM      4  C   UNL A   1      31.954  25.177  22.593  1.00  0.00     0.224 C 
ATOM      5  O   UNL A   1      31.673  25.950  21.673  1.00  0.00    -0.275 OA
ATOM      6  H   UNL A   1      33.809  24.964  21.890  1.00  0.00     0.163 HD
BRANCH   4   7
ATOM      7  C   UNL A   1      30.932  24.831  23.672  1.00  0.00     0.138 C 
BRANCH   7   8
ATOM      8  C   UNL A   1      31.118  25.541  24.988  1.00  0.00    -0.002 A 
ATOM      9  C   UNL A   1      31.863  29.548  26.110  1.00  0.00    -0.046 A 
ATOM     10  C   UNL A   1      31.629  29.331  24.749  1.00  0.00     0.004 A 
ATOM     11  C   UNL A   1      31.831  28.468  27.008  1.00  0.00     0.030 A 
ATOM     12  C   UNL A   1      31.355  28.048  24.260  1.00  0.00     0.011 A 
ATOM     13  C   UNL A   1      31.549  27.193  26.498  1.00  0.00     0.046 A 
ATOM     14  C   UNL A   1      31.318  26.954  25.148  1.00  0.00     0.004 A 
ATOM     15  N   UNL A   1      31.462  25.981  27.140  1.00  0.00    -0.352 N 
ATOM     16  C   UNL A   1      31.087  24.980  26.267  1.00  0.00     0.093 A 
ATOM     17  H   UNL A   1      31.643  25.845  28.098  1.00  0.00     0.167 HD
BRANCH   9  18
ATOM     18  C   UNL A   1      32.182  30.937  26.605  1.00  0.00     0.032 C 
ATOM     19  C   UNL A   1      31.096  31.936  26.230  1.00  0.00     0.009 C 
ENDBRANCH   9  18
BRANCH  16  20
ATOM     20  C   UNL A   1      30.759  23.610  26.647  1.00  0.00     0.227 C 
ATOM     21  O   UNL A   1      29.710  23.299  27.211  1.00  0.00    -0.285 OA
BRANCH  20  22
ATOM     22  C   UNL A   1      31.768  22.539  26.443  1.00  0.00     0.113 A 
ATOM     23  C   UNL A   1      31.643  21.674  25.360  1.00  0.00     0.036 A 
ATOM     24  N   UNL A   1      32.785  22.489  27.336  1.00  0.00    -0.253 NA
ATOM     25  C   UNL A   1      32.619  20.692  25.179  1.00  0.00    -0.047 A 
ATOM     26  C   UNL A   1      33.732  21.553  27.122  1.00  0.00     0.112 A 
ATOM     27  C   UNL A   1      32.549  19.728  24.034  1.00  0.00     0.044 C 
ATOM     28  C   UNL A   1      33.691  20.644  26.074  1.00  0.00     0.023 A 
ENDBRANCH  20  22
ENDBRANCH  16  20
ENDBRANCH   7   8
ENDBRANCH   4   7
ENDBRANCH   2   3
ENDBRANCH   1   2
BRANCH   1  29
ATOM     29  C   UNL A   1      36.238  22.889  23.660  1.00  0.00     0.023 C 
BRANCH  29  30
ATOM     30  C   UNL A   1      36.496  22.595  25.135  1.00  0.00     0.116 C 
BRANCH  30  31
ATOM     31  N   UNL A   1      37.432  21.502  25.351  1.00  0.00    -0.352 N 
ATOM     32  C   UNL A   1      38.693  21.527  25.894  1.00  0.00     0.251 C 
ATOM     33  H   UNL A   1      37.114  20.615  25.066  1.00  0.00     0.163 HD
ATOM     34  O   UNL A   1      39.363  20.495  25.906  1.00  0.00    -0.269 OA
BRANCH  32  35
ATOM     35  C   UNL A   1      39.267  22.785  26.427  1.00  0.00     0.039 A 
ATOM     36  C   UNL A   1      40.289  22.697  27.378  1.00  0.00     0.014 A 
ATOM     37  C   UNL A   1      38.805  24.039  26.020  1.00  0.00     0.014 A 
ATOM     38  C   UNL A   1      40.885  23.860  27.873  1.00  0.00     0.010 A 
ATOM     39  C   UNL A   1      39.440  25.198  26.470  1.00  0.00     0.010 A 
ATOM     40  C   UNL A   1      40.486  25.121  27.401  1.00  0.00    -0.014 A 
BRANCH  40  41
ATOM     41  C   UNL A   1      41.181  26.354  27.854  1.00  0.00     0.031 A 
ATOM     42  C   UNL A   1      42.618  26.610  27.493  1.00  0.00     0.074 A 
ATOM     43  C   UNL A   1      40.528  27.220  28.654  1.00  0.00     0.049 A 
ATOM     44  N   UNL A   1      43.364  27.647  27.774  1.00  0.00    -0.248 NA
ATOM     45  C   UNL A   1      43.317  25.557  26.738  1.00  0.00     0.031 C 
ATOM     46  C   UNL A   1      39.167  27.037  29.164  1.00  0.00     0.029 A 
ATOM     47  N   UNL A   1      40.926  28.417  29.195  1.00  0.00    -0.354 N 
ATOM     48  C   UNL A   1      44.624  27.364  27.258  1.00  0.00     0.074 A 
ATOM     49  C   UNL A   1      44.550  26.041  26.674  1.00  0.00     0.031 C 
ATOM     50  C   UNL A   1      38.840  28.089  29.932  1.00  0.00     0.029 A 
ATOM     51  C   UNL A   1      39.967  29.015  29.978  1.00  0.00     0.049 A 
ATOM     52  H   UNL A   1      41.815  28.810  29.036  1.00  0.00     0.167 HD
ATOM     53  C   UNL A   1      45.730  28.145  27.239  1.00  0.00     0.034 A 
ATOM     54  C   UNL A   1      39.986  30.185  30.646  1.00  0.00     0.034 A 
ATOM     55  C   UNL A   1      45.787  29.479  27.776  1.00  0.00     0.049 A 
ATOM     56  C   UNL A   1      41.197  31.070  30.537  1.00  0.00     0.074 A 
ATOM     57  C   UNL A   1      46.830  30.387  27.717  1.00  0.00     0.029 A 
ATOM     58  N   UNL A   1      44.759  30.097  28.470  1.00  0.00    -0.354 N 
ATOM     59  N   UNL A   1      42.311  30.867  29.876  1.00  0.00    -0.248 NA
ATOM     60  C   UNL A   1      41.136  32.368  31.225  1.00  0.00     0.031 C 
ATOM     61  C   UNL A   1      46.434  31.554  28.382  1.00  0.00     0.029 A 
ATOM     62  C   UNL A   1      45.142  31.373  28.848  1.00  0.00     0.049 A 
ATOM     63  H   UNL A   1      43.885  29.689  28.666  1.00  0.00     0.167 HD
ATOM     64  C   UNL A   1      43.071  32.018  30.045  1.00  0.00     0.074 A 
ATOM     65  C   UNL A   1      42.276  32.928  30.846  1.00  0.00     0.031 C 
ATOM     66  C   UNL A   1      44.322  32.291  29.598  1.00  0.00     0.034 A 
BRANCH  53  67
ATOM     67  C   UNL A   1      46.953  27.607  26.545  1.00  0.00     0.023 A 
ATOM     68  C   UNL A   1      47.181  27.948  25.196  1.00  0.00     0.012 A 
ATOM     69  C   UNL A   1      47.902  26.822  27.229  1.00  0.00     0.148 A 
ATOM     70  C   UNL A   1      48.319  27.495  24.530  1.00  0.00     0.002 A 
ATOM     71  C   UNL A   1      49.052  26.405  26.569  1.00  0.00     0.091 A 
ATOM     72  F   UNL A   1      47.657  26.487  28.504  1.00  0.00    -0.205 F 
ATOM     73  C   UNL A   1      49.258  26.732  25.219  1.00  0.00     0.022 A 
BRANCH  71  74
ATOM     74  S   UNL A   1      50.356  25.480  27.391  1.00  0.00     0.127 S 
ATOM     75  O   UNL A   1      49.651  24.259  27.780  1.00  0.00    -0.237 OA
ATOM     76  O   UNL A   1      51.336  25.302  26.318  1.00  0.00    -0.237 OA
ATOM     77  O   UNL A   1      50.809  26.322  28.488  1.00  0.00    -0.744 OA
ENDBRANCH  71  74
ENDBRANCH  53  67
BRANCH  54  78
ATOM     78  C   UNL A   1      38.773  30.634  31.387  1.00  0.00     0.023 A 
ATOM     79  C   UNL A   1      38.707  30.430  32.779  1.00  0.00     0.012 A 
ATOM     80  C   UNL A   1      37.713  31.296  30.738  1.00  0.00     0.148 A 
ATOM     81  C   UNL A   1      37.594  30.850  33.508  1.00  0.00     0.002 A 
ATOM     82  C   UNL A   1      36.631  31.759  31.478  1.00  0.00     0.091 A 
ATOM     83  F   UNL A   1      37.787  31.467  29.410  1.00  0.00    -0.205 F 
ATOM     84  C   UNL A   1      36.561  31.524  32.860  1.00  0.00     0.022 A 
BRANCH  82  85
ATOM     85  S   UNL A   1      35.328  32.753  30.742  1.00  0.00     0.127 S 
ATOM     86  O   UNL A   1      36.052  33.962  30.360  1.00  0.00    -0.237 OA
ATOM     87  O   UNL A   1      34.896  31.916  29.623  1.00  0.00    -0.237 OA
ATOM     88  O   UNL A   1      34.327  32.910  31.789  1.00  0.00    -0.744 OA
ENDBRANCH  82  85
ENDBRANCH  54  78
BRANCH  66  89
ATOM     89  C   UNL A   1      44.909  33.631  29.952  1.00  0.00     0.023 A 
ATOM     90  C   UNL A   1      45.662  33.766  31.136  1.00  0.00     0.012 A 
ATOM     91  C   UNL A   1      44.766  34.739  29.095  1.00  0.00     0.148 A 
ATOM     92  C   UNL A   1      46.234  34.991  31.477  1.00  0.00     0.002 A 
ATOM     93  C   UNL A   1      45.376  35.946  29.421  1.00  0.00     0.091 A 
ATOM     94  F   UNL A   1      44.027  34.602  27.984  1.00  0.00    -0.205 F 
ATOM     95  C   UNL A   1      46.100  36.077  30.616  1.00  0.00     0.022 A 
BRANCH  93  96
ATOM     96  S   UNL A   1      45.318  37.362  28.316  1.00  0.00     0.127 S 
ATOM     97  O   UNL A   1      46.118  38.345  29.044  1.00  0.00    -0.237 OA
ATOM     98  O   UNL A   1      45.949  36.843  27.100  1.00  0.00    -0.237 OA
ATOM     99  O   UNL A   1      43.904  37.679  28.164  1.00  0.00    -0.744 OA
ENDBRANCH  93  96
ENDBRANCH  66  89
ENDBRANCH  40  41
ENDBRANCH  32  35
ENDBRANCH  30  31
ENDBRANCH  29  30
ENDBRANCH   1  29
TORSDOF 18
ENDMDL
