MODEL 1
REMARK VINA RESULT:     -10.3      0.000      0.000
REMARK SMILES CCC[NH+]1CCN(c2cc(C(=O)NCCCCNC(=O)c3ccc(-c4c5nc(c(-c6cccc(S(=O)(=O)[O-])c6F)c6ccc([nH]6)c(-c6cccc(S(=O)(=O)[O-])c6F)c6nc(c(-c7cccc(S(=O)(=O)[O-])c7F)c7ccc4[nH]7)C=C6)C=C5)cc3)c3cc(NC(=O)c4ccc(F)cc4)ccc3n2)CC1
REMARK SMILES IDX 15 1 14 2 13 3 11 4 12 5 10 7 8 8 9 9 100 10 99 11 84 12
REMARK SMILES IDX 98 13 85 14 97 15 86 16 7 17 4 18 5 19 102 20 6 22 101 23
REMARK SMILES IDX 3 24 2 25 1 26 87 27 88 28 89 30 90 31 91 32 96 33 92 34
REMARK SMILES IDX 95 35 93 36 94 37 16 38 17 39 18 40 19 41 20 43 21 44 22 45
REMARK SMILES IDX 83 46 23 47 82 48 24 49 25 50 26 51 76 52 27 53 81 54 75 55
REMARK SMILES IDX 77 56 28 57 80 58 74 59 73 60 29 62 61 63 41 64 60 65 42 66
REMARK SMILES IDX 45 67 59 68 78 69 43 70 44 71 58 73 79 74 46 75 30 76 31 77
REMARK SMILES IDX 39 78 32 79 34 80 40 81 33 82 35 83 36 84 37 85 38 86 62 87
REMARK SMILES IDX 63 88 71 89 64 90 66 91 72 92 65 93 67 94 68 95 69 96 70 97
REMARK SMILES IDX 47 98 48 99 56 100 49 101 51 102 57 103 50 104 52 105 53 106
REMARK SMILES IDX 54 107 55 108
REMARK H PARENT 13 6 4 21 87 29 18 42 77 61 45 72
REMARK Flexibility Score: inf
ROOT
ATOM      1  C   UNL A   1      42.332  36.738  26.867  1.00  0.00     0.023 C 
ENDROOT
BRANCH   1   2
ATOM      2  C   UNL A   1      42.694  38.221  26.785  1.00  0.00     0.116 C 
BRANCH   2   3
ATOM      3  N   UNL A   1      41.585  39.171  26.802  1.00  0.00    -0.352 N 
ATOM      4  C   UNL A   1      41.461  40.496  26.410  1.00  0.00     0.252 C 
ATOM      5  O   UNL A   1      40.344  41.009  26.524  1.00  0.00    -0.269 OA
ATOM      6  H   UNL A   1      40.752  38.792  27.166  1.00  0.00     0.163 HD
BRANCH   4   7
ATOM      7  C   UNL A   1      42.566  41.384  25.901  1.00  0.00     0.052 A 
ATOM      8  C   UNL A   1      43.482  42.547  23.970  1.00  0.00     0.130 A 
ATOM      9  C   UNL A   1      42.471  41.789  24.550  1.00  0.00     0.061 A 
ATOM     10  N   UNL A   1      44.484  43.022  24.733  1.00  0.00    -0.231 NA
ATOM     11  C   UNL A   1      44.621  42.624  25.997  1.00  0.00     0.074 A 
ATOM     12  C   UNL A   1      43.744  41.716  26.600  1.00  0.00     0.015 A 
ATOM     13  C   UNL A   1      45.721  43.085  26.706  1.00  0.00     0.031 A 
ATOM     14  C   UNL A   1      44.159  41.139  27.810  1.00  0.00     0.037 A 
ATOM     15  C   UNL A   1      46.061  42.565  27.955  1.00  0.00     0.028 A 
ATOM     16  C   UNL A   1      45.323  41.512  28.475  1.00  0.00     0.042 A 
BRANCH   8  17
ATOM     17  N   UNL A   1      43.565  42.835  22.626  1.00  0.00    -0.345 N 
ATOM     18  N   UNL A   1      43.615  43.206  19.708  1.00  0.00    -0.332 N 
ATOM     19  C   UNL A   1      44.835  43.146  20.542  1.00  0.00     0.284 C 
ATOM     20  C   UNL A   1      42.524  42.487  20.374  1.00  0.00     0.284 C 
ATOM     21  H   UNL A   1      43.727  42.684  18.839  1.00  0.00     0.348 HD
ATOM     22  C   UNL A   1      44.641  43.608  22.011  1.00  0.00     0.179 C 
ATOM     23  C   UNL A   1      42.299  42.787  21.872  1.00  0.00     0.179 C 
BRANCH  18  24
ATOM     24  C   UNL A   1      43.382  44.531  19.131  1.00  0.00     0.262 C 
BRANCH  24  25
ATOM     25  C   UNL A   1      42.494  44.723  17.892  1.00  0.00     0.058 C 
ATOM     26  C   UNL A   1      43.177  44.350  16.583  1.00  0.00     0.010 C 
ENDBRANCH  24  25
ENDBRANCH  18  24
ENDBRANCH   8  17
BRANCH  16  27
ATOM     27  N   UNL A   1      45.789  40.879  29.638  1.00  0.00    -0.322 N 
ATOM     28  C   UNL A   1      45.558  41.128  30.977  1.00  0.00     0.255 C 
ATOM     29  H   UNL A   1      46.389  40.118  29.469  1.00  0.00     0.170 HD
ATOM     30  O   UNL A   1      46.226  40.545  31.827  1.00  0.00    -0.269 OA
BRANCH  28  31
ATOM     31  C   UNL A   1      44.500  42.062  31.427  1.00  0.00     0.040 A 
ATOM     32  C   UNL A   1      43.382  41.518  32.065  1.00  0.00     0.017 A 
ATOM     33  C   UNL A   1      44.629  43.451  31.303  1.00  0.00     0.017 A 
ATOM     34  C   UNL A   1      42.436  42.358  32.658  1.00  0.00     0.040 A 
ATOM     35  C   UNL A   1      43.692  44.288  31.917  1.00  0.00     0.040 A 
ATOM     36  C   UNL A   1      42.613  43.734  32.599  1.00  0.00     0.123 A 
ATOM     37  F   UNL A   1      41.738  44.536  33.216  1.00  0.00    -0.207 F 
ENDBRANCH  28  31
ENDBRANCH  16  27
ENDBRANCH   4   7
ENDBRANCH   2   3
ENDBRANCH   1   2
BRANCH   1  38
ATOM     38  C   UNL A   1      42.533  35.993  28.196  1.00  0.00     0.023 C 
BRANCH  38  39
ATOM     39  C   UNL A   1      43.929  35.528  28.639  1.00  0.00     0.116 C 
BRANCH  39  40
ATOM     40  N   UNL A   1      45.019  36.482  28.540  1.00  0.00    -0.352 N 
ATOM     41  C   UNL A   1      45.624  37.191  29.567  1.00  0.00     0.251 C 
ATOM     42  H   UNL A   1      45.369  36.647  27.635  1.00  0.00     0.163 HD
ATOM     43  O   UNL A   1      46.520  37.985  29.319  1.00  0.00    -0.269 OA
BRANCH  41  44
ATOM     44  C   UNL A   1      45.133  37.040  30.963  1.00  0.00     0.039 A 
ATOM     45  C   UNL A   1      44.131  37.906  31.410  1.00  0.00     0.014 A 
ATOM     46  C   UNL A   1      45.601  36.031  31.807  1.00  0.00     0.014 A 
ATOM     47  C   UNL A   1      43.510  37.673  32.644  1.00  0.00     0.010 A 
ATOM     48  C   UNL A   1      44.959  35.775  33.020  1.00  0.00     0.010 A 
ATOM     49  C   UNL A   1      43.874  36.564  33.427  1.00  0.00    -0.014 A 
BRANCH  49  50
ATOM     50  C   UNL A   1      43.028  36.124  34.568  1.00  0.00     0.031 A 
ATOM     51  C   UNL A   1      41.780  35.314  34.364  1.00  0.00     0.074 A 
ATOM     52  C   UNL A   1      43.344  36.568  35.803  1.00  0.00     0.049 A 
ATOM     53  N   UNL A   1      40.940  34.863  35.260  1.00  0.00    -0.248 NA
ATOM     54  C   UNL A   1      41.414  34.984  32.978  1.00  0.00     0.031 C 
ATOM     55  C   UNL A   1      44.470  37.452  36.115  1.00  0.00     0.029 A 
ATOM     56  N   UNL A   1      42.742  36.361  37.019  1.00  0.00    -0.354 N 
ATOM     57  C   UNL A   1      39.937  34.211  34.553  1.00  0.00     0.074 A 
ATOM     58  C   UNL A   1      40.260  34.351  33.147  1.00  0.00     0.031 C 
ATOM     59  C   UNL A   1      44.482  37.705  37.433  1.00  0.00     0.029 A 
ATOM     60  C   UNL A   1      43.357  37.019  38.059  1.00  0.00     0.049 A 
ATOM     61  H   UNL A   1      41.944  35.795  37.136  1.00  0.00     0.167 HD
ATOM     62  C   UNL A   1      38.863  33.535  35.032  1.00  0.00     0.034 A 
ATOM     63  C   UNL A   1      43.056  37.064  39.372  1.00  0.00     0.034 A 
ATOM     64  C   UNL A   1      38.562  33.380  36.431  1.00  0.00     0.049 A 
ATOM     65  C   UNL A   1      41.891  36.258  39.880  1.00  0.00     0.074 A 
ATOM     66  C   UNL A   1      37.545  32.645  37.016  1.00  0.00     0.029 A 
ATOM     67  N   UNL A   1      39.268  33.976  37.466  1.00  0.00    -0.354 N 
ATOM     68  N   UNL A   1      41.066  35.493  39.210  1.00  0.00    -0.248 NA
ATOM     69  C   UNL A   1      41.642  36.290  41.329  1.00  0.00     0.031 C 
ATOM     70  C   UNL A   1      37.627  32.808  38.403  1.00  0.00     0.029 A 
ATOM     71  C   UNL A   1      38.707  33.630  38.683  1.00  0.00     0.049 A 
ATOM     72  H   UNL A   1      40.052  34.559  37.350  1.00  0.00     0.167 HD
ATOM     73  C   UNL A   1      40.224  34.920  40.156  1.00  0.00     0.074 A 
ATOM     74  C   UNL A   1      40.652  35.414  41.450  1.00  0.00     0.031 C 
ATOM     75  C   UNL A   1      39.179  34.078  39.968  1.00  0.00     0.034 A 
BRANCH  62  76
ATOM     76  C   UNL A   1      37.964  32.851  34.035  1.00  0.00     0.023 A 
ATOM     77  C   UNL A   1      36.935  33.591  33.417  1.00  0.00     0.012 A 
ATOM     78  C   UNL A   1      38.176  31.512  33.651  1.00  0.00     0.148 A 
ATOM     79  C   UNL A   1      36.111  33.003  32.459  1.00  0.00     0.002 A 
ATOM     80  C   UNL A   1      37.376  30.943  32.666  1.00  0.00     0.091 A 
ATOM     81  F   UNL A   1      39.150  30.820  34.257  1.00  0.00    -0.205 F 
ATOM     82  C   UNL A   1      36.337  31.683  32.077  1.00  0.00     0.022 A 
BRANCH  80  83
ATOM     83  S   UNL A   1      37.630  29.274  32.050  1.00  0.00     0.127 S 
ATOM     84  O   UNL A   1      36.555  29.156  31.065  1.00  0.00    -0.237 OA
ATOM     85  O   UNL A   1      38.973  29.357  31.477  1.00  0.00    -0.237 OA
ATOM     86  O   UNL A   1      37.517  28.398  33.207  1.00  0.00    -0.744 OA
ENDBRANCH  80  83
ENDBRANCH  62  76
BRANCH  63  87
ATOM     87  C   UNL A   1      43.926  37.831  40.309  1.00  0.00     0.023 A 
ATOM     88  C   UNL A   1      45.083  37.219  40.830  1.00  0.00     0.012 A 
ATOM     89  C   UNL A   1      43.636  39.163  40.661  1.00  0.00     0.148 A 
ATOM     90  C   UNL A   1      45.918  37.909  41.710  1.00  0.00     0.002 A 
ATOM     91  C   UNL A   1      44.502  39.863  41.494  1.00  0.00     0.091 A 
ATOM     92  F   UNL A   1      42.525  39.725  40.165  1.00  0.00    -0.205 F 
ATOM     93  C   UNL A   1      45.634  39.232  42.034  1.00  0.00     0.022 A 
BRANCH  91  94
ATOM     94  S   UNL A   1      44.283  41.610  41.848  1.00  0.00     0.127 S 
ATOM     95  O   UNL A   1      45.441  41.893  42.691  1.00  0.00    -0.237 OA
ATOM     96  O   UNL A   1      44.333  42.203  40.511  1.00  0.00    -0.237 OA
ATOM     97  O   UNL A   1      42.982  41.714  42.495  1.00  0.00    -0.744 OA
ENDBRANCH  91  94
ENDBRANCH  63  87
BRANCH  75  98
ATOM     98  C   UNL A   1      38.439  33.599  41.190  1.00  0.00     0.023 A 
ATOM     99  C   UNL A   1      37.355  34.350  41.689  1.00  0.00     0.012 A 
ATOM    100  C   UNL A   1      38.764  32.367  41.792  1.00  0.00     0.148 A 
ATOM    101  C   UNL A   1      36.623  33.894  42.784  1.00  0.00     0.002 A 
ATOM    102  C   UNL A   1      38.000  31.898  42.854  1.00  0.00     0.091 A 
ATOM    103  F   UNL A   1      39.812  31.680  41.317  1.00  0.00    -0.205 F 
ATOM    104  C   UNL A   1      36.936  32.664  43.358  1.00  0.00     0.022 A 
BRANCH 102 105
ATOM    105  S   UNL A   1      38.273  30.284  43.595  1.00  0.00     0.127 S 
ATOM    106  O   UNL A   1      37.133  30.174  44.502  1.00  0.00    -0.237 OA
ATOM    107  O   UNL A   1      38.217  29.395  42.434  1.00  0.00    -0.237 OA
ATOM    108  O   UNL A   1      39.580  30.355  44.237  1.00  0.00    -0.744 OA
ENDBRANCH 102 105
ENDBRANCH  75  98
ENDBRANCH  49  50
ENDBRANCH  41  44
ENDBRANCH  39  40
ENDBRANCH  38  39
ENDBRANCH   1  38
TORSDOF 19
ENDMDL
MODEL 2
REMARK VINA RESULT:     -10.0      7.041     15.812
REMARK SMILES CCC[NH+]1CCN(c2cc(C(=O)NCCCCNC(=O)c3ccc(-c4c5nc(c(-c6cccc(S(=O)(=O)[O-])c6F)c6ccc([nH]6)c(-c6cccc(S(=O)(=O)[O-])c6F)c6nc(c(-c7cccc(S(=O)(=O)[O-])c7F)c7ccc4[nH]7)C=C6)C=C5)cc3)c3cc(NC(=O)c4ccc(F)cc4)ccc3n2)CC1
REMARK SMILES IDX 15 1 14 2 13 3 11 4 12 5 10 7 8 8 9 9 100 10 99 11 84 12
REMARK SMILES IDX 98 13 85 14 97 15 86 16 7 17 4 18 5 19 102 20 6 22 101 23
REMARK SMILES IDX 3 24 2 25 1 26 87 27 88 28 89 30 90 31 91 32 96 33 92 34
REMARK SMILES IDX 95 35 93 36 94 37 16 38 17 39 18 40 19 41 20 43 21 44 22 45
REMARK SMILES IDX 83 46 23 47 82 48 24 49 25 50 26 51 76 52 27 53 81 54 75 55
REMARK SMILES IDX 77 56 28 57 80 58 74 59 73 60 29 62 61 63 41 64 60 65 42 66
REMARK SMILES IDX 45 67 59 68 78 69 43 70 44 71 58 73 79 74 46 75 30 76 31 77
REMARK SMILES IDX 39 78 32 79 34 80 40 81 33 82 35 83 36 84 37 85 38 86 62 87
REMARK SMILES IDX 63 88 71 89 64 90 66 91 72 92 65 93 67 94 68 95 69 96 70 97
REMARK SMILES IDX 47 98 48 99 56 100 49 101 51 102 57 103 50 104 52 105 53 106
REMARK SMILES IDX 54 107 55 108
REMARK H PARENT 13 6 4 21 87 29 18 42 77 61 45 72
REMARK Flexibility Score: inf
ROOT
ATOM      1  C   UNL A   1      35.409  33.973  32.015  1.00  0.00     0.023 C 
ENDROOT
BRANCH   1   2
ATOM      2  C   UNL A   1      34.681  33.357  30.821  1.00  0.00     0.116 C 
BRANCH   2   3
ATOM      3  N   UNL A   1      35.104  33.797  29.494  1.00  0.00    -0.352 N 
ATOM      4  C   UNL A   1      35.481  33.122  28.342  1.00  0.00     0.252 C 
ATOM      5  O   UNL A   1      35.748  33.811  27.354  1.00  0.00    -0.269 OA
ATOM      6  H   UNL A   1      35.127  34.777  29.397  1.00  0.00     0.163 HD
BRANCH   4   7
ATOM      7  C   UNL A   1      35.638  31.631  28.192  1.00  0.00     0.052 A 
ATOM      8  C   UNL A   1      37.179  29.751  28.303  1.00  0.00     0.130 A 
ATOM      9  C   UNL A   1      36.917  31.105  28.485  1.00  0.00     0.061 A 
ATOM     10  N   UNL A   1      36.176  28.911  27.988  1.00  0.00    -0.231 NA
ATOM     11  C   UNL A   1      34.971  29.384  27.667  1.00  0.00     0.074 A 
ATOM     12  C   UNL A   1      34.679  30.752  27.649  1.00  0.00     0.015 A 
ATOM     13  C   UNL A   1      34.003  28.473  27.272  1.00  0.00     0.031 A 
ATOM     14  C   UNL A   1      33.496  31.141  27.004  1.00  0.00     0.037 A 
ATOM     15  C   UNL A   1      32.788  28.885  26.721  1.00  0.00     0.028 A 
ATOM     16  C   UNL A   1      32.567  30.236  26.499  1.00  0.00     0.042 A 
BRANCH   8  17
ATOM     17  N   UNL A   1      38.430  29.182  28.389  1.00  0.00    -0.345 N 
ATOM     18  N   UNL A   1      41.103  28.041  28.844  1.00  0.00    -0.332 N 
ATOM     19  C   UNL A   1      40.838  29.134  27.884  1.00  0.00     0.284 C 
ATOM     20  C   UNL A   1      40.078  28.043  29.894  1.00  0.00     0.284 C 
ATOM     21  H   UNL A   1      41.961  28.202  29.372  1.00  0.00     0.348 HD
ATOM     22  C   UNL A   1      39.400  29.149  27.299  1.00  0.00     0.179 C 
ATOM     23  C   UNL A   1      38.607  28.160  29.437  1.00  0.00     0.179 C 
BRANCH  18  24
ATOM     24  C   UNL A   1      41.488  26.789  28.193  1.00  0.00     0.262 C 
BRANCH  24  25
ATOM     25  C   UNL A   1      40.463  25.679  27.913  1.00  0.00     0.058 C 
ATOM     26  C   UNL A   1      40.227  25.419  26.432  1.00  0.00     0.010 C 
ENDBRANCH  24  25
ENDBRANCH  18  24
ENDBRANCH   8  17
BRANCH  16  27
ATOM     27  N   UNL A   1      31.426  30.617  25.776  1.00  0.00    -0.322 N 
ATOM     28  C   UNL A   1      30.876  30.135  24.605  1.00  0.00     0.255 C 
ATOM     29  H   UNL A   1      30.926  31.363  26.178  1.00  0.00     0.170 HD
ATOM     30  O   UNL A   1      29.962  30.753  24.064  1.00  0.00    -0.269 OA
BRANCH  28  31
ATOM     31  C   UNL A   1      31.334  28.869  23.988  1.00  0.00     0.040 A 
ATOM     32  C   UNL A   1      30.490  27.759  24.078  1.00  0.00     0.017 A 
ATOM     33  C   UNL A   1      32.530  28.783  23.264  1.00  0.00     0.017 A 
ATOM     34  C   UNL A   1      30.793  26.590  23.374  1.00  0.00     0.040 A 
ATOM     35  C   UNL A   1      32.818  27.619  22.543  1.00  0.00     0.040 A 
ATOM     36  C   UNL A   1      31.940  26.541  22.595  1.00  0.00     0.123 A 
ATOM     37  F   UNL A   1      32.199  25.442  21.876  1.00  0.00    -0.207 F 
ENDBRANCH  28  31
ENDBRANCH  16  27
ENDBRANCH   4   7
ENDBRANCH   2   3
ENDBRANCH   1   2
BRANCH   1  38
ATOM     38  C   UNL A   1      36.945  34.020  32.011  1.00  0.00     0.023 C 
BRANCH  38  39
ATOM     39  C   UNL A   1      37.755  33.524  33.218  1.00  0.00     0.116 C 
BRANCH  39  40
ATOM     40  N   UNL A   1      37.497  32.176  33.693  1.00  0.00    -0.352 N 
ATOM     41  C   UNL A   1      38.271  31.042  33.498  1.00  0.00     0.251 C 
ATOM     42  H   UNL A   1      36.672  32.052  34.216  1.00  0.00     0.163 HD
ATOM     43  O   UNL A   1      37.904  29.964  33.943  1.00  0.00    -0.269 OA
BRANCH  41  44
ATOM     44  C   UNL A   1      39.514  31.124  32.684  1.00  0.00     0.039 A 
ATOM     45  C   UNL A   1      39.390  31.250  31.297  1.00  0.00     0.014 A 
ATOM     46  C   UNL A   1      40.782  31.136  33.268  1.00  0.00     0.014 A 
ATOM     47  C   UNL A   1      40.523  31.523  30.520  1.00  0.00     0.010 A 
ATOM     48  C   UNL A   1      41.906  31.443  32.500  1.00  0.00     0.010 A 
ATOM     49  C   UNL A   1      41.780  31.688  31.127  1.00  0.00    -0.014 A 
BRANCH  49  50
ATOM     50  C   UNL A   1      42.918  32.280  30.374  1.00  0.00     0.031 A 
ATOM     51  C   UNL A   1      42.970  33.742  30.033  1.00  0.00     0.074 A 
ATOM     52  C   UNL A   1      43.867  31.447  29.896  1.00  0.00     0.049 A 
ATOM     53  N   UNL A   1      43.894  34.399  29.378  1.00  0.00    -0.248 NA
ATOM     54  C   UNL A   1      41.833  34.571  30.460  1.00  0.00     0.031 C 
ATOM     55  C   UNL A   1      43.870  29.991  30.067  1.00  0.00     0.029 A 
ATOM     56  N   UNL A   1      44.994  31.692  29.154  1.00  0.00    -0.354 N 
ATOM     57  C   UNL A   1      43.448  35.712  29.298  1.00  0.00     0.074 A 
ATOM     58  C   UNL A   1      42.153  35.752  29.948  1.00  0.00     0.031 C 
ATOM     59  C   UNL A   1      44.947  29.476  29.455  1.00  0.00     0.029 A 
ATOM     60  C   UNL A   1      45.703  30.557  28.832  1.00  0.00     0.049 A 
ATOM     61  H   UNL A   1      45.271  32.597  28.876  1.00  0.00     0.167 HD
ATOM     62  C   UNL A   1      44.071  36.788  28.759  1.00  0.00     0.034 A 
ATOM     63  C   UNL A   1      46.837  30.401  28.121  1.00  0.00     0.034 A 
ATOM     64  C   UNL A   1      45.368  36.745  28.136  1.00  0.00     0.049 A 
ATOM     65  C   UNL A   1      47.535  31.620  27.584  1.00  0.00     0.074 A 
ATOM     66  C   UNL A   1      46.118  37.796  27.636  1.00  0.00     0.029 A 
ATOM     67  N   UNL A   1      46.107  35.591  27.920  1.00  0.00    -0.354 N 
ATOM     68  N   UNL A   1      47.186  32.879  27.686  1.00  0.00    -0.248 NA
ATOM     69  C   UNL A   1      48.801  31.402  26.869  1.00  0.00     0.031 C 
ATOM     70  C   UNL A   1      47.303  37.276  27.103  1.00  0.00     0.029 A 
ATOM     71  C   UNL A   1      47.299  35.902  27.289  1.00  0.00     0.049 A 
ATOM     72  H   UNL A   1      45.823  34.684  28.177  1.00  0.00     0.167 HD
ATOM     73  C   UNL A   1      48.207  33.607  27.085  1.00  0.00     0.074 A 
ATOM     74  C   UNL A   1      49.196  32.648  26.637  1.00  0.00     0.031 C 
ATOM     75  C   UNL A   1      48.305  34.946  26.904  1.00  0.00     0.034 A 
BRANCH  62  76
ATOM     76  C   UNL A   1      43.387  38.126  28.877  1.00  0.00     0.023 A 
ATOM     77  C   UNL A   1      42.478  38.523  27.875  1.00  0.00     0.012 A 
ATOM     78  C   UNL A   1      43.579  38.954  30.001  1.00  0.00     0.148 A 
ATOM     79  C   UNL A   1      41.795  39.734  27.971  1.00  0.00     0.002 A 
ATOM     80  C   UNL A   1      42.865  40.143  30.110  1.00  0.00     0.091 A 
ATOM     81  F   UNL A   1      44.456  38.568  30.937  1.00  0.00    -0.205 F 
ATOM     82  C   UNL A   1      41.981  40.539  29.092  1.00  0.00     0.022 A 
BRANCH  80  83
ATOM     83  S   UNL A   1      42.977  41.217  31.547  1.00  0.00     0.127 S 
ATOM     84  O   UNL A   1      44.380  41.627  31.499  1.00  0.00    -0.237 OA
ATOM     85  O   UNL A   1      42.023  42.275  31.217  1.00  0.00    -0.237 OA
ATOM     86  O   UNL A   1      42.603  40.397  32.690  1.00  0.00    -0.744 OA
ENDBRANCH  80  83
ENDBRANCH  62  76
BRANCH  63  87
ATOM     87  C   UNL A   1      47.429  29.042  27.955  1.00  0.00     0.023 A 
ATOM     88  C   UNL A   1      48.465  28.633  28.817  1.00  0.00     0.012 A 
ATOM     89  C   UNL A   1      46.956  28.146  26.977  1.00  0.00     0.148 A 
ATOM     90  C   UNL A   1      49.041  27.369  28.688  1.00  0.00     0.002 A 
ATOM     91  C   UNL A   1      47.496  26.868  26.890  1.00  0.00     0.091 A 
ATOM     92  F   UNL A   1      45.978  28.556  26.158  1.00  0.00    -0.205 F 
ATOM     93  C   UNL A   1      48.551  26.483  27.733  1.00  0.00     0.022 A 
BRANCH  91  94
ATOM     94  S   UNL A   1      46.828  25.622  25.783  1.00  0.00     0.127 S 
ATOM     95  O   UNL A   1      47.155  26.177  24.473  1.00  0.00    -0.237 OA
ATOM     96  O   UNL A   1      47.596  24.433  26.158  1.00  0.00    -0.237 OA
ATOM     97  O   UNL A   1      45.410  25.537  26.105  1.00  0.00    -0.744 OA
ENDBRANCH  91  94
ENDBRANCH  63  87
BRANCH  75  98
ATOM     98  C   UNL A   1      49.541  35.470  26.222  1.00  0.00     0.023 A 
ATOM     99  C   UNL A   1      49.520  35.724  24.835  1.00  0.00     0.012 A 
ATOM    100  C   UNL A   1      50.695  35.788  26.967  1.00  0.00     0.148 A 
ATOM    101  C   UNL A   1      50.637  36.262  24.198  1.00  0.00     0.002 A 
ATOM    102  C   UNL A   1      51.787  36.366  26.331  1.00  0.00     0.091 A 
ATOM    103  F   UNL A   1      50.703  35.517  28.279  1.00  0.00    -0.205 F 
ATOM    104  C   UNL A   1      51.764  36.595  24.945  1.00  0.00     0.022 A 
BRANCH 102 105
ATOM    105  S   UNL A   1      53.244  36.911  27.229  1.00  0.00     0.127 S 
ATOM    106  O   UNL A   1      53.766  35.648  27.747  1.00  0.00    -0.237 OA
ATOM    107  O   UNL A   1      54.054  37.518  26.172  1.00  0.00    -0.237 OA
ATOM    108  O   UNL A   1      52.766  37.851  28.235  1.00  0.00    -0.744 OA
ENDBRANCH 102 105
ENDBRANCH  75  98
ENDBRANCH  49  50
ENDBRANCH  41  44
ENDBRANCH  39  40
ENDBRANCH  38  39
ENDBRANCH   1  38
TORSDOF 19
ENDMDL
MODEL 3
REMARK VINA RESULT:      -9.9      7.694     14.696
REMARK SMILES CCC[NH+]1CCN(c2cc(C(=O)NCCCCNC(=O)c3ccc(-c4c5nc(c(-c6cccc(S(=O)(=O)[O-])c6F)c6ccc([nH]6)c(-c6cccc(S(=O)(=O)[O-])c6F)c6nc(c(-c7cccc(S(=O)(=O)[O-])c7F)c7ccc4[nH]7)C=C6)C=C5)cc3)c3cc(NC(=O)c4ccc(F)cc4)ccc3n2)CC1
REMARK SMILES IDX 15 1 14 2 13 3 11 4 12 5 10 7 8 8 9 9 100 10 99 11 84 12
REMARK SMILES IDX 98 13 85 14 97 15 86 16 7 17 4 18 5 19 102 20 6 22 101 23
REMARK SMILES IDX 3 24 2 25 1 26 87 27 88 28 89 30 90 31 91 32 96 33 92 34
REMARK SMILES IDX 95 35 93 36 94 37 16 38 17 39 18 40 19 41 20 43 21 44 22 45
REMARK SMILES IDX 83 46 23 47 82 48 24 49 25 50 26 51 76 52 27 53 81 54 75 55
REMARK SMILES IDX 77 56 28 57 80 58 74 59 73 60 29 62 61 63 41 64 60 65 42 66
REMARK SMILES IDX 45 67 59 68 78 69 43 70 44 71 58 73 79 74 46 75 30 76 31 77
REMARK SMILES IDX 39 78 32 79 34 80 40 81 33 82 35 83 36 84 37 85 38 86 62 87
REMARK SMILES IDX 63 88 71 89 64 90 66 91 72 92 65 93 67 94 68 95 69 96 70 97
REMARK SMILES IDX 47 98 48 99 56 100 49 101 51 102 57 103 50 104 52 105 53 106
REMARK SMILES IDX 54 107 55 108
REMARK H PARENT 13 6 4 21 87 29 18 42 77 61 45 72
REMARK Flexibility Score: inf
ROOT
ATOM      1  C   UNL A   1      35.454  34.406  31.937  1.00  0.00     0.023 C 
ENDROOT
BRANCH   1   2
ATOM      2  C   UNL A   1      34.487  33.686  30.997  1.00  0.00     0.116 C 
BRANCH   2   3
ATOM      3  N   UNL A   1      34.493  34.107  29.599  1.00  0.00    -0.352 N 
ATOM      4  C   UNL A   1      34.663  33.428  28.401  1.00  0.00     0.252 C 
ATOM      5  O   UNL A   1      34.569  34.092  27.365  1.00  0.00    -0.269 OA
ATOM      6  H   UNL A   1      34.345  35.074  29.481  1.00  0.00     0.163 HD
BRANCH   4   7
ATOM      7  C   UNL A   1      34.996  31.967  28.242  1.00  0.00     0.052 A 
ATOM      8  C   UNL A   1      36.727  30.267  28.438  1.00  0.00     0.130 A 
ATOM      9  C   UNL A   1      36.302  31.580  28.619  1.00  0.00     0.061 A 
ATOM     10  N   UNL A   1      35.848  29.328  28.041  1.00  0.00    -0.231 NA
ATOM     11  C   UNL A   1      34.624  29.672  27.641  1.00  0.00     0.074 A 
ATOM     12  C   UNL A   1      34.182  30.999  27.621  1.00  0.00     0.015 A 
ATOM     13  C   UNL A   1      33.793  28.668  27.165  1.00  0.00     0.031 A 
ATOM     14  C   UNL A   1      33.010  31.269  26.897  1.00  0.00     0.037 A 
ATOM     15  C   UNL A   1      32.581  28.955  26.534  1.00  0.00     0.028 A 
ATOM     16  C   UNL A   1      32.226  30.278  26.315  1.00  0.00     0.042 A 
BRANCH   8  17
ATOM     17  N   UNL A   1      38.024  29.839  28.606  1.00  0.00    -0.345 N 
ATOM     18  N   UNL A   1      40.867  29.192  29.000  1.00  0.00    -0.332 N 
ATOM     19  C   UNL A   1      40.126  28.882  27.758  1.00  0.00     0.284 C 
ATOM     20  C   UNL A   1      40.233  30.322  29.687  1.00  0.00     0.284 C 
ATOM     21  H   UNL A   1      41.802  29.549  28.803  1.00  0.00     0.348 HD
ATOM     22  C   UNL A   1      38.601  28.670  27.948  1.00  0.00     0.179 C 
ATOM     23  C   UNL A   1      38.696  30.274  29.844  1.00  0.00     0.179 C 
BRANCH  18  24
ATOM     24  C   UNL A   1      41.252  27.996  29.750  1.00  0.00     0.262 C 
BRANCH  24  25
ATOM     25  C   UNL A   1      41.930  26.800  29.064  1.00  0.00     0.058 C 
ATOM     26  C   UNL A   1      43.148  27.178  28.233  1.00  0.00     0.010 C 
ENDBRANCH  24  25
ENDBRANCH  18  24
ENDBRANCH   8  17
BRANCH  16  27
ATOM     27  N   UNL A   1      31.103  30.545  25.517  1.00  0.00    -0.322 N 
ATOM     28  C   UNL A   1      30.660  29.987  24.335  1.00  0.00     0.255 C 
ATOM     29  H   UNL A   1      30.524  31.261  25.866  1.00  0.00     0.170 HD
ATOM     30  O   UNL A   1      29.734  30.514  23.724  1.00  0.00    -0.269 OA
BRANCH  28  31
ATOM     31  C   UNL A   1      31.251  28.744  23.788  1.00  0.00     0.040 A 
ATOM     32  C   UNL A   1      30.541  27.554  23.967  1.00  0.00     0.017 A 
ATOM     33  C   UNL A   1      32.437  28.746  23.042  1.00  0.00     0.017 A 
ATOM     34  C   UNL A   1      30.963  26.384  23.331  1.00  0.00     0.040 A 
ATOM     35  C   UNL A   1      32.844  27.579  22.389  1.00  0.00     0.040 A 
ATOM     36  C   UNL A   1      32.096  26.414  22.529  1.00  0.00     0.123 A 
ATOM     37  F   UNL A   1      32.467  25.307  21.874  1.00  0.00    -0.207 F 
ENDBRANCH  28  31
ENDBRANCH  16  27
ENDBRANCH   4   7
ENDBRANCH   2   3
ENDBRANCH   1   2
BRANCH   1  38
ATOM     38  C   UNL A   1      36.423  33.574  32.791  1.00  0.00     0.023 C 
BRANCH  38  39
ATOM     39  C   UNL A   1      37.178  34.204  33.972  1.00  0.00     0.116 C 
BRANCH  39  40
ATOM     40  N   UNL A   1      36.838  33.747  35.308  1.00  0.00    -0.352 N 
ATOM     41  C   UNL A   1      37.445  32.739  36.042  1.00  0.00     0.251 C 
ATOM     42  H   UNL A   1      36.084  34.206  35.744  1.00  0.00     0.163 HD
ATOM     43  O   UNL A   1      37.024  32.450  37.152  1.00  0.00    -0.269 OA
BRANCH  41  44
ATOM     44  C   UNL A   1      38.564  31.960  35.447  1.00  0.00     0.039 A 
ATOM     45  C   UNL A   1      38.276  31.078  34.402  1.00  0.00     0.014 A 
ATOM     46  C   UNL A   1      39.887  32.128  35.863  1.00  0.00     0.014 A 
ATOM     47  C   UNL A   1      39.321  30.475  33.692  1.00  0.00     0.010 A 
ATOM     48  C   UNL A   1      40.931  31.557  35.134  1.00  0.00     0.010 A 
ATOM     49  C   UNL A   1      40.659  30.765  34.011  1.00  0.00    -0.014 A 
BRANCH  49  50
ATOM     50  C   UNL A   1      41.762  30.391  33.085  1.00  0.00     0.031 A 
ATOM     51  C   UNL A   1      42.461  29.065  33.178  1.00  0.00     0.074 A 
ATOM     52  C   UNL A   1      42.208  31.324  32.218  1.00  0.00     0.049 A 
ATOM     53  N   UNL A   1      43.441  28.602  32.445  1.00  0.00    -0.248 NA
ATOM     54  C   UNL A   1      42.020  28.148  34.240  1.00  0.00     0.031 C 
ATOM     55  C   UNL A   1      41.684  32.689  32.108  1.00  0.00     0.029 A 
ATOM     56  N   UNL A   1      43.213  31.283  31.284  1.00  0.00    -0.354 N 
ATOM     57  C   UNL A   1      43.749  27.350  32.962  1.00  0.00     0.074 A 
ATOM     58  C   UNL A   1      42.868  27.137  34.092  1.00  0.00     0.031 C 
ATOM     59  C   UNL A   1      42.365  33.349  31.159  1.00  0.00     0.029 A 
ATOM     60  C   UNL A   1      43.386  32.467  30.604  1.00  0.00     0.049 A 
ATOM     61  H   UNL A   1      43.761  30.481  31.117  1.00  0.00     0.167 HD
ATOM     62  C   UNL A   1      44.661  26.450  32.519  1.00  0.00     0.034 A 
ATOM     63  C   UNL A   1      44.261  32.806  29.638  1.00  0.00     0.034 A 
ATOM     64  C   UNL A   1      45.517  26.658  31.380  1.00  0.00     0.049 A 
ATOM     65  C   UNL A   1      45.223  31.768  29.129  1.00  0.00     0.074 A 
ATOM     66  C   UNL A   1      46.414  25.774  30.804  1.00  0.00     0.029 A 
ATOM     67  N   UNL A   1      45.592  27.834  30.647  1.00  0.00    -0.354 N 
ATOM     68  N   UNL A   1      45.367  30.523  29.509  1.00  0.00    -0.248 NA
ATOM     69  C   UNL A   1      46.115  32.169  28.030  1.00  0.00     0.031 C 
ATOM     70  C   UNL A   1      47.041  26.420  29.733  1.00  0.00     0.029 A 
ATOM     71  C   UNL A   1      46.522  27.701  29.630  1.00  0.00     0.049 A 
ATOM     72  H   UNL A   1      45.061  28.644  30.826  1.00  0.00     0.167 HD
ATOM     73  C   UNL A   1      46.336  29.978  28.674  1.00  0.00     0.074 A 
ATOM     74  C   UNL A   1      46.731  31.025  27.754  1.00  0.00     0.031 C 
ATOM     75  C   UNL A   1      46.862  28.730  28.682  1.00  0.00     0.034 A 
BRANCH  62  76
ATOM     76  C   UNL A   1      44.738  25.122  33.227  1.00  0.00     0.023 A 
ATOM     77  C   UNL A   1      43.994  24.034  32.728  1.00  0.00     0.012 A 
ATOM     78  C   UNL A   1      45.593  24.925  34.330  1.00  0.00     0.148 A 
ATOM     79  C   UNL A   1      44.072  22.780  33.332  1.00  0.00     0.002 A 
ATOM     80  C   UNL A   1      45.697  23.662  34.903  1.00  0.00     0.091 A 
ATOM     81  F   UNL A   1      46.283  25.973  34.799  1.00  0.00    -0.205 F 
ATOM     82  C   UNL A   1      44.931  22.592  34.412  1.00  0.00     0.022 A 
BRANCH  80  83
ATOM     83  S   UNL A   1      46.826  23.296  36.253  1.00  0.00     0.127 S 
ATOM     84  O   UNL A   1      48.118  23.309  35.568  1.00  0.00    -0.237 OA
ATOM     85  O   UNL A   1      46.605  24.426  37.155  1.00  0.00    -0.237 OA
ATOM     86  O   UNL A   1      46.412  22.006  36.783  1.00  0.00    -0.744 OA
ENDBRANCH  80  83
ENDBRANCH  62  76
BRANCH  63  87
ATOM     87  C   UNL A   1      44.205  34.166  29.028  1.00  0.00     0.023 A 
ATOM     88  C   UNL A   1      43.393  34.380  27.897  1.00  0.00     0.012 A 
ATOM     89  C   UNL A   1      44.921  35.249  29.573  1.00  0.00     0.148 A 
ATOM     90  C   UNL A   1      43.319  35.640  27.303  1.00  0.00     0.002 A 
ATOM     91  C   UNL A   1      44.800  36.513  29.009  1.00  0.00     0.091 A 
ATOM     92  F   UNL A   1      45.699  35.024  30.641  1.00  0.00    -0.205 F 
ATOM     93  C   UNL A   1      44.013  36.708  27.862  1.00  0.00     0.022 A 
BRANCH  91  94
ATOM     94  S   UNL A   1      45.550  37.967  29.751  1.00  0.00     0.127 S 
ATOM     95  O   UNL A   1      46.973  37.669  29.626  1.00  0.00    -0.237 OA
ATOM     96  O   UNL A   1      45.065  39.041  28.882  1.00  0.00    -0.237 OA
ATOM     97  O   UNL A   1      45.025  38.022  31.109  1.00  0.00    -0.744 OA
ENDBRANCH  91  94
ENDBRANCH  63  87
BRANCH  75  98
ATOM     98  C   UNL A   1      47.903  28.404  27.643  1.00  0.00     0.023 A 
ATOM     99  C   UNL A   1      49.268  28.415  27.993  1.00  0.00     0.012 A 
ATOM    100  C   UNL A   1      47.525  28.009  26.344  1.00  0.00     0.148 A 
ATOM    101  C   UNL A   1      50.241  28.062  27.060  1.00  0.00     0.002 A 
ATOM    102  C   UNL A   1      48.498  27.614  25.434  1.00  0.00     0.091 A 
ATOM    103  F   UNL A   1      46.224  28.027  26.023  1.00  0.00    -0.205 F 
ATOM    104  C   UNL A   1      49.858  27.650  25.786  1.00  0.00     0.022 A 
BRANCH 102 105
ATOM    105  S   UNL A   1      48.089  26.981  23.803  1.00  0.00     0.127 S 
ATOM    106  O   UNL A   1      49.413  26.717  23.243  1.00  0.00    -0.237 OA
ATOM    107  O   UNL A   1      47.310  25.783  24.120  1.00  0.00    -0.237 OA
ATOM    108  O   UNL A   1      47.329  28.036  23.144  1.00  0.00    -0.744 OA
ENDBRANCH 102 105
ENDBRANCH  75  98
ENDBRANCH  49  50
ENDBRANCH  41  44
ENDBRANCH  39  40
ENDBRANCH  38  39
ENDBRANCH   1  38
TORSDOF 19
ENDMDL
