MODEL 1
REMARK VINA RESULT:     -11.7      0.000      0.000
REMARK SMILES CCn1cccc1C(=O)N(C)c1snc(C)c1C(=O)NCCCCNC(=O)c1ccc(-c2c3nc(c(-c4cccc(S(=O)(=O)[O-])c4F)c4ccc([nH]4)c(-c4cccc(S(=O)(=O)[O-])c4F)c4nc(c(-c5cccc(S(=O)(=O)[O-])c5F)c5ccc2[nH]5)C=C4)C=C3)cc1
REMARK SMILES IDX 22 1 21 2 20 3 18 4 19 5 17 7 12 8 13 9 14 10 15 11 16 12
REMARK SMILES IDX 10 13 11 14 8 15 9 16 7 17 3 18 4 19 5 20 6 21 2 22 1 23
REMARK SMILES IDX 23 24 24 25 25 26 26 27 27 29 28 30 29 31 90 32 30 33 89 34
REMARK SMILES IDX 31 35 32 36 33 37 83 38 34 39 88 40 82 41 84 42 35 43 87 44
REMARK SMILES IDX 81 45 80 46 36 48 68 49 48 50 67 51 49 52 52 53 66 54 85 55
REMARK SMILES IDX 50 56 51 57 65 59 86 60 53 61 37 62 38 63 46 64 39 65 41 66
REMARK SMILES IDX 47 67 40 68 42 69 43 70 44 71 45 72 69 73 70 74 78 75 71 76
REMARK SMILES IDX 73 77 79 78 72 79 74 80 75 81 76 82 77 83 54 84 55 85 63 86
REMARK SMILES IDX 56 87 58 88 64 89 57 90 59 91 60 92 61 93 62 94
REMARK H PARENT 20 6 25 28 84 47 52 58
REMARK Flexibility Score: inf
ROOT
ATOM      1  C   UNL A   1      32.060  29.021  27.209  1.00  0.00     0.023 C 
ENDROOT
BRANCH   1   2
ATOM      2  C   UNL A   1      32.198  27.507  27.066  1.00  0.00     0.116 C 
BRANCH   2   3
ATOM      3  N   UNL A   1      31.028  26.808  26.611  1.00  0.00    -0.352 N 
ATOM      4  C   UNL A   1      30.808  25.910  25.588  1.00  0.00     0.256 C 
ATOM      5  O   UNL A   1      29.664  25.472  25.558  1.00  0.00    -0.269 OA
ATOM      6  H   UNL A   1      30.220  27.009  27.138  1.00  0.00     0.163 HD
BRANCH   4   7
ATOM      7  C   UNL A   1      31.775  25.521  24.537  1.00  0.00     0.097 A 
ATOM      8  C   UNL A   1      32.634  24.434  24.403  1.00  0.00     0.131 A 
ATOM      9  S   UNL A   1      33.421  24.469  22.881  1.00  0.00    -0.017 S 
ATOM     10  N   UNL A   1      32.846  25.929  22.419  1.00  0.00    -0.195 NA
ATOM     11  C   UNL A   1      31.986  26.370  23.341  1.00  0.00     0.066 A 
ATOM     12  C   UNL A   1      31.394  27.712  23.038  1.00  0.00     0.069 C 
BRANCH   8  13
ATOM     13  N   UNL A   1      33.049  23.375  25.225  1.00  0.00    -0.300 N 
ATOM     14  C   UNL A   1      33.738  23.742  26.451  1.00  0.00     0.154 C 
BRANCH  13  15
ATOM     15  C   UNL A   1      32.932  22.088  24.665  1.00  0.00     0.275 C 
ATOM     16  O   UNL A   1      31.826  21.755  24.223  1.00  0.00    -0.267 OA
BRANCH  15  17
ATOM     17  C   UNL A   1      34.008  21.069  24.676  1.00  0.00     0.107 A 
ATOM     18  N   UNL A   1      35.405  21.048  24.722  1.00  0.00    -0.344 N 
ATOM     19  C   UNL A   1      35.847  19.753  24.898  1.00  0.00     0.086 A 
ATOM     20  C   UNL A   1      34.796  18.903  24.709  1.00  0.00     0.020 A 
ATOM     21  C   UNL A   1      33.654  19.711  24.614  1.00  0.00     0.033 A 
BRANCH  18  22
ATOM     22  C   UNL A   1      36.351  22.127  24.505  1.00  0.00     0.119 C 
ATOM     23  C   UNL A   1      37.708  22.022  25.195  1.00  0.00     0.027 C 
ENDBRANCH  18  22
ENDBRANCH  15  17
ENDBRANCH  13  15
ENDBRANCH   8  13
ENDBRANCH   4   7
ENDBRANCH   2   3
ENDBRANCH   1   2
BRANCH   1  24
ATOM     24  C   UNL A   1      33.258  29.874  26.782  1.00  0.00     0.023 C 
BRANCH  24  25
ATOM     25  C   UNL A   1      34.528  29.698  27.623  1.00  0.00     0.116 C 
BRANCH  25  26
ATOM     26  N   UNL A   1      35.140  30.972  27.979  1.00  0.00    -0.352 N 
ATOM     27  C   UNL A   1      36.384  31.233  28.505  1.00  0.00     0.251 C 
ATOM     28  H   UNL A   1      34.578  31.764  27.819  1.00  0.00     0.163 HD
ATOM     29  O   UNL A   1      36.605  32.361  28.949  1.00  0.00    -0.269 OA
BRANCH  27  30
ATOM     30  C   UNL A   1      37.441  30.194  28.592  1.00  0.00     0.039 A 
ATOM     31  C   UNL A   1      38.320  30.049  27.509  1.00  0.00     0.014 A 
ATOM     32  C   UNL A   1      37.552  29.325  29.680  1.00  0.00     0.014 A 
ATOM     33  C   UNL A   1      39.367  29.125  27.571  1.00  0.00     0.010 A 
ATOM     34  C   UNL A   1      38.564  28.366  29.725  1.00  0.00     0.010 A 
ATOM     35  C   UNL A   1      39.521  28.318  28.707  1.00  0.00    -0.014 A 
BRANCH  35  36
ATOM     36  C   UNL A   1      40.844  27.688  28.980  1.00  0.00     0.031 A 
ATOM     37  C   UNL A   1      40.877  26.215  28.504  1.00  0.00     0.074 A 
ATOM     38  C   UNL A   1      41.819  28.432  29.583  1.00  0.00     0.049 A 
ATOM     39  N   UNL A   1      41.570  25.202  28.946  1.00  0.00    -0.248 NA
ATOM     40  C   UNL A   1      39.907  25.774  27.463  1.00  0.00     0.031 C 
ATOM     41  C   UNL A   1      41.670  29.848  29.968  1.00  0.00     0.029 A 
ATOM     42  N   UNL A   1      43.120  28.171  29.985  1.00  0.00    -0.354 N 
ATOM     43  C   UNL A   1      41.292  24.109  28.085  1.00  0.00     0.074 A 
ATOM     44  C   UNL A   1      40.150  24.473  27.312  1.00  0.00     0.031 C 
ATOM     45  C   UNL A   1      42.783  30.296  30.592  1.00  0.00     0.029 A 
ATOM     46  C   UNL A   1      43.780  29.239  30.645  1.00  0.00     0.049 A 
ATOM     47  H   UNL A   1      43.557  27.304  29.822  1.00  0.00     0.167 HD
ATOM     48  C   UNL A   1      42.118  23.034  27.934  1.00  0.00     0.034 A 
ATOM     49  C   UNL A   1      45.025  29.278  31.218  1.00  0.00     0.034 A 
ATOM     50  C   UNL A   1      43.264  23.192  28.763  1.00  0.00     0.049 A 
ATOM     51  C   UNL A   1      45.693  28.021  30.860  1.00  0.00     0.074 A 
ATOM     52  C   UNL A   1      43.504  23.054  30.101  1.00  0.00     0.029 A 
ATOM     53  N   UNL A   1      44.328  23.821  28.166  1.00  0.00    -0.354 N 
ATOM     54  N   UNL A   1      46.191  27.758  29.689  1.00  0.00    -0.248 NA
ATOM     55  C   UNL A   1      45.794  26.953  31.864  1.00  0.00     0.031 C 
ATOM     56  C   UNL A   1      44.597  23.911  30.347  1.00  0.00     0.029 A 
ATOM     57  C   UNL A   1      45.019  24.484  29.142  1.00  0.00     0.049 A 
ATOM     58  H   UNL A   1      44.553  23.798  27.208  1.00  0.00     0.167 HD
ATOM     59  C   UNL A   1      46.317  26.392  29.733  1.00  0.00     0.074 A 
ATOM     60  C   UNL A   1      46.411  26.035  31.128  1.00  0.00     0.031 C 
ATOM     61  C   UNL A   1      45.772  25.649  28.740  1.00  0.00     0.034 A 
BRANCH  48  62
ATOM     62  C   UNL A   1      42.193  21.908  26.919  1.00  0.00     0.023 A 
ATOM     63  C   UNL A   1      41.034  21.078  26.854  1.00  0.00     0.012 A 
ATOM     64  C   UNL A   1      43.346  21.437  26.269  1.00  0.00     0.148 A 
ATOM     65  C   UNL A   1      41.050  19.802  26.297  1.00  0.00     0.002 A 
ATOM     66  C   UNL A   1      43.339  20.179  25.654  1.00  0.00     0.091 A 
ATOM     67  F   UNL A   1      44.475  22.150  26.316  1.00  0.00    -0.205 F 
ATOM     68  C   UNL A   1      42.211  19.346  25.705  1.00  0.00     0.022 A 
BRANCH  66  69
ATOM     69  S   UNL A   1      44.755  19.547  24.744  1.00  0.00     0.127 S 
ATOM     70  O   UNL A   1      44.751  18.134  25.110  1.00  0.00    -0.237 OA
ATOM     71  O   UNL A   1      44.374  19.813  23.354  1.00  0.00    -0.237 OA
ATOM     72  O   UNL A   1      45.888  20.342  25.201  1.00  0.00    -0.744 OA
ENDBRANCH  66  69
ENDBRANCH  48  62
BRANCH  49  73
ATOM     73  C   UNL A   1      45.808  30.213  32.123  1.00  0.00     0.023 A 
ATOM     74  C   UNL A   1      46.730  31.163  31.665  1.00  0.00     0.012 A 
ATOM     75  C   UNL A   1      45.570  30.221  33.535  1.00  0.00     0.148 A 
ATOM     76  C   UNL A   1      47.292  32.122  32.534  1.00  0.00     0.002 A 
ATOM     77  C   UNL A   1      46.026  31.238  34.366  1.00  0.00     0.091 A 
ATOM     78  F   UNL A   1      44.923  29.203  34.110  1.00  0.00    -0.205 F 
ATOM     79  C   UNL A   1      46.906  32.192  33.871  1.00  0.00     0.022 A 
BRANCH  77  80
ATOM     80  S   UNL A   1      45.390  31.453  36.042  1.00  0.00     0.127 S 
ATOM     81  O   UNL A   1      46.076  30.392  36.777  1.00  0.00    -0.237 OA
ATOM     82  O   UNL A   1      45.846  32.809  36.355  1.00  0.00    -0.237 OA
ATOM     83  O   UNL A   1      43.941  31.314  35.957  1.00  0.00    -0.744 OA
ENDBRANCH  77  80
ENDBRANCH  49  73
BRANCH  61  84
ATOM     84  C   UNL A   1      45.689  26.369  27.399  1.00  0.00     0.023 A 
ATOM     85  C   UNL A   1      44.433  26.874  27.011  1.00  0.00     0.012 A 
ATOM     86  C   UNL A   1      46.745  26.454  26.461  1.00  0.00     0.148 A 
ATOM     87  C   UNL A   1      44.227  27.434  25.747  1.00  0.00     0.002 A 
ATOM     88  C   UNL A   1      46.542  27.012  25.197  1.00  0.00     0.091 A 
ATOM     89  F   UNL A   1      47.939  25.971  26.803  1.00  0.00    -0.205 F 
ATOM     90  C   UNL A   1      45.280  27.505  24.841  1.00  0.00     0.022 A 
BRANCH  88  91
ATOM     91  S   UNL A   1      47.820  27.113  23.928  1.00  0.00     0.127 S 
ATOM     92  O   UNL A   1      47.121  27.791  22.835  1.00  0.00    -0.237 OA
ATOM     93  O   UNL A   1      48.840  27.926  24.585  1.00  0.00    -0.237 OA
ATOM     94  O   UNL A   1      48.219  25.743  23.628  1.00  0.00    -0.744 OA
ENDBRANCH  88  91
ENDBRANCH  61  84
ENDBRANCH  35  36
ENDBRANCH  27  30
ENDBRANCH  25  26
ENDBRANCH  24  25
ENDBRANCH   1  24
TORSDOF 18
ENDMDL
MODEL 2
REMARK VINA RESULT:     -11.1      2.888      8.630
REMARK SMILES CCn1cccc1C(=O)N(C)c1snc(C)c1C(=O)NCCCCNC(=O)c1ccc(-c2c3nc(c(-c4cccc(S(=O)(=O)[O-])c4F)c4ccc([nH]4)c(-c4cccc(S(=O)(=O)[O-])c4F)c4nc(c(-c5cccc(S(=O)(=O)[O-])c5F)c5ccc2[nH]5)C=C4)C=C3)cc1
REMARK SMILES IDX 22 1 21 2 20 3 18 4 19 5 17 7 12 8 13 9 14 10 15 11 16 12
REMARK SMILES IDX 10 13 11 14 8 15 9 16 7 17 3 18 4 19 5 20 6 21 2 22 1 23
REMARK SMILES IDX 23 24 24 25 25 26 26 27 27 29 28 30 29 31 90 32 30 33 89 34
REMARK SMILES IDX 31 35 32 36 33 37 83 38 34 39 88 40 82 41 84 42 35 43 87 44
REMARK SMILES IDX 81 45 80 46 36 48 68 49 48 50 67 51 49 52 52 53 66 54 85 55
REMARK SMILES IDX 50 56 51 57 65 59 86 60 53 61 37 62 38 63 46 64 39 65 41 66
REMARK SMILES IDX 47 67 40 68 42 69 43 70 44 71 45 72 69 73 70 74 78 75 71 76
REMARK SMILES IDX 73 77 79 78 72 79 74 80 75 81 76 82 77 83 54 84 55 85 63 86
REMARK SMILES IDX 56 87 58 88 64 89 57 90 59 91 60 92 61 93 62 94
REMARK H PARENT 20 6 25 28 84 47 52 58
REMARK Flexibility Score: inf
ROOT
ATOM      1  C   UNL A   1      36.570  22.293  25.720  1.00  0.00     0.023 C 
ENDROOT
BRANCH   1   2
ATOM      2  C   UNL A   1      36.294  23.566  24.923  1.00  0.00     0.116 C 
BRANCH   2   3
ATOM      3  N   UNL A   1      35.724  23.382  23.618  1.00  0.00    -0.352 N 
ATOM      4  C   UNL A   1      34.425  23.296  23.162  1.00  0.00     0.256 C 
ATOM      5  O   UNL A   1      34.339  23.205  21.943  1.00  0.00    -0.269 OA
ATOM      6  H   UNL A   1      36.397  23.303  22.903  1.00  0.00     0.163 HD
BRANCH   4   7
ATOM      7  C   UNL A   1      33.203  23.232  23.995  1.00  0.00     0.097 A 
ATOM      8  C   UNL A   1      32.240  24.179  24.330  1.00  0.00     0.131 A 
ATOM      9  S   UNL A   1      30.975  23.460  25.235  1.00  0.00    -0.017 S 
ATOM     10  N   UNL A   1      31.676  21.990  25.383  1.00  0.00    -0.195 NA
ATOM     11  C   UNL A   1      32.814  21.978  24.683  1.00  0.00     0.066 A 
ATOM     12  C   UNL A   1      33.563  20.683  24.747  1.00  0.00     0.069 C 
BRANCH   8  13
ATOM     13  N   UNL A   1      32.094  25.564  24.163  1.00  0.00    -0.300 N 
ATOM     14  C   UNL A   1      31.147  25.995  23.148  1.00  0.00     0.154 C 
BRANCH  13  15
ATOM     15  C   UNL A   1      33.030  26.363  24.850  1.00  0.00     0.275 C 
ATOM     16  O   UNL A   1      34.222  26.235  24.547  1.00  0.00    -0.267 OA
BRANCH  15  17
ATOM     17  C   UNL A   1      32.696  27.255  25.985  1.00  0.00     0.107 A 
ATOM     18  N   UNL A   1      33.282  28.334  26.652  1.00  0.00    -0.344 N 
ATOM     19  C   UNL A   1      32.378  28.880  27.540  1.00  0.00     0.086 A 
ATOM     20  C   UNL A   1      31.314  28.034  27.658  1.00  0.00     0.020 A 
ATOM     21  C   UNL A   1      31.487  27.053  26.671  1.00  0.00     0.033 A 
BRANCH  18  22
ATOM     22  C   UNL A   1      34.649  28.818  26.600  1.00  0.00     0.119 C 
ATOM     23  C   UNL A   1      35.160  29.612  27.799  1.00  0.00     0.027 C 
ENDBRANCH  18  22
ENDBRANCH  15  17
ENDBRANCH  13  15
ENDBRANCH   8  13
ENDBRANCH   4   7
ENDBRANCH   2   3
ENDBRANCH   1   2
BRANCH   1  24
ATOM     24  C   UNL A   1      37.718  21.403  25.238  1.00  0.00     0.023 C 
BRANCH  24  25
ATOM     25  C   UNL A   1      39.060  21.611  25.951  1.00  0.00     0.116 C 
BRANCH  25  26
ATOM     26  N   UNL A   1      39.887  20.412  25.940  1.00  0.00    -0.352 N 
ATOM     27  C   UNL A   1      41.247  20.280  26.103  1.00  0.00     0.251 C 
ATOM     28  H   UNL A   1      39.399  19.570  25.792  1.00  0.00     0.163 HD
ATOM     29  O   UNL A   1      41.767  19.199  25.822  1.00  0.00    -0.269 OA
BRANCH  27  30
ATOM     30  C   UNL A   1      42.102  21.404  26.563  1.00  0.00     0.039 A 
ATOM     31  C   UNL A   1      42.650  22.259  25.596  1.00  0.00     0.014 A 
ATOM     32  C   UNL A   1      42.424  21.600  27.907  1.00  0.00     0.014 A 
ATOM     33  C   UNL A   1      43.412  23.365  25.984  1.00  0.00     0.010 A 
ATOM     34  C   UNL A   1      43.226  22.672  28.297  1.00  0.00     0.010 A 
ATOM     35  C   UNL A   1      43.656  23.602  27.344  1.00  0.00    -0.014 A 
BRANCH  35  36
ATOM     36  C   UNL A   1      44.050  24.969  27.787  1.00  0.00     0.031 A 
ATOM     37  C   UNL A   1      42.814  25.884  27.964  1.00  0.00     0.074 A 
ATOM     38  C   UNL A   1      45.375  25.248  27.977  1.00  0.00     0.049 A 
ATOM     39  N   UNL A   1      42.700  27.178  27.851  1.00  0.00    -0.248 NA
ATOM     40  C   UNL A   1      41.479  25.256  28.177  1.00  0.00     0.031 C 
ATOM     41  C   UNL A   1      46.466  24.271  27.798  1.00  0.00     0.029 A 
ATOM     42  N   UNL A   1      46.076  26.381  28.360  1.00  0.00    -0.354 N 
ATOM     43  C   UNL A   1      41.369  27.505  28.216  1.00  0.00     0.074 A 
ATOM     44  C   UNL A   1      40.634  26.284  28.239  1.00  0.00     0.031 C 
ATOM     45  C   UNL A   1      47.670  24.853  28.004  1.00  0.00     0.029 A 
ATOM     46  C   UNL A   1      47.488  26.248  28.371  1.00  0.00     0.049 A 
ATOM     47  H   UNL A   1      45.625  27.219  28.609  1.00  0.00     0.167 HD
ATOM     48  C   UNL A   1      40.983  28.741  28.648  1.00  0.00     0.034 A 
ATOM     49  C   UNL A   1      48.454  27.187  28.631  1.00  0.00     0.034 A 
ATOM     50  C   UNL A   1      42.107  29.614  28.663  1.00  0.00     0.049 A 
ATOM     51  C   UNL A   1      47.756  28.386  29.110  1.00  0.00     0.074 A 
ATOM     52  C   UNL A   1      42.811  30.286  27.704  1.00  0.00     0.029 A 
ATOM     53  N   UNL A   1      42.795  29.651  29.851  1.00  0.00    -0.354 N 
ATOM     54  N   UNL A   1      47.245  28.517  30.298  1.00  0.00    -0.248 NA
ATOM     55  C   UNL A   1      47.579  29.523  28.196  1.00  0.00     0.031 C 
ATOM     56  C   UNL A   1      44.095  30.446  28.264  1.00  0.00     0.029 A 
ATOM     57  C   UNL A   1      44.104  29.925  29.563  1.00  0.00     0.049 A 
ATOM     58  H   UNL A   1      42.414  29.507  30.747  1.00  0.00     0.167 HD
ATOM     59  C   UNL A   1      46.393  29.579  30.125  1.00  0.00     0.074 A 
ATOM     60  C   UNL A   1      46.898  30.331  29.003  1.00  0.00     0.031 C 
ATOM     61  C   UNL A   1      45.096  29.448  30.498  1.00  0.00     0.034 A 
BRANCH  48  62
ATOM     62  C   UNL A   1      39.736  29.266  29.335  1.00  0.00     0.023 A 
ATOM     63  C   UNL A   1      39.030  30.275  28.613  1.00  0.00     0.012 A 
ATOM     64  C   UNL A   1      39.376  29.082  30.681  1.00  0.00     0.148 A 
ATOM     65  C   UNL A   1      38.120  31.139  29.218  1.00  0.00     0.002 A 
ATOM     66  C   UNL A   1      38.413  29.911  31.268  1.00  0.00     0.091 A 
ATOM     67  F   UNL A   1      40.018  28.174  31.423  1.00  0.00    -0.205 F 
ATOM     68  C   UNL A   1      37.820  30.963  30.554  1.00  0.00     0.022 A 
BRANCH  66  69
ATOM     69  S   UNL A   1      37.854  29.684  32.962  1.00  0.00     0.127 S 
ATOM     70  O   UNL A   1      39.035  30.064  33.730  1.00  0.00    -0.237 OA
ATOM     71  O   UNL A   1      36.742  30.635  33.052  1.00  0.00    -0.237 OA
ATOM     72  O   UNL A   1      37.437  28.289  33.042  1.00  0.00    -0.744 OA
ENDBRANCH  66  69
ENDBRANCH  48  62
BRANCH  49  73
ATOM     73  C   UNL A   1      49.962  27.304  28.496  1.00  0.00     0.023 A 
ATOM     74  C   UNL A   1      50.815  27.718  29.527  1.00  0.00     0.012 A 
ATOM     75  C   UNL A   1      50.613  26.903  27.285  1.00  0.00     0.148 A 
ATOM     76  C   UNL A   1      52.218  27.636  29.398  1.00  0.00     0.002 A 
ATOM     77  C   UNL A   1      51.986  26.706  27.201  1.00  0.00     0.091 A 
ATOM     78  F   UNL A   1      49.902  26.744  26.164  1.00  0.00    -0.205 F 
ATOM     79  C   UNL A   1      52.803  27.087  28.259  1.00  0.00     0.022 A 
BRANCH  77  80
ATOM     80  S   UNL A   1      52.740  25.825  25.817  1.00  0.00     0.127 S 
ATOM     81  O   UNL A   1      52.340  26.640  24.672  1.00  0.00    -0.237 OA
ATOM     82  O   UNL A   1      54.160  25.904  26.160  1.00  0.00    -0.237 OA
ATOM     83  O   UNL A   1      52.192  24.474  25.840  1.00  0.00    -0.744 OA
ENDBRANCH  77  80
ENDBRANCH  49  73
BRANCH  61  84
ATOM     84  C   UNL A   1      44.874  28.463  31.639  1.00  0.00     0.023 A 
ATOM     85  C   UNL A   1      44.496  27.150  31.296  1.00  0.00     0.012 A 
ATOM     86  C   UNL A   1      44.892  28.800  33.013  1.00  0.00     0.148 A 
ATOM     87  C   UNL A   1      44.145  26.212  32.272  1.00  0.00     0.002 A 
ATOM     88  C   UNL A   1      44.540  27.865  33.988  1.00  0.00     0.091 A 
ATOM     89  F   UNL A   1      45.234  30.041  33.357  1.00  0.00    -0.205 F 
ATOM     90  C   UNL A   1      44.168  26.567  33.616  1.00  0.00     0.022 A 
BRANCH  88  91
ATOM     91  S   UNL A   1      44.489  28.228  35.755  1.00  0.00     0.127 S 
ATOM     92  O   UNL A   1      43.408  29.212  35.840  1.00  0.00    -0.237 OA
ATOM     93  O   UNL A   1      44.162  26.925  36.326  1.00  0.00    -0.237 OA
ATOM     94  O   UNL A   1      45.804  28.747  36.111  1.00  0.00    -0.744 OA
ENDBRANCH  88  91
ENDBRANCH  61  84
ENDBRANCH  35  36
ENDBRANCH  27  30
ENDBRANCH  25  26
ENDBRANCH  24  25
ENDBRANCH   1  24
TORSDOF 18
ENDMDL
MODEL 3
REMARK VINA RESULT:     -11.0      3.962      5.754
REMARK SMILES CCn1cccc1C(=O)N(C)c1snc(C)c1C(=O)NCCCCNC(=O)c1ccc(-c2c3nc(c(-c4cccc(S(=O)(=O)[O-])c4F)c4ccc([nH]4)c(-c4cccc(S(=O)(=O)[O-])c4F)c4nc(c(-c5cccc(S(=O)(=O)[O-])c5F)c5ccc2[nH]5)C=C4)C=C3)cc1
REMARK SMILES IDX 22 1 21 2 20 3 18 4 19 5 17 7 12 8 13 9 14 10 15 11 16 12
REMARK SMILES IDX 10 13 11 14 8 15 9 16 7 17 3 18 4 19 5 20 6 21 2 22 1 23
REMARK SMILES IDX 23 24 24 25 25 26 26 27 27 29 28 30 29 31 90 32 30 33 89 34
REMARK SMILES IDX 31 35 32 36 33 37 83 38 34 39 88 40 82 41 84 42 35 43 87 44
REMARK SMILES IDX 81 45 80 46 36 48 68 49 48 50 67 51 49 52 52 53 66 54 85 55
REMARK SMILES IDX 50 56 51 57 65 59 86 60 53 61 37 62 38 63 46 64 39 65 41 66
REMARK SMILES IDX 47 67 40 68 42 69 43 70 44 71 45 72 69 73 70 74 78 75 71 76
REMARK SMILES IDX 73 77 79 78 72 79 74 80 75 81 76 82 77 83 54 84 55 85 63 86
REMARK SMILES IDX 56 87 58 88 64 89 57 90 59 91 60 92 61 93 62 94
REMARK H PARENT 20 6 25 28 84 47 52 58
REMARK Flexibility Score: inf
ROOT
ATOM      1  C   UNL A   1      32.406  29.385  25.959  1.00  0.00     0.023 C 
ENDROOT
BRANCH   1   2
ATOM      2  C   UNL A   1      31.994  27.974  26.369  1.00  0.00     0.116 C 
BRANCH   2   3
ATOM      3  N   UNL A   1      33.025  26.975  26.318  1.00  0.00    -0.352 N 
ATOM      4  C   UNL A   1      33.600  26.268  25.284  1.00  0.00     0.256 C 
ATOM      5  O   UNL A   1      34.518  25.537  25.639  1.00  0.00    -0.269 OA
ATOM      6  H   UNL A   1      33.398  26.751  27.202  1.00  0.00     0.163 HD
BRANCH   4   7
ATOM      7  C   UNL A   1      33.162  26.267  23.869  1.00  0.00     0.097 A 
ATOM      8  C   UNL A   1      32.470  25.339  23.097  1.00  0.00     0.131 A 
ATOM      9  S   UNL A   1      32.141  25.974  21.540  1.00  0.00    -0.017 S 
ATOM     10  N   UNL A   1      33.002  27.351  21.725  1.00  0.00    -0.195 NA
ATOM     11  C   UNL A   1      33.467  27.410  22.976  1.00  0.00     0.066 A 
ATOM     12  C   UNL A   1      34.287  28.627  23.272  1.00  0.00     0.069 C 
BRANCH   8  13
ATOM     13  N   UNL A   1      32.043  24.014  23.265  1.00  0.00    -0.300 N 
ATOM     14  C   UNL A   1      30.669  23.829  23.702  1.00  0.00     0.154 C 
BRANCH  13  15
ATOM     15  C   UNL A   1      33.053  23.034  23.191  1.00  0.00     0.275 C 
ATOM     16  O   UNL A   1      33.957  23.207  22.365  1.00  0.00    -0.267 OA
BRANCH  15  17
ATOM     17  C   UNL A   1      33.043  21.762  23.951  1.00  0.00     0.107 A 
ATOM     18  N   UNL A   1      33.501  21.298  25.187  1.00  0.00    -0.344 N 
ATOM     19  C   UNL A   1      33.016  20.028  25.418  1.00  0.00     0.086 A 
ATOM     20  C   UNL A   1      32.471  19.550  24.261  1.00  0.00     0.020 A 
ATOM     21  C   UNL A   1      32.448  20.631  23.368  1.00  0.00     0.033 A 
BRANCH  18  22
ATOM     22  C   UNL A   1      34.441  21.908  26.110  1.00  0.00     0.119 C 
ATOM     23  C   UNL A   1      34.091  21.873  27.595  1.00  0.00     0.027 C 
ENDBRANCH  18  22
ENDBRANCH  15  17
ENDBRANCH  13  15
ENDBRANCH   8  13
ENDBRANCH   4   7
ENDBRANCH   2   3
ENDBRANCH   1   2
BRANCH   1  24
ATOM     24  C   UNL A   1      32.048  30.523  26.919  1.00  0.00     0.023 C 
BRANCH  24  25
ATOM     25  C   UNL A   1      33.203  31.461  27.292  1.00  0.00     0.116 C 
BRANCH  25  26
ATOM     26  N   UNL A   1      32.760  32.835  27.490  1.00  0.00    -0.352 N 
ATOM     27  C   UNL A   1      33.234  33.795  28.354  1.00  0.00     0.251 C 
ATOM     28  H   UNL A   1      32.010  33.118  26.920  1.00  0.00     0.163 HD
ATOM     29  O   UNL A   1      32.561  34.813  28.522  1.00  0.00    -0.269 OA
BRANCH  27  30
ATOM     30  C   UNL A   1      34.499  33.623  29.114  1.00  0.00     0.039 A 
ATOM     31  C   UNL A   1      34.437  33.009  30.373  1.00  0.00     0.014 A 
ATOM     32  C   UNL A   1      35.725  34.100  28.647  1.00  0.00     0.014 A 
ATOM     33  C   UNL A   1      35.608  32.772  31.099  1.00  0.00     0.010 A 
ATOM     34  C   UNL A   1      36.891  33.912  29.390  1.00  0.00     0.010 A 
ATOM     35  C   UNL A   1      36.846  33.178  30.580  1.00  0.00    -0.014 A 
BRANCH  35  36
ATOM     36  C   UNL A   1      38.095  32.546  31.092  1.00  0.00     0.031 A 
ATOM     37  C   UNL A   1      38.386  31.206  30.374  1.00  0.00     0.074 A 
ATOM     38  C   UNL A   1      38.800  33.178  32.078  1.00  0.00     0.049 A 
ATOM     39  N   UNL A   1      39.019  30.146  30.792  1.00  0.00    -0.248 NA
ATOM     40  C   UNL A   1      37.779  30.961  29.035  1.00  0.00     0.031 C 
ATOM     41  C   UNL A   1      38.428  34.479  32.667  1.00  0.00     0.029 A 
ATOM     42  N   UNL A   1      39.960  32.880  32.776  1.00  0.00    -0.354 N 
ATOM     43  C   UNL A   1      39.083  29.248  29.696  1.00  0.00     0.074 A 
ATOM     44  C   UNL A   1      38.168  29.728  28.714  1.00  0.00     0.031 C 
ATOM     45  C   UNL A   1      39.285  34.821  33.655  1.00  0.00     0.029 A 
ATOM     46  C   UNL A   1      40.318  33.807  33.787  1.00  0.00     0.049 A 
ATOM     47  H   UNL A   1      40.500  32.080  32.581  1.00  0.00     0.167 HD
ATOM     48  C   UNL A   1      40.011  28.253  29.584  1.00  0.00     0.034 A 
ATOM     49  C   UNL A   1      41.353  33.765  34.687  1.00  0.00     0.034 A 
ATOM     50  C   UNL A   1      40.869  28.271  30.718  1.00  0.00     0.049 A 
ATOM     51  C   UNL A   1      42.201  32.631  34.301  1.00  0.00     0.074 A 
ATOM     52  C   UNL A   1      40.748  27.865  32.018  1.00  0.00     0.029 A 
ATOM     53  N   UNL A   1      41.996  29.043  30.580  1.00  0.00    -0.354 N 
ATOM     54  N   UNL A   1      43.020  32.633  33.292  1.00  0.00    -0.248 NA
ATOM     55  C   UNL A   1      42.118  31.382  35.070  1.00  0.00     0.031 C 
ATOM     56  C   UNL A   1      41.652  28.686  32.723  1.00  0.00     0.029 A 
ATOM     57  C   UNL A   1      42.334  29.510  31.820  1.00  0.00     0.049 A 
ATOM     58  H   UNL A   1      42.474  29.227  29.740  1.00  0.00     0.167 HD
ATOM     59  C   UNL A   1      43.249  31.293  33.109  1.00  0.00     0.074 A 
ATOM     60  C   UNL A   1      42.991  30.656  34.378  1.00  0.00     0.031 C 
ATOM     61  C   UNL A   1      43.062  30.755  31.879  1.00  0.00     0.034 A 
BRANCH  48  62
ATOM     62  C   UNL A   1      40.458  27.366  28.437  1.00  0.00     0.023 A 
ATOM     63  C   UNL A   1      40.054  26.001  28.538  1.00  0.00     0.012 A 
ATOM     64  C   UNL A   1      41.433  27.667  27.471  1.00  0.00     0.148 A 
ATOM     65  C   UNL A   1      40.670  24.976  27.825  1.00  0.00     0.002 A 
ATOM     66  C   UNL A   1      42.005  26.640  26.710  1.00  0.00     0.091 A 
ATOM     67  F   UNL A   1      41.878  28.920  27.343  1.00  0.00    -0.205 F 
ATOM     68  C   UNL A   1      41.658  25.297  26.915  1.00  0.00     0.022 A 
BRANCH  66  69
ATOM     69  S   UNL A   1      43.204  26.963  25.409  1.00  0.00     0.127 S 
ATOM     70  O   UNL A   1      42.474  27.877  24.537  1.00  0.00    -0.237 OA
ATOM     71  O   UNL A   1      44.305  27.585  26.150  1.00  0.00    -0.237 OA
ATOM     72  O   UNL A   1      43.535  25.653  24.861  1.00  0.00    -0.744 OA
ENDBRANCH  66  69
ENDBRANCH  48  62
BRANCH  49  73
ATOM     73  C   UNL A   1      41.774  34.516  35.938  1.00  0.00     0.023 A 
ATOM     74  C   UNL A   1      42.728  35.541  35.957  1.00  0.00     0.012 A 
ATOM     75  C   UNL A   1      41.131  34.253  37.191  1.00  0.00     0.148 A 
ATOM     76  C   UNL A   1      42.948  36.320  37.113  1.00  0.00     0.002 A 
ATOM     77  C   UNL A   1      41.257  35.095  38.290  1.00  0.00     0.091 A 
ATOM     78  F   UNL A   1      40.409  33.140  37.352  1.00  0.00    -0.205 F 
ATOM     79  C   UNL A   1      42.182  36.132  38.262  1.00  0.00     0.022 A 
BRANCH  77  80
ATOM     80  S   UNL A   1      40.145  34.984  39.707  1.00  0.00     0.127 S 
ATOM     81  O   UNL A   1      38.830  34.926  39.070  1.00  0.00    -0.237 OA
ATOM     82  O   UNL A   1      40.582  33.731  40.324  1.00  0.00    -0.237 OA
ATOM     83  O   UNL A   1      40.390  36.169  40.520  1.00  0.00    -0.744 OA
ENDBRANCH  77  80
ENDBRANCH  49  73
BRANCH  61  84
ATOM     84  C   UNL A   1      43.284  31.735  30.733  1.00  0.00     0.023 A 
ATOM     85  C   UNL A   1      42.373  32.801  30.606  1.00  0.00     0.012 A 
ATOM     86  C   UNL A   1      44.256  31.582  29.715  1.00  0.00     0.148 A 
ATOM     87  C   UNL A   1      42.415  33.675  29.516  1.00  0.00     0.002 A 
ATOM     88  C   UNL A   1      44.299  32.453  28.625  1.00  0.00     0.091 A 
ATOM     89  F   UNL A   1      45.120  30.573  29.810  1.00  0.00    -0.205 F 
ATOM     90  C   UNL A   1      43.378  33.504  28.527  1.00  0.00     0.022 A 
BRANCH  88  91
ATOM     91  S   UNL A   1      45.472  32.298  27.263  1.00  0.00     0.127 S 
ATOM     92  O   UNL A   1      44.875  31.231  26.457  1.00  0.00    -0.237 OA
ATOM     93  O   UNL A   1      45.406  33.622  26.650  1.00  0.00    -0.237 OA
ATOM     94  O   UNL A   1      46.758  31.955  27.857  1.00  0.00    -0.744 OA
ENDBRANCH  88  91
ENDBRANCH  61  84
ENDBRANCH  35  36
ENDBRANCH  27  30
ENDBRANCH  25  26
ENDBRANCH  24  25
ENDBRANCH   1  24
TORSDOF 18
ENDMDL
