MODEL 1
REMARK VINA RESULT:     -11.6      0.000      0.000
REMARK SMILES CC(C)(C)OC(=O)N1CCC[C@H]1C(=O)N1CCC[C@H]1C(=O)N1CCC[C@@H]1C(=O)NCCCCNC(=O)c1ccc(-c2c3nc(c(-c4cccc(S(=O)(=O)[O-])c4F)c4ccc([nH]4)c(-c4cccc(S(=O)(=O)[O-])c4F)c4nc(c(-c5cccc(S(=O)(=O)[O-])c5F)c5ccc2[nH]5)C=C4)C=C3)cc1
REMARK SMILES IDX 27 1 28 2 29 3 26 5 22 6 23 7 24 8 25 9 20 10 21 11 19 12
REMARK SMILES IDX 15 13 16 14 17 15 18 16 13 17 14 18 12 19 8 20 9 21 10 22
REMARK SMILES IDX 11 23 6 24 7 25 5 26 2 27 1 28 3 29 4 30 30 31 31 32 32 33
REMARK SMILES IDX 33 34 34 35 35 36 36 38 37 39 38 40 99 41 39 42 98 43 40 44
REMARK SMILES IDX 41 45 42 46 92 47 43 48 97 49 91 50 93 51 44 52 96 53 90 54
REMARK SMILES IDX 89 55 45 57 77 58 57 59 76 60 58 61 61 62 75 63 94 64 59 65
REMARK SMILES IDX 60 66 74 68 95 69 62 70 46 71 47 72 55 73 48 74 50 75 56 76
REMARK SMILES IDX 49 77 51 78 52 79 53 80 54 81 78 82 79 83 87 84 80 85 82 86
REMARK SMILES IDX 88 87 81 88 83 89 84 90 85 91 86 92 63 93 64 94 72 95 65 96
REMARK SMILES IDX 67 97 73 98 66 99 68 100 69 101 70 102 71 103
REMARK H PARENT 29 4 34 37 93 56 61 67
REMARK Flexibility Score: inf
ROOT
ATOM      1  C   UNL A   1      35.150  21.662  26.046  1.00  0.00     0.242 C 
ATOM      2  O   UNL A   1      34.365  21.658  27.000  1.00  0.00    -0.273 OA
ATOM      3  N   UNL A   1      36.399  22.164  26.279  1.00  0.00    -0.354 N 
ATOM      4  H   UNL A   1      36.585  22.384  27.221  1.00  0.00     0.163 HD
ENDROOT
BRANCH   1   5
ATOM      5  C   UNL A   1      34.648  21.314  24.626  1.00  0.00     0.174 C 
ATOM      6  N   UNL A   1      33.602  22.188  24.094  1.00  0.00    -0.329 N 
ATOM      7  C   UNL A   1      32.559  21.405  23.466  1.00  0.00     0.120 C 
ATOM      8  C   UNL A   1      32.623  20.046  24.140  1.00  0.00     0.024 C 
ATOM      9  C   UNL A   1      34.074  19.893  24.578  1.00  0.00     0.037 C 
BRANCH   6  10
ATOM     10  C   UNL A   1      33.944  23.455  23.656  1.00  0.00     0.246 C 
ATOM     11  O   UNL A   1      35.011  23.641  23.058  1.00  0.00    -0.272 OA
BRANCH  10  12
ATOM     12  C   UNL A   1      33.195  24.688  24.232  1.00  0.00     0.174 C 
ATOM     13  N   UNL A   1      32.276  25.539  23.461  1.00  0.00    -0.329 N 
ATOM     14  C   UNL A   1      30.917  25.419  23.952  1.00  0.00     0.120 C 
ATOM     15  C   UNL A   1      31.039  24.927  25.376  1.00  0.00     0.024 C 
ATOM     16  C   UNL A   1      32.338  24.147  25.401  1.00  0.00     0.037 C 
BRANCH  13  17
ATOM     17  C   UNL A   1      32.792  26.447  22.551  1.00  0.00     0.246 C 
ATOM     18  O   UNL A   1      33.229  26.024  21.474  1.00  0.00    -0.272 OA
BRANCH  17  19
ATOM     19  C   UNL A   1      32.937  27.955  22.946  1.00  0.00     0.178 C 
ATOM     20  N   UNL A   1      31.658  28.551  23.369  1.00  0.00    -0.296 N 
ATOM     21  C   UNL A   1      31.716  29.050  24.728  1.00  0.00     0.124 C 
ATOM     22  C   UNL A   1      33.178  29.388  24.894  1.00  0.00     0.024 C 
ATOM     23  C   UNL A   1      33.864  28.259  24.135  1.00  0.00     0.037 C 
BRANCH  20  24
ATOM     24  C   UNL A   1      30.636  28.802  22.485  1.00  0.00     0.410 C 
ATOM     25  O   UNL A   1      30.154  27.952  21.749  1.00  0.00    -0.224 OA
BRANCH  24  26
ATOM     26  O   UNL A   1      30.279  30.110  22.502  1.00  0.00    -0.444 OA
BRANCH  26  27
ATOM     27  C   UNL A   1      28.911  30.576  22.642  1.00  0.00     0.106 C 
ATOM     28  C   UNL A   1      28.931  31.486  23.879  1.00  0.00     0.056 C 
ATOM     29  C   UNL A   1      28.036  29.353  22.922  1.00  0.00     0.056 C 
ATOM     30  C   UNL A   1      28.363  31.385  21.462  1.00  0.00     0.056 C 
ENDBRANCH  26  27
ENDBRANCH  24  26
ENDBRANCH  20  24
ENDBRANCH  17  19
ENDBRANCH  13  17
ENDBRANCH  10  12
ENDBRANCH   6  10
ENDBRANCH   1   5
BRANCH   3  31
ATOM     31  C   UNL A   1      37.490  22.424  25.368  1.00  0.00     0.116 C 
BRANCH  31  32
ATOM     32  C   UNL A   1      38.819  21.879  25.878  1.00  0.00     0.023 C 
BRANCH  32  33
ATOM     33  C   UNL A   1      39.141  20.463  25.403  1.00  0.00     0.023 C 
BRANCH  33  34
ATOM     34  C   UNL A   1      39.798  19.553  26.439  1.00  0.00     0.116 C 
BRANCH  34  35
ATOM     35  N   UNL A   1      41.082  19.006  26.016  1.00  0.00    -0.352 N 
ATOM     36  C   UNL A   1      42.292  19.659  25.942  1.00  0.00     0.251 C 
ATOM     37  H   UNL A   1      41.085  18.058  25.751  1.00  0.00     0.163 HD
ATOM     38  O   UNL A   1      43.286  19.085  25.510  1.00  0.00    -0.269 OA
BRANCH  36  39
ATOM     39  C   UNL A   1      42.357  21.075  26.358  1.00  0.00     0.039 A 
ATOM     40  C   UNL A   1      42.537  21.378  27.710  1.00  0.00     0.014 A 
ATOM     41  C   UNL A   1      42.344  22.088  25.395  1.00  0.00     0.014 A 
ATOM     42  C   UNL A   1      42.786  22.700  28.088  1.00  0.00     0.010 A 
ATOM     43  C   UNL A   1      42.657  23.390  25.768  1.00  0.00     0.010 A 
ATOM     44  C   UNL A   1      42.892  23.709  27.116  1.00  0.00    -0.014 A 
BRANCH  44  45
ATOM     45  C   UNL A   1      43.288  25.095  27.475  1.00  0.00     0.031 A 
ATOM     46  C   UNL A   1      42.277  26.044  28.054  1.00  0.00     0.074 A 
ATOM     47  C   UNL A   1      44.528  25.531  27.179  1.00  0.00     0.049 A 
ATOM     48  N   UNL A   1      42.412  27.310  28.355  1.00  0.00    -0.248 NA
ATOM     49  C   UNL A   1      40.928  25.510  28.301  1.00  0.00     0.031 C 
ATOM     50  C   UNL A   1      45.577  24.733  26.540  1.00  0.00     0.029 A 
ATOM     51  N   UNL A   1      45.109  26.765  27.346  1.00  0.00    -0.354 N 
ATOM     52  C   UNL A   1      41.162  27.733  28.791  1.00  0.00     0.074 A 
ATOM     53  C   UNL A   1      40.273  26.596  28.686  1.00  0.00     0.031 C 
ATOM     54  C   UNL A   1      46.670  25.496  26.369  1.00  0.00     0.029 A 
ATOM     55  C   UNL A   1      46.393  26.843  26.858  1.00  0.00     0.049 A 
ATOM     56  H   UNL A   1      44.648  27.523  27.774  1.00  0.00     0.167 HD
ATOM     57  C   UNL A   1      40.795  28.946  29.266  1.00  0.00     0.034 A 
ATOM     58  C   UNL A   1      47.248  27.884  26.802  1.00  0.00     0.034 A 
ATOM     59  C   UNL A   1      41.691  30.061  29.412  1.00  0.00     0.049 A 
ATOM     60  C   UNL A   1      46.826  29.211  27.372  1.00  0.00     0.074 A 
ATOM     61  C   UNL A   1      41.436  31.301  29.969  1.00  0.00     0.029 A 
ATOM     62  N   UNL A   1      43.012  30.075  28.993  1.00  0.00    -0.354 N 
ATOM     63  N   UNL A   1      45.691  29.543  27.937  1.00  0.00    -0.248 NA
ATOM     64  C   UNL A   1      47.815  30.299  27.330  1.00  0.00     0.031 C 
ATOM     65  C   UNL A   1      42.598  32.073  29.870  1.00  0.00     0.029 A 
ATOM     66  C   UNL A   1      43.584  31.305  29.270  1.00  0.00     0.049 A 
ATOM     67  H   UNL A   1      43.476  29.321  28.561  1.00  0.00     0.167 HD
ATOM     68  C   UNL A   1      45.840  30.863  28.349  1.00  0.00     0.074 A 
ATOM     69  C   UNL A   1      47.184  31.263  27.987  1.00  0.00     0.031 C 
ATOM     70  C   UNL A   1      44.941  31.673  28.959  1.00  0.00     0.034 A 
BRANCH  57  71
ATOM     71  C   UNL A   1      39.369  29.113  29.722  1.00  0.00     0.023 A 
ATOM     72  C   UNL A   1      39.001  28.683  31.013  1.00  0.00     0.012 A 
ATOM     73  C   UNL A   1      38.412  29.743  28.903  1.00  0.00     0.148 A 
ATOM     74  C   UNL A   1      37.694  28.844  31.470  1.00  0.00     0.002 A 
ATOM     75  C   UNL A   1      37.121  29.939  29.383  1.00  0.00     0.091 A 
ATOM     76  F   UNL A   1      38.775  30.124  27.671  1.00  0.00    -0.205 F 
ATOM     77  C   UNL A   1      36.758  29.480  30.660  1.00  0.00     0.022 A 
BRANCH  75  78
ATOM     78  S   UNL A   1      35.865  30.817  28.447  1.00  0.00     0.127 S 
ATOM     79  O   UNL A   1      34.951  31.241  29.508  1.00  0.00    -0.237 OA
ATOM     80  O   UNL A   1      36.636  31.901  27.837  1.00  0.00    -0.237 OA
ATOM     81  O   UNL A   1      35.322  29.852  27.502  1.00  0.00    -0.744 OA
ENDBRANCH  75  78
ENDBRANCH  57  71
BRANCH  58  82
ATOM     82  C   UNL A   1      48.620  27.693  26.249  1.00  0.00     0.023 A 
ATOM     83  C   UNL A   1      49.673  27.359  27.122  1.00  0.00     0.012 A 
ATOM     84  C   UNL A   1      48.881  27.812  24.871  1.00  0.00     0.148 A 
ATOM     85  C   UNL A   1      50.969  27.178  26.637  1.00  0.00     0.002 A 
ATOM     86  C   UNL A   1      50.164  27.577  24.387  1.00  0.00     0.091 A 
ATOM     87  F   UNL A   1      47.868  28.142  24.058  1.00  0.00    -0.205 F 
ATOM     88  C   UNL A   1      51.212  27.277  25.269  1.00  0.00     0.022 A 
BRANCH  86  89
ATOM     89  S   UNL A   1      50.538  27.549  22.631  1.00  0.00     0.127 S 
ATOM     90  O   UNL A   1      51.929  27.105  22.628  1.00  0.00    -0.237 OA
ATOM     91  O   UNL A   1      49.575  26.566  22.131  1.00  0.00    -0.237 OA
ATOM     92  O   UNL A   1      50.303  28.908  22.159  1.00  0.00    -0.744 OA
ENDBRANCH  86  89
ENDBRANCH  58  82
BRANCH  70  93
ATOM     93  C   UNL A   1      45.381  33.069  29.311  1.00  0.00     0.023 A 
ATOM     94  C   UNL A   1      46.093  33.298  30.505  1.00  0.00     0.012 A 
ATOM     95  C   UNL A   1      45.162  34.138  28.419  1.00  0.00     0.148 A 
ATOM     96  C   UNL A   1      46.556  34.576  30.820  1.00  0.00     0.002 A 
ATOM     97  C   UNL A   1      45.668  35.398  28.717  1.00  0.00     0.091 A 
ATOM     98  F   UNL A   1      44.467  33.904  27.298  1.00  0.00    -0.205 F 
ATOM     99  C   UNL A   1      46.355  35.621  29.921  1.00  0.00     0.022 A 
BRANCH  97 100
ATOM    100  S   UNL A   1      45.541  36.781  27.576  1.00  0.00     0.127 S 
ATOM    101  O   UNL A   1      44.114  36.777  27.262  1.00  0.00    -0.237 OA
ATOM    102  O   UNL A   1      45.982  37.906  28.401  1.00  0.00    -0.237 OA
ATOM    103  O   UNL A   1      46.427  36.465  26.464  1.00  0.00    -0.744 OA
ENDBRANCH  97 100
ENDBRANCH  70  93
ENDBRANCH  44  45
ENDBRANCH  36  39
ENDBRANCH  34  35
ENDBRANCH  33  34
ENDBRANCH  32  33
ENDBRANCH  31  32
ENDBRANCH   3  31
TORSDOF 21
ENDMDL
MODEL 2
REMARK VINA RESULT:     -11.4      1.759      2.518
REMARK SMILES CC(C)(C)OC(=O)N1CCC[C@H]1C(=O)N1CCC[C@H]1C(=O)N1CCC[C@@H]1C(=O)NCCCCNC(=O)c1ccc(-c2c3nc(c(-c4cccc(S(=O)(=O)[O-])c4F)c4ccc([nH]4)c(-c4cccc(S(=O)(=O)[O-])c4F)c4nc(c(-c5cccc(S(=O)(=O)[O-])c5F)c5ccc2[nH]5)C=C4)C=C3)cc1
REMARK SMILES IDX 27 1 28 2 29 3 26 5 22 6 23 7 24 8 25 9 20 10 21 11 19 12
REMARK SMILES IDX 15 13 16 14 17 15 18 16 13 17 14 18 12 19 8 20 9 21 10 22
REMARK SMILES IDX 11 23 6 24 7 25 5 26 2 27 1 28 3 29 4 30 30 31 31 32 32 33
REMARK SMILES IDX 33 34 34 35 35 36 36 38 37 39 38 40 99 41 39 42 98 43 40 44
REMARK SMILES IDX 41 45 42 46 92 47 43 48 97 49 91 50 93 51 44 52 96 53 90 54
REMARK SMILES IDX 89 55 45 57 77 58 57 59 76 60 58 61 61 62 75 63 94 64 59 65
REMARK SMILES IDX 60 66 74 68 95 69 62 70 46 71 47 72 55 73 48 74 50 75 56 76
REMARK SMILES IDX 49 77 51 78 52 79 53 80 54 81 78 82 79 83 87 84 80 85 82 86
REMARK SMILES IDX 88 87 81 88 83 89 84 90 85 91 86 92 63 93 64 94 72 95 65 96
REMARK SMILES IDX 67 97 73 98 66 99 68 100 69 101 70 102 71 103
REMARK H PARENT 29 4 34 37 93 56 61 67
REMARK Flexibility Score: inf
ROOT
ATOM      1  C   UNL A   1      35.277  21.733  25.878  1.00  0.00     0.242 C 
ATOM      2  O   UNL A   1      34.541  22.237  26.733  1.00  0.00    -0.273 OA
ATOM      3  N   UNL A   1      36.620  21.942  26.022  1.00  0.00    -0.354 N 
ATOM      4  H   UNL A   1      36.878  22.396  26.857  1.00  0.00     0.163 HD
ENDROOT
BRANCH   1   5
ATOM      5  C   UNL A   1      34.670  21.093  24.609  1.00  0.00     0.174 C 
ATOM      6  N   UNL A   1      33.653  21.891  23.923  1.00  0.00    -0.329 N 
ATOM      7  C   UNL A   1      32.525  21.064  23.551  1.00  0.00     0.120 C 
ATOM      8  C   UNL A   1      32.540  19.907  24.535  1.00  0.00     0.024 C 
ATOM      9  C   UNL A   1      34.001  19.752  24.936  1.00  0.00     0.037 C 
BRANCH   6  10
ATOM     10  C   UNL A   1      34.051  22.985  23.174  1.00  0.00     0.246 C 
ATOM     11  O   UNL A   1      35.240  23.124  22.859  1.00  0.00    -0.272 OA
BRANCH  10  12
ATOM     12  C   UNL A   1      33.104  24.210  23.052  1.00  0.00     0.174 C 
ATOM     13  N   UNL A   1      33.416  25.556  23.555  1.00  0.00    -0.329 N 
ATOM     14  C   UNL A   1      33.560  26.501  22.464  1.00  0.00     0.120 C 
ATOM     15  C   UNL A   1      32.805  25.900  21.301  1.00  0.00     0.024 C 
ATOM     16  C   UNL A   1      32.867  24.404  21.536  1.00  0.00     0.037 C 
BRANCH  13  17
ATOM     17  C   UNL A   1      33.346  25.807  24.916  1.00  0.00     0.246 C 
ATOM     18  O   UNL A   1      34.360  25.641  25.603  1.00  0.00    -0.272 OA
BRANCH  17  19
ATOM     19  C   UNL A   1      31.971  26.163  25.576  1.00  0.00     0.178 C 
ATOM     20  N   UNL A   1      31.209  27.151  24.792  1.00  0.00    -0.296 N 
ATOM     21  C   UNL A   1      29.926  26.632  24.366  1.00  0.00     0.124 C 
ATOM     22  C   UNL A   1      29.606  25.618  25.439  1.00  0.00     0.024 C 
ATOM     23  C   UNL A   1      30.971  25.005  25.727  1.00  0.00     0.037 C 
BRANCH  20  24
ATOM     24  C   UNL A   1      31.592  28.468  24.699  1.00  0.00     0.410 C 
ATOM     25  O   UNL A   1      31.087  29.266  23.922  1.00  0.00    -0.224 OA
BRANCH  24  26
ATOM     26  O   UNL A   1      32.625  28.741  25.535  1.00  0.00    -0.444 OA
BRANCH  26  27
ATOM     27  C   UNL A   1      32.493  29.495  26.768  1.00  0.00     0.106 C 
ATOM     28  C   UNL A   1      33.924  29.604  27.316  1.00  0.00     0.056 C 
ATOM     29  C   UNL A   1      31.642  28.660  27.727  1.00  0.00     0.056 C 
ATOM     30  C   UNL A   1      31.928  30.911  26.623  1.00  0.00     0.056 C 
ENDBRANCH  26  27
ENDBRANCH  24  26
ENDBRANCH  20  24
ENDBRANCH  17  19
ENDBRANCH  13  17
ENDBRANCH  10  12
ENDBRANCH   6  10
ENDBRANCH   1   5
BRANCH   3  31
ATOM     31  C   UNL A   1      37.721  21.606  25.148  1.00  0.00     0.116 C 
BRANCH  31  32
ATOM     32  C   UNL A   1      37.654  20.168  24.651  1.00  0.00     0.023 C 
BRANCH  32  33
ATOM     33  C   UNL A   1      38.535  19.193  25.431  1.00  0.00     0.023 C 
BRANCH  33  34
ATOM     34  C   UNL A   1      39.741  19.812  26.136  1.00  0.00     0.116 C 
BRANCH  34  35
ATOM     35  N   UNL A   1      40.981  19.069  25.947  1.00  0.00    -0.352 N 
ATOM     36  C   UNL A   1      42.269  19.551  26.008  1.00  0.00     0.251 C 
ATOM     37  H   UNL A   1      40.887  18.109  25.754  1.00  0.00     0.163 HD
ATOM     38  O   UNL A   1      43.223  18.816  25.769  1.00  0.00    -0.269 OA
BRANCH  36  39
ATOM     39  C   UNL A   1      42.475  20.978  26.327  1.00  0.00     0.039 A 
ATOM     40  C   UNL A   1      42.547  21.371  27.666  1.00  0.00     0.014 A 
ATOM     41  C   UNL A   1      42.700  21.899  25.300  1.00  0.00     0.014 A 
ATOM     42  C   UNL A   1      42.926  22.679  27.976  1.00  0.00     0.010 A 
ATOM     43  C   UNL A   1      43.139  23.180  25.615  1.00  0.00     0.010 A 
ATOM     44  C   UNL A   1      43.268  23.581  26.955  1.00  0.00    -0.014 A 
BRANCH  44  45
ATOM     45  C   UNL A   1      43.802  24.933  27.260  1.00  0.00     0.031 A 
ATOM     46  C   UNL A   1      42.886  26.012  27.767  1.00  0.00     0.074 A 
ATOM     47  C   UNL A   1      45.088  25.221  26.976  1.00  0.00     0.049 A 
ATOM     48  N   UNL A   1      43.149  27.269  28.012  1.00  0.00    -0.248 NA
ATOM     49  C   UNL A   1      41.483  25.636  28.004  1.00  0.00     0.031 C 
ATOM     50  C   UNL A   1      46.059  24.287  26.402  1.00  0.00     0.029 A 
ATOM     51  N   UNL A   1      45.793  26.394  27.100  1.00  0.00    -0.354 N 
ATOM     52  C   UNL A   1      41.943  27.842  28.396  1.00  0.00     0.074 A 
ATOM     53  C   UNL A   1      40.940  26.802  28.321  1.00  0.00     0.031 C 
ATOM     54  C   UNL A   1      47.230  24.921  26.224  1.00  0.00     0.029 A 
ATOM     55  C   UNL A   1      47.088  26.312  26.643  1.00  0.00     0.049 A 
ATOM     56  H   UNL A   1      45.407  27.216  27.481  1.00  0.00     0.167 HD
ATOM     57  C   UNL A   1      41.697  29.109  28.804  1.00  0.00     0.034 A 
ATOM     58  C   UNL A   1      48.051  27.252  26.561  1.00  0.00     0.034 A 
ATOM     59  C   UNL A   1      42.704  30.129  28.922  1.00  0.00     0.049 A 
ATOM     60  C   UNL A   1      47.760  28.643  27.057  1.00  0.00     0.074 A 
ATOM     61  C   UNL A   1      42.571  31.415  29.413  1.00  0.00     0.029 A 
ATOM     62  N   UNL A   1      44.028  29.983  28.536  1.00  0.00    -0.354 N 
ATOM     63  N   UNL A   1      46.656  29.120  27.576  1.00  0.00    -0.248 NA
ATOM     64  C   UNL A   1      48.860  29.617  26.990  1.00  0.00     0.031 C 
ATOM     65  C   UNL A   1      43.811  32.054  29.308  1.00  0.00     0.029 A 
ATOM     66  C   UNL A   1      44.721  31.158  28.771  1.00  0.00     0.049 A 
ATOM     67  H   UNL A   1      44.417  29.164  28.152  1.00  0.00     0.167 HD
ATOM     68  C   UNL A   1      46.936  30.435  27.930  1.00  0.00     0.074 A 
ATOM     69  C   UNL A   1      48.322  30.673  27.586  1.00  0.00     0.031 C 
ATOM     70  C   UNL A   1      46.116  31.365  28.478  1.00  0.00     0.034 A 
BRANCH  57  71
ATOM     71  C   UNL A   1      40.288  29.448  29.215  1.00  0.00     0.023 A 
ATOM     72  C   UNL A   1      39.328  29.735  28.224  1.00  0.00     0.012 A 
ATOM     73  C   UNL A   1      39.900  29.426  30.569  1.00  0.00     0.148 A 
ATOM     74  C   UNL A   1      38.012  30.031  28.574  1.00  0.00     0.002 A 
ATOM     75  C   UNL A   1      38.575  29.680  30.907  1.00  0.00     0.091 A 
ATOM     76  F   UNL A   1      40.832  29.173  31.499  1.00  0.00    -0.205 F 
ATOM     77  C   UNL A   1      37.633  29.993  29.913  1.00  0.00     0.022 A 
BRANCH  75  78
ATOM     78  S   UNL A   1      37.972  29.579  32.596  1.00  0.00     0.127 S 
ATOM     79  O   UNL A   1      36.531  29.441  32.385  1.00  0.00    -0.237 OA
ATOM     80  O   UNL A   1      38.634  28.371  33.089  1.00  0.00    -0.237 OA
ATOM     81  O   UNL A   1      38.394  30.811  33.246  1.00  0.00    -0.744 OA
ENDBRANCH  75  78
ENDBRANCH  57  71
BRANCH  58  82
ATOM     82  C   UNL A   1      49.405  26.891  26.053  1.00  0.00     0.023 A 
ATOM     83  C   UNL A   1      50.274  26.151  26.878  1.00  0.00     0.012 A 
ATOM     84  C   UNL A   1      49.825  27.247  24.757  1.00  0.00     0.148 A 
ATOM     85  C   UNL A   1      51.550  25.801  26.435  1.00  0.00     0.002 A 
ATOM     86  C   UNL A   1      51.077  26.848  24.302  1.00  0.00     0.091 A 
ATOM     87  F   UNL A   1      48.988  27.962  23.992  1.00  0.00    -0.205 F 
ATOM     88  C   UNL A   1      51.947  26.140  25.144  1.00  0.00     0.022 A 
BRANCH  86  89
ATOM     89  S   UNL A   1      51.617  27.124  22.611  1.00  0.00     0.127 S 
ATOM     90  O   UNL A   1      51.839  28.566  22.599  1.00  0.00    -0.237 OA
ATOM     91  O   UNL A   1      52.833  26.311  22.545  1.00  0.00    -0.237 OA
ATOM     92  O   UNL A   1      50.530  26.640  21.770  1.00  0.00    -0.744 OA
ENDBRANCH  86  89
ENDBRANCH  58  82
BRANCH  70  93
ATOM     93  C   UNL A   1      46.695  32.723  28.777  1.00  0.00     0.023 A 
ATOM     94  C   UNL A   1      47.308  32.964  30.022  1.00  0.00     0.012 A 
ATOM     95  C   UNL A   1      46.707  33.731  27.793  1.00  0.00     0.148 A 
ATOM     96  C   UNL A   1      47.898  34.198  30.294  1.00  0.00     0.002 A 
ATOM     97  C   UNL A   1      47.339  34.941  28.054  1.00  0.00     0.091 A 
ATOM     98  F   UNL A   1      46.102  33.489  26.621  1.00  0.00    -0.205 F 
ATOM     99  C   UNL A   1      47.925  35.180  29.307  1.00  0.00     0.022 A 
BRANCH  97 100
ATOM    100  S   UNL A   1      47.505  36.228  26.810  1.00  0.00     0.127 S 
ATOM    101  O   UNL A   1      48.362  37.194  27.494  1.00  0.00    -0.237 OA
ATOM    102  O   UNL A   1      48.149  35.514  25.708  1.00  0.00    -0.237 OA
ATOM    103  O   UNL A   1      46.152  36.685  26.524  1.00  0.00    -0.744 OA
ENDBRANCH  97 100
ENDBRANCH  70  93
ENDBRANCH  44  45
ENDBRANCH  36  39
ENDBRANCH  34  35
ENDBRANCH  33  34
ENDBRANCH  32  33
ENDBRANCH  31  32
ENDBRANCH   3  31
TORSDOF 21
ENDMDL
MODEL 3
REMARK VINA RESULT:     -11.4      1.010      7.207
REMARK SMILES CC(C)(C)OC(=O)N1CCC[C@H]1C(=O)N1CCC[C@H]1C(=O)N1CCC[C@@H]1C(=O)NCCCCNC(=O)c1ccc(-c2c3nc(c(-c4cccc(S(=O)(=O)[O-])c4F)c4ccc([nH]4)c(-c4cccc(S(=O)(=O)[O-])c4F)c4nc(c(-c5cccc(S(=O)(=O)[O-])c5F)c5ccc2[nH]5)C=C4)C=C3)cc1
REMARK SMILES IDX 27 1 28 2 29 3 26 5 22 6 23 7 24 8 25 9 20 10 21 11 19 12
REMARK SMILES IDX 15 13 16 14 17 15 18 16 13 17 14 18 12 19 8 20 9 21 10 22
REMARK SMILES IDX 11 23 6 24 7 25 5 26 2 27 1 28 3 29 4 30 30 31 31 32 32 33
REMARK SMILES IDX 33 34 34 35 35 36 36 38 37 39 38 40 99 41 39 42 98 43 40 44
REMARK SMILES IDX 41 45 42 46 92 47 43 48 97 49 91 50 93 51 44 52 96 53 90 54
REMARK SMILES IDX 89 55 45 57 77 58 57 59 76 60 58 61 61 62 75 63 94 64 59 65
REMARK SMILES IDX 60 66 74 68 95 69 62 70 46 71 47 72 55 73 48 74 50 75 56 76
REMARK SMILES IDX 49 77 51 78 52 79 53 80 54 81 78 82 79 83 87 84 80 85 82 86
REMARK SMILES IDX 88 87 81 88 83 89 84 90 85 91 86 92 63 93 64 94 72 95 65 96
REMARK SMILES IDX 67 97 73 98 66 99 68 100 69 101 70 102 71 103
REMARK H PARENT 29 4 34 37 93 56 61 67
REMARK Flexibility Score: inf
ROOT
ATOM      1  C   UNL A   1      35.259  21.922  26.009  1.00  0.00     0.242 C 
ATOM      2  O   UNL A   1      34.706  22.477  26.966  1.00  0.00    -0.273 OA
ATOM      3  N   UNL A   1      36.623  21.982  25.969  1.00  0.00    -0.354 N 
ATOM      4  H   UNL A   1      37.042  22.380  26.766  1.00  0.00     0.163 HD
ENDROOT
BRANCH   1   5
ATOM      5  C   UNL A   1      34.417  21.389  24.828  1.00  0.00     0.174 C 
ATOM      6  N   UNL A   1      33.459  22.336  24.257  1.00  0.00    -0.329 N 
ATOM      7  C   UNL A   1      32.183  21.691  24.029  1.00  0.00     0.120 C 
ATOM      8  C   UNL A   1      32.140  20.539  25.018  1.00  0.00     0.024 C 
ATOM      9  C   UNL A   1      33.597  20.163  25.247  1.00  0.00     0.037 C 
BRANCH   6  10
ATOM     10  C   UNL A   1      33.926  23.361  23.454  1.00  0.00     0.246 C 
ATOM     11  O   UNL A   1      35.140  23.590  23.378  1.00  0.00    -0.272 OA
BRANCH  10  12
ATOM     12  C   UNL A   1      32.936  24.449  22.954  1.00  0.00     0.174 C 
ATOM     13  N   UNL A   1      33.103  25.893  23.178  1.00  0.00    -0.329 N 
ATOM     14  C   UNL A   1      33.336  26.592  21.930  1.00  0.00     0.120 C 
ATOM     15  C   UNL A   1      32.775  25.697  20.849  1.00  0.00     0.024 C 
ATOM     16  C   UNL A   1      32.889  24.296  21.416  1.00  0.00     0.037 C 
BRANCH  13  17
ATOM     17  C   UNL A   1      32.840  26.421  24.433  1.00  0.00     0.246 C 
ATOM     18  O   UNL A   1      32.284  25.705  25.273  1.00  0.00    -0.272 OA
BRANCH  17  19
ATOM     19  C   UNL A   1      33.125  27.934  24.720  1.00  0.00     0.178 C 
ATOM     20  N   UNL A   1      31.901  28.753  24.685  1.00  0.00    -0.296 N 
ATOM     21  C   UNL A   1      31.657  29.417  25.950  1.00  0.00     0.124 C 
ATOM     22  C   UNL A   1      33.048  29.568  26.517  1.00  0.00     0.024 C 
ATOM     23  C   UNL A   1      33.715  28.263  26.101  1.00  0.00     0.037 C 
BRANCH  20  24
ATOM     24  C   UNL A   1      31.230  29.023  23.516  1.00  0.00     0.410 C 
ATOM     25  O   UNL A   1      31.789  29.282  22.459  1.00  0.00    -0.224 OA
BRANCH  24  26
ATOM     26  O   UNL A   1      29.887  29.014  23.705  1.00  0.00    -0.444 OA
BRANCH  26  27
ATOM     27  C   UNL A   1      28.966  29.900  23.018  1.00  0.00     0.106 C 
ATOM     28  C   UNL A   1      29.070  31.235  23.771  1.00  0.00     0.056 C 
ATOM     29  C   UNL A   1      27.559  29.325  23.192  1.00  0.00     0.056 C 
ATOM     30  C   UNL A   1      29.273  30.160  21.539  1.00  0.00     0.056 C 
ENDBRANCH  26  27
ENDBRANCH  24  26
ENDBRANCH  20  24
ENDBRANCH  17  19
ENDBRANCH  13  17
ENDBRANCH  10  12
ENDBRANCH   6  10
ENDBRANCH   1   5
BRANCH   3  31
ATOM     31  C   UNL A   1      37.551  21.557  24.945  1.00  0.00     0.116 C 
BRANCH  31  32
ATOM     32  C   UNL A   1      37.403  20.080  24.601  1.00  0.00     0.023 C 
BRANCH  32  33
ATOM     33  C   UNL A   1      38.442  19.175  25.261  1.00  0.00     0.023 C 
BRANCH  33  34
ATOM     34  C   UNL A   1      39.492  19.887  26.113  1.00  0.00     0.116 C 
BRANCH  34  35
ATOM     35  N   UNL A   1      40.810  19.265  26.068  1.00  0.00    -0.352 N 
ATOM     36  C   UNL A   1      42.031  19.863  26.284  1.00  0.00     0.251 C 
ATOM     37  H   UNL A   1      40.830  18.303  25.860  1.00  0.00     0.163 HD
ATOM     38  O   UNL A   1      43.071  19.224  26.156  1.00  0.00    -0.269 OA
BRANCH  36  39
ATOM     39  C   UNL A   1      42.063  21.297  26.635  1.00  0.00     0.039 A 
ATOM     40  C   UNL A   1      42.383  21.670  27.942  1.00  0.00     0.014 A 
ATOM     41  C   UNL A   1      41.878  22.263  25.642  1.00  0.00     0.014 A 
ATOM     42  C   UNL A   1      42.599  23.019  28.236  1.00  0.00     0.010 A 
ATOM     43  C   UNL A   1      42.156  23.596  25.925  1.00  0.00     0.010 A 
ATOM     44  C   UNL A   1      42.531  23.987  27.220  1.00  0.00    -0.014 A 
BRANCH  44  45
ATOM     45  C   UNL A   1      42.885  25.407  27.477  1.00  0.00     0.031 A 
ATOM     46  C   UNL A   1      44.241  25.930  27.092  1.00  0.00     0.074 A 
ATOM     47  C   UNL A   1      42.027  26.195  28.154  1.00  0.00     0.049 A 
ATOM     48  N   UNL A   1      44.760  27.111  27.306  1.00  0.00    -0.248 NA
ATOM     49  C   UNL A   1      45.144  24.994  26.402  1.00  0.00     0.031 C 
ATOM     50  C   UNL A   1      40.714  25.784  28.656  1.00  0.00     0.029 A 
ATOM     51  N   UNL A   1      42.144  27.500  28.568  1.00  0.00    -0.354 N 
ATOM     52  C   UNL A   1      46.057  27.052  26.811  1.00  0.00     0.074 A 
ATOM     53  C   UNL A   1      46.257  25.708  26.315  1.00  0.00     0.031 C 
ATOM     54  C   UNL A   1      40.149  26.813  29.309  1.00  0.00     0.029 A 
ATOM     55  C   UNL A   1      41.067  27.947  29.298  1.00  0.00     0.049 A 
ATOM     56  H   UNL A   1      42.925  28.062  28.361  1.00  0.00     0.167 HD
ATOM     57  C   UNL A   1      46.986  28.034  26.747  1.00  0.00     0.034 A 
ATOM     58  C   UNL A   1      40.846  29.134  29.899  1.00  0.00     0.034 A 
ATOM     59  C   UNL A   1      46.770  29.382  27.200  1.00  0.00     0.049 A 
ATOM     60  C   UNL A   1      41.882  30.220  29.779  1.00  0.00     0.074 A 
ATOM     61  C   UNL A   1      47.616  30.470  27.093  1.00  0.00     0.029 A 
ATOM     62  N   UNL A   1      45.629  29.824  27.852  1.00  0.00    -0.354 N 
ATOM     63  N   UNL A   1      43.035  30.195  29.158  1.00  0.00    -0.248 NA
ATOM     64  C   UNL A   1      41.569  31.510  30.412  1.00  0.00     0.031 C 
ATOM     65  C   UNL A   1      46.995  31.568  27.697  1.00  0.00     0.029 A 
ATOM     66  C   UNL A   1      45.752  31.168  28.162  1.00  0.00     0.049 A 
ATOM     67  H   UNL A   1      44.847  29.264  28.064  1.00  0.00     0.167 HD
ATOM     68  C   UNL A   1      43.570  31.471  29.292  1.00  0.00     0.074 A 
ATOM     69  C   UNL A   1      42.604  32.252  30.037  1.00  0.00     0.031 C 
ATOM     70  C   UNL A   1      44.759  31.950  28.852  1.00  0.00     0.034 A 
BRANCH  57  71
ATOM     71  C   UNL A   1      48.308  27.701  26.106  1.00  0.00     0.023 A 
ATOM     72  C   UNL A   1      49.389  27.301  26.916  1.00  0.00     0.012 A 
ATOM     73  C   UNL A   1      48.465  27.727  24.706  1.00  0.00     0.148 A 
ATOM     74  C   UNL A   1      50.618  26.967  26.349  1.00  0.00     0.002 A 
ATOM     75  C   UNL A   1      49.680  27.351  24.145  1.00  0.00     0.091 A 
ATOM     76  F   UNL A   1      47.432  28.131  23.953  1.00  0.00    -0.205 F 
ATOM     77  C   UNL A   1      50.760  26.982  24.964  1.00  0.00     0.022 A 
BRANCH  75  78
ATOM     78  S   UNL A   1      49.939  27.262  22.369  1.00  0.00     0.127 S 
ATOM     79  O   UNL A   1      48.908  26.304  21.970  1.00  0.00    -0.237 OA
ATOM     80  O   UNL A   1      49.685  28.641  21.951  1.00  0.00    -0.237 OA
ATOM     81  O   UNL A   1      51.312  26.815  22.187  1.00  0.00    -0.744 OA
ENDBRANCH  75  78
ENDBRANCH  57  71
BRANCH  58  82
ATOM     82  C   UNL A   1      39.559  29.383  30.609  1.00  0.00     0.023 A 
ATOM     83  C   UNL A   1      39.362  28.832  31.890  1.00  0.00     0.012 A 
ATOM     84  C   UNL A   1      38.546  30.178  30.040  1.00  0.00     0.148 A 
ATOM     85  C   UNL A   1      38.167  29.041  32.579  1.00  0.00     0.002 A 
ATOM     86  C   UNL A   1      37.379  30.428  30.755  1.00  0.00     0.091 A 
ATOM     87  F   UNL A   1      38.747  30.683  28.815  1.00  0.00    -0.205 F 
ATOM     88  C   UNL A   1      37.181  29.847  32.016  1.00  0.00     0.022 A 
BRANCH  86  89
ATOM     89  S   UNL A   1      36.116  31.561  30.168  1.00  0.00     0.127 S 
ATOM     90  O   UNL A   1      35.197  31.599  31.301  1.00  0.00    -0.237 OA
ATOM     91  O   UNL A   1      36.885  32.788  29.955  1.00  0.00    -0.237 OA
ATOM     92  O   UNL A   1      35.594  30.964  28.945  1.00  0.00    -0.744 OA
ENDBRANCH  86  89
ENDBRANCH  58  82
BRANCH  70  93
ATOM     93  C   UNL A   1      45.080  33.395  29.128  1.00  0.00     0.023 A 
ATOM     94  C   UNL A   1      45.706  33.754  30.337  1.00  0.00     0.012 A 
ATOM     95  C   UNL A   1      44.836  34.383  28.153  1.00  0.00     0.148 A 
ATOM     96  C   UNL A   1      46.059  35.081  30.584  1.00  0.00     0.002 A 
ATOM     97  C   UNL A   1      45.235  35.694  28.387  1.00  0.00     0.091 A 
ATOM     98  F   UNL A   1      44.222  34.024  27.017  1.00  0.00    -0.205 F 
ATOM     99  C   UNL A   1      45.836  36.046  29.606  1.00  0.00     0.022 A 
BRANCH  97 100
ATOM    100  S   UNL A   1      45.074  36.985  27.147  1.00  0.00     0.127 S 
ATOM    101  O   UNL A   1      45.978  36.508  26.102  1.00  0.00    -0.237 OA
ATOM    102  O   UNL A   1      43.654  36.912  26.805  1.00  0.00    -0.237 OA
ATOM    103  O   UNL A   1      45.474  38.222  27.804  1.00  0.00    -0.744 OA
ENDBRANCH  97 100
ENDBRANCH  70  93
ENDBRANCH  44  45
ENDBRANCH  36  39
ENDBRANCH  34  35
ENDBRANCH  33  34
ENDBRANCH  32  33
ENDBRANCH  31  32
ENDBRANCH   3  31
TORSDOF 21
ENDMDL
