MODEL 1
REMARK VINA RESULT:     -12.7      0.000      0.000
REMARK SMILES O=C(NCCCCNC(=O)c1cc2c(c(S(=O)(=O)Nc3cc(C(F)(F)F)ccc3-n3cccn3)c1)CCC2)c1ccc(-c2c3nc(c(-c4cccc(S(=O)(=O)[O-])c4F)c4ccc([nH]4)c(-c4cccc(S(=O)(=O)[O-])c4F)c4nc(c(-c5cccc(S(=O)(=O)[O-])c5F)c5ccc2[nH]5)C=C4)C=C3)cc1
REMARK SMILES IDX 6 1 5 2 4 3 3 4 1 5 2 6 39 8 40 9 101 10 41 11 100 12 42 13
REMARK SMILES IDX 43 14 44 15 94 16 45 17 99 18 93 19 95 20 46 21 98 22 92 23
REMARK SMILES IDX 91 24 47 26 79 27 59 28 78 29 60 30 63 31 77 32 96 33 61 34
REMARK SMILES IDX 62 35 76 37 97 38 64 39 48 40 49 41 57 42 50 43 52 44 58 45
REMARK SMILES IDX 51 46 53 47 54 48 55 49 56 50 80 51 81 52 89 53 82 54 84 55
REMARK SMILES IDX 90 56 83 57 85 58 86 59 87 60 88 61 65 62 66 63 74 64 67 65
REMARK SMILES IDX 69 66 75 67 68 68 70 69 71 70 72 71 73 72 7 73 8 74 9 75
REMARK SMILES IDX 10 77 11 78 12 79 35 80 13 81 15 82 14 83 38 84 36 85 37 86
REMARK SMILES IDX 16 87 17 88 18 89 19 90 20 92 21 93 29 94 22 95 28 96 27 97
REMARK SMILES IDX 30 98 31 99 34 100 32 101 33 102 23 103 24 104 25 105 26 106
REMARK H PARENT 3 7 95 25 63 36 8 76 19 91
REMARK Flexibility Score: inf
ROOT
ATOM      1  C   UNL A   1      38.888  21.698  25.787  1.00  0.00     0.023 C 
ENDROOT
BRANCH   1   2
ATOM      2  C   UNL A   1      40.008  21.940  26.800  1.00  0.00     0.023 C 
BRANCH   2   3
ATOM      3  C   UNL A   1      41.326  21.212  26.530  1.00  0.00     0.116 C 
BRANCH   3   4
ATOM      4  N   UNL A   1      42.145  21.788  25.481  1.00  0.00    -0.352 N 
ATOM      5  O   UNL A   1      43.572  23.019  24.343  1.00  0.00    -0.269 OA
ATOM      6  C   UNL A   1      42.798  22.980  25.304  1.00  0.00     0.251 C 
ATOM      7  H   UNL A   1      42.257  21.180  24.715  1.00  0.00     0.163 HD
BRANCH   6   8
ATOM      8  C   UNL A   1      42.608  24.210  26.126  1.00  0.00     0.039 A 
ATOM      9  C   UNL A   1      43.187  24.451  27.371  1.00  0.00     0.014 A 
ATOM     10  C   UNL A   1      41.741  25.189  25.596  1.00  0.00     0.014 A 
ATOM     11  C   UNL A   1      42.860  25.598  28.093  1.00  0.00     0.010 A 
ATOM     12  C   UNL A   1      41.421  26.346  26.307  1.00  0.00     0.010 A 
ATOM     13  C   UNL A   1      41.967  26.540  27.569  1.00  0.00    -0.014 A 
BRANCH  13  14
ATOM     14  C   UNL A   1      41.778  27.779  28.321  1.00  0.00     0.031 A 
ATOM     15  C   UNL A   1      42.771  28.847  28.021  1.00  0.00     0.074 A 
ATOM     16  C   UNL A   1      40.754  28.047  29.156  1.00  0.00     0.049 A 
ATOM     17  N   UNL A   1      43.701  29.302  28.795  1.00  0.00    -0.248 NA
ATOM     18  C   UNL A   1      42.797  29.398  26.660  1.00  0.00     0.031 C 
ATOM     19  C   UNL A   1      39.521  27.283  29.343  1.00  0.00     0.029 A 
ATOM     20  N   UNL A   1      40.563  29.149  29.943  1.00  0.00    -0.354 N 
ATOM     21  C   UNL A   1      44.295  30.353  28.098  1.00  0.00     0.074 A 
ATOM     22  C   UNL A   1      43.812  30.260  26.744  1.00  0.00     0.031 C 
ATOM     23  C   UNL A   1      38.622  28.052  30.000  1.00  0.00     0.029 A 
ATOM     24  C   UNL A   1      39.259  29.296  30.399  1.00  0.00     0.049 A 
ATOM     25  H   UNL A   1      41.284  29.782  30.165  1.00  0.00     0.167 HD
ATOM     26  C   UNL A   1      44.974  31.345  28.737  1.00  0.00     0.034 A 
ATOM     27  C   UNL A   1      38.729  30.388  31.003  1.00  0.00     0.034 A 
ATOM     28  C   UNL A   1      45.284  30.992  30.098  1.00  0.00     0.049 A 
ATOM     29  C   UNL A   1      39.843  31.196  31.547  1.00  0.00     0.074 A 
ATOM     30  C   UNL A   1      45.970  29.968  30.722  1.00  0.00     0.029 A 
ATOM     31  N   UNL A   1      44.560  31.614  31.084  1.00  0.00    -0.354 N 
ATOM     32  N   UNL A   1      40.568  30.841  32.569  1.00  0.00    -0.248 NA
ATOM     33  C   UNL A   1      40.388  32.271  30.735  1.00  0.00     0.031 C 
ATOM     34  C   UNL A   1      45.259  29.736  31.937  1.00  0.00     0.029 A 
ATOM     35  C   UNL A   1      44.212  30.658  31.997  1.00  0.00     0.049 A 
ATOM     36  H   UNL A   1      44.334  32.572  31.127  1.00  0.00     0.167 HD
ATOM     37  C   UNL A   1      41.838  31.312  32.270  1.00  0.00     0.074 A 
ATOM     38  C   UNL A   1      41.636  32.292  31.207  1.00  0.00     0.031 C 
ATOM     39  C   UNL A   1      42.951  30.651  32.704  1.00  0.00     0.034 A 
BRANCH  26  40
ATOM     40  C   UNL A   1      45.065  32.786  28.277  1.00  0.00     0.023 A 
ATOM     41  C   UNL A   1      46.356  33.365  28.217  1.00  0.00     0.012 A 
ATOM     42  C   UNL A   1      43.966  33.668  28.188  1.00  0.00     0.148 A 
ATOM     43  C   UNL A   1      46.542  34.749  28.152  1.00  0.00     0.002 A 
ATOM     44  C   UNL A   1      44.157  35.038  28.039  1.00  0.00     0.091 A 
ATOM     45  F   UNL A   1      42.725  33.215  28.383  1.00  0.00    -0.205 F 
ATOM     46  C   UNL A   1      45.440  35.589  28.058  1.00  0.00     0.022 A 
BRANCH  44  47
ATOM     47  S   UNL A   1      42.770  36.166  27.849  1.00  0.00     0.127 S 
ATOM     48  O   UNL A   1      42.209  35.727  26.575  1.00  0.00    -0.237 OA
ATOM     49  O   UNL A   1      41.962  35.846  29.026  1.00  0.00    -0.237 OA
ATOM     50  O   UNL A   1      43.352  37.502  27.872  1.00  0.00    -0.744 OA
ENDBRANCH  44  47
ENDBRANCH  26  40
BRANCH  27  51
ATOM     51  C   UNL A   1      37.344  30.911  31.001  1.00  0.00     0.023 A 
ATOM     52  C   UNL A   1      36.743  31.295  32.218  1.00  0.00     0.012 A 
ATOM     53  C   UNL A   1      36.725  31.308  29.797  1.00  0.00     0.148 A 
ATOM     54  C   UNL A   1      35.587  32.083  32.235  1.00  0.00     0.002 A 
ATOM     55  C   UNL A   1      35.572  32.087  29.819  1.00  0.00     0.091 A 
ATOM     56  F   UNL A   1      37.320  31.003  28.636  1.00  0.00    -0.205 F 
ATOM     57  C   UNL A   1      35.007  32.489  31.035  1.00  0.00     0.022 A 
BRANCH  55  58
ATOM     58  S   UNL A   1      34.786  32.671  28.311  1.00  0.00     0.127 S 
ATOM     59  O   UNL A   1      35.899  33.323  27.620  1.00  0.00    -0.237 OA
ATOM     60  O   UNL A   1      34.334  31.423  27.702  1.00  0.00    -0.237 OA
ATOM     61  O   UNL A   1      33.734  33.584  28.741  1.00  0.00    -0.744 OA
ENDBRANCH  55  58
ENDBRANCH  27  51
BRANCH  39  62
ATOM     62  C   UNL A   1      42.801  29.628  33.798  1.00  0.00     0.023 A 
ATOM     63  C   UNL A   1      42.137  28.399  33.604  1.00  0.00     0.012 A 
ATOM     64  C   UNL A   1      43.481  29.846  35.009  1.00  0.00     0.148 A 
ATOM     65  C   UNL A   1      42.121  27.429  34.608  1.00  0.00     0.002 A 
ATOM     66  C   UNL A   1      43.507  28.858  35.984  1.00  0.00     0.091 A 
ATOM     67  F   UNL A   1      44.109  31.019  35.186  1.00  0.00    -0.205 F 
ATOM     68  C   UNL A   1      42.817  27.652  35.793  1.00  0.00     0.022 A 
BRANCH  66  69
ATOM     69  S   UNL A   1      44.504  29.044  37.464  1.00  0.00     0.127 S 
ATOM     70  O   UNL A   1      43.883  30.197  38.111  1.00  0.00    -0.237 OA
ATOM     71  O   UNL A   1      44.294  27.769  38.155  1.00  0.00    -0.237 OA
ATOM     72  O   UNL A   1      45.871  29.240  36.995  1.00  0.00    -0.744 OA
ENDBRANCH  66  69
ENDBRANCH  39  62
ENDBRANCH  13  14
ENDBRANCH   6   8
ENDBRANCH   3   4
ENDBRANCH   2   3
ENDBRANCH   1   2
BRANCH   1  73
ATOM     73  C   UNL A   1      37.682  22.629  25.867  1.00  0.00     0.116 C 
BRANCH  73  74
ATOM     74  N   UNL A   1      36.409  21.954  26.107  1.00  0.00    -0.352 N 
ATOM     75  C   UNL A   1      35.108  22.393  25.872  1.00  0.00     0.251 C 
ATOM     76  H   UNL A   1      36.481  21.051  26.494  1.00  0.00     0.163 HD
ATOM     77  O   UNL A   1      34.154  21.720  26.176  1.00  0.00    -0.269 OA
BRANCH  75  78
ATOM     78  C   UNL A   1      34.905  23.733  25.256  1.00  0.00     0.041 A 
ATOM     79  C   UNL A   1      35.109  24.869  26.033  1.00  0.00     0.018 A 
ATOM     80  C   UNL A   1      34.386  23.833  23.944  1.00  0.00     0.036 A 
ATOM     81  C   UNL A   1      34.537  26.043  25.595  1.00  0.00    -0.043 A 
ATOM     82  C   UNL A   1      33.873  25.059  23.468  1.00  0.00     0.092 A 
ATOM     83  C   UNL A   1      33.845  26.118  24.369  1.00  0.00    -0.024 A 
ATOM     84  C   UNL A   1      34.390  27.300  26.399  1.00  0.00     0.036 C 
ATOM     85  C   UNL A   1      33.021  27.369  24.398  1.00  0.00     0.037 C 
ATOM     86  C   UNL A   1      33.858  28.249  25.329  1.00  0.00     0.010 C 
BRANCH  82  87
ATOM     87  S   UNL A   1      33.033  25.089  21.895  1.00  0.00     0.262 S 
ATOM     88  O   UNL A   1      33.419  26.317  21.227  1.00  0.00    -0.201 OA
ATOM     89  O   UNL A   1      33.262  23.815  21.248  1.00  0.00    -0.201 OA
BRANCH  87  90
ATOM     90  N   UNL A   1      31.333  25.247  22.044  1.00  0.00    -0.277 N 
ATOM     91  H   UNL A   1      30.797  25.393  21.231  1.00  0.00     0.180 HD
BRANCH  90  92
ATOM     92  C   UNL A   1      30.661  25.174  23.310  1.00  0.00     0.075 A 
ATOM     93  C   UNL A   1      30.854  24.042  24.122  1.00  0.00     0.042 A 
ATOM     94  C   UNL A   1      29.921  26.257  23.809  1.00  0.00     0.089 A 
ATOM     95  C   UNL A   1      30.372  24.010  25.448  1.00  0.00     0.058 A 
ATOM     96  C   UNL A   1      29.413  26.218  25.117  1.00  0.00     0.031 A 
ATOM     97  C   UNL A   1      29.633  25.102  25.927  1.00  0.00     0.015 A 
BRANCH  94  98
ATOM     98  N   UNL A   1      29.726  27.432  23.041  1.00  0.00    -0.239 N 
ATOM     99  C   UNL A   1      30.668  28.167  22.356  1.00  0.00     0.115 A 
ATOM    100  N   UNL A   1      28.509  28.030  22.993  1.00  0.00    -0.177 NA
ATOM    101  C   UNL A   1      30.095  29.381  22.072  1.00  0.00     0.042 A 
ATOM    102  C   UNL A   1      28.773  29.254  22.525  1.00  0.00     0.135 A 
ENDBRANCH  94  98
BRANCH  95 103
ATOM    103  C   UNL A   1      30.716  22.855  26.363  1.00  0.00     0.416 C 
ATOM    104  F   UNL A   1      29.682  22.507  27.175  1.00  0.00    -0.166 F 
ATOM    105  F   UNL A   1      31.053  21.730  25.674  1.00  0.00    -0.166 F 
ATOM    106  F   UNL A   1      31.771  23.113  27.186  1.00  0.00    -0.166 F 
ENDBRANCH  95 103
ENDBRANCH  90  92
ENDBRANCH  87  90
ENDBRANCH  82  87
ENDBRANCH  75  78
ENDBRANCH  73  74
ENDBRANCH   1  73
TORSDOF 19
ENDMDL
MODEL 2
REMARK VINA RESULT:     -12.5      2.705      3.660
REMARK SMILES O=C(NCCCCNC(=O)c1cc2c(c(S(=O)(=O)Nc3cc(C(F)(F)F)ccc3-n3cccn3)c1)CCC2)c1ccc(-c2c3nc(c(-c4cccc(S(=O)(=O)[O-])c4F)c4ccc([nH]4)c(-c4cccc(S(=O)(=O)[O-])c4F)c4nc(c(-c5cccc(S(=O)(=O)[O-])c5F)c5ccc2[nH]5)C=C4)C=C3)cc1
REMARK SMILES IDX 6 1 5 2 4 3 3 4 1 5 2 6 39 8 40 9 101 10 41 11 100 12 42 13
REMARK SMILES IDX 43 14 44 15 94 16 45 17 99 18 93 19 95 20 46 21 98 22 92 23
REMARK SMILES IDX 91 24 47 26 79 27 59 28 78 29 60 30 63 31 77 32 96 33 61 34
REMARK SMILES IDX 62 35 76 37 97 38 64 39 48 40 49 41 57 42 50 43 52 44 58 45
REMARK SMILES IDX 51 46 53 47 54 48 55 49 56 50 80 51 81 52 89 53 82 54 84 55
REMARK SMILES IDX 90 56 83 57 85 58 86 59 87 60 88 61 65 62 66 63 74 64 67 65
REMARK SMILES IDX 69 66 75 67 68 68 70 69 71 70 72 71 73 72 7 73 8 74 9 75
REMARK SMILES IDX 10 77 11 78 12 79 35 80 13 81 15 82 14 83 38 84 36 85 37 86
REMARK SMILES IDX 16 87 17 88 18 89 19 90 20 92 21 93 29 94 22 95 28 96 27 97
REMARK SMILES IDX 30 98 31 99 34 100 32 101 33 102 23 103 24 104 25 105 26 106
REMARK H PARENT 3 7 95 25 63 36 8 76 19 91
REMARK Flexibility Score: inf
ROOT
ATOM      1  C   UNL A   1      36.075  21.487  24.610  1.00  0.00     0.023 C 
ENDROOT
BRANCH   1   2
ATOM      2  C   UNL A   1      36.579  22.929  24.531  1.00  0.00     0.023 C 
BRANCH   2   3
ATOM      3  C   UNL A   1      37.424  23.412  25.711  1.00  0.00     0.116 C 
BRANCH   3   4
ATOM      4  N   UNL A   1      38.676  22.705  25.902  1.00  0.00    -0.352 N 
ATOM      5  O   UNL A   1      40.573  21.939  26.715  1.00  0.00    -0.269 OA
ATOM      6  C   UNL A   1      39.783  22.888  26.689  1.00  0.00     0.251 C 
ATOM      7  H   UNL A   1      38.747  21.905  25.332  1.00  0.00     0.163 HD
BRANCH   6   8
ATOM      8  C   UNL A   1      40.120  24.127  27.447  1.00  0.00     0.039 A 
ATOM      9  C   UNL A   1      41.352  24.409  28.034  1.00  0.00     0.014 A 
ATOM     10  C   UNL A   1      39.080  25.069  27.599  1.00  0.00     0.014 A 
ATOM     11  C   UNL A   1      41.522  25.560  28.803  1.00  0.00     0.010 A 
ATOM     12  C   UNL A   1      39.248  26.229  28.355  1.00  0.00     0.010 A 
ATOM     13  C   UNL A   1      40.468  26.464  28.977  1.00  0.00    -0.014 A 
BRANCH  13  14
ATOM     14  C   UNL A   1      40.759  27.712  29.681  1.00  0.00     0.031 A 
ATOM     15  C   UNL A   1      41.731  28.603  28.990  1.00  0.00     0.074 A 
ATOM     16  C   UNL A   1      40.161  28.137  30.810  1.00  0.00     0.049 A 
ATOM     17  N   UNL A   1      42.937  28.893  29.357  1.00  0.00    -0.248 NA
ATOM     18  C   UNL A   1      41.350  29.154  27.683  1.00  0.00     0.031 C 
ATOM     19  C   UNL A   1      38.974  27.586  31.465  1.00  0.00     0.029 A 
ATOM     20  N   UNL A   1      40.442  29.250  31.555  1.00  0.00    -0.354 N 
ATOM     21  C   UNL A   1      43.396  29.837  28.440  1.00  0.00     0.074 A 
ATOM     22  C   UNL A   1      42.449  29.836  27.354  1.00  0.00     0.031 C 
ATOM     23  C   UNL A   1      38.505  28.487  32.359  1.00  0.00     0.029 A 
ATOM     24  C   UNL A   1      39.430  29.607  32.439  1.00  0.00     0.049 A 
ATOM     25  H   UNL A   1      41.284  29.753  31.473  1.00  0.00     0.167 HD
ATOM     26  C   UNL A   1      44.406  30.698  28.742  1.00  0.00     0.034 A 
ATOM     27  C   UNL A   1      39.332  30.766  33.134  1.00  0.00     0.034 A 
ATOM     28  C   UNL A   1      45.127  30.288  29.920  1.00  0.00     0.049 A 
ATOM     29  C   UNL A   1      40.679  31.375  33.202  1.00  0.00     0.074 A 
ATOM     30  C   UNL A   1      45.822  29.161  30.310  1.00  0.00     0.029 A 
ATOM     31  N   UNL A   1      44.914  31.013  31.065  1.00  0.00    -0.354 N 
ATOM     32  N   UNL A   1      41.658  30.897  33.915  1.00  0.00    -0.248 NA
ATOM     33  C   UNL A   1      41.055  32.351  32.194  1.00  0.00     0.031 C 
ATOM     34  C   UNL A   1      45.570  29.039  31.708  1.00  0.00     0.029 A 
ATOM     35  C   UNL A   1      44.773  30.120  32.090  1.00  0.00     0.049 A 
ATOM     36  H   UNL A   1      44.872  31.995  31.135  1.00  0.00     0.167 HD
ATOM     37  C   UNL A   1      42.792  31.154  33.158  1.00  0.00     0.074 A 
ATOM     38  C   UNL A   1      42.376  32.163  32.188  1.00  0.00     0.031 C 
ATOM     39  C   UNL A   1      43.868  30.316  33.200  1.00  0.00     0.034 A 
BRANCH  26  40
ATOM     40  C   UNL A   1      44.550  32.108  28.205  1.00  0.00     0.023 A 
ATOM     41  C   UNL A   1      45.772  32.437  27.570  1.00  0.00     0.012 A 
ATOM     42  C   UNL A   1      43.698  33.183  28.542  1.00  0.00     0.148 A 
ATOM     43  C   UNL A   1      46.158  33.763  27.353  1.00  0.00     0.002 A 
ATOM     44  C   UNL A   1      44.050  34.496  28.247  1.00  0.00     0.091 A 
ATOM     45  F   UNL A   1      42.599  32.965  29.271  1.00  0.00    -0.205 F 
ATOM     46  C   UNL A   1      45.293  34.796  27.688  1.00  0.00     0.022 A 
BRANCH  44  47
ATOM     47  S   UNL A   1      42.943  35.868  28.600  1.00  0.00     0.127 S 
ATOM     48  O   UNL A   1      43.025  35.943  30.056  1.00  0.00    -0.237 OA
ATOM     49  O   UNL A   1      43.592  36.967  27.885  1.00  0.00    -0.237 OA
ATOM     50  O   UNL A   1      41.654  35.477  28.046  1.00  0.00    -0.744 OA
ENDBRANCH  44  47
ENDBRANCH  26  40
BRANCH  27  51
ATOM     51  C   UNL A   1      38.140  31.510  33.600  1.00  0.00     0.023 A 
ATOM     52  C   UNL A   1      38.110  32.030  34.911  1.00  0.00     0.012 A 
ATOM     53  C   UNL A   1      37.168  31.961  32.682  1.00  0.00     0.148 A 
ATOM     54  C   UNL A   1      37.172  32.998  35.283  1.00  0.00     0.002 A 
ATOM     55  C   UNL A   1      36.232  32.920  33.058  1.00  0.00     0.091 A 
ATOM     56  F   UNL A   1      37.223  31.522  31.417  1.00  0.00    -0.205 F 
ATOM     57  C   UNL A   1      36.239  33.452  34.354  1.00  0.00     0.022 A 
BRANCH  55  58
ATOM     58  S   UNL A   1      35.018  33.574  31.905  1.00  0.00     0.127 S 
ATOM     59  O   UNL A   1      34.400  34.645  32.688  1.00  0.00    -0.237 OA
ATOM     60  O   UNL A   1      35.860  34.029  30.803  1.00  0.00    -0.237 OA
ATOM     61  O   UNL A   1      34.122  32.464  31.602  1.00  0.00    -0.744 OA
ENDBRANCH  55  58
ENDBRANCH  27  51
BRANCH  39  62
ATOM     62  C   UNL A   1      43.965  29.323  34.327  1.00  0.00     0.023 A 
ATOM     63  C   UNL A   1      44.699  29.577  35.504  1.00  0.00     0.012 A 
ATOM     64  C   UNL A   1      43.169  28.166  34.263  1.00  0.00     0.148 A 
ATOM     65  C   UNL A   1      44.669  28.680  36.574  1.00  0.00     0.002 A 
ATOM     66  C   UNL A   1      43.100  27.303  35.349  1.00  0.00     0.091 A 
ATOM     67  F   UNL A   1      42.474  27.931  33.138  1.00  0.00    -0.205 F 
ATOM     68  C   UNL A   1      43.859  27.550  36.502  1.00  0.00     0.022 A 
BRANCH  66  69
ATOM     69  S   UNL A   1      41.965  25.913  35.357  1.00  0.00     0.127 S 
ATOM     70  O   UNL A   1      40.808  26.458  34.651  1.00  0.00    -0.237 OA
ATOM     71  O   UNL A   1      42.707  24.890  34.616  1.00  0.00    -0.237 OA
ATOM     72  O   UNL A   1      41.754  25.586  36.762  1.00  0.00    -0.744 OA
ENDBRANCH  66  69
ENDBRANCH  39  62
ENDBRANCH  13  14
ENDBRANCH   6   8
ENDBRANCH   3   4
ENDBRANCH   2   3
ENDBRANCH   1   2
BRANCH   1  73
ATOM     73  C   UNL A   1      35.323  21.095  25.878  1.00  0.00     0.116 C 
BRANCH  73  74
ATOM     74  N   UNL A   1      34.206  20.178  25.662  1.00  0.00    -0.352 N 
ATOM     75  C   UNL A   1      32.986  20.392  25.024  1.00  0.00     0.251 C 
ATOM     76  H   UNL A   1      34.336  19.270  26.022  1.00  0.00     0.163 HD
ATOM     77  O   UNL A   1      32.144  19.530  24.974  1.00  0.00    -0.269 OA
BRANCH  75  78
ATOM     78  C   UNL A   1      32.719  21.726  24.418  1.00  0.00     0.041 A 
ATOM     79  C   UNL A   1      32.626  21.831  23.034  1.00  0.00     0.018 A 
ATOM     80  C   UNL A   1      32.696  22.878  25.238  1.00  0.00     0.036 A 
ATOM     81  C   UNL A   1      32.790  23.083  22.485  1.00  0.00    -0.043 A 
ATOM     82  C   UNL A   1      32.783  24.166  24.666  1.00  0.00     0.092 A 
ATOM     83  C   UNL A   1      32.960  24.229  23.289  1.00  0.00    -0.024 A 
ATOM     84  C   UNL A   1      33.007  23.381  21.032  1.00  0.00     0.036 C 
ATOM     85  C   UNL A   1      33.513  25.311  22.412  1.00  0.00     0.037 C 
ATOM     86  C   UNL A   1      32.940  24.906  21.052  1.00  0.00     0.010 C 
BRANCH  82  87
ATOM     87  S   UNL A   1      32.969  25.576  25.743  1.00  0.00     0.262 S 
ATOM     88  O   UNL A   1      31.784  25.636  26.578  1.00  0.00    -0.201 OA
ATOM     89  O   UNL A   1      34.278  25.495  26.355  1.00  0.00    -0.201 OA
BRANCH  87  90
ATOM     90  N   UNL A   1      32.928  27.071  24.905  1.00  0.00    -0.277 N 
ATOM     91  H   UNL A   1      33.055  27.071  23.929  1.00  0.00     0.180 HD
BRANCH  90  92
ATOM     92  C   UNL A   1      32.717  28.323  25.574  1.00  0.00     0.075 A 
ATOM     93  C   UNL A   1      33.665  28.764  26.515  1.00  0.00     0.042 A 
ATOM     94  C   UNL A   1      31.657  29.172  25.219  1.00  0.00     0.089 A 
ATOM     95  C   UNL A   1      33.600  30.067  27.053  1.00  0.00     0.058 A 
ATOM     96  C   UNL A   1      31.571  30.458  25.775  1.00  0.00     0.031 A 
ATOM     97  C   UNL A   1      32.533  30.899  26.687  1.00  0.00     0.015 A 
BRANCH  94  98
ATOM     98  N   UNL A   1      30.695  28.785  24.253  1.00  0.00    -0.239 N 
ATOM     99  C   UNL A   1      30.107  29.561  23.280  1.00  0.00     0.115 A 
ATOM    100  N   UNL A   1      30.162  27.537  24.273  1.00  0.00    -0.177 NA
ATOM    101  C   UNL A   1      29.009  28.871  22.832  1.00  0.00     0.042 A 
ATOM    102  C   UNL A   1      29.070  27.645  23.510  1.00  0.00     0.135 A 
ENDBRANCH  94  98
BRANCH  95 103
ATOM    103  C   UNL A   1      34.708  30.585  27.944  1.00  0.00     0.416 C 
ATOM    104  F   UNL A   1      34.267  31.505  28.844  1.00  0.00    -0.166 F 
ATOM    105  F   UNL A   1      35.297  29.596  28.670  1.00  0.00    -0.166 F 
ATOM    106  F   UNL A   1      35.718  31.188  27.256  1.00  0.00    -0.166 F 
ENDBRANCH  95 103
ENDBRANCH  90  92
ENDBRANCH  87  90
ENDBRANCH  82  87
ENDBRANCH  75  78
ENDBRANCH  73  74
ENDBRANCH   1  73
TORSDOF 19
ENDMDL
MODEL 3
REMARK VINA RESULT:     -12.4      2.515      3.501
REMARK SMILES O=C(NCCCCNC(=O)c1cc2c(c(S(=O)(=O)Nc3cc(C(F)(F)F)ccc3-n3cccn3)c1)CCC2)c1ccc(-c2c3nc(c(-c4cccc(S(=O)(=O)[O-])c4F)c4ccc([nH]4)c(-c4cccc(S(=O)(=O)[O-])c4F)c4nc(c(-c5cccc(S(=O)(=O)[O-])c5F)c5ccc2[nH]5)C=C4)C=C3)cc1
REMARK SMILES IDX 6 1 5 2 4 3 3 4 1 5 2 6 39 8 40 9 101 10 41 11 100 12 42 13
REMARK SMILES IDX 43 14 44 15 94 16 45 17 99 18 93 19 95 20 46 21 98 22 92 23
REMARK SMILES IDX 91 24 47 26 79 27 59 28 78 29 60 30 63 31 77 32 96 33 61 34
REMARK SMILES IDX 62 35 76 37 97 38 64 39 48 40 49 41 57 42 50 43 52 44 58 45
REMARK SMILES IDX 51 46 53 47 54 48 55 49 56 50 80 51 81 52 89 53 82 54 84 55
REMARK SMILES IDX 90 56 83 57 85 58 86 59 87 60 88 61 65 62 66 63 74 64 67 65
REMARK SMILES IDX 69 66 75 67 68 68 70 69 71 70 72 71 73 72 7 73 8 74 9 75
REMARK SMILES IDX 10 77 11 78 12 79 35 80 13 81 15 82 14 83 38 84 36 85 37 86
REMARK SMILES IDX 16 87 17 88 18 89 19 90 20 92 21 93 29 94 22 95 28 96 27 97
REMARK SMILES IDX 30 98 31 99 34 100 32 101 33 102 23 103 24 104 25 105 26 106
REMARK H PARENT 3 7 95 25 63 36 8 76 19 91
REMARK Flexibility Score: inf
ROOT
ATOM      1  C   UNL A   1      35.554  22.805  24.384  1.00  0.00     0.023 C 
ENDROOT
BRANCH   1   2
ATOM      2  C   UNL A   1      37.073  22.636  24.448  1.00  0.00     0.023 C 
BRANCH   2   3
ATOM      3  C   UNL A   1      37.637  22.111  25.769  1.00  0.00     0.116 C 
BRANCH   3   4
ATOM      4  N   UNL A   1      39.053  21.800  25.755  1.00  0.00    -0.352 N 
ATOM      5  O   UNL A   1      41.196  21.662  26.241  1.00  0.00    -0.269 OA
ATOM      6  C   UNL A   1      40.172  22.345  26.330  1.00  0.00     0.251 C 
ATOM      7  H   UNL A   1      39.261  21.014  25.200  1.00  0.00     0.163 HD
BRANCH   6   8
ATOM      8  C   UNL A   1      40.252  23.681  26.988  1.00  0.00     0.039 A 
ATOM      9  C   UNL A   1      39.347  24.727  26.814  1.00  0.00     0.014 A 
ATOM     10  C   UNL A   1      41.364  23.897  27.830  1.00  0.00     0.014 A 
ATOM     11  C   UNL A   1      39.578  25.968  27.407  1.00  0.00     0.010 A 
ATOM     12  C   UNL A   1      41.593  25.132  28.438  1.00  0.00     0.010 A 
ATOM     13  C   UNL A   1      40.707  26.177  28.208  1.00  0.00    -0.014 A 
BRANCH  13  14
ATOM     14  C   UNL A   1      40.811  27.458  28.904  1.00  0.00     0.031 A 
ATOM     15  C   UNL A   1      41.879  28.359  28.393  1.00  0.00     0.074 A 
ATOM     16  C   UNL A   1      39.980  27.901  29.868  1.00  0.00     0.049 A 
ATOM     17  N   UNL A   1      42.975  28.705  28.987  1.00  0.00    -0.248 NA
ATOM     18  C   UNL A   1      41.762  28.850  27.013  1.00  0.00     0.031 C 
ATOM     19  C   UNL A   1      38.699  27.331  30.287  1.00  0.00     0.029 A 
ATOM     20  N   UNL A   1      40.069  29.048  30.608  1.00  0.00    -0.354 N 
ATOM     21  C   UNL A   1      43.587  29.632  28.146  1.00  0.00     0.074 A 
ATOM     22  C   UNL A   1      42.886  29.559  26.890  1.00  0.00     0.031 C 
ATOM     23  C   UNL A   1      38.030  28.245  31.027  1.00  0.00     0.029 A 
ATOM     24  C   UNL A   1      38.887  29.399  31.248  1.00  0.00     0.049 A 
ATOM     25  H   UNL A   1      40.896  29.578  30.680  1.00  0.00     0.167 HD
ATOM     26  C   UNL A   1      44.488  30.539  28.614  1.00  0.00     0.034 A 
ATOM     27  C   UNL A   1      38.614  30.578  31.860  1.00  0.00     0.034 A 
ATOM     28  C   UNL A   1      44.960  30.196  29.930  1.00  0.00     0.049 A 
ATOM     29  C   UNL A   1      39.900  31.236  32.179  1.00  0.00     0.074 A 
ATOM     30  C   UNL A   1      45.591  29.109  30.502  1.00  0.00     0.029 A 
ATOM     31  N   UNL A   1      44.495  30.953  30.976  1.00  0.00    -0.354 N 
ATOM     32  N   UNL A   1      40.724  30.819  33.097  1.00  0.00    -0.248 NA
ATOM     33  C   UNL A   1      40.450  32.190  31.230  1.00  0.00     0.031 C 
ATOM     34  C   UNL A   1      45.059  29.027  31.822  1.00  0.00     0.029 A 
ATOM     35  C   UNL A   1      44.170  30.091  31.987  1.00  0.00     0.049 A 
ATOM     36  H   UNL A   1      44.412  31.934  30.996  1.00  0.00     0.167 HD
ATOM     37  C   UNL A   1      41.982  31.090  32.580  1.00  0.00     0.074 A 
ATOM     38  C   UNL A   1      41.749  32.049  31.504  1.00  0.00     0.031 C 
ATOM     39  C   UNL A   1      43.050  30.293  32.877  1.00  0.00     0.034 A 
BRANCH  26  40
ATOM     40  C   UNL A   1      44.701  31.933  28.060  1.00  0.00     0.023 A 
ATOM     41  C   UNL A   1      45.971  32.223  27.506  1.00  0.00     0.012 A 
ATOM     42  C   UNL A   1      43.851  33.033  28.313  1.00  0.00     0.148 A 
ATOM     43  C   UNL A   1      46.401  33.536  27.290  1.00  0.00     0.002 A 
ATOM     44  C   UNL A   1      44.252  34.332  28.018  1.00  0.00     0.091 A 
ATOM     45  F   UNL A   1      42.700  32.854  28.967  1.00  0.00    -0.205 F 
ATOM     46  C   UNL A   1      45.538  34.593  27.542  1.00  0.00     0.022 A 
BRANCH  44  47
ATOM     47  S   UNL A   1      43.154  35.734  28.264  1.00  0.00     0.127 S 
ATOM     48  O   UNL A   1      44.053  36.857  28.019  1.00  0.00    -0.237 OA
ATOM     49  O   UNL A   1      42.145  35.509  27.228  1.00  0.00    -0.237 OA
ATOM     50  O   UNL A   1      42.650  35.596  29.624  1.00  0.00    -0.744 OA
ENDBRANCH  44  47
ENDBRANCH  26  40
BRANCH  27  51
ATOM     51  C   UNL A   1      37.331  31.294  32.039  1.00  0.00     0.023 A 
ATOM     52  C   UNL A   1      36.953  31.736  33.324  1.00  0.00     0.012 A 
ATOM     53  C   UNL A   1      36.627  31.799  30.926  1.00  0.00     0.148 A 
ATOM     54  C   UNL A   1      35.935  32.682  33.492  1.00  0.00     0.002 A 
ATOM     55  C   UNL A   1      35.612  32.736  31.098  1.00  0.00     0.091 A 
ATOM     56  F   UNL A   1      37.017  31.436  29.697  1.00  0.00    -0.205 F 
ATOM     57  C   UNL A   1      35.272  33.191  32.378  1.00  0.00     0.022 A 
BRANCH  55  58
ATOM     58  S   UNL A   1      34.731  33.457  29.707  1.00  0.00     0.127 S 
ATOM     59  O   UNL A   1      34.245  32.268  29.005  1.00  0.00    -0.237 OA
ATOM     60  O   UNL A   1      33.695  34.239  30.376  1.00  0.00    -0.237 OA
ATOM     61  O   UNL A   1      35.724  34.223  28.964  1.00  0.00    -0.744 OA
ENDBRANCH  55  58
ENDBRANCH  27  51
BRANCH  39  62
ATOM     62  C   UNL A   1      42.938  29.344  34.041  1.00  0.00     0.023 A 
ATOM     63  C   UNL A   1      42.248  28.117  33.957  1.00  0.00     0.012 A 
ATOM     64  C   UNL A   1      43.678  29.627  35.202  1.00  0.00     0.148 A 
ATOM     65  C   UNL A   1      42.266  27.212  35.021  1.00  0.00     0.002 A 
ATOM     66  C   UNL A   1      43.737  28.702  36.236  1.00  0.00     0.091 A 
ATOM     67  F   UNL A   1      44.331  30.798  35.273  1.00  0.00    -0.205 F 
ATOM     68  C   UNL A   1      43.022  27.498  36.154  1.00  0.00     0.022 A 
BRANCH  66  69
ATOM     69  S   UNL A   1      44.807  28.964  37.652  1.00  0.00     0.127 S 
ATOM     70  O   UNL A   1      44.216  30.149  38.269  1.00  0.00    -0.237 OA
ATOM     71  O   UNL A   1      44.635  27.726  38.417  1.00  0.00    -0.237 OA
ATOM     72  O   UNL A   1      46.148  29.136  37.105  1.00  0.00    -0.744 OA
ENDBRANCH  66  69
ENDBRANCH  39  62
ENDBRANCH  13  14
ENDBRANCH   6   8
ENDBRANCH   3   4
ENDBRANCH   2   3
ENDBRANCH   1   2
BRANCH   1  73
ATOM     73  C   UNL A   1      34.798  22.681  25.703  1.00  0.00     0.116 C 
BRANCH  73  74
ATOM     74  N   UNL A   1      33.816  21.599  25.740  1.00  0.00    -0.352 N 
ATOM     75  C   UNL A   1      32.606  21.470  25.063  1.00  0.00     0.251 C 
ATOM     76  H   UNL A   1      34.046  20.847  26.333  1.00  0.00     0.163 HD
ATOM     77  O   UNL A   1      31.882  20.522  25.246  1.00  0.00    -0.269 OA
BRANCH  75  78
ATOM     78  C   UNL A   1      32.196  22.545  24.118  1.00  0.00     0.041 A 
ATOM     79  C   UNL A   1      32.596  22.460  22.788  1.00  0.00     0.018 A 
ATOM     80  C   UNL A   1      31.525  23.691  24.604  1.00  0.00     0.036 A 
ATOM     81  C   UNL A   1      32.568  23.621  22.047  1.00  0.00    -0.043 A 
ATOM     82  C   UNL A   1      31.428  24.855  23.810  1.00  0.00     0.092 A 
ATOM     83  C   UNL A   1      32.076  24.830  22.580  1.00  0.00    -0.024 A 
ATOM     84  C   UNL A   1      33.209  23.820  20.706  1.00  0.00     0.036 C 
ATOM     85  C   UNL A   1      32.563  25.938  21.698  1.00  0.00     0.037 C 
ATOM     86  C   UNL A   1      32.686  25.210  20.356  1.00  0.00     0.010 C 
BRANCH  82  87
ATOM     87  S   UNL A   1      30.769  26.343  24.540  1.00  0.00     0.262 S 
ATOM     88  O   UNL A   1      29.436  26.531  24.000  1.00  0.00    -0.201 OA
ATOM     89  O   UNL A   1      30.960  26.255  25.972  1.00  0.00    -0.201 OA
BRANCH  87  90
ATOM     90  N   UNL A   1      31.594  27.759  24.038  1.00  0.00    -0.277 N 
ATOM     91  H   UNL A   1      32.522  27.679  23.717  1.00  0.00     0.180 HD
BRANCH  90  92
ATOM     92  C   UNL A   1      30.983  29.058  24.068  1.00  0.00     0.075 A 
ATOM     93  C   UNL A   1      29.995  29.370  23.118  1.00  0.00     0.042 A 
ATOM     94  C   UNL A   1      31.259  29.971  25.097  1.00  0.00     0.089 A 
ATOM     95  C   UNL A   1      29.234  30.555  23.226  1.00  0.00     0.058 A 
ATOM     96  C   UNL A   1      30.527  31.166  25.191  1.00  0.00     0.031 A 
ATOM     97  C   UNL A   1      29.526  31.456  24.260  1.00  0.00     0.015 A 
BRANCH  94  98
ATOM     98  N   UNL A   1      32.223  29.688  26.096  1.00  0.00    -0.239 N 
ATOM     99  C   UNL A   1      33.590  29.839  26.026  1.00  0.00     0.115 A 
ATOM    100  N   UNL A   1      31.854  29.106  27.265  1.00  0.00    -0.177 NA
ATOM    101  C   UNL A   1      34.123  29.118  27.066  1.00  0.00     0.042 A 
ATOM    102  C   UNL A   1      33.004  28.654  27.774  1.00  0.00     0.135 A 
ENDBRANCH  94  98
BRANCH  95 103
ATOM    103  C   UNL A   1      28.072  30.808  22.291  1.00  0.00     0.416 C 
ATOM    104  F   UNL A   1      27.690  32.114  22.275  1.00  0.00    -0.166 F 
ATOM    105  F   UNL A   1      28.361  30.481  21.002  1.00  0.00    -0.166 F 
ATOM    106  F   UNL A   1      26.956  30.094  22.611  1.00  0.00    -0.166 F 
ENDBRANCH  95 103
ENDBRANCH  90  92
ENDBRANCH  87  90
ENDBRANCH  82  87
ENDBRANCH  75  78
ENDBRANCH  73  74
ENDBRANCH   1  73
TORSDOF 19
ENDMDL
