MODEL 1
REMARK VINA RESULT:     -11.2      0.000      0.000
REMARK SMILES COCc1cc(C)nc(N/N=C\c2ccc(-c3cccc(C(=O)NCCCCNC(=O)c4ccc(-c5c6nc(c(-c7cccc(S(=O)(=O)[O-])c7F)c7ccc([nH]7)c(-c7cccc(S(=O)(=O)[O-])c7F)c7nc(c(-c8cccc(S(=O)(=O)[O-])c8F)c8ccc5[nH]8)C=C7)C=C6)cc4)c3)o2)c1C#N
REMARK SMILES IDX 25 1 24 2 22 3 23 4 21 6 17 7 18 8 95 9 19 10 20 11 16 12
REMARK SMILES IDX 13 13 14 14 96 15 15 16 12 17 11 18 10 19 9 21 4 22 5 23
REMARK SMILES IDX 97 24 6 25 7 26 8 27 3 28 2 29 1 30 98 31 99 32 26 33 27 34
REMARK SMILES IDX 28 35 29 36 30 37 31 39 32 40 33 41 94 42 34 43 93 44 35 45
REMARK SMILES IDX 36 46 37 47 87 48 38 49 92 50 86 51 88 52 39 53 91 54 85 55
REMARK SMILES IDX 84 56 40 58 72 59 52 60 71 61 53 62 56 63 70 64 89 65 54 66
REMARK SMILES IDX 55 67 69 69 90 70 57 71 41 72 42 73 50 74 43 75 45 76 51 77
REMARK SMILES IDX 44 78 46 79 47 80 48 81 49 82 73 83 74 84 82 85 75 86 77 87
REMARK SMILES IDX 83 88 76 89 78 90 79 91 80 92 81 93 58 94 59 95 67 96 60 97
REMARK SMILES IDX 62 98 68 99 61 100 63 101 64 102 65 103 66 104
REMARK H PARENT 24 5 10 20 29 38 88 57 56 68
REMARK Flexibility Score: inf
ROOT
ATOM      1  C   UNL A   1      37.089  22.337  25.569  1.00  0.00     0.116 C 
ENDROOT
BRANCH   1   2
ATOM      2  N   UNL A   1      36.001  21.983  26.467  1.00  0.00    -0.352 N 
ATOM      3  C   UNL A   1      34.650  21.778  26.276  1.00  0.00     0.251 C 
ATOM      4  O   UNL A   1      34.010  21.302  27.213  1.00  0.00    -0.269 OA
ATOM      5  H   UNL A   1      36.287  21.867  27.402  1.00  0.00     0.163 HD
BRANCH   3   6
ATOM      6  C   UNL A   1      33.926  22.102  25.009  1.00  0.00     0.040 A 
ATOM      7  C   UNL A   1      33.165  23.732  23.332  1.00  0.00     0.018 A 
ATOM      8  C   UNL A   1      32.541  22.709  22.622  1.00  0.00     0.012 A 
ATOM      9  C   UNL A   1      33.789  23.396  24.532  1.00  0.00     0.025 A 
ATOM     10  C   UNL A   1      32.632  21.385  23.081  1.00  0.00     0.002 A 
ATOM     11  C   UNL A   1      33.335  21.082  24.258  1.00  0.00     0.014 A 
BRANCH   7  12
ATOM     12  C   UNL A   1      33.409  25.088  22.836  1.00  0.00     0.134 A 
ATOM     13  C   UNL A   1      33.849  27.215  23.107  1.00  0.00     0.147 A 
ATOM     14  C   UNL A   1      33.300  27.106  21.848  1.00  0.00     0.053 A 
ATOM     15  O   UNL A   1      34.004  25.977  23.673  1.00  0.00    -0.455 OA
ATOM     16  C   UNL A   1      33.007  25.738  21.678  1.00  0.00     0.051 A 
BRANCH  13  17
ATOM     17  C   UNL A   1      34.190  28.333  23.924  1.00  0.00     0.180 C 
ATOM     18  N   UNL A   1      33.618  28.786  25.002  1.00  0.00    -0.178 NA
BRANCH  18  19
ATOM     19  N   UNL A   1      32.528  28.210  25.594  1.00  0.00    -0.260 N 
ATOM     20  H   UNL A   1      32.587  28.040  26.562  1.00  0.00     0.192 HD
BRANCH  19  21
ATOM     21  C   UNL A   1      31.307  27.825  24.943  1.00  0.00     0.164 A 
ATOM     22  C   UNL A   1      29.354  28.493  23.623  1.00  0.00     0.001 A 
ATOM     23  C   UNL A   1      29.086  27.146  23.425  1.00  0.00     0.031 A 
ATOM     24  C   UNL A   1      30.456  28.834  24.434  1.00  0.00     0.102 A 
ATOM     25  C   UNL A   1      29.958  26.204  23.920  1.00  0.00     0.040 A 
ATOM     26  C   UNL A   1      29.802  24.803  23.411  1.00  0.00     0.067 C 
ATOM     27  N   UNL A   1      31.036  26.522  24.681  1.00  0.00    -0.233 NA
BRANCH  22  28
ATOM     28  C   UNL A   1      28.494  29.525  22.924  1.00  0.00     0.196 C 
BRANCH  28  29
ATOM     29  O   UNL A   1      28.866  29.708  21.551  1.00  0.00    -0.380 OA
ATOM     30  C   UNL A   1      28.355  30.909  20.971  1.00  0.00     0.195 C 
ENDBRANCH  28  29
ENDBRANCH  22  28
BRANCH  24  31
ATOM     31  C   UNL A   1      30.675  30.205  24.785  1.00  0.00     0.103 C 
ATOM     32  N   UNL A   1      30.815  31.311  25.098  1.00  0.00    -0.192 NA
ENDBRANCH  24  31
ENDBRANCH  19  21
ENDBRANCH  18  19
ENDBRANCH  13  17
ENDBRANCH   7  12
ENDBRANCH   3   6
ENDBRANCH   1   2
BRANCH   1  33
ATOM     33  C   UNL A   1      37.352  21.258  24.503  1.00  0.00     0.023 C 
BRANCH  33  34
ATOM     34  C   UNL A   1      38.084  20.020  24.997  1.00  0.00     0.023 C 
BRANCH  34  35
ATOM     35  C   UNL A   1      39.229  20.312  25.949  1.00  0.00     0.116 C 
BRANCH  35  36
ATOM     36  N   UNL A   1      40.222  19.248  26.006  1.00  0.00    -0.352 N 
ATOM     37  C   UNL A   1      41.584  19.380  26.130  1.00  0.00     0.251 C 
ATOM     38  H   UNL A   1      39.878  18.327  25.948  1.00  0.00     0.163 HD
ATOM     39  O   UNL A   1      42.315  18.400  26.034  1.00  0.00    -0.269 OA
BRANCH  37  40
ATOM     40  C   UNL A   1      42.145  20.728  26.341  1.00  0.00     0.039 A 
ATOM     41  C   UNL A   1      42.357  21.550  25.235  1.00  0.00     0.014 A 
ATOM     42  C   UNL A   1      42.388  21.200  27.635  1.00  0.00     0.014 A 
ATOM     43  C   UNL A   1      42.770  22.866  25.437  1.00  0.00     0.010 A 
ATOM     44  C   UNL A   1      42.693  22.540  27.835  1.00  0.00     0.010 A 
ATOM     45  C   UNL A   1      42.904  23.384  26.739  1.00  0.00    -0.014 A 
BRANCH  45  46
ATOM     46  C   UNL A   1      43.265  24.810  26.943  1.00  0.00     0.031 A 
ATOM     47  C   UNL A   1      42.292  25.762  27.589  1.00  0.00     0.074 A 
ATOM     48  C   UNL A   1      44.473  25.249  26.536  1.00  0.00     0.049 A 
ATOM     49  N   UNL A   1      42.465  27.018  27.909  1.00  0.00    -0.248 NA
ATOM     50  C   UNL A   1      40.947  25.249  27.901  1.00  0.00     0.031 C 
ATOM     51  C   UNL A   1      45.467  24.446  25.815  1.00  0.00     0.029 A 
ATOM     52  N   UNL A   1      45.075  26.473  26.672  1.00  0.00    -0.354 N 
ATOM     53  C   UNL A   1      41.259  27.443  28.456  1.00  0.00     0.074 A 
ATOM     54  C   UNL A   1      40.339  26.332  28.365  1.00  0.00     0.031 C 
ATOM     55  C   UNL A   1      46.566  25.188  25.609  1.00  0.00     0.029 A 
ATOM     56  C   UNL A   1      46.344  26.526  26.144  1.00  0.00     0.049 A 
ATOM     57  H   UNL A   1      44.640  27.243  27.106  1.00  0.00     0.167 HD
ATOM     58  C   UNL A   1      40.956  28.634  29.023  1.00  0.00     0.034 A 
ATOM     59  C   UNL A   1      47.228  27.541  26.096  1.00  0.00     0.034 A 
ATOM     60  C   UNL A   1      41.875  29.734  29.123  1.00  0.00     0.049 A 
ATOM     61  C   UNL A   1      46.858  28.853  26.734  1.00  0.00     0.074 A 
ATOM     62  C   UNL A   1      41.677  30.969  29.716  1.00  0.00     0.029 A 
ATOM     63  N   UNL A   1      43.164  29.737  28.614  1.00  0.00    -0.354 N 
ATOM     64  N   UNL A   1      45.761  29.184  27.372  1.00  0.00    -0.248 NA
ATOM     65  C   UNL A   1      47.867  29.919  26.682  1.00  0.00     0.031 C 
ATOM     66  C   UNL A   1      42.835  31.731  29.534  1.00  0.00     0.029 A 
ATOM     67  C   UNL A   1      43.772  30.953  28.875  1.00  0.00     0.049 A 
ATOM     68  H   UNL A   1      43.585  28.986  28.137  1.00  0.00     0.167 HD
ATOM     69  C   UNL A   1      45.969  30.479  27.835  1.00  0.00     0.074 A 
ATOM     70  C   UNL A   1      47.310  30.854  27.436  1.00  0.00     0.031 C 
ATOM     71  C   UNL A   1      45.123  31.294  28.513  1.00  0.00     0.034 A 
BRANCH  58  72
ATOM     72  C   UNL A   1      39.588  28.790  29.638  1.00  0.00     0.023 A 
ATOM     73  C   UNL A   1      39.360  28.318  30.948  1.00  0.00     0.012 A 
ATOM     74  C   UNL A   1      38.558  29.471  28.962  1.00  0.00     0.148 A 
ATOM     75  C   UNL A   1      38.123  28.498  31.564  1.00  0.00     0.002 A 
ATOM     76  C   UNL A   1      37.343  29.689  29.600  1.00  0.00     0.091 A 
ATOM     77  F   UNL A   1      38.789  29.899  27.712  1.00  0.00    -0.205 F 
ATOM     78  C   UNL A   1      37.120  29.193  30.896  1.00  0.00     0.022 A 
BRANCH  76  79
ATOM     79  S   UNL A   1      36.010  30.639  28.861  1.00  0.00     0.127 S 
ATOM     80  O   UNL A   1      35.238  29.592  28.193  1.00  0.00    -0.237 OA
ATOM     81  O   UNL A   1      35.362  31.219  30.036  1.00  0.00    -0.237 OA
ATOM     82  O   UNL A   1      36.644  31.601  27.971  1.00  0.00    -0.744 OA
ENDBRANCH  76  79
ENDBRANCH  58  72
BRANCH  59  83
ATOM     83  C   UNL A   1      48.562  27.364  25.450  1.00  0.00     0.023 A 
ATOM     84  C   UNL A   1      48.708  27.584  24.065  1.00  0.00     0.012 A 
ATOM     85  C   UNL A   1      49.674  26.929  26.195  1.00  0.00     0.148 A 
ATOM     86  C   UNL A   1      49.917  27.307  23.424  1.00  0.00     0.002 A 
ATOM     87  C   UNL A   1      50.893  26.720  25.562  1.00  0.00     0.091 A 
ATOM     88  F   UNL A   1      49.516  26.719  27.509  1.00  0.00    -0.205 F 
ATOM     89  C   UNL A   1      51.009  26.880  24.173  1.00  0.00     0.022 A 
BRANCH  87  90
ATOM     90  S   UNL A   1      52.381  26.296  26.471  1.00  0.00     0.127 S 
ATOM     91  O   UNL A   1      52.412  27.334  27.497  1.00  0.00    -0.237 OA
ATOM     92  O   UNL A   1      52.062  24.954  26.959  1.00  0.00    -0.237 OA
ATOM     93  O   UNL A   1      53.461  26.336  25.495  1.00  0.00    -0.744 OA
ENDBRANCH  87  90
ENDBRANCH  59  83
BRANCH  71  94
ATOM     94  C   UNL A   1      45.649  32.647  28.920  1.00  0.00     0.023 A 
ATOM     95  C   UNL A   1      46.288  32.818  30.166  1.00  0.00     0.012 A 
ATOM     96  C   UNL A   1      45.518  33.751  28.055  1.00  0.00     0.148 A 
ATOM     97  C   UNL A   1      46.724  34.078  30.571  1.00  0.00     0.002 A 
ATOM     98  C   UNL A   1      46.013  34.990  28.440  1.00  0.00     0.091 A 
ATOM     99  F   UNL A   1      44.899  33.575  26.879  1.00  0.00    -0.205 F 
ATOM    100  C   UNL A   1      46.595  35.161  29.705  1.00  0.00     0.022 A 
BRANCH  98 101
ATOM    101  S   UNL A   1      45.985  36.417  27.350  1.00  0.00     0.127 S 
ATOM    102  O   UNL A   1      44.560  36.746  27.329  1.00  0.00    -0.237 OA
ATOM    103  O   UNL A   1      46.822  37.375  28.076  1.00  0.00    -0.237 OA
ATOM    104  O   UNL A   1      46.542  35.968  26.082  1.00  0.00    -0.744 OA
ENDBRANCH  98 101
ENDBRANCH  71  94
ENDBRANCH  45  46
ENDBRANCH  37  40
ENDBRANCH  35  36
ENDBRANCH  34  35
ENDBRANCH  33  34
ENDBRANCH   1  33
TORSDOF 21
ENDMDL
MODEL 2
REMARK VINA RESULT:     -11.1      1.938      2.521
REMARK SMILES COCc1cc(C)nc(N/N=C\c2ccc(-c3cccc(C(=O)NCCCCNC(=O)c4ccc(-c5c6nc(c(-c7cccc(S(=O)(=O)[O-])c7F)c7ccc([nH]7)c(-c7cccc(S(=O)(=O)[O-])c7F)c7nc(c(-c8cccc(S(=O)(=O)[O-])c8F)c8ccc5[nH]8)C=C7)C=C6)cc4)c3)o2)c1C#N
REMARK SMILES IDX 25 1 24 2 22 3 23 4 21 6 17 7 18 8 95 9 19 10 20 11 16 12
REMARK SMILES IDX 13 13 14 14 96 15 15 16 12 17 11 18 10 19 9 21 4 22 5 23
REMARK SMILES IDX 97 24 6 25 7 26 8 27 3 28 2 29 1 30 98 31 99 32 26 33 27 34
REMARK SMILES IDX 28 35 29 36 30 37 31 39 32 40 33 41 94 42 34 43 93 44 35 45
REMARK SMILES IDX 36 46 37 47 87 48 38 49 92 50 86 51 88 52 39 53 91 54 85 55
REMARK SMILES IDX 84 56 40 58 72 59 52 60 71 61 53 62 56 63 70 64 89 65 54 66
REMARK SMILES IDX 55 67 69 69 90 70 57 71 41 72 42 73 50 74 43 75 45 76 51 77
REMARK SMILES IDX 44 78 46 79 47 80 48 81 49 82 73 83 74 84 82 85 75 86 77 87
REMARK SMILES IDX 83 88 76 89 78 90 79 91 80 92 81 93 58 94 59 95 67 96 60 97
REMARK SMILES IDX 62 98 68 99 61 100 63 101 64 102 65 103 66 104
REMARK H PARENT 24 5 10 20 29 38 88 57 56 68
REMARK Flexibility Score: inf
ROOT
ATOM      1  C   UNL A   1      38.115  22.365  25.939  1.00  0.00     0.116 C 
ENDROOT
BRANCH   1   2
ATOM      2  N   UNL A   1      37.748  22.552  24.543  1.00  0.00    -0.352 N 
ATOM      3  C   UNL A   1      36.545  22.775  23.907  1.00  0.00     0.251 C 
ATOM      4  O   UNL A   1      36.582  23.081  22.715  1.00  0.00    -0.269 OA
ATOM      5  H   UNL A   1      38.516  22.510  23.928  1.00  0.00     0.163 HD
BRANCH   3   6
ATOM      6  C   UNL A   1      35.213  22.665  24.574  1.00  0.00     0.040 A 
ATOM      7  C   UNL A   1      33.298  23.698  25.721  1.00  0.00     0.018 A 
ATOM      8  C   UNL A   1      32.700  22.446  25.848  1.00  0.00     0.012 A 
ATOM      9  C   UNL A   1      34.562  23.753  25.136  1.00  0.00     0.025 A 
ATOM     10  C   UNL A   1      33.334  21.313  25.315  1.00  0.00     0.002 A 
ATOM     11  C   UNL A   1      34.574  21.426  24.666  1.00  0.00     0.014 A 
BRANCH   7  12
ATOM     12  C   UNL A   1      32.640  24.985  25.954  1.00  0.00     0.134 A 
ATOM     13  C   UNL A   1      32.642  27.114  26.462  1.00  0.00     0.147 A 
ATOM     14  C   UNL A   1      31.352  26.682  26.676  1.00  0.00     0.053 A 
ATOM     15  O   UNL A   1      33.405  26.107  25.933  1.00  0.00    -0.455 OA
ATOM     16  C   UNL A   1      31.353  25.309  26.359  1.00  0.00     0.051 A 
BRANCH  13  17
ATOM     17  C   UNL A   1      33.318  28.335  26.757  1.00  0.00     0.180 C 
ATOM     18  N   UNL A   1      33.821  29.227  25.955  1.00  0.00    -0.178 NA
BRANCH  18  19
ATOM     19  N   UNL A   1      33.760  29.156  24.590  1.00  0.00    -0.260 N 
ATOM     20  H   UNL A   1      34.445  29.655  24.089  1.00  0.00     0.192 HD
BRANCH  19  21
ATOM     21  C   UNL A   1      32.795  28.426  23.817  1.00  0.00     0.164 A 
ATOM     22  C   UNL A   1      30.570  28.360  22.794  1.00  0.00     0.001 A 
ATOM     23  C   UNL A   1      30.971  27.222  22.107  1.00  0.00     0.031 A 
ATOM     24  C   UNL A   1      31.483  28.941  23.697  1.00  0.00     0.102 A 
ATOM     25  C   UNL A   1      32.266  26.775  22.238  1.00  0.00     0.040 A 
ATOM     26  C   UNL A   1      32.734  25.755  21.246  1.00  0.00     0.067 C 
ATOM     27  N   UNL A   1      33.161  27.343  23.087  1.00  0.00    -0.233 NA
BRANCH  22  28
ATOM     28  C   UNL A   1      29.206  28.949  22.506  1.00  0.00     0.196 C 
BRANCH  28  29
ATOM     29  O   UNL A   1      29.219  29.835  21.377  1.00  0.00    -0.380 OA
ATOM     30  C   UNL A   1      28.542  31.071  21.607  1.00  0.00     0.195 C 
ENDBRANCH  28  29
ENDBRANCH  22  28
BRANCH  24  31
ATOM     31  C   UNL A   1      31.055  30.022  24.534  1.00  0.00     0.103 C 
ATOM     32  N   UNL A   1      30.755  30.902  25.223  1.00  0.00    -0.192 NA
ENDBRANCH  24  31
ENDBRANCH  19  21
ENDBRANCH  18  19
ENDBRANCH  13  17
ENDBRANCH   7  12
ENDBRANCH   3   6
ENDBRANCH   1   2
BRANCH   1  33
ATOM     33  C   UNL A   1      39.532  21.789  26.107  1.00  0.00     0.023 C 
BRANCH  33  34
ATOM     34  C   UNL A   1      39.668  20.301  25.825  1.00  0.00     0.023 C 
BRANCH  34  35
ATOM     35  C   UNL A   1      40.543  19.557  26.816  1.00  0.00     0.116 C 
BRANCH  35  36
ATOM     36  N   UNL A   1      41.701  18.920  26.203  1.00  0.00    -0.352 N 
ATOM     37  C   UNL A   1      42.860  19.523  25.777  1.00  0.00     0.251 C 
ATOM     38  H   UNL A   1      41.648  17.945  26.078  1.00  0.00     0.163 HD
ATOM     39  O   UNL A   1      43.703  18.883  25.159  1.00  0.00    -0.269 OA
BRANCH  37  40
ATOM     40  C   UNL A   1      43.046  20.963  26.048  1.00  0.00     0.039 A 
ATOM     41  C   UNL A   1      43.292  21.375  27.356  1.00  0.00     0.014 A 
ATOM     42  C   UNL A   1      43.051  21.886  24.997  1.00  0.00     0.014 A 
ATOM     43  C   UNL A   1      43.590  22.715  27.600  1.00  0.00     0.010 A 
ATOM     44  C   UNL A   1      43.455  23.194  25.230  1.00  0.00     0.010 A 
ATOM     45  C   UNL A   1      43.712  23.628  26.536  1.00  0.00    -0.014 A 
BRANCH  45  46
ATOM     46  C   UNL A   1      44.111  25.035  26.799  1.00  0.00     0.031 A 
ATOM     47  C   UNL A   1      43.116  26.023  27.352  1.00  0.00     0.074 A 
ATOM     48  C   UNL A   1      45.374  25.422  26.530  1.00  0.00     0.049 A 
ATOM     49  N   UNL A   1      43.309  27.266  27.707  1.00  0.00    -0.248 NA
ATOM     50  C   UNL A   1      41.725  25.568  27.510  1.00  0.00     0.031 C 
ATOM     51  C   UNL A   1      46.403  24.583  25.907  1.00  0.00     0.029 A 
ATOM     52  N   UNL A   1      46.010  26.616  26.747  1.00  0.00    -0.354 N 
ATOM     53  C   UNL A   1      42.071  27.739  28.128  1.00  0.00     0.074 A 
ATOM     54  C   UNL A   1      41.119  26.672  27.922  1.00  0.00     0.031 C 
ATOM     55  C   UNL A   1      47.550  25.277  25.831  1.00  0.00     0.029 A 
ATOM     56  C   UNL A   1      47.330  26.617  26.360  1.00  0.00     0.049 A 
ATOM     57  H   UNL A   1      45.565  27.400  27.144  1.00  0.00     0.167 HD
ATOM     58  C   UNL A   1      41.761  28.937  28.677  1.00  0.00     0.034 A 
ATOM     59  C   UNL A   1      48.258  27.593  26.421  1.00  0.00     0.034 A 
ATOM     60  C   UNL A   1      42.712  29.993  28.892  1.00  0.00     0.049 A 
ATOM     61  C   UNL A   1      47.879  28.913  27.036  1.00  0.00     0.074 A 
ATOM     62  C   UNL A   1      42.505  31.229  29.478  1.00  0.00     0.029 A 
ATOM     63  N   UNL A   1      44.046  29.944  28.523  1.00  0.00    -0.354 N 
ATOM     64  N   UNL A   1      46.735  29.287  27.558  1.00  0.00    -0.248 NA
ATOM     65  C   UNL A   1      48.934  29.933  27.108  1.00  0.00     0.031 C 
ATOM     66  C   UNL A   1      43.708  31.941  29.433  1.00  0.00     0.029 A 
ATOM     67  C   UNL A   1      44.676  31.128  28.866  1.00  0.00     0.049 A 
ATOM     68  H   UNL A   1      44.483  29.179  28.082  1.00  0.00     0.167 HD
ATOM     69  C   UNL A   1      46.949  30.566  28.060  1.00  0.00     0.074 A 
ATOM     70  C   UNL A   1      48.340  30.884  27.812  1.00  0.00     0.031 C 
ATOM     71  C   UNL A   1      46.071  31.412  28.656  1.00  0.00     0.034 A 
BRANCH  58  72
ATOM     72  C   UNL A   1      40.343  29.148  29.145  1.00  0.00     0.023 A 
ATOM     73  C   UNL A   1      39.338  29.437  28.198  1.00  0.00     0.012 A 
ATOM     74  C   UNL A   1      39.989  28.981  30.497  1.00  0.00     0.148 A 
ATOM     75  C   UNL A   1      38.009  29.582  28.592  1.00  0.00     0.002 A 
ATOM     76  C   UNL A   1      38.655  29.079  30.875  1.00  0.00     0.091 A 
ATOM     77  F   UNL A   1      40.960  28.722  31.384  1.00  0.00    -0.205 F 
ATOM     78  C   UNL A   1      37.666  29.392  29.927  1.00  0.00     0.022 A 
BRANCH  76  79
ATOM     79  S   UNL A   1      38.093  28.777  32.554  1.00  0.00     0.127 S 
ATOM     80  O   UNL A   1      36.696  29.205  32.479  1.00  0.00    -0.237 OA
ATOM     81  O   UNL A   1      38.282  27.333  32.683  1.00  0.00    -0.237 OA
ATOM     82  O   UNL A   1      38.941  29.587  33.417  1.00  0.00    -0.744 OA
ENDBRANCH  76  79
ENDBRANCH  58  72
BRANCH  59  83
ATOM     83  C   UNL A   1      49.644  27.362  25.919  1.00  0.00     0.023 A 
ATOM     84  C   UNL A   1      50.668  26.999  26.817  1.00  0.00     0.012 A 
ATOM     85  C   UNL A   1      49.961  27.553  24.561  1.00  0.00     0.148 A 
ATOM     86  C   UNL A   1      51.991  26.898  26.385  1.00  0.00     0.002 A 
ATOM     87  C   UNL A   1      51.269  27.384  24.125  1.00  0.00     0.091 A 
ATOM     88  F   UNL A   1      48.977  27.904  23.722  1.00  0.00    -0.205 F 
ATOM     89  C   UNL A   1      52.290  27.085  25.039  1.00  0.00     0.022 A 
BRANCH  87  90
ATOM     90  S   UNL A   1      51.718  27.480  22.389  1.00  0.00     0.127 S 
ATOM     91  O   UNL A   1      53.012  26.805  22.377  1.00  0.00    -0.237 OA
ATOM     92  O   UNL A   1      50.627  26.737  21.756  1.00  0.00    -0.237 OA
ATOM     93  O   UNL A   1      51.739  28.900  22.068  1.00  0.00    -0.744 OA
ENDBRANCH  87  90
ENDBRANCH  59  83
BRANCH  71  94
ATOM     94  C   UNL A   1      46.609  32.735  29.137  1.00  0.00     0.023 A 
ATOM     95  C   UNL A   1      47.147  32.856  30.435  1.00  0.00     0.012 A 
ATOM     96  C   UNL A   1      46.590  33.861  28.290  1.00  0.00     0.148 A 
ATOM     97  C   UNL A   1      47.593  34.090  30.905  1.00  0.00     0.002 A 
ATOM     98  C   UNL A   1      47.095  35.072  28.744  1.00  0.00     0.091 A 
ATOM     99  F   UNL A   1      46.065  33.732  27.063  1.00  0.00    -0.205 F 
ATOM    100  C   UNL A   1      47.575  35.195  30.057  1.00  0.00     0.022 A 
BRANCH  98 101
ATOM    101  S   UNL A   1      47.209  36.522  27.691  1.00  0.00     0.127 S 
ATOM    102  O   UNL A   1      47.811  35.962  26.481  1.00  0.00    -0.237 OA
ATOM    103  O   UNL A   1      45.805  36.912  27.551  1.00  0.00    -0.237 OA
ATOM    104  O   UNL A   1      48.034  37.481  28.412  1.00  0.00    -0.744 OA
ENDBRANCH  98 101
ENDBRANCH  71  94
ENDBRANCH  45  46
ENDBRANCH  37  40
ENDBRANCH  35  36
ENDBRANCH  34  35
ENDBRANCH  33  34
ENDBRANCH   1  33
TORSDOF 21
ENDMDL
MODEL 3
REMARK VINA RESULT:     -11.1      2.040      2.854
REMARK SMILES COCc1cc(C)nc(N/N=C\c2ccc(-c3cccc(C(=O)NCCCCNC(=O)c4ccc(-c5c6nc(c(-c7cccc(S(=O)(=O)[O-])c7F)c7ccc([nH]7)c(-c7cccc(S(=O)(=O)[O-])c7F)c7nc(c(-c8cccc(S(=O)(=O)[O-])c8F)c8ccc5[nH]8)C=C7)C=C6)cc4)c3)o2)c1C#N
REMARK SMILES IDX 25 1 24 2 22 3 23 4 21 6 17 7 18 8 95 9 19 10 20 11 16 12
REMARK SMILES IDX 13 13 14 14 96 15 15 16 12 17 11 18 10 19 9 21 4 22 5 23
REMARK SMILES IDX 97 24 6 25 7 26 8 27 3 28 2 29 1 30 98 31 99 32 26 33 27 34
REMARK SMILES IDX 28 35 29 36 30 37 31 39 32 40 33 41 94 42 34 43 93 44 35 45
REMARK SMILES IDX 36 46 37 47 87 48 38 49 92 50 86 51 88 52 39 53 91 54 85 55
REMARK SMILES IDX 84 56 40 58 72 59 52 60 71 61 53 62 56 63 70 64 89 65 54 66
REMARK SMILES IDX 55 67 69 69 90 70 57 71 41 72 42 73 50 74 43 75 45 76 51 77
REMARK SMILES IDX 44 78 46 79 47 80 48 81 49 82 73 83 74 84 82 85 75 86 77 87
REMARK SMILES IDX 83 88 76 89 78 90 79 91 80 92 81 93 58 94 59 95 67 96 60 97
REMARK SMILES IDX 62 98 68 99 61 100 63 101 64 102 65 103 66 104
REMARK H PARENT 24 5 10 20 29 38 88 57 56 68
REMARK Flexibility Score: inf
ROOT
ATOM      1  C   UNL A   1      37.433  23.179  25.502  1.00  0.00     0.116 C 
ENDROOT
BRANCH   1   2
ATOM      2  N   UNL A   1      36.421  23.232  26.546  1.00  0.00    -0.352 N 
ATOM      3  C   UNL A   1      35.084  22.894  26.581  1.00  0.00     0.251 C 
ATOM      4  O   UNL A   1      34.530  22.880  27.680  1.00  0.00    -0.269 OA
ATOM      5  H   UNL A   1      36.759  23.583  27.402  1.00  0.00     0.163 HD
BRANCH   3   6
ATOM      6  C   UNL A   1      34.277  22.549  25.372  1.00  0.00     0.040 A 
ATOM      7  C   UNL A   1      33.217  23.192  23.247  1.00  0.00     0.018 A 
ATOM      8  C   UNL A   1      32.736  21.893  23.095  1.00  0.00     0.012 A 
ATOM      9  C   UNL A   1      33.925  23.485  24.411  1.00  0.00     0.025 A 
ATOM     10  C   UNL A   1      33.047  20.918  24.056  1.00  0.00     0.002 A 
ATOM     11  C   UNL A   1      33.827  21.240  25.177  1.00  0.00     0.014 A 
BRANCH   7  12
ATOM     12  C   UNL A   1      33.231  24.223  22.208  1.00  0.00     0.134 A 
ATOM     13  C   UNL A   1      33.195  26.301  21.520  1.00  0.00     0.147 A 
ATOM     14  C   UNL A   1      32.819  25.542  20.433  1.00  0.00     0.053 A 
ATOM     15  O   UNL A   1      33.538  25.494  22.574  1.00  0.00    -0.455 OA
ATOM     16  C   UNL A   1      32.831  24.206  20.879  1.00  0.00     0.051 A 
BRANCH  13  17
ATOM     17  C   UNL A   1      33.210  27.706  21.765  1.00  0.00     0.180 C 
ATOM     18  N   UNL A   1      32.401  28.440  22.472  1.00  0.00    -0.178 NA
BRANCH  18  19
ATOM     19  N   UNL A   1      31.335  27.950  23.175  1.00  0.00    -0.260 N 
ATOM     20  H   UNL A   1      30.478  27.889  22.695  1.00  0.00     0.192 HD
BRANCH  19  21
ATOM     21  C   UNL A   1      31.342  27.519  24.545  1.00  0.00     0.164 A 
ATOM     22  C   UNL A   1      31.164  25.672  26.145  1.00  0.00     0.001 A 
ATOM     23  C   UNL A   1      31.613  26.542  27.128  1.00  0.00     0.031 A 
ATOM     24  C   UNL A   1      30.982  26.184  24.844  1.00  0.00     0.102 A 
ATOM     25  C   UNL A   1      31.974  27.824  26.782  1.00  0.00     0.040 A 
ATOM     26  C   UNL A   1      32.745  28.609  27.799  1.00  0.00     0.067 C 
ATOM     27  N   UNL A   1      31.827  28.319  25.526  1.00  0.00    -0.233 NA
BRANCH  22  28
ATOM     28  C   UNL A   1      30.942  24.216  26.497  1.00  0.00     0.196 C 
BRANCH  28  29
ATOM     29  O   UNL A   1      29.735  24.011  27.244  1.00  0.00    -0.380 OA
ATOM     30  C   UNL A   1      29.282  22.658  27.247  1.00  0.00     0.195 C 
ENDBRANCH  28  29
ENDBRANCH  22  28
BRANCH  24  31
ATOM     31  C   UNL A   1      30.378  25.359  23.840  1.00  0.00     0.103 C 
ATOM     32  N   UNL A   1      29.932  24.671  23.023  1.00  0.00    -0.192 NA
ENDBRANCH  24  31
ENDBRANCH  19  21
ENDBRANCH  18  19
ENDBRANCH  13  17
ENDBRANCH   7  12
ENDBRANCH   3   6
ENDBRANCH   1   2
BRANCH   1  33
ATOM     33  C   UNL A   1      37.261  21.965  24.573  1.00  0.00     0.023 C 
BRANCH  33  34
ATOM     34  C   UNL A   1      37.914  20.679  25.054  1.00  0.00     0.023 C 
BRANCH  34  35
ATOM     35  C   UNL A   1      39.089  20.890  25.991  1.00  0.00     0.116 C 
BRANCH  35  36
ATOM     36  N   UNL A   1      39.971  19.735  26.085  1.00  0.00    -0.352 N 
ATOM     37  C   UNL A   1      41.337  19.735  26.237  1.00  0.00     0.251 C 
ATOM     38  H   UNL A   1      39.540  18.851  26.033  1.00  0.00     0.163 HD
ATOM     39  O   UNL A   1      41.969  18.686  26.171  1.00  0.00    -0.269 OA
BRANCH  37  40
ATOM     40  C   UNL A   1      42.024  21.025  26.441  1.00  0.00     0.039 A 
ATOM     41  C   UNL A   1      42.328  21.809  25.330  1.00  0.00     0.014 A 
ATOM     42  C   UNL A   1      42.296  21.486  27.734  1.00  0.00     0.014 A 
ATOM     43  C   UNL A   1      42.864  23.081  25.523  1.00  0.00     0.010 A 
ATOM     44  C   UNL A   1      42.726  22.793  27.923  1.00  0.00     0.010 A 
ATOM     45  C   UNL A   1      43.032  23.600  26.821  1.00  0.00    -0.014 A 
BRANCH  45  46
ATOM     46  C   UNL A   1      43.527  24.987  27.015  1.00  0.00     0.031 A 
ATOM     47  C   UNL A   1      42.625  26.049  27.588  1.00  0.00     0.074 A 
ATOM     48  C   UNL A   1      44.793  25.289  26.664  1.00  0.00     0.049 A 
ATOM     49  N   UNL A   1      42.910  27.289  27.891  1.00  0.00    -0.248 NA
ATOM     50  C   UNL A   1      41.220  25.684  27.838  1.00  0.00     0.031 C 
ATOM     51  C   UNL A   1      45.734  24.371  26.014  1.00  0.00     0.029 A 
ATOM     52  N   UNL A   1      45.509  26.448  26.806  1.00  0.00    -0.354 N 
ATOM     53  C   UNL A   1      41.728  27.848  28.363  1.00  0.00     0.074 A 
ATOM     54  C   UNL A   1      40.705  26.834  28.246  1.00  0.00     0.031 C 
ATOM     55  C   UNL A   1      46.913  24.991  25.852  1.00  0.00     0.029 A 
ATOM     56  C   UNL A   1      46.803  26.358  26.346  1.00  0.00     0.049 A 
ATOM     57  H   UNL A   1      45.135  27.269  27.201  1.00  0.00     0.167 HD
ATOM     58  C   UNL A   1      41.520  29.078  28.889  1.00  0.00     0.034 A 
ATOM     59  C   UNL A   1      47.788  27.277  26.324  1.00  0.00     0.034 A 
ATOM     60  C   UNL A   1      42.542  30.081  29.015  1.00  0.00     0.049 A 
ATOM     61  C   UNL A   1      47.523  28.635  26.915  1.00  0.00     0.074 A 
ATOM     62  C   UNL A   1      42.442  31.344  29.570  1.00  0.00     0.029 A 
ATOM     63  N   UNL A   1      43.848  29.940  28.576  1.00  0.00    -0.354 N 
ATOM     64  N   UNL A   1      46.435  29.093  27.486  1.00  0.00    -0.248 NA
ATOM     65  C   UNL A   1      48.638  29.592  26.894  1.00  0.00     0.031 C 
ATOM     66  C   UNL A   1      43.680  31.980  29.435  1.00  0.00     0.029 A 
ATOM     67  C   UNL A   1      44.564  31.094  28.844  1.00  0.00     0.049 A 
ATOM     68  H   UNL A   1      44.213  29.138  28.137  1.00  0.00     0.167 HD
ATOM     69  C   UNL A   1      46.751  30.371  27.932  1.00  0.00     0.074 A 
ATOM     70  C   UNL A   1      48.142  30.597  27.598  1.00  0.00     0.031 C 
ATOM     71  C   UNL A   1      45.960  31.286  28.547  1.00  0.00     0.034 A 
BRANCH  58  72
ATOM     72  C   UNL A   1      40.146  29.389  29.426  1.00  0.00     0.023 A 
ATOM     73  C   UNL A   1      39.093  29.647  28.524  1.00  0.00     0.012 A 
ATOM     74  C   UNL A   1      39.877  29.344  30.807  1.00  0.00     0.148 A 
ATOM     75  C   UNL A   1      37.800  29.882  28.989  1.00  0.00     0.002 A 
ATOM     76  C   UNL A   1      38.576  29.531  31.260  1.00  0.00     0.091 A 
ATOM     77  F   UNL A   1      40.894  29.112  31.650  1.00  0.00    -0.205 F 
ATOM     78  C   UNL A   1      37.539  29.812  30.354  1.00  0.00     0.022 A 
BRANCH  76  79
ATOM     79  S   UNL A   1      38.116  29.386  32.990  1.00  0.00     0.127 S 
ATOM     80  O   UNL A   1      37.266  30.564  33.168  1.00  0.00    -0.237 OA
ATOM     81  O   UNL A   1      37.402  28.110  33.009  1.00  0.00    -0.237 OA
ATOM     82  O   UNL A   1      39.361  29.405  33.743  1.00  0.00    -0.744 OA
ENDBRANCH  76  79
ENDBRANCH  58  72
BRANCH  59  83
ATOM     83  C   UNL A   1      49.127  26.949  25.754  1.00  0.00     0.023 A 
ATOM     84  C   UNL A   1      50.088  26.288  26.547  1.00  0.00     0.012 A 
ATOM     85  C   UNL A   1      49.470  27.334  24.445  1.00  0.00     0.148 A 
ATOM     86  C   UNL A   1      51.384  26.081  26.070  1.00  0.00     0.002 A 
ATOM     87  C   UNL A   1      50.740  27.065  23.952  1.00  0.00     0.091 A 
ATOM     88  F   UNL A   1      48.547  27.967  23.707  1.00  0.00    -0.205 F 
ATOM     89  C   UNL A   1      51.708  26.465  24.773  1.00  0.00     0.022 A 
BRANCH  87  90
ATOM     90  S   UNL A   1      51.199  27.408  22.252  1.00  0.00     0.127 S 
ATOM     91  O   UNL A   1      50.166  26.690  21.512  1.00  0.00    -0.237 OA
ATOM     92  O   UNL A   1      51.094  28.867  22.202  1.00  0.00    -0.237 OA
ATOM     93  O   UNL A   1      52.557  26.901  22.102  1.00  0.00    -0.744 OA
ENDBRANCH  87  90
ENDBRANCH  59  83
BRANCH  71  94
ATOM     94  C   UNL A   1      46.601  32.588  28.954  1.00  0.00     0.023 A 
ATOM     95  C   UNL A   1      47.192  32.725  30.227  1.00  0.00     0.012 A 
ATOM     96  C   UNL A   1      46.627  33.678  28.061  1.00  0.00     0.148 A 
ATOM     97  C   UNL A   1      47.735  33.944  30.629  1.00  0.00     0.002 A 
ATOM     98  C   UNL A   1      47.226  34.870  28.446  1.00  0.00     0.091 A 
ATOM     99  F   UNL A   1      46.050  33.536  26.859  1.00  0.00    -0.205 F 
ATOM    100  C   UNL A   1      47.760  35.012  29.737  1.00  0.00     0.022 A 
BRANCH  98 101
ATOM    101  S   UNL A   1      47.398  36.265  27.329  1.00  0.00     0.127 S 
ATOM    102  O   UNL A   1      46.001  36.581  27.032  1.00  0.00    -0.237 OA
ATOM    103  O   UNL A   1      48.081  37.250  28.169  1.00  0.00    -0.237 OA
ATOM    104  O   UNL A   1      48.182  35.784  26.201  1.00  0.00    -0.744 OA
ENDBRANCH  98 101
ENDBRANCH  71  94
ENDBRANCH  45  46
ENDBRANCH  37  40
ENDBRANCH  35  36
ENDBRANCH  34  35
ENDBRANCH  33  34
ENDBRANCH   1  33
TORSDOF 21
ENDMDL
