MODEL 1
REMARK VINA RESULT:     -11.4      0.000      0.000
REMARK SMILES COc1c(C(=O)NCCCCNC(=O)c2ccc(-c3c4nc(c(-c5cccc(S(=O)(=O)[O-])c5F)c5ccc([nH]5)c(-c5cccc(S(=O)(=O)[O-])c5F)c5nc(c(-c6cccc(S(=O)(=O)[O-])c6F)c6ccc3[nH]6)C=C5)C=C4)cc2)ccc(F)c1F
REMARK SMILES IDX 10 1 9 2 8 3 7 4 5 5 6 6 4 8 3 9 82 10 78 11 80 12 83 13
REMARK SMILES IDX 79 14 81 15 2 16 1 17 11 18 12 19 13 20 14 22 15 23 16 24
REMARK SMILES IDX 77 25 17 26 76 27 18 28 19 29 20 30 70 31 21 32 75 33 69 34
REMARK SMILES IDX 71 35 22 36 74 37 68 38 67 39 23 41 55 42 35 43 54 44 36 45
REMARK SMILES IDX 39 46 53 47 72 48 37 49 38 50 52 52 73 53 40 54 24 55 25 56
REMARK SMILES IDX 33 57 26 58 28 59 34 60 27 61 29 62 30 63 31 64 32 65 56 66
REMARK SMILES IDX 57 67 65 68 58 69 60 70 66 71 59 72 61 73 62 74 63 75 64 76
REMARK SMILES IDX 41 77 42 78 50 79 43 80 45 81 51 82 44 83 46 84 47 85 48 86
REMARK SMILES IDX 49 87
REMARK H PARENT 7 7 12 21 71 40 39 51
REMARK Flexibility Score: inf
ROOT
ATOM      1  C   UNL A   1      31.714  29.073  24.761  1.00  0.00     0.023 C 
ENDROOT
BRANCH   1   2
ATOM      2  C   UNL A   1      31.188  27.757  25.353  1.00  0.00     0.023 C 
BRANCH   2   3
ATOM      3  C   UNL A   1      31.969  27.256  26.569  1.00  0.00     0.116 C 
BRANCH   3   4
ATOM      4  N   UNL A   1      31.533  25.930  26.951  1.00  0.00    -0.352 N 
ATOM      5  C   UNL A   1      31.870  24.651  26.596  1.00  0.00     0.255 C 
ATOM      6  O   UNL A   1      31.248  23.781  27.205  1.00  0.00    -0.269 OA
ATOM      7  H   UNL A   1      30.821  25.953  27.630  1.00  0.00     0.163 HD
BRANCH   5   8
ATOM      8  C   UNL A   1      32.920  24.275  25.585  1.00  0.00     0.085 A 
ATOM      9  C   UNL A   1      32.543  23.653  24.372  1.00  0.00     0.170 A 
ATOM     10  C   UNL A   1      33.511  23.161  23.485  1.00  0.00     0.201 A 
ATOM     11  C   UNL A   1      34.293  24.510  25.776  1.00  0.00     0.021 A 
ATOM     12  C   UNL A   1      34.858  23.332  23.751  1.00  0.00     0.162 A 
ATOM     13  F   UNL A   1      33.137  22.540  22.356  1.00  0.00    -0.200 F 
ATOM     14  C   UNL A   1      35.257  24.024  24.881  1.00  0.00     0.043 A 
ATOM     15  F   UNL A   1      35.785  22.859  22.905  1.00  0.00    -0.204 F 
BRANCH   9  16
ATOM     16  O   UNL A   1      31.236  23.459  23.996  1.00  0.00    -0.493 OA
ATOM     17  C   UNL A   1      30.752  24.586  23.254  1.00  0.00     0.278 C 
ENDBRANCH   9  16
ENDBRANCH   5   8
ENDBRANCH   3   4
ENDBRANCH   2   3
ENDBRANCH   1   2
BRANCH   1  18
ATOM     18  C   UNL A   1      32.843  29.740  25.543  1.00  0.00     0.116 C 
BRANCH  18  19
ATOM     19  N   UNL A   1      32.473  31.037  26.090  1.00  0.00    -0.352 N 
ATOM     20  C   UNL A   1      33.104  31.772  27.064  1.00  0.00     0.251 C 
ATOM     21  H   UNL A   1      31.661  31.443  25.709  1.00  0.00     0.163 HD
ATOM     22  O   UNL A   1      32.596  32.806  27.476  1.00  0.00    -0.269 OA
BRANCH  20  23
ATOM     23  C   UNL A   1      34.377  31.283  27.636  1.00  0.00     0.039 A 
ATOM     24  C   UNL A   1      35.403  32.202  27.866  1.00  0.00     0.014 A 
ATOM     25  C   UNL A   1      34.547  29.935  27.965  1.00  0.00     0.014 A 
ATOM     26  C   UNL A   1      36.579  31.779  28.489  1.00  0.00     0.010 A 
ATOM     27  C   UNL A   1      35.692  29.530  28.644  1.00  0.00     0.010 A 
ATOM     28  C   UNL A   1      36.718  30.448  28.916  1.00  0.00    -0.014 A 
BRANCH  28  29
ATOM     29  C   UNL A   1      37.917  30.011  29.674  1.00  0.00     0.031 A 
ATOM     30  C   UNL A   1      38.183  30.540  31.057  1.00  0.00     0.074 A 
ATOM     31  C   UNL A   1      38.809  29.191  29.081  1.00  0.00     0.049 A 
ATOM     32  N   UNL A   1      39.187  30.288  31.856  1.00  0.00    -0.248 NA
ATOM     33  C   UNL A   1      37.207  31.496  31.606  1.00  0.00     0.031 C 
ATOM     34  C   UNL A   1      38.710  28.682  27.711  1.00  0.00     0.029 A 
ATOM     35  N   UNL A   1      39.988  28.662  29.544  1.00  0.00    -0.354 N 
ATOM     36  C   UNL A   1      38.981  31.069  32.986  1.00  0.00     0.074 A 
ATOM     37  C   UNL A   1      37.774  31.833  32.756  1.00  0.00     0.031 C 
ATOM     38  C   UNL A   1      39.776  27.909  27.449  1.00  0.00     0.029 A 
ATOM     39  C   UNL A   1      40.648  27.887  28.619  1.00  0.00     0.049 A 
ATOM     40  H   UNL A   1      40.329  28.822  30.454  1.00  0.00     0.167 HD
ATOM     41  C   UNL A   1      39.710  31.121  34.126  1.00  0.00     0.034 A 
ATOM     42  C   UNL A   1      41.822  27.232  28.704  1.00  0.00     0.034 A 
ATOM     43  C   UNL A   1      40.885  30.328  34.368  1.00  0.00     0.049 A 
ATOM     44  C   UNL A   1      42.586  27.271  30.001  1.00  0.00     0.074 A 
ATOM     45  C   UNL A   1      41.646  30.246  35.521  1.00  0.00     0.029 A 
ATOM     46  N   UNL A   1      41.474  29.482  33.440  1.00  0.00    -0.354 N 
ATOM     47  N   UNL A   1      42.282  27.883  31.119  1.00  0.00    -0.248 NA
ATOM     48  C   UNL A   1      43.833  26.497  30.059  1.00  0.00     0.031 C 
ATOM     49  C   UNL A   1      42.705  29.363  35.284  1.00  0.00     0.029 A 
ATOM     50  C   UNL A   1      42.591  28.877  33.992  1.00  0.00     0.049 A 
ATOM     51  H   UNL A   1      41.146  29.333  32.524  1.00  0.00     0.167 HD
ATOM     52  C   UNL A   1      43.280  27.539  32.024  1.00  0.00     0.074 A 
ATOM     53  C   UNL A   1      44.182  26.643  31.330  1.00  0.00     0.031 C 
ATOM     54  C   UNL A   1      43.447  27.944  33.307  1.00  0.00     0.034 A 
BRANCH  41  55
ATOM     55  C   UNL A   1      39.220  32.018  35.233  1.00  0.00     0.023 A 
ATOM     56  C   UNL A   1      38.263  31.527  36.145  1.00  0.00     0.012 A 
ATOM     57  C   UNL A   1      39.754  33.308  35.418  1.00  0.00     0.148 A 
ATOM     58  C   UNL A   1      37.824  32.316  37.207  1.00  0.00     0.002 A 
ATOM     59  C   UNL A   1      39.342  34.072  36.504  1.00  0.00     0.091 A 
ATOM     60  F   UNL A   1      40.649  33.764  34.530  1.00  0.00    -0.205 F 
ATOM     61  C   UNL A   1      38.370  33.582  37.392  1.00  0.00     0.022 A 
BRANCH  59  62
ATOM     62  S   UNL A   1      40.038  35.686  36.878  1.00  0.00     0.127 S 
ATOM     63  O   UNL A   1      39.676  36.447  35.684  1.00  0.00    -0.237 OA
ATOM     64  O   UNL A   1      39.305  36.063  38.087  1.00  0.00    -0.237 OA
ATOM     65  O   UNL A   1      41.466  35.474  37.072  1.00  0.00    -0.744 OA
ENDBRANCH  59  62
ENDBRANCH  41  55
BRANCH  42  66
ATOM     66  C   UNL A   1      42.315  26.422  27.553  1.00  0.00     0.023 A 
ATOM     67  C   UNL A   1      43.155  27.021  26.595  1.00  0.00     0.012 A 
ATOM     68  C   UNL A   1      41.968  25.064  27.407  1.00  0.00     0.148 A 
ATOM     69  C   UNL A   1      43.608  26.298  25.492  1.00  0.00     0.002 A 
ATOM     70  C   UNL A   1      42.469  24.334  26.335  1.00  0.00     0.091 A 
ATOM     71  F   UNL A   1      41.156  24.513  28.320  1.00  0.00    -0.205 F 
ATOM     72  C   UNL A   1      43.273  24.953  25.367  1.00  0.00     0.022 A 
BRANCH  70  73
ATOM     73  S   UNL A   1      42.197  22.565  26.174  1.00  0.00     0.127 S 
ATOM     74  O   UNL A   1      40.740  22.490  26.120  1.00  0.00    -0.237 OA
ATOM     75  O   UNL A   1      42.878  22.265  24.914  1.00  0.00    -0.237 OA
ATOM     76  O   UNL A   1      42.826  21.969  27.346  1.00  0.00    -0.744 OA
ENDBRANCH  70  73
ENDBRANCH  42  66
BRANCH  54  77
ATOM     77  C   UNL A   1      44.631  27.397  34.061  1.00  0.00     0.023 A 
ATOM     78  C   UNL A   1      45.857  28.091  34.035  1.00  0.00     0.012 A 
ATOM     79  C   UNL A   1      44.512  26.232  34.844  1.00  0.00     0.148 A 
ATOM     80  C   UNL A   1      46.957  27.614  34.746  1.00  0.00     0.002 A 
ATOM     81  C   UNL A   1      45.598  25.790  35.590  1.00  0.00     0.091 A 
ATOM     82  F   UNL A   1      43.342  25.575  34.840  1.00  0.00    -0.205 F 
ATOM     83  C   UNL A   1      46.824  26.472  35.533  1.00  0.00     0.022 A 
BRANCH  81  84
ATOM     84  S   UNL A   1      45.489  24.384  36.703  1.00  0.00     0.127 S 
ATOM     85  O   UNL A   1      44.418  24.800  37.605  1.00  0.00    -0.237 OA
ATOM     86  O   UNL A   1      45.132  23.294  35.793  1.00  0.00    -0.237 OA
ATOM     87  O   UNL A   1      46.806  24.252  37.310  1.00  0.00    -0.744 OA
ENDBRANCH  81  84
ENDBRANCH  54  77
ENDBRANCH  28  29
ENDBRANCH  20  23
ENDBRANCH  18  19
ENDBRANCH   1  18
TORSDOF 15
ENDMDL
MODEL 2
REMARK VINA RESULT:     -11.3      2.735      8.361
REMARK SMILES COc1c(C(=O)NCCCCNC(=O)c2ccc(-c3c4nc(c(-c5cccc(S(=O)(=O)[O-])c5F)c5ccc([nH]5)c(-c5cccc(S(=O)(=O)[O-])c5F)c5nc(c(-c6cccc(S(=O)(=O)[O-])c6F)c6ccc3[nH]6)C=C5)C=C4)cc2)ccc(F)c1F
REMARK SMILES IDX 10 1 9 2 8 3 7 4 5 5 6 6 4 8 3 9 82 10 78 11 80 12 83 13
REMARK SMILES IDX 79 14 81 15 2 16 1 17 11 18 12 19 13 20 14 22 15 23 16 24
REMARK SMILES IDX 77 25 17 26 76 27 18 28 19 29 20 30 70 31 21 32 75 33 69 34
REMARK SMILES IDX 71 35 22 36 74 37 68 38 67 39 23 41 55 42 35 43 54 44 36 45
REMARK SMILES IDX 39 46 53 47 72 48 37 49 38 50 52 52 73 53 40 54 24 55 25 56
REMARK SMILES IDX 33 57 26 58 28 59 34 60 27 61 29 62 30 63 31 64 32 65 56 66
REMARK SMILES IDX 57 67 65 68 58 69 60 70 66 71 59 72 61 73 62 74 63 75 64 76
REMARK SMILES IDX 41 77 42 78 50 79 43 80 45 81 51 82 44 83 46 84 47 85 48 86
REMARK SMILES IDX 49 87
REMARK H PARENT 7 7 12 21 71 40 39 51
REMARK Flexibility Score: inf
ROOT
ATOM      1  C   UNL A   1      31.664  31.622  26.886  1.00  0.00     0.023 C 
ENDROOT
BRANCH   1   2
ATOM      2  C   UNL A   1      31.923  30.559  25.809  1.00  0.00     0.023 C 
BRANCH   2   3
ATOM      3  C   UNL A   1      33.242  29.801  25.975  1.00  0.00     0.116 C 
BRANCH   3   4
ATOM      4  N   UNL A   1      33.623  29.154  24.739  1.00  0.00    -0.352 N 
ATOM      5  C   UNL A   1      33.525  27.885  24.230  1.00  0.00     0.255 C 
ATOM      6  O   UNL A   1      33.968  27.768  23.088  1.00  0.00    -0.269 OA
ATOM      7  H   UNL A   1      34.058  29.774  24.111  1.00  0.00     0.163 HD
BRANCH   5   8
ATOM      8  C   UNL A   1      32.913  26.707  24.939  1.00  0.00     0.085 A 
ATOM      9  C   UNL A   1      31.512  26.643  25.123  1.00  0.00     0.170 A 
ATOM     10  C   UNL A   1      30.936  25.633  25.907  1.00  0.00     0.201 A 
ATOM     11  C   UNL A   1      33.668  25.634  25.445  1.00  0.00     0.021 A 
ATOM     12  C   UNL A   1      31.723  24.641  26.465  1.00  0.00     0.162 A 
ATOM     13  F   UNL A   1      29.608  25.607  26.104  1.00  0.00    -0.200 F 
ATOM     14  C   UNL A   1      33.085  24.621  26.221  1.00  0.00     0.043 A 
ATOM     15  F   UNL A   1      31.174  23.677  27.218  1.00  0.00    -0.204 F 
BRANCH   9  16
ATOM     16  O   UNL A   1      30.637  27.557  24.591  1.00  0.00    -0.493 OA
ATOM     17  C   UNL A   1      30.192  27.135  23.295  1.00  0.00     0.278 C 
ENDBRANCH   9  16
ENDBRANCH   5   8
ENDBRANCH   3   4
ENDBRANCH   2   3
ENDBRANCH   1   2
BRANCH   1  18
ATOM     18  C   UNL A   1      32.879  32.451  27.298  1.00  0.00     0.116 C 
BRANCH  18  19
ATOM     19  N   UNL A   1      32.555  33.839  27.588  1.00  0.00    -0.352 N 
ATOM     20  C   UNL A   1      33.119  34.679  28.518  1.00  0.00     0.251 C 
ATOM     21  H   UNL A   1      31.835  34.230  27.042  1.00  0.00     0.163 HD
ATOM     22  O   UNL A   1      32.652  35.796  28.696  1.00  0.00    -0.269 OA
BRANCH  20  23
ATOM     23  C   UNL A   1      34.263  34.206  29.326  1.00  0.00     0.039 A 
ATOM     24  C   UNL A   1      34.004  33.476  30.488  1.00  0.00     0.014 A 
ATOM     25  C   UNL A   1      35.578  34.458  28.927  1.00  0.00     0.014 A 
ATOM     26  C   UNL A   1      35.069  32.941  31.216  1.00  0.00     0.010 A 
ATOM     27  C   UNL A   1      36.633  33.869  29.618  1.00  0.00     0.010 A 
ATOM     28  C   UNL A   1      36.390  33.103  30.767  1.00  0.00    -0.014 A 
BRANCH  28  29
ATOM     29  C   UNL A   1      37.521  32.450  31.473  1.00  0.00     0.031 A 
ATOM     30  C   UNL A   1      38.262  31.305  30.835  1.00  0.00     0.074 A 
ATOM     31  C   UNL A   1      37.832  32.842  32.725  1.00  0.00     0.049 A 
ATOM     32  N   UNL A   1      39.256  30.603  31.312  1.00  0.00    -0.248 NA
ATOM     33  C   UNL A   1      37.811  30.878  29.501  1.00  0.00     0.031 C 
ATOM     34  C   UNL A   1      37.129  33.880  33.485  1.00  0.00     0.029 A 
ATOM     35  N   UNL A   1      38.801  32.400  33.590  1.00  0.00    -0.354 N 
ATOM     36  C   UNL A   1      39.534  29.636  30.353  1.00  0.00     0.074 A 
ATOM     37  C   UNL A   1      38.579  29.819  29.282  1.00  0.00     0.031 C 
ATOM     38  C   UNL A   1      37.695  33.998  34.697  1.00  0.00     0.029 A 
ATOM     39  C   UNL A   1      38.782  33.031  34.812  1.00  0.00     0.049 A 
ATOM     40  H   UNL A   1      39.449  31.696  33.358  1.00  0.00     0.167 HD
ATOM     41  C   UNL A   1      40.516  28.705  30.347  1.00  0.00     0.034 A 
ATOM     42  C   UNL A   1      39.553  32.853  35.901  1.00  0.00     0.034 A 
ATOM     43  C   UNL A   1      41.490  28.554  31.395  1.00  0.00     0.049 A 
ATOM     44  C   UNL A   1      40.667  31.841  35.848  1.00  0.00     0.074 A 
ATOM     45  C   UNL A   1      42.575  27.696  31.444  1.00  0.00     0.029 A 
ATOM     46  N   UNL A   1      41.498  29.275  32.579  1.00  0.00    -0.354 N 
ATOM     47  N   UNL A   1      41.019  31.054  34.860  1.00  0.00    -0.248 NA
ATOM     48  C   UNL A   1      41.514  31.721  37.043  1.00  0.00     0.031 C 
ATOM     49  C   UNL A   1      43.228  27.887  32.666  1.00  0.00     0.029 A 
ATOM     50  C   UNL A   1      42.564  28.880  33.369  1.00  0.00     0.049 A 
ATOM     51  H   UNL A   1      40.841  29.967  32.823  1.00  0.00     0.167 HD
ATOM     52  C   UNL A   1      42.148  30.373  35.301  1.00  0.00     0.074 A 
ATOM     53  C   UNL A   1      42.436  30.861  36.634  1.00  0.00     0.031 C 
ATOM     54  C   UNL A   1      42.871  29.415  34.670  1.00  0.00     0.034 A 
BRANCH  41  55
ATOM     55  C   UNL A   1      40.633  27.814  29.137  1.00  0.00     0.023 A 
ATOM     56  C   UNL A   1      39.774  26.702  29.015  1.00  0.00     0.012 A 
ATOM     57  C   UNL A   1      41.530  28.113  28.093  1.00  0.00     0.148 A 
ATOM     58  C   UNL A   1      39.824  25.886  27.886  1.00  0.00     0.002 A 
ATOM     59  C   UNL A   1      41.544  27.319  26.952  1.00  0.00     0.091 A 
ATOM     60  F   UNL A   1      42.350  29.164  28.237  1.00  0.00    -0.205 F 
ATOM     61  C   UNL A   1      40.701  26.200  26.852  1.00  0.00     0.022 A 
BRANCH  59  62
ATOM     62  S   UNL A   1      42.580  27.680  25.529  1.00  0.00     0.127 S 
ATOM     63  O   UNL A   1      42.371  26.492  24.704  1.00  0.00    -0.237 OA
ATOM     64  O   UNL A   1      41.967  28.902  25.006  1.00  0.00    -0.237 OA
ATOM     65  O   UNL A   1      43.931  27.850  26.047  1.00  0.00    -0.744 OA
ENDBRANCH  59  62
ENDBRANCH  41  55
BRANCH  42  66
ATOM     66  C   UNL A   1      39.351  33.698  37.113  1.00  0.00     0.023 A 
ATOM     67  C   UNL A   1      39.833  35.021  37.121  1.00  0.00     0.012 A 
ATOM     68  C   UNL A   1      38.676  33.208  38.248  1.00  0.00     0.148 A 
ATOM     69  C   UNL A   1      39.686  35.827  38.250  1.00  0.00     0.002 A 
ATOM     70  C   UNL A   1      38.482  34.035  39.348  1.00  0.00     0.091 A 
ATOM     71  F   UNL A   1      38.235  31.942  38.228  1.00  0.00    -0.205 F 
ATOM     72  C   UNL A   1      39.002  35.338  39.359  1.00  0.00     0.022 A 
BRANCH  70  73
ATOM     73  S   UNL A   1      37.496  33.528  40.762  1.00  0.00     0.127 S 
ATOM     74  O   UNL A   1      37.408  34.770  41.525  1.00  0.00    -0.237 OA
ATOM     75  O   UNL A   1      36.248  33.103  40.128  1.00  0.00    -0.237 OA
ATOM     76  O   UNL A   1      38.245  32.445  41.387  1.00  0.00    -0.744 OA
ENDBRANCH  70  73
ENDBRANCH  42  66
BRANCH  54  77
ATOM     77  C   UNL A   1      44.065  28.850  35.394  1.00  0.00     0.023 A 
ATOM     78  C   UNL A   1      45.335  29.431  35.207  1.00  0.00     0.012 A 
ATOM     79  C   UNL A   1      43.917  27.787  36.306  1.00  0.00     0.148 A 
ATOM     80  C   UNL A   1      46.446  28.938  35.888  1.00  0.00     0.002 A 
ATOM     81  C   UNL A   1      45.021  27.333  37.019  1.00  0.00     0.091 A 
ATOM     82  F   UNL A   1      42.704  27.234  36.456  1.00  0.00    -0.205 F 
ATOM     83  C   UNL A   1      46.287  27.899  36.802  1.00  0.00     0.022 A 
BRANCH  81  84
ATOM     84  S   UNL A   1      44.891  26.064  38.283  1.00  0.00     0.127 S 
ATOM     85  O   UNL A   1      46.290  25.880  38.665  1.00  0.00    -0.237 OA
ATOM     86  O   UNL A   1      44.063  26.718  39.298  1.00  0.00    -0.237 OA
ATOM     87  O   UNL A   1      44.260  24.921  37.639  1.00  0.00    -0.744 OA
ENDBRANCH  81  84
ENDBRANCH  54  77
ENDBRANCH  28  29
ENDBRANCH  20  23
ENDBRANCH  18  19
ENDBRANCH   1  18
TORSDOF 15
ENDMDL
MODEL 3
REMARK VINA RESULT:     -11.2      4.871      9.972
REMARK SMILES COc1c(C(=O)NCCCCNC(=O)c2ccc(-c3c4nc(c(-c5cccc(S(=O)(=O)[O-])c5F)c5ccc([nH]5)c(-c5cccc(S(=O)(=O)[O-])c5F)c5nc(c(-c6cccc(S(=O)(=O)[O-])c6F)c6ccc3[nH]6)C=C5)C=C4)cc2)ccc(F)c1F
REMARK SMILES IDX 10 1 9 2 8 3 7 4 5 5 6 6 4 8 3 9 82 10 78 11 80 12 83 13
REMARK SMILES IDX 79 14 81 15 2 16 1 17 11 18 12 19 13 20 14 22 15 23 16 24
REMARK SMILES IDX 77 25 17 26 76 27 18 28 19 29 20 30 70 31 21 32 75 33 69 34
REMARK SMILES IDX 71 35 22 36 74 37 68 38 67 39 23 41 55 42 35 43 54 44 36 45
REMARK SMILES IDX 39 46 53 47 72 48 37 49 38 50 52 52 73 53 40 54 24 55 25 56
REMARK SMILES IDX 33 57 26 58 28 59 34 60 27 61 29 62 30 63 31 64 32 65 56 66
REMARK SMILES IDX 57 67 65 68 58 69 60 70 66 71 59 72 61 73 62 74 63 75 64 76
REMARK SMILES IDX 41 77 42 78 50 79 43 80 45 81 51 82 44 83 46 84 47 85 48 86
REMARK SMILES IDX 49 87
REMARK H PARENT 7 7 12 21 71 40 39 51
REMARK Flexibility Score: inf
ROOT
ATOM      1  C   UNL A   1      34.986  21.124  25.091  1.00  0.00     0.023 C 
ENDROOT
BRANCH   1   2
ATOM      2  C   UNL A   1      33.853  21.018  26.121  1.00  0.00     0.023 C 
BRANCH   2   3
ATOM      3  C   UNL A   1      33.812  22.163  27.135  1.00  0.00     0.116 C 
BRANCH   3   4
ATOM      4  N   UNL A   1      32.463  22.661  27.296  1.00  0.00    -0.352 N 
ATOM      5  C   UNL A   1      31.779  23.775  26.889  1.00  0.00     0.255 C 
ATOM      6  O   UNL A   1      30.598  23.792  27.234  1.00  0.00    -0.269 OA
ATOM      7  H   UNL A   1      31.901  22.051  27.827  1.00  0.00     0.163 HD
BRANCH   5   8
ATOM      8  C   UNL A   1      32.351  24.897  26.064  1.00  0.00     0.085 A 
ATOM      9  C   UNL A   1      32.740  24.662  24.725  1.00  0.00     0.170 A 
ATOM     10  C   UNL A   1      33.410  25.648  23.987  1.00  0.00     0.201 A 
ATOM     11  C   UNL A   1      32.529  26.202  26.555  1.00  0.00     0.021 A 
ATOM     12  C   UNL A   1      33.649  26.896  24.536  1.00  0.00     0.162 A 
ATOM     13  F   UNL A   1      33.806  25.397  22.729  1.00  0.00    -0.200 F 
ATOM     14  C   UNL A   1      33.192  27.188  25.809  1.00  0.00     0.043 A 
ATOM     15  F   UNL A   1      34.292  27.839  23.834  1.00  0.00    -0.204 F 
BRANCH   9  16
ATOM     16  O   UNL A   1      32.527  23.471  24.073  1.00  0.00    -0.493 OA
ATOM     17  C   UNL A   1      31.262  23.486  23.398  1.00  0.00     0.278 C 
ENDBRANCH   9  16
ENDBRANCH   5   8
ENDBRANCH   3   4
ENDBRANCH   2   3
ENDBRANCH   1   2
BRANCH   1  18
ATOM     18  C   UNL A   1      36.324  21.620  25.634  1.00  0.00     0.116 C 
BRANCH  18  19
ATOM     19  N   UNL A   1      37.378  20.620  25.565  1.00  0.00    -0.352 N 
ATOM     20  C   UNL A   1      38.719  20.762  25.827  1.00  0.00     0.251 C 
ATOM     21  H   UNL A   1      37.091  19.718  25.293  1.00  0.00     0.163 HD
ATOM     22  O   UNL A   1      39.485  19.831  25.621  1.00  0.00    -0.269 OA
BRANCH  20  23
ATOM     23  C   UNL A   1      39.230  22.058  26.322  1.00  0.00     0.039 A 
ATOM     24  C   UNL A   1      40.260  22.054  27.266  1.00  0.00     0.014 A 
ATOM     25  C   UNL A   1      38.717  23.265  25.839  1.00  0.00     0.014 A 
ATOM     26  C   UNL A   1      40.820  23.265  27.678  1.00  0.00     0.010 A 
ATOM     27  C   UNL A   1      39.322  24.465  26.202  1.00  0.00     0.010 A 
ATOM     28  C   UNL A   1      40.380  24.477  27.123  1.00  0.00    -0.014 A 
BRANCH  28  29
ATOM     29  C   UNL A   1      41.040  25.761  27.472  1.00  0.00     0.031 A 
ATOM     30  C   UNL A   1      42.480  26.005  27.109  1.00  0.00     0.074 A 
ATOM     31  C   UNL A   1      40.358  26.679  28.187  1.00  0.00     0.049 A 
ATOM     32  N   UNL A   1      43.223  27.052  27.353  1.00  0.00    -0.248 NA
ATOM     33  C   UNL A   1      43.184  24.922  26.402  1.00  0.00     0.031 C 
ATOM     34  C   UNL A   1      38.986  26.522  28.676  1.00  0.00     0.029 A 
ATOM     35  N   UNL A   1      40.732  27.916  28.648  1.00  0.00    -0.354 N 
ATOM     36  C   UNL A   1      44.485  26.749  26.856  1.00  0.00     0.074 A 
ATOM     37  C   UNL A   1      44.417  25.404  26.329  1.00  0.00     0.031 C 
ATOM     38  C   UNL A   1      38.633  27.621  29.361  1.00  0.00     0.029 A 
ATOM     39  C   UNL A   1      39.757  28.551  29.382  1.00  0.00     0.049 A 
ATOM     40  H   UNL A   1      41.616  28.312  28.471  1.00  0.00     0.167 HD
ATOM     41  C   UNL A   1      45.589  27.531  26.811  1.00  0.00     0.034 A 
ATOM     42  C   UNL A   1      39.767  29.747  30.001  1.00  0.00     0.034 A 
ATOM     43  C   UNL A   1      45.640  28.883  27.298  1.00  0.00     0.049 A 
ATOM     44  C   UNL A   1      40.995  30.613  29.894  1.00  0.00     0.074 A 
ATOM     45  C   UNL A   1      46.686  29.785  27.224  1.00  0.00     0.029 A 
ATOM     46  N   UNL A   1      44.602  29.528  27.954  1.00  0.00    -0.354 N 
ATOM     47  N   UNL A   1      42.122  30.372  29.269  1.00  0.00    -0.248 NA
ATOM     48  C   UNL A   1      40.937  31.931  30.542  1.00  0.00     0.031 C 
ATOM     49  C   UNL A   1      46.286  30.971  27.849  1.00  0.00     0.029 A 
ATOM     50  C   UNL A   1      44.983  30.815  28.294  1.00  0.00     0.049 A 
ATOM     51  H   UNL A   1      43.723  29.129  28.149  1.00  0.00     0.167 HD
ATOM     52  C   UNL A   1      42.892  31.520  29.418  1.00  0.00     0.074 A 
ATOM     53  C   UNL A   1      42.091  32.465  30.168  1.00  0.00     0.031 C 
ATOM     54  C   UNL A   1      44.155  31.764  28.991  1.00  0.00     0.034 A 
BRANCH  41  55
ATOM     55  C   UNL A   1      46.821  26.968  26.151  1.00  0.00     0.023 A 
ATOM     56  C   UNL A   1      46.965  27.077  24.753  1.00  0.00     0.012 A 
ATOM     57  C   UNL A   1      47.864  26.404  26.911  1.00  0.00     0.148 A 
ATOM     58  C   UNL A   1      48.113  26.608  24.117  1.00  0.00     0.002 A 
ATOM     59  C   UNL A   1      49.025  25.977  26.275  1.00  0.00     0.091 A 
ATOM     60  F   UNL A   1      47.701  26.293  28.237  1.00  0.00    -0.205 F 
ATOM     61  C   UNL A   1      49.146  26.068  24.878  1.00  0.00     0.022 A 
BRANCH  59  62
ATOM     62  S   UNL A   1      50.445  25.338  27.169  1.00  0.00     0.127 S 
ATOM     63  O   UNL A   1      51.360  25.015  26.076  1.00  0.00    -0.237 OA
ATOM     64  O   UNL A   1      50.844  26.492  27.976  1.00  0.00    -0.237 OA
ATOM     65  O   UNL A   1      49.961  24.198  27.934  1.00  0.00    -0.744 OA
ENDBRANCH  59  62
ENDBRANCH  41  55
BRANCH  42  66
ATOM     66  C   UNL A   1      38.553  30.233  30.718  1.00  0.00     0.023 A 
ATOM     67  C   UNL A   1      38.391  29.932  32.084  1.00  0.00     0.012 A 
ATOM     68  C   UNL A   1      37.568  30.996  30.062  1.00  0.00     0.148 A 
ATOM     69  C   UNL A   1      37.252  30.346  32.775  1.00  0.00     0.002 A 
ATOM     70  C   UNL A   1      36.462  31.454  30.770  1.00  0.00     0.091 A 
ATOM     71  F   UNL A   1      37.731  31.261  28.759  1.00  0.00    -0.205 F 
ATOM     72  C   UNL A   1      36.293  31.115  32.121  1.00  0.00     0.022 A 
BRANCH  70  73
ATOM     73  S   UNL A   1      35.251  32.561  30.039  1.00  0.00     0.127 S 
ATOM     74  O   UNL A   1      34.360  32.817  31.167  1.00  0.00    -0.237 OA
ATOM     75  O   UNL A   1      36.079  33.698  29.636  1.00  0.00    -0.237 OA
ATOM     76  O   UNL A   1      34.674  31.820  28.924  1.00  0.00    -0.744 OA
ENDBRANCH  70  73
ENDBRANCH  42  66
BRANCH  54  77
ATOM     77  C   UNL A   1      44.744  33.117  29.293  1.00  0.00     0.023 A 
ATOM     78  C   UNL A   1      45.474  33.313  30.482  1.00  0.00     0.012 A 
ATOM     79  C   UNL A   1      44.626  34.176  28.371  1.00  0.00     0.148 A 
ATOM     80  C   UNL A   1      46.047  34.551  30.767  1.00  0.00     0.002 A 
ATOM     81  C   UNL A   1      45.242  35.393  28.638  1.00  0.00     0.091 A 
ATOM     82  F   UNL A   1      43.910  33.977  27.254  1.00  0.00    -0.205 F 
ATOM     83  C   UNL A   1      45.941  35.586  29.840  1.00  0.00     0.022 A 
BRANCH  81  84
ATOM     84  S   UNL A   1      45.237  36.750  27.461  1.00  0.00     0.127 S 
ATOM     85  O   UNL A   1      45.970  37.781  28.192  1.00  0.00    -0.237 OA
ATOM     86  O   UNL A   1      45.960  36.178  26.323  1.00  0.00    -0.237 OA
ATOM     87  O   UNL A   1      43.836  37.044  27.196  1.00  0.00    -0.744 OA
ENDBRANCH  81  84
ENDBRANCH  54  77
ENDBRANCH  28  29
ENDBRANCH  20  23
ENDBRANCH  18  19
ENDBRANCH   1  18
TORSDOF 15
ENDMDL
