MODEL 1
REMARK VINA RESULT:     -12.4      0.000      0.000
REMARK SMILES COc1cc2c(cc1OC)C1=C(C#N)C[N@@H+](CC(=O)NCCCCNC(=O)c3ccc(-c4c5nc(c(-c6cccc(S(=O)(=O)[O-])c6F)c6ccc([nH]6)c(-c6cccc(S(=O)(=O)[O-])c6F)c6nc(c(-c7cccc(S(=O)(=O)[O-])c7F)c7ccc4[nH]7)C=C6)C=C5)cc3)CN1CC2
REMARK SMILES IDX 23 1 22 2 21 3 20 4 18 5 19 6 17 8 16 9 3 10 4 11 8 12 5 13
REMARK SMILES IDX 7 14 6 15 94 16 11 17 93 18 12 19 92 20 15 21 91 22 2 24
REMARK SMILES IDX 1 25 9 26 10 27 13 28 14 29 24 30 25 31 26 32 27 34 28 35
REMARK SMILES IDX 29 36 90 37 30 38 89 39 31 40 32 41 33 42 83 43 34 44 88 45
REMARK SMILES IDX 82 46 84 47 35 48 87 49 81 50 80 51 36 53 68 54 48 55 67 56
REMARK SMILES IDX 49 57 52 58 66 59 85 60 50 61 51 62 65 64 86 65 53 66 37 67
REMARK SMILES IDX 38 68 46 69 39 70 41 71 47 72 40 73 42 74 43 75 44 76 45 77
REMARK SMILES IDX 69 78 70 79 78 80 71 81 73 82 79 83 72 84 74 85 75 86 76 87
REMARK SMILES IDX 77 88 54 89 55 90 63 91 56 92 58 93 64 94 57 95 59 96 60 97
REMARK SMILES IDX 61 98 62 99
REMARK H PARENT 20 7 16 23 25 33 84 52 52 63
REMARK Flexibility Score: inf
ROOT
ATOM      1  C   UNL A   1      36.059  20.960  25.354  1.00  0.00     0.023 C 
ENDROOT
BRANCH   1   2
ATOM      2  C   UNL A   1      35.561  21.752  26.553  1.00  0.00     0.023 C 
BRANCH   2   3
ATOM      3  C   UNL A   1      34.066  21.745  26.812  1.00  0.00     0.116 C 
BRANCH   3   4
ATOM      4  N   UNL A   1      33.536  20.409  26.586  1.00  0.00    -0.351 N 
ATOM      5  C   UNL A   1      32.957  19.889  25.457  1.00  0.00     0.275 C 
ATOM      6  O   UNL A   1      32.433  18.774  25.540  1.00  0.00    -0.269 OA
ATOM      7  H   UNL A   1      33.602  19.792  27.351  1.00  0.00     0.163 HD
BRANCH   5   8
ATOM      8  C   UNL A   1      33.059  20.627  24.113  1.00  0.00     0.365 C 
BRANCH   8   9
ATOM      9  N   UNL A   1      31.872  21.356  23.635  1.00  0.00    -0.306 N 
ATOM     10  C   UNL A   1      31.787  28.396  25.367  1.00  0.00     0.161 A 
ATOM     11  C   UNL A   1      31.812  27.344  26.289  1.00  0.00     0.055 A 
ATOM     12  C   UNL A   1      31.604  28.113  24.013  1.00  0.00     0.161 A 
ATOM     13  C   UNL A   1      31.728  26.005  25.861  1.00  0.00    -0.033 A 
ATOM     14  C   UNL A   1      31.521  26.771  23.599  1.00  0.00     0.061 A 
ATOM     15  C   UNL A   1      31.668  25.695  24.490  1.00  0.00     0.006 A 
ATOM     16  C   UNL A   1      31.672  24.887  26.874  1.00  0.00     0.058 C 
ATOM     17  C   UNL A   1      31.684  24.249  24.072  1.00  0.00     0.068 C 
ATOM     18  C   UNL A   1      30.774  23.759  26.353  1.00  0.00     0.127 C 
ATOM     19  C   UNL A   1      32.163  23.777  22.894  1.00  0.00     0.108 C 
ATOM     20  N   UNL A   1      31.224  23.333  25.027  1.00  0.00    -0.323 N 
ATOM     21  C   UNL A   1      32.089  22.308  22.543  1.00  0.00     0.314 C 
ATOM     22  C   UNL A   1      31.021  21.936  24.669  1.00  0.00     0.390 C 
ATOM     23  H   UNL A   1      31.349  20.578  23.230  1.00  0.00     0.350 HD
BRANCH  10  24
ATOM     24  O   UNL A   1      31.801  29.693  25.810  1.00  0.00    -0.493 OA
ATOM     25  C   UNL A   1      33.091  30.109  26.263  1.00  0.00     0.278 C 
ENDBRANCH  10  24
BRANCH  12  26
ATOM     26  O   UNL A   1      31.460  29.001  22.978  1.00  0.00    -0.493 OA
ATOM     27  C   UNL A   1      30.143  29.426  22.650  1.00  0.00     0.278 C 
ENDBRANCH  12  26
BRANCH  19  28
ATOM     28  C   UNL A   1      32.794  24.705  21.870  1.00  0.00     0.103 C 
ATOM     29  N   UNL A   1      33.317  25.477  21.020  1.00  0.00    -0.192 NA
ENDBRANCH  19  28
ENDBRANCH   8   9
ENDBRANCH   5   8
ENDBRANCH   3   4
ENDBRANCH   2   3
ENDBRANCH   1   2
BRANCH   1  30
ATOM     30  C   UNL A   1      37.435  21.402  24.896  1.00  0.00     0.116 C 
BRANCH  30  31
ATOM     31  N   UNL A   1      38.517  20.445  25.132  1.00  0.00    -0.352 N 
ATOM     32  C   UNL A   1      39.572  20.563  26.021  1.00  0.00     0.251 C 
ATOM     33  H   UNL A   1      38.491  19.619  24.596  1.00  0.00     0.163 HD
ATOM     34  O   UNL A   1      40.404  19.674  26.158  1.00  0.00    -0.269 OA
BRANCH  32  35
ATOM     35  C   UNL A   1      39.729  21.848  26.733  1.00  0.00     0.039 A 
ATOM     36  C   UNL A   1      39.034  22.965  26.285  1.00  0.00     0.014 A 
ATOM     37  C   UNL A   1      40.748  21.976  27.681  1.00  0.00     0.014 A 
ATOM     38  C   UNL A   1      39.564  24.218  26.544  1.00  0.00     0.010 A 
ATOM     39  C   UNL A   1      41.171  23.251  28.066  1.00  0.00     0.010 A 
ATOM     40  C   UNL A   1      40.649  24.385  27.426  1.00  0.00    -0.014 A 
BRANCH  40  41
ATOM     41  C   UNL A   1      41.223  25.749  27.606  1.00  0.00     0.031 A 
ATOM     42  C   UNL A   1      40.553  26.784  28.477  1.00  0.00     0.074 A 
ATOM     43  C   UNL A   1      42.426  26.019  27.058  1.00  0.00     0.049 A 
ATOM     44  N   UNL A   1      40.957  27.998  28.758  1.00  0.00    -0.248 NA
ATOM     45  C   UNL A   1      39.267  26.434  29.105  1.00  0.00     0.031 C 
ATOM     46  C   UNL A   1      43.171  25.109  26.183  1.00  0.00     0.029 A 
ATOM     47  N   UNL A   1      43.262  27.097  27.198  1.00  0.00    -0.354 N 
ATOM     48  C   UNL A   1      39.946  28.578  29.515  1.00  0.00     0.074 A 
ATOM     49  C   UNL A   1      38.914  27.579  29.676  1.00  0.00     0.031 C 
ATOM     50  C   UNL A   1      44.393  25.608  25.966  1.00  0.00     0.029 A 
ATOM     51  C   UNL A   1      44.487  26.918  26.600  1.00  0.00     0.049 A 
ATOM     52  H   UNL A   1      43.010  27.917  27.679  1.00  0.00     0.167 HD
ATOM     53  C   UNL A   1      39.890  29.824  30.040  1.00  0.00     0.034 A 
ATOM     54  C   UNL A   1      45.572  27.714  26.555  1.00  0.00     0.034 A 
ATOM     55  C   UNL A   1      40.959  30.782  29.970  1.00  0.00     0.049 A 
ATOM     56  C   UNL A   1      45.513  29.059  27.209  1.00  0.00     0.074 A 
ATOM     57  C   UNL A   1      41.005  32.057  30.510  1.00  0.00     0.029 A 
ATOM     58  N   UNL A   1      42.178  30.565  29.349  1.00  0.00    -0.354 N 
ATOM     59  N   UNL A   1      44.553  29.574  27.935  1.00  0.00    -0.248 NA
ATOM     60  C   UNL A   1      46.675  29.939  27.027  1.00  0.00     0.031 C 
ATOM     61  C   UNL A   1      42.259  32.606  30.222  1.00  0.00     0.029 A 
ATOM     62  C   UNL A   1      42.987  31.676  29.500  1.00  0.00     0.049 A 
ATOM     63  H   UNL A   1      42.431  29.741  28.872  1.00  0.00     0.167 HD
ATOM     64  C   UNL A   1      44.983  30.846  28.282  1.00  0.00     0.074 A 
ATOM     65  C   UNL A   1      46.310  31.009  27.723  1.00  0.00     0.031 C 
ATOM     66  C   UNL A   1      44.320  31.806  28.971  1.00  0.00     0.034 A 
BRANCH  53  67
ATOM     67  C   UNL A   1      38.647  30.230  30.785  1.00  0.00     0.023 A 
ATOM     68  C   UNL A   1      38.556  29.978  32.168  1.00  0.00     0.012 A 
ATOM     69  C   UNL A   1      37.629  30.966  30.145  1.00  0.00     0.148 A 
ATOM     70  C   UNL A   1      37.468  30.445  32.903  1.00  0.00     0.002 A 
ATOM     71  C   UNL A   1      36.560  31.452  30.889  1.00  0.00     0.091 A 
ATOM     72  F   UNL A   1      37.733  31.182  28.825  1.00  0.00    -0.205 F 
ATOM     73  C   UNL A   1      36.477  31.190  32.266  1.00  0.00     0.022 A 
BRANCH  71  74
ATOM     74  S   UNL A   1      35.262  32.471  30.179  1.00  0.00     0.127 S 
ATOM     75  O   UNL A   1      34.344  32.604  31.309  1.00  0.00    -0.237 OA
ATOM     76  O   UNL A   1      35.986  33.694  29.833  1.00  0.00    -0.237 OA
ATOM     77  O   UNL A   1      34.744  31.726  29.039  1.00  0.00    -0.744 OA
ENDBRANCH  71  74
ENDBRANCH  53  67
BRANCH  54  78
ATOM     78  C   UNL A   1      46.807  27.214  25.892  1.00  0.00     0.023 A 
ATOM     79  C   UNL A   1      47.059  27.569  24.554  1.00  0.00     0.012 A 
ATOM     80  C   UNL A   1      47.786  26.508  26.617  1.00  0.00     0.148 A 
ATOM     81  C   UNL A   1      48.273  27.240  23.953  1.00  0.00     0.002 A 
ATOM     82  C   UNL A   1      49.016  26.237  26.031  1.00  0.00     0.091 A 
ATOM     83  F   UNL A   1      47.514  26.165  27.883  1.00  0.00    -0.205 F 
ATOM     84  C   UNL A   1      49.258  26.593  24.695  1.00  0.00     0.022 A 
BRANCH  82  85
ATOM     85  S   UNL A   1      50.393  25.564  26.968  1.00  0.00     0.127 S 
ATOM     86  O   UNL A   1      51.401  25.382  25.926  1.00  0.00    -0.237 OA
ATOM     87  O   UNL A   1      50.672  26.643  27.916  1.00  0.00    -0.237 OA
ATOM     88  O   UNL A   1      49.887  24.344  27.582  1.00  0.00    -0.744 OA
ENDBRANCH  82  85
ENDBRANCH  54  78
BRANCH  66  89
ATOM     89  C   UNL A   1      45.000  33.131  29.146  1.00  0.00     0.023 A 
ATOM     90  C   UNL A   1      45.806  33.336  30.282  1.00  0.00     0.012 A 
ATOM     91  C   UNL A   1      44.932  34.120  28.149  1.00  0.00     0.148 A 
ATOM     92  C   UNL A   1      46.536  34.515  30.426  1.00  0.00     0.002 A 
ATOM     93  C   UNL A   1      45.682  35.283  28.286  1.00  0.00     0.091 A 
ATOM     94  F   UNL A   1      44.147  33.901  27.084  1.00  0.00    -0.205 F 
ATOM     95  C   UNL A   1      46.481  35.482  29.425  1.00  0.00     0.022 A 
BRANCH  93  96
ATOM     96  S   UNL A   1      45.727  36.559  27.023  1.00  0.00     0.127 S 
ATOM     97  O   UNL A   1      44.327  36.974  26.971  1.00  0.00    -0.237 OA
ATOM     98  O   UNL A   1      46.635  37.544  27.612  1.00  0.00    -0.237 OA
ATOM     99  O   UNL A   1      46.229  35.915  25.817  1.00  0.00    -0.744 OA
ENDBRANCH  93  96
ENDBRANCH  66  89
ENDBRANCH  40  41
ENDBRANCH  32  35
ENDBRANCH  30  31
ENDBRANCH   1  30
TORSDOF 18
ENDMDL
MODEL 2
REMARK VINA RESULT:     -12.3      4.923      8.288
REMARK SMILES COc1cc2c(cc1OC)C1=C(C#N)C[N@@H+](CC(=O)NCCCCNC(=O)c3ccc(-c4c5nc(c(-c6cccc(S(=O)(=O)[O-])c6F)c6ccc([nH]6)c(-c6cccc(S(=O)(=O)[O-])c6F)c6nc(c(-c7cccc(S(=O)(=O)[O-])c7F)c7ccc4[nH]7)C=C6)C=C5)cc3)CN1CC2
REMARK SMILES IDX 23 1 22 2 21 3 20 4 18 5 19 6 17 8 16 9 3 10 4 11 8 12 5 13
REMARK SMILES IDX 7 14 6 15 94 16 11 17 93 18 12 19 92 20 15 21 91 22 2 24
REMARK SMILES IDX 1 25 9 26 10 27 13 28 14 29 24 30 25 31 26 32 27 34 28 35
REMARK SMILES IDX 29 36 90 37 30 38 89 39 31 40 32 41 33 42 83 43 34 44 88 45
REMARK SMILES IDX 82 46 84 47 35 48 87 49 81 50 80 51 36 53 68 54 48 55 67 56
REMARK SMILES IDX 49 57 52 58 66 59 85 60 50 61 51 62 65 64 86 65 53 66 37 67
REMARK SMILES IDX 38 68 46 69 39 70 41 71 47 72 40 73 42 74 43 75 44 76 45 77
REMARK SMILES IDX 69 78 70 79 78 80 71 81 73 82 79 83 72 84 74 85 75 86 76 87
REMARK SMILES IDX 77 88 54 89 55 90 63 91 56 92 58 93 64 94 57 95 59 96 60 97
REMARK SMILES IDX 61 98 62 99
REMARK H PARENT 20 7 16 23 25 33 84 52 52 63
REMARK Flexibility Score: inf
ROOT
ATOM      1  C   UNL A   1      31.788  29.834  25.772  1.00  0.00     0.023 C 
ENDROOT
BRANCH   1   2
ATOM      2  C   UNL A   1      32.458  29.352  24.495  1.00  0.00     0.023 C 
BRANCH   2   3
ATOM      3  C   UNL A   1      31.566  29.127  23.289  1.00  0.00     0.116 C 
BRANCH   3   4
ATOM      4  N   UNL A   1      32.275  28.331  22.297  1.00  0.00    -0.351 N 
ATOM      5  C   UNL A   1      32.633  27.008  22.347  1.00  0.00     0.275 C 
ATOM      6  O   UNL A   1      33.372  26.578  21.456  1.00  0.00    -0.269 OA
ATOM      7  H   UNL A   1      32.534  28.810  21.477  1.00  0.00     0.163 HD
BRANCH   5   8
ATOM      8  C   UNL A   1      32.040  26.075  23.414  1.00  0.00     0.365 C 
BRANCH   8   9
ATOM      9  N   UNL A   1      32.910  25.663  24.529  1.00  0.00    -0.306 N 
ATOM     10  C   UNL A   1      34.302  18.550  24.760  1.00  0.00     0.161 A 
ATOM     11  C   UNL A   1      33.029  19.122  24.857  1.00  0.00     0.055 A 
ATOM     12  C   UNL A   1      35.425  19.379  24.780  1.00  0.00     0.161 A 
ATOM     13  C   UNL A   1      32.864  20.519  24.900  1.00  0.00    -0.033 A 
ATOM     14  C   UNL A   1      35.246  20.773  24.824  1.00  0.00     0.061 A 
ATOM     15  C   UNL A   1      33.977  21.374  24.796  1.00  0.00     0.006 A 
ATOM     16  C   UNL A   1      31.490  21.116  25.088  1.00  0.00     0.058 C 
ATOM     17  C   UNL A   1      33.748  22.861  24.743  1.00  0.00     0.068 C 
ATOM     18  C   UNL A   1      31.590  22.396  25.927  1.00  0.00     0.127 C 
ATOM     19  C   UNL A   1      34.557  23.759  24.128  1.00  0.00     0.108 C 
ATOM     20  N   UNL A   1      32.556  23.316  25.322  1.00  0.00    -0.323 N 
ATOM     21  C   UNL A   1      34.267  25.242  24.172  1.00  0.00     0.314 C 
ATOM     22  C   UNL A   1      32.318  24.742  25.493  1.00  0.00     0.390 C 
ATOM     23  H   UNL A   1      33.009  26.559  25.005  1.00  0.00     0.350 HD
BRANCH  10  24
ATOM     24  O   UNL A   1      34.443  17.188  24.789  1.00  0.00    -0.493 OA
ATOM     25  C   UNL A   1      34.013  16.561  23.579  1.00  0.00     0.278 C 
ENDBRANCH  10  24
BRANCH  12  26
ATOM     26  O   UNL A   1      36.745  19.009  24.790  1.00  0.00    -0.493 OA
ATOM     27  C   UNL A   1      37.718  20.033  24.958  1.00  0.00     0.278 C 
ENDBRANCH  12  26
BRANCH  19  28
ATOM     28  C   UNL A   1      35.796  23.315  23.370  1.00  0.00     0.103 C 
ATOM     29  N   UNL A   1      36.826  22.946  22.741  1.00  0.00    -0.192 NA
ENDBRANCH  19  28
ENDBRANCH   8   9
ENDBRANCH   5   8
ENDBRANCH   3   4
ENDBRANCH   2   3
ENDBRANCH   1   2
BRANCH   1  30
ATOM     30  C   UNL A   1      32.788  30.266  26.826  1.00  0.00     0.116 C 
BRANCH  30  31
ATOM     31  N   UNL A   1      32.616  31.626  27.340  1.00  0.00    -0.352 N 
ATOM     32  C   UNL A   1      33.603  32.503  27.757  1.00  0.00     0.251 C 
ATOM     33  H   UNL A   1      31.690  31.955  27.395  1.00  0.00     0.163 HD
ATOM     34  O   UNL A   1      33.339  33.638  28.137  1.00  0.00    -0.269 OA
BRANCH  32  35
ATOM     35  C   UNL A   1      34.988  31.995  27.830  1.00  0.00     0.039 A 
ATOM     36  C   UNL A   1      35.207  30.629  27.959  1.00  0.00     0.014 A 
ATOM     37  C   UNL A   1      36.034  32.904  28.013  1.00  0.00     0.014 A 
ATOM     38  C   UNL A   1      36.373  30.203  28.571  1.00  0.00     0.010 A 
ATOM     39  C   UNL A   1      37.269  32.444  28.478  1.00  0.00     0.010 A 
ATOM     40  C   UNL A   1      37.420  31.101  28.855  1.00  0.00    -0.014 A 
BRANCH  40  41
ATOM     41  C   UNL A   1      38.619  30.598  29.583  1.00  0.00     0.031 A 
ATOM     42  C   UNL A   1      38.868  30.938  31.034  1.00  0.00     0.074 A 
ATOM     43  C   UNL A   1      39.440  29.733  28.953  1.00  0.00     0.049 A 
ATOM     44  N   UNL A   1      39.847  30.540  31.807  1.00  0.00    -0.248 NA
ATOM     45  C   UNL A   1      37.918  31.842  31.706  1.00  0.00     0.031 C 
ATOM     46  C   UNL A   1      39.318  29.336  27.548  1.00  0.00     0.029 A 
ATOM     47  N   UNL A   1      40.494  28.987  29.414  1.00  0.00    -0.354 N 
ATOM     48  C   UNL A   1      39.680  31.206  33.016  1.00  0.00     0.074 A 
ATOM     49  C   UNL A   1      38.491  32.017  32.890  1.00  0.00     0.031 C 
ATOM     50  C   UNL A   1      40.172  28.338  27.296  1.00  0.00     0.029 A 
ATOM     51  C   UNL A   1      40.974  28.090  28.489  1.00  0.00     0.049 A 
ATOM     52  H   UNL A   1      40.870  29.084  30.319  1.00  0.00     0.167 HD
ATOM     53  C   UNL A   1      40.441  31.135  34.134  1.00  0.00     0.034 A 
ATOM     54  C   UNL A   1      41.953  27.171  28.576  1.00  0.00     0.034 A 
ATOM     55  C   UNL A   1      41.563  30.250  34.296  1.00  0.00     0.049 A 
ATOM     56  C   UNL A   1      42.732  27.058  29.849  1.00  0.00     0.074 A 
ATOM     57  C   UNL A   1      42.368  30.082  35.410  1.00  0.00     0.029 A 
ATOM     58  N   UNL A   1      42.020  29.366  33.333  1.00  0.00    -0.354 N 
ATOM     59  N   UNL A   1      42.541  27.685  30.983  1.00  0.00    -0.248 NA
ATOM     60  C   UNL A   1      43.869  26.128  29.854  1.00  0.00     0.031 C 
ATOM     61  C   UNL A   1      43.307  29.087  35.122  1.00  0.00     0.029 A 
ATOM     62  C   UNL A   1      43.089  28.642  33.829  1.00  0.00     0.049 A 
ATOM     63  H   UNL A   1      41.640  29.267  32.430  1.00  0.00     0.167 HD
ATOM     64  C   UNL A   1      43.543  27.242  31.833  1.00  0.00     0.074 A 
ATOM     65  C   UNL A   1      44.315  26.260  31.098  1.00  0.00     0.031 C 
ATOM     66  C   UNL A   1      43.820  27.641  33.097  1.00  0.00     0.034 A 
BRANCH  53  67
ATOM     67  C   UNL A   1      40.073  32.005  35.305  1.00  0.00     0.023 A 
ATOM     68  C   UNL A   1      40.623  33.297  35.407  1.00  0.00     0.012 A 
ATOM     69  C   UNL A   1      39.094  31.591  36.231  1.00  0.00     0.148 A 
ATOM     70  C   UNL A   1      40.211  34.164  36.418  1.00  0.00     0.002 A 
ATOM     71  C   UNL A   1      38.669  32.470  37.221  1.00  0.00     0.091 A 
ATOM     72  F   UNL A   1      38.595  30.351  36.120  1.00  0.00    -0.205 F 
ATOM     73  C   UNL A   1      39.228  33.755  37.316  1.00  0.00     0.022 A 
BRANCH  71  74
ATOM     74  S   UNL A   1      37.368  32.064  38.391  1.00  0.00     0.127 S 
ATOM     75  O   UNL A   1      36.262  32.883  37.895  1.00  0.00    -0.237 OA
ATOM     76  O   UNL A   1      37.203  30.626  38.181  1.00  0.00    -0.237 OA
ATOM     77  O   UNL A   1      37.876  32.434  39.704  1.00  0.00    -0.744 OA
ENDBRANCH  71  74
ENDBRANCH  53  67
BRANCH  54  78
ATOM     78  C   UNL A   1      42.201  26.269  27.419  1.00  0.00     0.023 A 
ATOM     79  C   UNL A   1      43.055  26.698  26.385  1.00  0.00     0.012 A 
ATOM     80  C   UNL A   1      41.706  24.951  27.405  1.00  0.00     0.148 A 
ATOM     81  C   UNL A   1      43.422  25.822  25.364  1.00  0.00     0.002 A 
ATOM     82  C   UNL A   1      42.125  24.067  26.418  1.00  0.00     0.091 A 
ATOM     83  F   UNL A   1      40.879  24.574  28.389  1.00  0.00    -0.205 F 
ATOM     84  C   UNL A   1      42.974  24.504  25.391  1.00  0.00     0.022 A 
BRANCH  82  85
ATOM     85  S   UNL A   1      41.733  22.315  26.476  1.00  0.00     0.127 S 
ATOM     86  O   UNL A   1      42.225  21.943  27.800  1.00  0.00    -0.237 OA
ATOM     87  O   UNL A   1      40.276  22.326  26.339  1.00  0.00    -0.237 OA
ATOM     88  O   UNL A   1      42.435  21.721  25.346  1.00  0.00    -0.744 OA
ENDBRANCH  82  85
ENDBRANCH  54  78
BRANCH  66  89
ATOM     89  C   UNL A   1      45.019  27.041  33.769  1.00  0.00     0.023 A 
ATOM     90  C   UNL A   1      46.250  27.720  33.692  1.00  0.00     0.012 A 
ATOM     91  C   UNL A   1      44.907  25.882  34.557  1.00  0.00     0.148 A 
ATOM     92  C   UNL A   1      47.361  27.249  34.390  1.00  0.00     0.002 A 
ATOM     93  C   UNL A   1      46.011  25.431  35.272  1.00  0.00     0.091 A 
ATOM     94  F   UNL A   1      43.725  25.251  34.602  1.00  0.00    -0.205 F 
ATOM     95  C   UNL A   1      47.239  26.111  35.186  1.00  0.00     0.022 A 
BRANCH  93  96
ATOM     96  S   UNL A   1      45.939  24.014  36.372  1.00  0.00     0.127 S 
ATOM     97  O   UNL A   1      44.847  24.390  37.268  1.00  0.00    -0.237 OA
ATOM     98  O   UNL A   1      45.625  22.923  35.450  1.00  0.00    -0.237 OA
ATOM     99  O   UNL A   1      47.251  23.922  36.997  1.00  0.00    -0.744 OA
ENDBRANCH  93  96
ENDBRANCH  66  89
ENDBRANCH  40  41
ENDBRANCH  32  35
ENDBRANCH  30  31
ENDBRANCH   1  30
TORSDOF 18
ENDMDL
MODEL 3
REMARK VINA RESULT:     -12.1      4.962     10.588
REMARK SMILES COc1cc2c(cc1OC)C1=C(C#N)C[N@@H+](CC(=O)NCCCCNC(=O)c3ccc(-c4c5nc(c(-c6cccc(S(=O)(=O)[O-])c6F)c6ccc([nH]6)c(-c6cccc(S(=O)(=O)[O-])c6F)c6nc(c(-c7cccc(S(=O)(=O)[O-])c7F)c7ccc4[nH]7)C=C6)C=C5)cc3)CN1CC2
REMARK SMILES IDX 23 1 22 2 21 3 20 4 18 5 19 6 17 8 16 9 3 10 4 11 8 12 5 13
REMARK SMILES IDX 7 14 6 15 94 16 11 17 93 18 12 19 92 20 15 21 91 22 2 24
REMARK SMILES IDX 1 25 9 26 10 27 13 28 14 29 24 30 25 31 26 32 27 34 28 35
REMARK SMILES IDX 29 36 90 37 30 38 89 39 31 40 32 41 33 42 83 43 34 44 88 45
REMARK SMILES IDX 82 46 84 47 35 48 87 49 81 50 80 51 36 53 68 54 48 55 67 56
REMARK SMILES IDX 49 57 52 58 66 59 85 60 50 61 51 62 65 64 86 65 53 66 37 67
REMARK SMILES IDX 38 68 46 69 39 70 41 71 47 72 40 73 42 74 43 75 44 76 45 77
REMARK SMILES IDX 69 78 70 79 78 80 71 81 73 82 79 83 72 84 74 85 75 86 76 87
REMARK SMILES IDX 77 88 54 89 55 90 63 91 56 92 58 93 64 94 57 95 59 96 60 97
REMARK SMILES IDX 61 98 62 99
REMARK H PARENT 20 7 16 23 25 33 84 52 52 63
REMARK Flexibility Score: inf
ROOT
ATOM      1  C   UNL A   1      31.382  31.871  26.782  1.00  0.00     0.023 C 
ENDROOT
BRANCH   1   2
ATOM      2  C   UNL A   1      32.114  30.542  26.878  1.00  0.00     0.023 C 
BRANCH   2   3
ATOM      3  C   UNL A   1      32.725  29.995  25.602  1.00  0.00     0.116 C 
BRANCH   3   4
ATOM      4  N   UNL A   1      31.729  30.003  24.540  1.00  0.00    -0.351 N 
ATOM      5  C   UNL A   1      30.891  28.997  24.134  1.00  0.00     0.275 C 
ATOM      6  O   UNL A   1      30.234  29.175  23.104  1.00  0.00    -0.269 OA
ATOM      7  H   UNL A   1      31.646  30.850  24.044  1.00  0.00     0.163 HD
BRANCH   5   8
ATOM      8  C   UNL A   1      30.700  27.739  24.997  1.00  0.00     0.365 C 
BRANCH   8   9
ATOM      9  N   UNL A   1      30.235  26.511  24.332  1.00  0.00    -0.306 N 
ATOM     10  C   UNL A   1      34.845  20.933  24.795  1.00  0.00     0.161 A 
ATOM     11  C   UNL A   1      35.130  22.161  24.188  1.00  0.00     0.055 A 
ATOM     12  C   UNL A   1      33.541  20.665  25.213  1.00  0.00     0.161 A 
ATOM     13  C   UNL A   1      34.139  23.151  24.059  1.00  0.00    -0.033 A 
ATOM     14  C   UNL A   1      32.560  21.663  25.078  1.00  0.00     0.061 A 
ATOM     15  C   UNL A   1      32.850  22.947  24.586  1.00  0.00     0.006 A 
ATOM     16  C   UNL A   1      34.441  24.436  23.326  1.00  0.00     0.058 C 
ATOM     17  C   UNL A   1      31.852  24.071  24.518  1.00  0.00     0.068 C 
ATOM     18  C   UNL A   1      33.191  24.914  22.577  1.00  0.00     0.127 C 
ATOM     19  C   UNL A   1      30.832  24.270  25.390  1.00  0.00     0.108 C 
ATOM     20  N   UNL A   1      32.061  25.013  23.502  1.00  0.00    -0.323 N 
ATOM     21  C   UNL A   1      29.848  25.403  25.209  1.00  0.00     0.314 C 
ATOM     22  C   UNL A   1      31.059  26.034  23.226  1.00  0.00     0.390 C 
ATOM     23  H   UNL A   1      29.370  26.860  23.920  1.00  0.00     0.350 HD
BRANCH  10  24
ATOM     24  O   UNL A   1      35.806  19.958  24.849  1.00  0.00    -0.493 OA
ATOM     25  C   UNL A   1      37.125  20.487  25.003  1.00  0.00     0.278 C 
ENDBRANCH  10  24
BRANCH  12  26
ATOM     26  O   UNL A   1      33.047  19.499  25.738  1.00  0.00    -0.493 OA
ATOM     27  C   UNL A   1      32.531  18.531  24.832  1.00  0.00     0.278 C 
ENDBRANCH  12  26
BRANCH  19  28
ATOM     28  C   UNL A   1      30.630  23.358  26.588  1.00  0.00     0.103 C 
ATOM     29  N   UNL A   1      30.461  22.601  27.583  1.00  0.00    -0.192 NA
ENDBRANCH  19  28
ENDBRANCH   8   9
ENDBRANCH   5   8
ENDBRANCH   3   4
ENDBRANCH   2   3
ENDBRANCH   1   2
BRANCH   1  30
ATOM     30  C   UNL A   1      32.325  33.040  26.570  1.00  0.00     0.116 C 
BRANCH  30  31
ATOM     31  N   UNL A   1      32.319  34.054  27.626  1.00  0.00    -0.352 N 
ATOM     32  C   UNL A   1      33.305  34.302  28.566  1.00  0.00     0.251 C 
ATOM     33  H   UNL A   1      31.519  34.626  27.674  1.00  0.00     0.163 HD
ATOM     34  O   UNL A   1      33.203  35.207  29.385  1.00  0.00    -0.269 OA
BRANCH  32  35
ATOM     35  C   UNL A   1      34.449  33.369  28.623  1.00  0.00     0.039 A 
ATOM     36  C   UNL A   1      34.246  32.067  29.063  1.00  0.00     0.014 A 
ATOM     37  C   UNL A   1      35.743  33.875  28.469  1.00  0.00     0.014 A 
ATOM     38  C   UNL A   1      35.310  31.393  29.641  1.00  0.00     0.010 A 
ATOM     39  C   UNL A   1      36.833  33.117  28.906  1.00  0.00     0.010 A 
ATOM     40  C   UNL A   1      36.618  31.910  29.587  1.00  0.00    -0.014 A 
BRANCH  40  41
ATOM     41  C   UNL A   1      37.708  31.177  30.292  1.00  0.00     0.031 A 
ATOM     42  C   UNL A   1      38.663  30.270  29.552  1.00  0.00     0.074 A 
ATOM     43  C   UNL A   1      37.904  31.420  31.605  1.00  0.00     0.049 A 
ATOM     44  N   UNL A   1      39.683  29.600  30.028  1.00  0.00    -0.248 NA
ATOM     45  C   UNL A   1      38.452  30.073  28.108  1.00  0.00     0.031 C 
ATOM     46  C   UNL A   1      37.042  32.264  32.437  1.00  0.00     0.029 A 
ATOM     47  N   UNL A   1      38.910  31.039  32.455  1.00  0.00    -0.354 N 
ATOM     48  C   UNL A   1      40.176  28.844  28.971  1.00  0.00     0.074 A 
ATOM     49  C   UNL A   1      39.363  29.153  27.816  1.00  0.00     0.031 C 
ATOM     50  C   UNL A   1      37.616  32.436  33.633  1.00  0.00     0.029 A 
ATOM     51  C   UNL A   1      38.834  31.635  33.691  1.00  0.00     0.049 A 
ATOM     52  H   UNL A   1      39.616  30.401  32.204  1.00  0.00     0.167 HD
ATOM     53  C   UNL A   1      41.220  27.982  28.960  1.00  0.00     0.034 A 
ATOM     54  C   UNL A   1      39.644  31.551  34.763  1.00  0.00     0.034 A 
ATOM     55  C   UNL A   1      42.093  27.754  30.079  1.00  0.00     0.049 A 
ATOM     56  C   UNL A   1      40.837  30.650  34.702  1.00  0.00     0.074 A 
ATOM     57  C   UNL A   1      43.202  26.928  30.146  1.00  0.00     0.029 A 
ATOM     58  N   UNL A   1      41.977  28.371  31.314  1.00  0.00    -0.354 N 
ATOM     59  N   UNL A   1      41.292  29.962  33.684  1.00  0.00    -0.248 NA
ATOM     60  C   UNL A   1      41.620  30.497  35.935  1.00  0.00     0.031 C 
ATOM     61  C   UNL A   1      43.763  27.054  31.421  1.00  0.00     0.029 A 
ATOM     62  C   UNL A   1      42.999  27.953  32.147  1.00  0.00     0.049 A 
ATOM     63  H   UNL A   1      41.272  29.012  31.561  1.00  0.00     0.167 HD
ATOM     64  C   UNL A   1      42.402  29.278  34.156  1.00  0.00     0.074 A 
ATOM     65  C   UNL A   1      42.579  29.668  35.541  1.00  0.00     0.031 C 
ATOM     66  C   UNL A   1      43.183  28.381  33.509  1.00  0.00     0.034 A 
BRANCH  53  67
ATOM     67  C   UNL A   1      41.522  27.241  27.686  1.00  0.00     0.023 A 
ATOM     68  C   UNL A   1      42.013  27.950  26.574  1.00  0.00     0.012 A 
ATOM     69  C   UNL A   1      41.436  25.835  27.632  1.00  0.00     0.148 A 
ATOM     70  C   UNL A   1      42.409  27.273  25.421  1.00  0.00     0.002 A 
ATOM     71  C   UNL A   1      41.857  25.165  26.489  1.00  0.00     0.091 A 
ATOM     72  F   UNL A   1      40.953  25.184  28.700  1.00  0.00    -0.205 F 
ATOM     73  C   UNL A   1      42.341  25.882  25.383  1.00  0.00     0.022 A 
BRANCH  71  74
ATOM     74  S   UNL A   1      41.866  23.373  26.359  1.00  0.00     0.127 S 
ATOM     75  O   UNL A   1      42.681  23.000  27.514  1.00  0.00    -0.237 OA
ATOM     76  O   UNL A   1      40.446  23.048  26.485  1.00  0.00    -0.237 OA
ATOM     77  O   UNL A   1      42.449  23.065  25.061  1.00  0.00    -0.744 OA
ENDBRANCH  71  74
ENDBRANCH  53  67
BRANCH  54  78
ATOM     78  C   UNL A   1      39.350  32.389  35.957  1.00  0.00     0.023 A 
ATOM     79  C   UNL A   1      39.776  33.730  35.976  1.00  0.00     0.012 A 
ATOM     80  C   UNL A   1      38.542  31.905  37.004  1.00  0.00     0.148 A 
ATOM     81  C   UNL A   1      39.389  34.579  37.012  1.00  0.00     0.002 A 
ATOM     82  C   UNL A   1      38.112  32.772  38.000  1.00  0.00     0.091 A 
ATOM     83  F   UNL A   1      38.167  30.619  36.972  1.00  0.00    -0.205 F 
ATOM     84  C   UNL A   1      38.543  34.107  38.012  1.00  0.00     0.022 A 
BRANCH  82  85
ATOM     85  S   UNL A   1      36.888  32.289  39.223  1.00  0.00     0.127 S 
ATOM     86  O   UNL A   1      37.308  33.067  40.387  1.00  0.00    -0.237 OA
ATOM     87  O   UNL A   1      35.642  32.735  38.599  1.00  0.00    -0.237 OA
ATOM     88  O   UNL A   1      37.011  30.843  39.348  1.00  0.00    -0.744 OA
ENDBRANCH  82  85
ENDBRANCH  54  78
BRANCH  66  89
ATOM     89  C   UNL A   1      44.289  27.731  34.287  1.00  0.00     0.023 A 
ATOM     90  C   UNL A   1      45.557  28.342  34.301  1.00  0.00     0.012 A 
ATOM     91  C   UNL A   1      44.049  26.596  35.082  1.00  0.00     0.148 A 
ATOM     92  C   UNL A   1      46.580  27.826  35.095  1.00  0.00     0.002 A 
ATOM     93  C   UNL A   1      45.065  26.102  35.892  1.00  0.00     0.091 A 
ATOM     94  F   UNL A   1      42.834  26.031  35.039  1.00  0.00    -0.205 F 
ATOM     95  C   UNL A   1      46.331  26.713  35.897  1.00  0.00     0.022 A 
BRANCH  93  96
ATOM     96  S   UNL A   1      44.825  24.714  37.005  1.00  0.00     0.127 S 
ATOM     97  O   UNL A   1      46.101  24.680  37.716  1.00  0.00    -0.237 OA
ATOM     98  O   UNL A   1      43.687  25.157  37.811  1.00  0.00    -0.237 OA
ATOM     99  O   UNL A   1      44.556  23.559  36.158  1.00  0.00    -0.744 OA
ENDBRANCH  93  96
ENDBRANCH  66  89
ENDBRANCH  40  41
ENDBRANCH  32  35
ENDBRANCH  30  31
ENDBRANCH   1  30
TORSDOF 18
ENDMDL
