MODEL 1
REMARK VINA RESULT:     -11.0      0.000      0.000
REMARK SMILES CC(C)(C)N(CC(=O)NCCCCNC(=O)c1ccc(-c2c3nc(c(-c4cccc(S(=O)(=O)[O-])c4F)c4ccc([nH]4)c(-c4cccc(S(=O)(=O)[O-])c4F)c4nc(c(-c5cccc(S(=O)(=O)[O-])c5F)c5ccc2[nH]5)C=C4)C=C3)cc1)C(=O)N1CC[C@H](C[NH3+])C1
REMARK SMILES IDX 10 1 9 2 7 3 8 4 6 6 5 7 2 8 1 9 3 10 4 11 80 12 81 13 82 14
REMARK SMILES IDX 83 15 88 16 84 17 85 18 86 19 87 20 11 24 12 25 13 26 14 27
REMARK SMILES IDX 15 28 16 30 17 31 18 32 79 33 19 34 78 35 20 36 21 37 22 38
REMARK SMILES IDX 72 39 23 40 77 41 71 42 73 43 24 44 76 45 70 46 69 47 25 49
REMARK SMILES IDX 57 50 37 51 56 52 38 53 41 54 55 55 74 56 39 57 40 58 54 60
REMARK SMILES IDX 75 61 42 62 26 63 27 64 35 65 28 66 30 67 36 68 29 69 31 70
REMARK SMILES IDX 32 71 33 72 34 73 58 74 59 75 67 76 60 77 62 78 68 79 61 80
REMARK SMILES IDX 63 81 64 82 65 83 66 84 43 85 44 86 52 87 45 88 47 89 53 90
REMARK SMILES IDX 46 91 48 92 49 93 50 94 51 95
REMARK H PARENT 9 5 87 21 87 22 87 23 14 29 73 48 41 59
REMARK Flexibility Score: inf
ROOT
ATOM      1  C   UNL A   1      31.152  26.665  25.799  1.00  0.00     0.116 C 
ENDROOT
BRANCH   1   2
ATOM      2  N   UNL A   1      30.852  25.563  26.679  1.00  0.00    -0.355 N 
ATOM      3  C   UNL A   1      31.053  24.228  26.495  1.00  0.00     0.239 C 
ATOM      4  O   UNL A   1      30.990  23.511  27.502  1.00  0.00    -0.273 OA
ATOM      5  H   UNL A   1      30.442  25.812  27.540  1.00  0.00     0.163 HD
BRANCH   3   6
ATOM      6  C   UNL A   1      31.496  23.614  25.150  1.00  0.00     0.221 C 
BRANCH   6   7
ATOM      7  N   UNL A   1      32.864  23.083  24.974  1.00  0.00    -0.311 N 
BRANCH   7   8
ATOM      8  C   UNL A   1      33.982  24.004  24.511  1.00  0.00     0.037 C 
ATOM      9  C   UNL A   1      35.106  23.304  23.696  1.00  0.00     0.034 C 
ATOM     10  C   UNL A   1      34.685  24.701  25.700  1.00  0.00     0.034 C 
ATOM     11  C   UNL A   1      33.420  25.089  23.557  1.00  0.00     0.034 C 
ENDBRANCH   7   8
BRANCH   7  12
ATOM     12  C   UNL A   1      33.240  21.884  25.624  1.00  0.00     0.320 C 
ATOM     13  O   UNL A   1      33.575  21.836  26.807  1.00  0.00    -0.248 OA
BRANCH  12  14
ATOM     14  N   UNL A   1      32.991  20.714  24.942  1.00  0.00    -0.324 N 
ATOM     15  C   UNL A   1      32.603  20.626  23.549  1.00  0.00     0.122 C 
ATOM     16  C   UNL A   1      33.775  19.529  25.246  1.00  0.00     0.130 C 
ATOM     17  C   UNL A   1      32.179  19.172  23.450  1.00  0.00     0.033 C 
ATOM     18  C   UNL A   1      33.258  18.447  24.280  1.00  0.00     0.065 C 
BRANCH  18  19
ATOM     19  C   UNL A   1      32.756  17.217  25.038  1.00  0.00     0.264 C 
BRANCH  19  20
ATOM     20  N   UNL A   1      33.695  16.772  26.062  1.00  0.00    -0.357 N 
ATOM     21  H   UNL A   1      33.533  15.786  26.266  1.00  0.00     0.344 HD
ATOM     22  H   UNL A   1      33.558  17.321  26.911  1.00  0.00     0.344 HD
ATOM     23  H   UNL A   1      34.649  16.897  25.726  1.00  0.00     0.344 HD
ENDBRANCH  19  20
ENDBRANCH  18  19
ENDBRANCH  12  14
ENDBRANCH   7  12
ENDBRANCH   6   7
ENDBRANCH   3   6
ENDBRANCH   1   2
BRANCH   1  24
ATOM     24  C   UNL A   1      32.245  27.594  26.317  1.00  0.00     0.023 C 
BRANCH  24  25
ATOM     25  C   UNL A   1      31.802  29.018  26.645  1.00  0.00     0.023 C 
BRANCH  25  26
ATOM     26  C   UNL A   1      32.593  30.134  25.970  1.00  0.00     0.116 C 
BRANCH  26  27
ATOM     27  N   UNL A   1      32.371  31.459  26.536  1.00  0.00    -0.352 N 
ATOM     28  C   UNL A   1      33.175  32.167  27.402  1.00  0.00     0.251 C 
ATOM     29  H   UNL A   1      31.538  31.907  26.264  1.00  0.00     0.163 HD
ATOM     30  O   UNL A   1      32.821  33.269  27.816  1.00  0.00    -0.269 OA
BRANCH  28  31
ATOM     31  C   UNL A   1      34.442  31.566  27.867  1.00  0.00     0.039 A 
ATOM     32  C   UNL A   1      35.584  32.368  27.934  1.00  0.00     0.014 A 
ATOM     33  C   UNL A   1      34.483  30.240  28.306  1.00  0.00     0.014 A 
ATOM     34  C   UNL A   1      36.744  31.867  28.530  1.00  0.00     0.010 A 
ATOM     35  C   UNL A   1      35.612  29.772  28.968  1.00  0.00     0.010 A 
ATOM     36  C   UNL A   1      36.751  30.582  29.096  1.00  0.00    -0.014 A 
BRANCH  36  37
ATOM     37  C   UNL A   1      37.923  30.069  29.852  1.00  0.00     0.031 A 
ATOM     38  C   UNL A   1      38.184  30.547  31.254  1.00  0.00     0.074 A 
ATOM     39  C   UNL A   1      38.810  29.261  29.237  1.00  0.00     0.049 A 
ATOM     40  N   UNL A   1      39.200  30.294  32.036  1.00  0.00    -0.248 NA
ATOM     41  C   UNL A   1      37.187  31.457  31.844  1.00  0.00     0.031 C 
ATOM     42  C   UNL A   1      38.719  28.797  27.851  1.00  0.00     0.029 A 
ATOM     43  N   UNL A   1      39.984  28.710  29.690  1.00  0.00    -0.354 N 
ATOM     44  C   UNL A   1      38.989  31.041  33.188  1.00  0.00     0.074 A 
ATOM     45  C   UNL A   1      37.764  31.785  32.992  1.00  0.00     0.031 C 
ATOM     46  C   UNL A   1      39.785  28.032  27.569  1.00  0.00     0.029 A 
ATOM     47  C   UNL A   1      40.651  27.969  28.742  1.00  0.00     0.049 A 
ATOM     48  H   UNL A   1      40.319  28.835  30.608  1.00  0.00     0.167 HD
ATOM     49  C   UNL A   1      39.727  31.079  34.322  1.00  0.00     0.034 A 
ATOM     50  C   UNL A   1      41.827  27.314  28.809  1.00  0.00     0.034 A 
ATOM     51  C   UNL A   1      40.908  30.289  34.541  1.00  0.00     0.049 A 
ATOM     52  C   UNL A   1      42.591  27.319  30.106  1.00  0.00     0.074 A 
ATOM     53  C   UNL A   1      41.677  30.189  35.687  1.00  0.00     0.029 A 
ATOM     54  N   UNL A   1      41.488  29.458  33.595  1.00  0.00    -0.354 N 
ATOM     55  N   UNL A   1      42.289  27.906  31.240  1.00  0.00    -0.248 NA
ATOM     56  C   UNL A   1      43.837  26.540  30.148  1.00  0.00     0.031 C 
ATOM     57  C   UNL A   1      42.724  29.297  35.433  1.00  0.00     0.029 A 
ATOM     58  C   UNL A   1      42.602  28.836  34.133  1.00  0.00     0.049 A 
ATOM     59  H   UNL A   1      41.157  29.328  32.678  1.00  0.00     0.167 HD
ATOM     60  C   UNL A   1      43.285  27.538  32.136  1.00  0.00     0.074 A 
ATOM     61  C   UNL A   1      44.189  26.660  31.421  1.00  0.00     0.031 C 
ATOM     62  C   UNL A   1      43.450  27.910  33.429  1.00  0.00     0.034 A 
BRANCH  49  63
ATOM     63  C   UNL A   1      39.233  31.945  35.449  1.00  0.00     0.023 A 
ATOM     64  C   UNL A   1      38.347  31.398  36.399  1.00  0.00     0.012 A 
ATOM     65  C   UNL A   1      39.687  33.269  35.609  1.00  0.00     0.148 A 
ATOM     66  C   UNL A   1      37.894  32.162  37.474  1.00  0.00     0.002 A 
ATOM     67  C   UNL A   1      39.263  34.013  36.705  1.00  0.00     0.091 A 
ATOM     68  F   UNL A   1      40.512  33.779  34.683  1.00  0.00    -0.205 F 
ATOM     69  C   UNL A   1      38.361  33.464  37.632  1.00  0.00     0.022 A 
BRANCH  67  70
ATOM     70  S   UNL A   1      39.860  35.673  37.041  1.00  0.00     0.127 S 
ATOM     71  O   UNL A   1      39.072  36.038  38.217  1.00  0.00    -0.237 OA
ATOM     72  O   UNL A   1      41.281  35.443  37.306  1.00  0.00    -0.237 OA
ATOM     73  O   UNL A   1      39.585  36.449  35.839  1.00  0.00    -0.744 OA
ENDBRANCH  67  70
ENDBRANCH  49  63
BRANCH  50  74
ATOM     74  C   UNL A   1      42.315  26.526  27.642  1.00  0.00     0.023 A 
ATOM     75  C   UNL A   1      43.126  27.157  26.679  1.00  0.00     0.012 A 
ATOM     76  C   UNL A   1      42.001  25.163  27.485  1.00  0.00     0.148 A 
ATOM     77  C   UNL A   1      43.585  26.457  25.563  1.00  0.00     0.002 A 
ATOM     78  C   UNL A   1      42.505  24.457  26.397  1.00  0.00     0.091 A 
ATOM     79  F   UNL A   1      41.213  24.580  28.401  1.00  0.00    -0.205 F 
ATOM     80  C   UNL A   1      43.283  25.105  25.427  1.00  0.00     0.022 A 
BRANCH  78  81
ATOM     81  S   UNL A   1      42.267  22.685  26.219  1.00  0.00     0.127 S 
ATOM     82  O   UNL A   1      42.964  22.412  24.965  1.00  0.00    -0.237 OA
ATOM     83  O   UNL A   1      42.925  22.162  27.418  1.00  0.00    -0.237 OA
ATOM     84  O   UNL A   1      40.822  22.493  26.204  1.00  0.00    -0.744 OA
ENDBRANCH  78  81
ENDBRANCH  50  74
BRANCH  62  85
ATOM     85  C   UNL A   1      44.627  27.342  34.176  1.00  0.00     0.023 A 
ATOM     86  C   UNL A   1      45.845  28.050  34.196  1.00  0.00     0.012 A 
ATOM     87  C   UNL A   1      44.501  26.154  34.923  1.00  0.00     0.148 A 
ATOM     88  C   UNL A   1      46.929  27.569  34.928  1.00  0.00     0.002 A 
ATOM     89  C   UNL A   1      45.572  25.704  35.685  1.00  0.00     0.091 A 
ATOM     90  F   UNL A   1      43.340  25.485  34.872  1.00  0.00    -0.205 F 
ATOM     91  C   UNL A   1      46.790  26.405  35.681  1.00  0.00     0.022 A 
BRANCH  89  92
ATOM     92  S   UNL A   1      45.450  24.268  36.756  1.00  0.00     0.127 S 
ATOM     93  O   UNL A   1      44.389  24.672  37.677  1.00  0.00    -0.237 OA
ATOM     94  O   UNL A   1      45.073  23.208  35.820  1.00  0.00    -0.237 OA
ATOM     95  O   UNL A   1      46.770  24.103  37.352  1.00  0.00    -0.744 OA
ENDBRANCH  89  92
ENDBRANCH  62  85
ENDBRANCH  36  37
ENDBRANCH  28  31
ENDBRANCH  26  27
ENDBRANCH  25  26
ENDBRANCH  24  25
ENDBRANCH   1  24
TORSDOF 20
ENDMDL
MODEL 2
REMARK VINA RESULT:     -10.7      1.802      2.593
REMARK SMILES CC(C)(C)N(CC(=O)NCCCCNC(=O)c1ccc(-c2c3nc(c(-c4cccc(S(=O)(=O)[O-])c4F)c4ccc([nH]4)c(-c4cccc(S(=O)(=O)[O-])c4F)c4nc(c(-c5cccc(S(=O)(=O)[O-])c5F)c5ccc2[nH]5)C=C4)C=C3)cc1)C(=O)N1CC[C@H](C[NH3+])C1
REMARK SMILES IDX 10 1 9 2 7 3 8 4 6 6 5 7 2 8 1 9 3 10 4 11 80 12 81 13 82 14
REMARK SMILES IDX 83 15 88 16 84 17 85 18 86 19 87 20 11 24 12 25 13 26 14 27
REMARK SMILES IDX 15 28 16 30 17 31 18 32 79 33 19 34 78 35 20 36 21 37 22 38
REMARK SMILES IDX 72 39 23 40 77 41 71 42 73 43 24 44 76 45 70 46 69 47 25 49
REMARK SMILES IDX 57 50 37 51 56 52 38 53 41 54 55 55 74 56 39 57 40 58 54 60
REMARK SMILES IDX 75 61 42 62 26 63 27 64 35 65 28 66 30 67 36 68 29 69 31 70
REMARK SMILES IDX 32 71 33 72 34 73 58 74 59 75 67 76 60 77 62 78 68 79 61 80
REMARK SMILES IDX 63 81 64 82 65 83 66 84 43 85 44 86 52 87 45 88 47 89 53 90
REMARK SMILES IDX 46 91 48 92 49 93 50 94 51 95
REMARK H PARENT 9 5 87 21 87 22 87 23 14 29 73 48 41 59
REMARK Flexibility Score: inf
ROOT
ATOM      1  C   UNL A   1      32.374  28.334  22.790  1.00  0.00     0.116 C 
ENDROOT
BRANCH   1   2
ATOM      2  N   UNL A   1      33.144  27.290  22.159  1.00  0.00    -0.355 N 
ATOM      3  C   UNL A   1      32.859  25.964  22.024  1.00  0.00     0.239 C 
ATOM      4  O   UNL A   1      33.526  25.333  21.194  1.00  0.00    -0.273 OA
ATOM      5  H   UNL A   1      34.001  27.578  21.769  1.00  0.00     0.163 HD
BRANCH   3   6
ATOM      6  C   UNL A   1      31.672  25.276  22.729  1.00  0.00     0.221 C 
BRANCH   6   7
ATOM      7  N   UNL A   1      31.886  24.437  23.928  1.00  0.00    -0.311 N 
BRANCH   7   8
ATOM      8  C   UNL A   1      31.494  24.962  25.300  1.00  0.00     0.037 C 
ATOM      9  C   UNL A   1      30.509  26.166  25.279  1.00  0.00     0.034 C 
ATOM     10  C   UNL A   1      32.725  25.429  26.113  1.00  0.00     0.034 C 
ATOM     11  C   UNL A   1      30.754  23.861  26.101  1.00  0.00     0.034 C 
ENDBRANCH   7   8
BRANCH   7  12
ATOM     12  C   UNL A   1      32.035  23.037  23.787  1.00  0.00     0.320 C 
ATOM     13  O   UNL A   1      31.338  22.360  23.033  1.00  0.00    -0.248 OA
BRANCH  12  14
ATOM     14  N   UNL A   1      33.156  22.480  24.358  1.00  0.00    -0.324 N 
ATOM     15  C   UNL A   1      33.186  21.235  25.098  1.00  0.00     0.122 C 
ATOM     16  C   UNL A   1      34.440  22.613  23.689  1.00  0.00     0.130 C 
ATOM     17  C   UNL A   1      34.567  21.295  25.726  1.00  0.00     0.033 C 
ATOM     18  C   UNL A   1      35.437  21.847  24.578  1.00  0.00     0.065 C 
BRANCH  18  19
ATOM     19  C   UNL A   1      36.587  22.747  25.029  1.00  0.00     0.264 C 
BRANCH  19  20
ATOM     20  N   UNL A   1      36.164  24.126  25.247  1.00  0.00    -0.357 N 
ATOM     21  H   UNL A   1      36.760  24.754  24.708  1.00  0.00     0.344 HD
ATOM     22  H   UNL A   1      36.240  24.353  26.239  1.00  0.00     0.344 HD
ATOM     23  H   UNL A   1      35.196  24.236  24.947  1.00  0.00     0.344 HD
ENDBRANCH  19  20
ENDBRANCH  18  19
ENDBRANCH  12  14
ENDBRANCH   7  12
ENDBRANCH   6   7
ENDBRANCH   3   6
ENDBRANCH   1   2
BRANCH   1  24
ATOM     24  C   UNL A   1      32.990  28.869  24.077  1.00  0.00     0.023 C 
BRANCH  24  25
ATOM     25  C   UNL A   1      32.036  29.623  25.002  1.00  0.00     0.023 C 
BRANCH  25  26
ATOM     26  C   UNL A   1      32.577  29.955  26.389  1.00  0.00     0.116 C 
BRANCH  26  27
ATOM     27  N   UNL A   1      32.474  31.362  26.757  1.00  0.00    -0.352 N 
ATOM     28  C   UNL A   1      33.392  32.143  27.424  1.00  0.00     0.251 C 
ATOM     29  H   UNL A   1      31.640  31.814  26.494  1.00  0.00     0.163 HD
ATOM     30  O   UNL A   1      33.132  33.315  27.689  1.00  0.00    -0.269 OA
BRANCH  28  31
ATOM     31  C   UNL A   1      34.669  31.543  27.862  1.00  0.00     0.039 A 
ATOM     32  C   UNL A   1      35.793  32.364  27.983  1.00  0.00     0.014 A 
ATOM     33  C   UNL A   1      34.736  30.195  28.223  1.00  0.00     0.014 A 
ATOM     34  C   UNL A   1      36.960  31.854  28.557  1.00  0.00     0.010 A 
ATOM     35  C   UNL A   1      35.872  29.714  28.865  1.00  0.00     0.010 A 
ATOM     36  C   UNL A   1      36.992  30.539  29.047  1.00  0.00    -0.014 A 
BRANCH  36  37
ATOM     37  C   UNL A   1      38.171  30.008  29.780  1.00  0.00     0.031 A 
ATOM     38  C   UNL A   1      38.477  30.496  31.170  1.00  0.00     0.074 A 
ATOM     39  C   UNL A   1      39.024  29.173  29.153  1.00  0.00     0.049 A 
ATOM     40  N   UNL A   1      39.507  30.228  31.929  1.00  0.00    -0.248 NA
ATOM     41  C   UNL A   1      37.516  31.435  31.774  1.00  0.00     0.031 C 
ATOM     42  C   UNL A   1      38.888  28.697  27.774  1.00  0.00     0.029 A 
ATOM     43  N   UNL A   1      40.197  28.602  29.582  1.00  0.00    -0.354 N 
ATOM     44  C   UNL A   1      39.342  30.993  33.077  1.00  0.00     0.074 A 
ATOM     45  C   UNL A   1      38.129  31.762  32.902  1.00  0.00     0.031 C 
ATOM     46  C   UNL A   1      39.930  27.904  27.475  1.00  0.00     0.029 A 
ATOM     47  C   UNL A   1      40.823  27.835  28.627  1.00  0.00     0.049 A 
ATOM     48  H   UNL A   1      40.557  28.729  30.491  1.00  0.00     0.167 HD
ATOM     49  C   UNL A   1      40.108  31.027  34.192  1.00  0.00     0.034 A 
ATOM     50  C   UNL A   1      41.985  27.155  28.673  1.00  0.00     0.034 A 
ATOM     51  C   UNL A   1      41.277  30.213  34.391  1.00  0.00     0.049 A 
ATOM     52  C   UNL A   1      42.781  27.156  29.951  1.00  0.00     0.074 A 
ATOM     53  C   UNL A   1      42.071  30.108  35.518  1.00  0.00     0.029 A 
ATOM     54  N   UNL A   1      41.814  29.358  33.441  1.00  0.00    -0.354 N 
ATOM     55  N   UNL A   1      42.521  27.763  31.084  1.00  0.00    -0.248 NA
ATOM     56  C   UNL A   1      44.011  26.351  29.971  1.00  0.00     0.031 C 
ATOM     57  C   UNL A   1      43.092  29.190  35.249  1.00  0.00     0.029 A 
ATOM     58  C   UNL A   1      42.927  28.717  33.958  1.00  0.00     0.049 A 
ATOM     59  H   UNL A   1      41.457  29.226  32.533  1.00  0.00     0.167 HD
ATOM     60  C   UNL A   1      43.531  27.382  31.960  1.00  0.00     0.074 A 
ATOM     61  C   UNL A   1      44.396  26.476  31.233  1.00  0.00     0.031 C 
ATOM     62  C   UNL A   1      43.736  27.765  33.244  1.00  0.00     0.034 A 
BRANCH  49  63
ATOM     63  C   UNL A   1      39.662  31.916  35.321  1.00  0.00     0.023 A 
ATOM     64  C   UNL A   1      40.028  33.278  35.309  1.00  0.00     0.012 A 
ATOM     65  C   UNL A   1      38.837  31.431  36.354  1.00  0.00     0.148 A 
ATOM     66  C   UNL A   1      39.605  34.137  36.322  1.00  0.00     0.002 A 
ATOM     67  C   UNL A   1      38.386  32.302  37.339  1.00  0.00     0.091 A 
ATOM     68  F   UNL A   1      38.519  30.129  36.361  1.00  0.00    -0.205 F 
ATOM     69  C   UNL A   1      38.777  33.652  37.330  1.00  0.00     0.022 A 
BRANCH  67  70
ATOM     70  S   UNL A   1      37.257  31.796  38.641  1.00  0.00     0.127 S 
ATOM     71  O   UNL A   1      36.969  30.414  38.261  1.00  0.00    -0.237 OA
ATOM     72  O   UNL A   1      38.084  31.939  39.840  1.00  0.00    -0.237 OA
ATOM     73  O   UNL A   1      36.127  32.712  38.571  1.00  0.00    -0.744 OA
ENDBRANCH  67  70
ENDBRANCH  49  63
BRANCH  50  74
ATOM     74  C   UNL A   1      42.426  26.343  27.503  1.00  0.00     0.023 A 
ATOM     75  C   UNL A   1      43.198  26.955  26.495  1.00  0.00     0.012 A 
ATOM     76  C   UNL A   1      42.107  24.977  27.387  1.00  0.00     0.148 A 
ATOM     77  C   UNL A   1      43.612  26.232  25.376  1.00  0.00     0.002 A 
ATOM     78  C   UNL A   1      42.567  24.249  26.294  1.00  0.00     0.091 A 
ATOM     79  F   UNL A   1      41.359  24.412  28.345  1.00  0.00    -0.205 F 
ATOM     80  C   UNL A   1      43.305  24.877  25.280  1.00  0.00     0.022 A 
BRANCH  78  81
ATOM     81  S   UNL A   1      42.325  22.474  26.163  1.00  0.00     0.127 S 
ATOM     82  O   UNL A   1      40.871  22.376  26.066  1.00  0.00    -0.237 OA
ATOM     83  O   UNL A   1      43.048  22.152  24.932  1.00  0.00    -0.237 OA
ATOM     84  O   UNL A   1      42.925  21.916  27.368  1.00  0.00    -0.744 OA
ENDBRANCH  78  81
ENDBRANCH  50  74
BRANCH  62  85
ATOM     85  C   UNL A   1      44.918  27.178  33.968  1.00  0.00     0.023 A 
ATOM     86  C   UNL A   1      46.160  27.842  33.922  1.00  0.00     0.012 A 
ATOM     87  C   UNL A   1      44.778  26.021  34.758  1.00  0.00     0.148 A 
ATOM     88  C   UNL A   1      47.253  27.346  34.632  1.00  0.00     0.002 A 
ATOM     89  C   UNL A   1      45.859  25.557  35.497  1.00  0.00     0.091 A 
ATOM     90  F   UNL A   1      43.593  25.393  34.771  1.00  0.00    -0.205 F 
ATOM     91  C   UNL A   1      47.100  26.213  35.427  1.00  0.00     0.022 A 
BRANCH  89  92
ATOM     92  S   UNL A   1      45.725  24.161  36.620  1.00  0.00     0.127 S 
ATOM     93  O   UNL A   1      45.367  23.077  35.707  1.00  0.00    -0.237 OA
ATOM     94  O   UNL A   1      47.076  24.072  37.174  1.00  0.00    -0.237 OA
ATOM     95  O   UNL A   1      44.700  24.530  37.590  1.00  0.00    -0.744 OA
ENDBRANCH  89  92
ENDBRANCH  62  85
ENDBRANCH  36  37
ENDBRANCH  28  31
ENDBRANCH  26  27
ENDBRANCH  25  26
ENDBRANCH  24  25
ENDBRANCH   1  24
TORSDOF 20
ENDMDL
MODEL 3
REMARK VINA RESULT:     -10.6      2.547      3.609
REMARK SMILES CC(C)(C)N(CC(=O)NCCCCNC(=O)c1ccc(-c2c3nc(c(-c4cccc(S(=O)(=O)[O-])c4F)c4ccc([nH]4)c(-c4cccc(S(=O)(=O)[O-])c4F)c4nc(c(-c5cccc(S(=O)(=O)[O-])c5F)c5ccc2[nH]5)C=C4)C=C3)cc1)C(=O)N1CC[C@H](C[NH3+])C1
REMARK SMILES IDX 10 1 9 2 7 3 8 4 6 6 5 7 2 8 1 9 3 10 4 11 80 12 81 13 82 14
REMARK SMILES IDX 83 15 88 16 84 17 85 18 86 19 87 20 11 24 12 25 13 26 14 27
REMARK SMILES IDX 15 28 16 30 17 31 18 32 79 33 19 34 78 35 20 36 21 37 22 38
REMARK SMILES IDX 72 39 23 40 77 41 71 42 73 43 24 44 76 45 70 46 69 47 25 49
REMARK SMILES IDX 57 50 37 51 56 52 38 53 41 54 55 55 74 56 39 57 40 58 54 60
REMARK SMILES IDX 75 61 42 62 26 63 27 64 35 65 28 66 30 67 36 68 29 69 31 70
REMARK SMILES IDX 32 71 33 72 34 73 58 74 59 75 67 76 60 77 62 78 68 79 61 80
REMARK SMILES IDX 63 81 64 82 65 83 66 84 43 85 44 86 52 87 45 88 47 89 53 90
REMARK SMILES IDX 46 91 48 92 49 93 50 94 51 95
REMARK H PARENT 9 5 87 21 87 22 87 23 14 29 73 48 41 59
REMARK Flexibility Score: inf
ROOT
ATOM      1  C   UNL A   1      32.645  28.597  23.361  1.00  0.00     0.116 C 
ENDROOT
BRANCH   1   2
ATOM      2  N   UNL A   1      33.408  27.623  22.622  1.00  0.00    -0.355 N 
ATOM      3  C   UNL A   1      33.115  26.320  22.347  1.00  0.00     0.239 C 
ATOM      4  O   UNL A   1      33.777  25.778  21.453  1.00  0.00    -0.273 OA
ATOM      5  H   UNL A   1      34.267  27.945  22.263  1.00  0.00     0.163 HD
BRANCH   3   6
ATOM      6  C   UNL A   1      31.925  25.567  22.977  1.00  0.00     0.221 C 
BRANCH   6   7
ATOM      7  N   UNL A   1      32.147  24.509  23.985  1.00  0.00    -0.311 N 
BRANCH   7   8
ATOM      8  C   UNL A   1      31.556  24.653  25.378  1.00  0.00     0.037 C 
ATOM      9  C   UNL A   1      30.395  25.682  25.489  1.00  0.00     0.034 C 
ATOM     10  C   UNL A   1      32.618  25.092  26.414  1.00  0.00     0.034 C 
ATOM     11  C   UNL A   1      30.936  23.309  25.838  1.00  0.00     0.034 C 
ENDBRANCH   7   8
BRANCH   7  12
ATOM     12  C   UNL A   1      32.511  23.207  23.566  1.00  0.00     0.320 C 
ATOM     13  O   UNL A   1      31.927  22.602  22.668  1.00  0.00    -0.248 OA
BRANCH  12  14
ATOM     14  N   UNL A   1      33.705  22.721  24.047  1.00  0.00    -0.324 N 
ATOM     15  C   UNL A   1      33.990  21.327  24.322  1.00  0.00     0.122 C 
ATOM     16  C   UNL A   1      34.950  23.339  23.624  1.00  0.00     0.130 C 
ATOM     17  C   UNL A   1      35.292  21.436  25.095  1.00  0.00     0.033 C 
ATOM     18  C   UNL A   1      36.059  22.524  24.316  1.00  0.00     0.065 C 
BRANCH  18  19
ATOM     19  C   UNL A   1      36.950  23.416  25.181  1.00  0.00     0.264 C 
BRANCH  19  20
ATOM     20  N   UNL A   1      37.673  22.663  26.199  1.00  0.00    -0.357 N 
ATOM     21  H   UNL A   1      38.676  22.807  26.080  1.00  0.00     0.344 HD
ATOM     22  H   UNL A   1      37.460  21.670  26.103  1.00  0.00     0.344 HD
ATOM     23  H   UNL A   1      37.392  22.983  27.124  1.00  0.00     0.344 HD
ENDBRANCH  19  20
ENDBRANCH  18  19
ENDBRANCH  12  14
ENDBRANCH   7  12
ENDBRANCH   6   7
ENDBRANCH   3   6
ENDBRANCH   1   2
BRANCH   1  24
ATOM     24  C   UNL A   1      33.322  29.076  24.641  1.00  0.00     0.023 C 
BRANCH  24  25
ATOM     25  C   UNL A   1      32.629  28.680  25.943  1.00  0.00     0.023 C 
BRANCH  25  26
ATOM     26  C   UNL A   1      33.413  28.949  27.224  1.00  0.00     0.116 C 
BRANCH  26  27
ATOM     27  N   UNL A   1      33.525  30.358  27.579  1.00  0.00    -0.352 N 
ATOM     28  C   UNL A   1      34.601  31.022  28.126  1.00  0.00     0.251 C 
ATOM     29  H   UNL A   1      32.727  30.908  27.407  1.00  0.00     0.163 HD
ATOM     30  O   UNL A   1      34.518  32.217  28.401  1.00  0.00    -0.269 OA
BRANCH  28  31
ATOM     31  C   UNL A   1      35.838  30.271  28.424  1.00  0.00     0.039 A 
ATOM     32  C   UNL A   1      36.891  30.315  27.508  1.00  0.00     0.014 A 
ATOM     33  C   UNL A   1      35.982  29.589  29.635  1.00  0.00     0.014 A 
ATOM     34  C   UNL A   1      38.125  29.756  27.849  1.00  0.00     0.010 A 
ATOM     35  C   UNL A   1      37.232  29.104  30.003  1.00  0.00     0.010 A 
ATOM     36  C   UNL A   1      38.319  29.189  29.119  1.00  0.00    -0.014 A 
BRANCH  36  37
ATOM     37  C   UNL A   1      39.653  28.705  29.562  1.00  0.00     0.031 A 
ATOM     38  C   UNL A   1      40.399  29.436  30.643  1.00  0.00     0.074 A 
ATOM     39  C   UNL A   1      40.236  27.677  28.914  1.00  0.00     0.049 A 
ATOM     40  N   UNL A   1      41.608  29.229  31.095  1.00  0.00    -0.248 NA
ATOM     41  C   UNL A   1      39.709  30.573  31.279  1.00  0.00     0.031 C 
ATOM     42  C   UNL A   1      39.654  26.941  27.788  1.00  0.00     0.029 A 
ATOM     43  N   UNL A   1      41.466  27.091  29.087  1.00  0.00    -0.354 N 
ATOM     44  C   UNL A   1      41.840  30.228  32.034  1.00  0.00     0.074 A 
ATOM     45  C   UNL A   1      40.659  31.062  32.063  1.00  0.00     0.031 C 
ATOM     46  C   UNL A   1      40.522  26.003  27.377  1.00  0.00     0.029 A 
ATOM     47  C   UNL A   1      41.732  26.083  28.189  1.00  0.00     0.049 A 
ATOM     48  H   UNL A   1      42.099  27.366  29.790  1.00  0.00     0.167 HD
ATOM     49  C   UNL A   1      42.922  30.413  32.826  1.00  0.00     0.034 A 
ATOM     50  C   UNL A   1      42.827  25.313  28.035  1.00  0.00     0.034 A 
ATOM     51  C   UNL A   1      44.067  29.544  32.841  1.00  0.00     0.049 A 
ATOM     52  C   UNL A   1      43.987  25.498  28.976  1.00  0.00     0.074 A 
ATOM     53  C   UNL A   1      45.175  29.595  33.669  1.00  0.00     0.029 A 
ATOM     54  N   UNL A   1      44.248  28.462  31.995  1.00  0.00    -0.354 N 
ATOM     55  N   UNL A   1      44.119  26.350  29.965  1.00  0.00    -0.248 NA
ATOM     56  C   UNL A   1      45.134  24.594  28.806  1.00  0.00     0.031 C 
ATOM     57  C   UNL A   1      46.028  28.543  33.321  1.00  0.00     0.029 A 
ATOM     58  C   UNL A   1      45.446  27.832  32.284  1.00  0.00     0.049 A 
ATOM     59  H   UNL A   1      43.617  28.181  31.294  1.00  0.00     0.167 HD
ATOM     60  C   UNL A   1      45.343  26.058  30.557  1.00  0.00     0.074 A 
ATOM     61  C   UNL A   1      45.904  24.938  29.829  1.00  0.00     0.031 C 
ATOM     62  C   UNL A   1      45.957  26.676  31.596  1.00  0.00     0.034 A 
BRANCH  49  63
ATOM     63  C   UNL A   1      42.885  31.558  33.802  1.00  0.00     0.023 A 
ATOM     64  C   UNL A   1      43.287  32.840  33.374  1.00  0.00     0.012 A 
ATOM     65  C   UNL A   1      42.400  31.387  35.113  1.00  0.00     0.148 A 
ATOM     66  C   UNL A   1      43.235  33.929  34.243  1.00  0.00     0.002 A 
ATOM     67  C   UNL A   1      42.313  32.485  35.962  1.00  0.00     0.091 A 
ATOM     68  F   UNL A   1      42.044  30.157  35.509  1.00  0.00    -0.205 F 
ATOM     69  C   UNL A   1      42.739  33.754  35.531  1.00  0.00     0.022 A 
BRANCH  67  70
ATOM     70  S   UNL A   1      41.622  32.382  37.616  1.00  0.00     0.127 S 
ATOM     71  O   UNL A   1      42.399  31.287  38.193  1.00  0.00    -0.237 OA
ATOM     72  O   UNL A   1      41.931  33.704  38.163  1.00  0.00    -0.237 OA
ATOM     73  O   UNL A   1      40.201  32.116  37.441  1.00  0.00    -0.744 OA
ENDBRANCH  67  70
ENDBRANCH  49  63
BRANCH  50  74
ATOM     74  C   UNL A   1      42.848  24.236  27.004  1.00  0.00     0.023 A 
ATOM     75  C   UNL A   1      43.562  24.445  25.808  1.00  0.00     0.012 A 
ATOM     76  C   UNL A   1      42.188  23.009  27.202  1.00  0.00     0.148 A 
ATOM     77  C   UNL A   1      43.588  23.468  24.812  1.00  0.00     0.002 A 
ATOM     78  C   UNL A   1      42.261  22.018  26.227  1.00  0.00     0.091 A 
ATOM     79  F   UNL A   1      41.498  22.830  28.338  1.00  0.00    -0.205 F 
ATOM     80  C   UNL A   1      42.946  22.252  25.025  1.00  0.00     0.022 A 
BRANCH  78  81
ATOM     81  S   UNL A   1      41.570  20.380  26.481  1.00  0.00     0.127 S 
ATOM     82  O   UNL A   1      42.102  20.030  27.795  1.00  0.00    -0.237 OA
ATOM     83  O   UNL A   1      40.130  20.642  26.449  1.00  0.00    -0.237 OA
ATOM     84  O   UNL A   1      42.054  19.583  25.361  1.00  0.00    -0.744 OA
ENDBRANCH  78  81
ENDBRANCH  50  74
BRANCH  62  85
ATOM     85  C   UNL A   1      47.289  26.135  32.041  1.00  0.00     0.023 A 
ATOM     86  C   UNL A   1      48.468  26.591  31.419  1.00  0.00     0.012 A 
ATOM     87  C   UNL A   1      47.378  25.243  33.128  1.00  0.00     0.148 A 
ATOM     88  C   UNL A   1      49.715  26.145  31.855  1.00  0.00     0.002 A 
ATOM     89  C   UNL A   1      48.625  24.838  33.585  1.00  0.00     0.091 A 
ATOM     90  F   UNL A   1      46.243  24.805  33.693  1.00  0.00    -0.205 F 
ATOM     91  C   UNL A   1      49.795  25.280  32.944  1.00  0.00     0.022 A 
BRANCH  89  92
ATOM     92  S   UNL A   1      48.823  23.801  35.039  1.00  0.00     0.127 S 
ATOM     93  O   UNL A   1      48.288  22.524  34.569  1.00  0.00    -0.237 OA
ATOM     94  O   UNL A   1      50.273  23.817  35.242  1.00  0.00    -0.237 OA
ATOM     95  O   UNL A   1      48.060  24.451  36.097  1.00  0.00    -0.744 OA
ENDBRANCH  89  92
ENDBRANCH  62  85
ENDBRANCH  36  37
ENDBRANCH  28  31
ENDBRANCH  26  27
ENDBRANCH  25  26
ENDBRANCH  24  25
ENDBRANCH   1  24
TORSDOF 20
ENDMDL
