MODEL 1
REMARK VINA RESULT:     -11.1      0.000      0.000
REMARK SMILES Nc1nc(N)nc(N/C=C/C(=O)NCCCCNC(=O)c2ccc(-c3c4nc(c(-c5cccc(S(=O)(=O)[O-])c5F)c5ccc([nH]5)c(-c5cccc(S(=O)(=O)[O-])c5F)c5nc(c(-c6cccc(S(=O)(=O)[O-])c6F)c6ccc3[nH]6)C=C5)C=C4)cc2)n1
REMARK SMILES IDX 15 1 14 2 13 3 11 4 12 5 10 7 9 8 8 9 7 11 2 12 3 13 84 14
REMARK SMILES IDX 4 15 6 16 1 17 5 20 16 23 17 24 18 25 19 26 20 28 21 29
REMARK SMILES IDX 22 30 83 31 23 32 82 33 24 34 25 35 26 36 76 37 27 38 81 39
REMARK SMILES IDX 75 40 77 41 28 42 80 43 74 44 73 45 29 47 61 48 41 49 60 50
REMARK SMILES IDX 42 51 45 52 59 53 78 54 43 55 44 56 58 58 79 59 46 60 30 61
REMARK SMILES IDX 31 62 39 63 32 64 34 65 40 66 33 67 35 68 36 69 37 70 38 71
REMARK SMILES IDX 62 72 63 73 71 74 64 75 66 76 72 77 65 78 67 79 68 80 69 81
REMARK SMILES IDX 70 82 47 83 48 84 56 85 49 86 51 87 57 88 50 89 52 90 53 91
REMARK SMILES IDX 54 92 55 93
REMARK H PARENT 13 6 8 10 1 18 1 19 5 21 5 22 18 27 77 46 45 57
REMARK Flexibility Score: inf
ROOT
ATOM      1  C   UNL A   1      34.791  30.661  27.911  1.00  0.00     0.023 C 
ENDROOT
BRANCH   1   2
ATOM      2  C   UNL A   1      34.460  29.372  27.155  1.00  0.00     0.116 C 
BRANCH   2   3
ATOM      3  N   UNL A   1      33.240  28.765  27.659  1.00  0.00    -0.353 N 
ATOM      4  C   UNL A   1      32.031  28.554  27.071  1.00  0.00     0.245 C 
ATOM      5  O   UNL A   1      31.166  27.923  27.677  1.00  0.00    -0.270 OA
ATOM      6  H   UNL A   1      33.296  28.452  28.590  1.00  0.00     0.163 HD
BRANCH   4   7
ATOM      7  C   UNL A   1      31.744  28.982  25.680  1.00  0.00     0.089 C 
ATOM      8  C   UNL A   1      31.491  28.168  24.651  1.00  0.00     0.091 C 
BRANCH   8   9
ATOM      9  N   UNL A   1      31.192  28.506  23.360  1.00  0.00    -0.330 N 
ATOM     10  H   UNL A   1      31.885  28.343  22.680  1.00  0.00     0.169 HD
BRANCH   9  11
ATOM     11  C   UNL A   1      29.988  29.061  22.925  1.00  0.00     0.233 A 
ATOM     12  C   UNL A   1      27.758  28.941  22.804  1.00  0.00     0.226 A 
ATOM     13  N   UNL A   1      27.677  29.989  22.003  1.00  0.00    -0.177 NA
ATOM     14  N   UNL A   1      28.879  28.423  23.279  1.00  0.00    -0.177 NA
ATOM     15  C   UNL A   1      28.835  30.545  21.696  1.00  0.00     0.226 A 
ATOM     16  N   UNL A   1      30.008  30.137  22.141  1.00  0.00    -0.177 NA
BRANCH  12  17
ATOM     17  N   UNL A   1      26.585  28.347  23.176  1.00  0.00    -0.368 N 
ATOM     18  H   UNL A   1      26.402  27.414  22.919  1.00  0.00     0.159 HD
ATOM     19  H   UNL A   1      25.921  28.852  23.700  1.00  0.00     0.159 HD
ENDBRANCH  12  17
BRANCH  15  20
ATOM     20  N   UNL A   1      28.822  31.608  20.839  1.00  0.00    -0.368 N 
ATOM     21  H   UNL A   1      29.648  32.118  20.675  1.00  0.00     0.159 HD
ATOM     22  H   UNL A   1      27.987  31.863  20.383  1.00  0.00     0.159 HD
ENDBRANCH  15  20
ENDBRANCH   9  11
ENDBRANCH   8   9
ENDBRANCH   4   7
ENDBRANCH   2   3
ENDBRANCH   1   2
BRANCH   1  23
ATOM     23  C   UNL A   1      34.227  31.931  27.267  1.00  0.00     0.023 C 
BRANCH  23  24
ATOM     24  C   UNL A   1      32.794  32.279  27.662  1.00  0.00     0.116 C 
BRANCH  24  25
ATOM     25  N   UNL A   1      32.562  33.711  27.785  1.00  0.00    -0.352 N 
ATOM     26  C   UNL A   1      33.217  34.621  28.583  1.00  0.00     0.251 C 
ATOM     27  H   UNL A   1      31.843  34.078  27.222  1.00  0.00     0.163 HD
ATOM     28  O   UNL A   1      32.829  35.779  28.641  1.00  0.00    -0.269 OA
BRANCH  26  29
ATOM     29  C   UNL A   1      34.368  34.173  29.399  1.00  0.00     0.039 A 
ATOM     30  C   UNL A   1      34.125  33.430  30.557  1.00  0.00     0.014 A 
ATOM     31  C   UNL A   1      35.678  34.456  29.003  1.00  0.00     0.014 A 
ATOM     32  C   UNL A   1      35.200  32.912  31.282  1.00  0.00     0.010 A 
ATOM     33  C   UNL A   1      36.744  33.883  29.689  1.00  0.00     0.010 A 
ATOM     34  C   UNL A   1      36.517  33.105  30.834  1.00  0.00    -0.014 A 
BRANCH  34  35
ATOM     35  C   UNL A   1      37.669  32.481  31.531  1.00  0.00     0.031 A 
ATOM     36  C   UNL A   1      38.414  31.340  30.896  1.00  0.00     0.074 A 
ATOM     37  C   UNL A   1      37.979  32.874  32.783  1.00  0.00     0.049 A 
ATOM     38  N   UNL A   1      39.405  30.633  31.376  1.00  0.00    -0.248 NA
ATOM     39  C   UNL A   1      37.970  30.918  29.557  1.00  0.00     0.031 C 
ATOM     40  C   UNL A   1      37.274  33.909  33.543  1.00  0.00     0.029 A 
ATOM     41  N   UNL A   1      38.946  32.429  33.648  1.00  0.00    -0.354 N 
ATOM     42  C   UNL A   1      39.676  29.661  30.420  1.00  0.00     0.074 A 
ATOM     43  C   UNL A   1      38.724  29.849  29.346  1.00  0.00     0.031 C 
ATOM     44  C   UNL A   1      37.835  34.022  34.756  1.00  0.00     0.029 A 
ATOM     45  C   UNL A   1      38.921  33.054  34.873  1.00  0.00     0.049 A 
ATOM     46  H   UNL A   1      39.597  31.728  33.414  1.00  0.00     0.167 HD
ATOM     47  C   UNL A   1      40.648  28.719  30.420  1.00  0.00     0.034 A 
ATOM     48  C   UNL A   1      39.687  32.870  35.966  1.00  0.00     0.034 A 
ATOM     49  C   UNL A   1      41.624  28.570  31.465  1.00  0.00     0.049 A 
ATOM     50  C   UNL A   1      40.796  31.854  35.919  1.00  0.00     0.074 A 
ATOM     51  C   UNL A   1      42.712  27.716  31.511  1.00  0.00     0.029 A 
ATOM     52  N   UNL A   1      41.628  29.287  32.652  1.00  0.00    -0.354 N 
ATOM     53  N   UNL A   1      41.150  31.063  34.935  1.00  0.00    -0.248 NA
ATOM     54  C   UNL A   1      41.637  31.731  37.119  1.00  0.00     0.031 C 
ATOM     55  C   UNL A   1      43.366  27.908  32.733  1.00  0.00     0.029 A 
ATOM     56  C   UNL A   1      42.694  28.891  33.441  1.00  0.00     0.049 A 
ATOM     57  H   UNL A   1      40.970  29.976  32.896  1.00  0.00     0.167 HD
ATOM     58  C   UNL A   1      42.271  30.374  35.381  1.00  0.00     0.074 A 
ATOM     59  C   UNL A   1      42.550  30.856  36.720  1.00  0.00     0.031 C 
ATOM     60  C   UNL A   1      42.994  29.417  34.749  1.00  0.00     0.034 A 
BRANCH  47  61
ATOM     61  C   UNL A   1      40.741  27.815  29.218  1.00  0.00     0.023 A 
ATOM     62  C   UNL A   1      39.940  26.656  29.160  1.00  0.00     0.012 A 
ATOM     63  C   UNL A   1      41.582  28.128  28.133  1.00  0.00     0.148 A 
ATOM     64  C   UNL A   1      40.002  25.801  28.061  1.00  0.00     0.002 A 
ATOM     65  C   UNL A   1      41.607  27.292  27.021  1.00  0.00     0.091 A 
ATOM     66  F   UNL A   1      42.355  29.219  28.213  1.00  0.00    -0.205 F 
ATOM     67  C   UNL A   1      40.828  26.125  26.989  1.00  0.00     0.022 A 
BRANCH  65  68
ATOM     68  S   UNL A   1      42.582  27.666  25.559  1.00  0.00     0.127 S 
ATOM     69  O   UNL A   1      43.936  27.713  26.111  1.00  0.00    -0.237 OA
ATOM     70  O   UNL A   1      42.315  26.509  24.703  1.00  0.00    -0.237 OA
ATOM     71  O   UNL A   1      42.064  28.926  25.048  1.00  0.00    -0.744 OA
ENDBRANCH  65  68
ENDBRANCH  47  61
BRANCH  48  72
ATOM     72  C   UNL A   1      39.485  33.731  37.164  1.00  0.00     0.023 A 
ATOM     73  C   UNL A   1      39.936  35.065  37.133  1.00  0.00     0.012 A 
ATOM     74  C   UNL A   1      38.813  33.259  38.308  1.00  0.00     0.148 A 
ATOM     75  C   UNL A   1      39.745  35.907  38.229  1.00  0.00     0.002 A 
ATOM     76  C   UNL A   1      38.579  34.118  39.376  1.00  0.00     0.091 A 
ATOM     77  F   UNL A   1      38.401  31.984  38.322  1.00  0.00    -0.205 F 
ATOM     78  C   UNL A   1      39.057  35.438  39.345  1.00  0.00     0.022 A 
BRANCH  76  79
ATOM     79  S   UNL A   1      37.591  33.641  40.799  1.00  0.00     0.127 S 
ATOM     80  O   UNL A   1      37.428  34.918  41.491  1.00  0.00    -0.237 OA
ATOM     81  O   UNL A   1      36.378  33.125  40.165  1.00  0.00    -0.237 OA
ATOM     82  O   UNL A   1      38.376  32.636  41.501  1.00  0.00    -0.744 OA
ENDBRANCH  76  79
ENDBRANCH  48  72
BRANCH  60  83
ATOM     83  C   UNL A   1      44.178  28.839  35.478  1.00  0.00     0.023 A 
ATOM     84  C   UNL A   1      45.459  29.385  35.268  1.00  0.00     0.012 A 
ATOM     85  C   UNL A   1      44.010  27.813  36.427  1.00  0.00     0.148 A 
ATOM     86  C   UNL A   1      46.561  28.900  35.973  1.00  0.00     0.002 A 
ATOM     87  C   UNL A   1      45.104  27.364  37.159  1.00  0.00     0.091 A 
ATOM     88  F   UNL A   1      42.786  27.291  36.597  1.00  0.00    -0.205 F 
ATOM     89  C   UNL A   1      46.382  27.900  36.925  1.00  0.00     0.022 A 
BRANCH  87  90
ATOM     90  S   UNL A   1      44.947  26.146  38.471  1.00  0.00     0.127 S 
ATOM     91  O   UNL A   1      44.434  24.988  37.742  1.00  0.00    -0.237 OA
ATOM     92  O   UNL A   1      46.328  26.011  38.938  1.00  0.00    -0.237 OA
ATOM     93  O   UNL A   1      44.037  26.728  39.447  1.00  0.00    -0.744 OA
ENDBRANCH  87  90
ENDBRANCH  60  83
ENDBRANCH  34  35
ENDBRANCH  26  29
ENDBRANCH  24  25
ENDBRANCH  23  24
ENDBRANCH   1  23
TORSDOF 18
ENDMDL
MODEL 2
REMARK VINA RESULT:     -11.0      2.467      8.450
REMARK SMILES Nc1nc(N)nc(N/C=C/C(=O)NCCCCNC(=O)c2ccc(-c3c4nc(c(-c5cccc(S(=O)(=O)[O-])c5F)c5ccc([nH]5)c(-c5cccc(S(=O)(=O)[O-])c5F)c5nc(c(-c6cccc(S(=O)(=O)[O-])c6F)c6ccc3[nH]6)C=C5)C=C4)cc2)n1
REMARK SMILES IDX 15 1 14 2 13 3 11 4 12 5 10 7 9 8 8 9 7 11 2 12 3 13 84 14
REMARK SMILES IDX 4 15 6 16 1 17 5 20 16 23 17 24 18 25 19 26 20 28 21 29
REMARK SMILES IDX 22 30 83 31 23 32 82 33 24 34 25 35 26 36 76 37 27 38 81 39
REMARK SMILES IDX 75 40 77 41 28 42 80 43 74 44 73 45 29 47 61 48 41 49 60 50
REMARK SMILES IDX 42 51 45 52 59 53 78 54 43 55 44 56 58 58 79 59 46 60 30 61
REMARK SMILES IDX 31 62 39 63 32 64 34 65 40 66 33 67 35 68 36 69 37 70 38 71
REMARK SMILES IDX 62 72 63 73 71 74 64 75 66 76 72 77 65 78 67 79 68 80 69 81
REMARK SMILES IDX 70 82 47 83 48 84 56 85 49 86 51 87 57 88 50 89 52 90 53 91
REMARK SMILES IDX 54 92 55 93
REMARK H PARENT 13 6 8 10 1 18 1 19 5 21 5 22 18 27 77 46 45 57
REMARK Flexibility Score: inf
ROOT
ATOM      1  C   UNL A   1      32.492  27.422  26.949  1.00  0.00     0.023 C 
ENDROOT
BRANCH   1   2
ATOM      2  C   UNL A   1      31.726  26.410  26.092  1.00  0.00     0.116 C 
BRANCH   2   3
ATOM      3  N   UNL A   1      32.191  26.429  24.716  1.00  0.00    -0.353 N 
ATOM      4  C   UNL A   1      31.671  27.005  23.598  1.00  0.00     0.245 C 
ATOM      5  O   UNL A   1      32.306  26.964  22.545  1.00  0.00    -0.270 OA
ATOM      6  H   UNL A   1      33.031  25.937  24.564  1.00  0.00     0.163 HD
BRANCH   4   7
ATOM      7  C   UNL A   1      30.398  27.765  23.621  1.00  0.00     0.089 C 
ATOM      8  C   UNL A   1      29.893  28.471  22.605  1.00  0.00     0.091 C 
BRANCH   8   9
ATOM      9  N   UNL A   1      28.715  29.164  22.561  1.00  0.00    -0.330 N 
ATOM     10  H   UNL A   1      27.891  28.666  22.763  1.00  0.00     0.169 HD
BRANCH   9  11
ATOM     11  C   UNL A   1      28.583  30.519  22.252  1.00  0.00     0.233 A 
ATOM     12  C   UNL A   1      27.973  32.099  20.792  1.00  0.00     0.226 A 
ATOM     13  N   UNL A   1      28.441  33.076  21.549  1.00  0.00    -0.177 NA
ATOM     14  N   UNL A   1      28.032  30.809  21.080  1.00  0.00    -0.177 NA
ATOM     15  C   UNL A   1      28.983  32.685  22.688  1.00  0.00     0.226 A 
ATOM     16  N   UNL A   1      29.062  31.432  23.094  1.00  0.00    -0.177 NA
BRANCH  12  17
ATOM     17  N   UNL A   1      27.375  32.453  19.615  1.00  0.00    -0.368 N 
ATOM     18  H   UNL A   1      27.251  31.783  18.904  1.00  0.00     0.159 HD
ATOM     19  H   UNL A   1      27.067  33.378  19.478  1.00  0.00     0.159 HD
ENDBRANCH  12  17
BRANCH  15  20
ATOM     20  N   UNL A   1      29.522  33.644  23.498  1.00  0.00    -0.368 N 
ATOM     21  H   UNL A   1      30.219  34.246  23.151  1.00  0.00     0.159 HD
ATOM     22  H   UNL A   1      29.212  33.733  24.428  1.00  0.00     0.159 HD
ENDBRANCH  15  20
ENDBRANCH   9  11
ENDBRANCH   8   9
ENDBRANCH   4   7
ENDBRANCH   2   3
ENDBRANCH   1   2
BRANCH   1  23
ATOM     23  C   UNL A   1      31.973  28.859  26.841  1.00  0.00     0.023 C 
BRANCH  23  24
ATOM     24  C   UNL A   1      32.908  29.836  26.132  1.00  0.00     0.116 C 
BRANCH  24  25
ATOM     25  N   UNL A   1      32.733  31.216  26.562  1.00  0.00    -0.352 N 
ATOM     26  C   UNL A   1      33.527  31.958  27.406  1.00  0.00     0.251 C 
ATOM     27  H   UNL A   1      31.943  31.679  26.202  1.00  0.00     0.163 HD
ATOM     28  O   UNL A   1      33.180  33.082  27.746  1.00  0.00    -0.269 OA
BRANCH  26  29
ATOM     29  C   UNL A   1      34.780  31.370  27.927  1.00  0.00     0.039 A 
ATOM     30  C   UNL A   1      35.921  32.172  28.004  1.00  0.00     0.014 A 
ATOM     31  C   UNL A   1      34.818  30.044  28.368  1.00  0.00     0.014 A 
ATOM     32  C   UNL A   1      37.083  31.665  28.589  1.00  0.00     0.010 A 
ATOM     33  C   UNL A   1      35.955  29.563  29.010  1.00  0.00     0.010 A 
ATOM     34  C   UNL A   1      37.098  30.368  29.128  1.00  0.00    -0.014 A 
BRANCH  34  35
ATOM     35  C   UNL A   1      38.288  29.842  29.843  1.00  0.00     0.031 A 
ATOM     36  C   UNL A   1      38.636  30.349  31.214  1.00  0.00     0.074 A 
ATOM     37  C   UNL A   1      39.115  28.984  29.212  1.00  0.00     0.049 A 
ATOM     38  N   UNL A   1      39.665  30.053  31.966  1.00  0.00    -0.248 NA
ATOM     39  C   UNL A   1      37.726  31.342  31.808  1.00  0.00     0.031 C 
ATOM     40  C   UNL A   1      38.934  28.486  27.846  1.00  0.00     0.029 A 
ATOM     41  N   UNL A   1      40.286  28.402  29.625  1.00  0.00    -0.354 N 
ATOM     42  C   UNL A   1      39.548  30.848  33.100  1.00  0.00     0.074 A 
ATOM     43  C   UNL A   1      38.365  31.663  32.924  1.00  0.00     0.031 C 
ATOM     44  C   UNL A   1      39.954  27.671  27.537  1.00  0.00     0.029 A 
ATOM     45  C   UNL A   1      40.874  27.606  28.669  1.00  0.00     0.049 A 
ATOM     46  H   UNL A   1      40.670  28.540  30.520  1.00  0.00     0.167 HD
ATOM     47  C   UNL A   1      40.334  30.874  34.203  1.00  0.00     0.034 A 
ATOM     48  C   UNL A   1      42.022  26.903  28.700  1.00  0.00     0.034 A 
ATOM     49  C   UNL A   1      41.477  30.025  34.397  1.00  0.00     0.049 A 
ATOM     50  C   UNL A   1      42.848  26.906  29.958  1.00  0.00     0.074 A 
ATOM     51  C   UNL A   1      42.277  29.901  35.519  1.00  0.00     0.029 A 
ATOM     52  N   UNL A   1      41.990  29.159  33.443  1.00  0.00    -0.354 N 
ATOM     53  N   UNL A   1      42.625  27.530  31.090  1.00  0.00    -0.248 NA
ATOM     54  C   UNL A   1      44.063  26.079  29.958  1.00  0.00     0.031 C 
ATOM     55  C   UNL A   1      43.281  28.968  35.239  1.00  0.00     0.029 A 
ATOM     56  C   UNL A   1      43.099  28.501  33.947  1.00  0.00     0.049 A 
ATOM     57  H   UNL A   1      41.618  29.030  32.541  1.00  0.00     0.167 HD
ATOM     58  C   UNL A   1      43.650  27.147  31.946  1.00  0.00     0.074 A 
ATOM     59  C   UNL A   1      44.485  26.219  31.208  1.00  0.00     0.031 C 
ATOM     60  C   UNL A   1      43.889  27.539  33.222  1.00  0.00     0.034 A 
BRANCH  47  61
ATOM     61  C   UNL A   1      39.941  31.813  35.314  1.00  0.00     0.023 A 
ATOM     62  C   UNL A   1      40.496  33.108  35.354  1.00  0.00     0.012 A 
ATOM     63  C   UNL A   1      38.999  31.435  36.290  1.00  0.00     0.148 A 
ATOM     64  C   UNL A   1      40.151  34.000  36.369  1.00  0.00     0.002 A 
ATOM     65  C   UNL A   1      38.628  32.345  37.275  1.00  0.00     0.091 A 
ATOM     66  F   UNL A   1      38.499  30.192  36.253  1.00  0.00    -0.205 F 
ATOM     67  C   UNL A   1      39.211  33.621  37.323  1.00  0.00     0.022 A 
BRANCH  65  68
ATOM     68  S   UNL A   1      37.368  31.975  38.502  1.00  0.00     0.127 S 
ATOM     69  O   UNL A   1      38.065  32.296  39.747  1.00  0.00    -0.237 OA
ATOM     70  O   UNL A   1      36.300  32.909  38.143  1.00  0.00    -0.237 OA
ATOM     71  O   UNL A   1      37.030  30.572  38.312  1.00  0.00    -0.744 OA
ENDBRANCH  65  68
ENDBRANCH  47  61
BRANCH  48  72
ATOM     72  C   UNL A   1      42.409  26.066  27.530  1.00  0.00     0.023 A 
ATOM     73  C   UNL A   1      43.245  26.617  26.540  1.00  0.00     0.012 A 
ATOM     74  C   UNL A   1      41.999  24.723  27.415  1.00  0.00     0.148 A 
ATOM     75  C   UNL A   1      43.646  25.856  25.442  1.00  0.00     0.002 A 
ATOM     76  C   UNL A   1      42.444  23.954  26.345  1.00  0.00     0.091 A 
ATOM     77  F   UNL A   1      41.195  24.220  28.362  1.00  0.00    -0.205 F 
ATOM     78  C   UNL A   1      43.256  24.522  25.349  1.00  0.00     0.022 A 
BRANCH  76  79
ATOM     79  S   UNL A   1      42.100  22.196  26.211  1.00  0.00     0.127 S 
ATOM     80  O   UNL A   1      42.841  21.837  25.004  1.00  0.00    -0.237 OA
ATOM     81  O   UNL A   1      42.667  21.681  27.459  1.00  0.00    -0.237 OA
ATOM     82  O   UNL A   1      40.651  22.086  26.122  1.00  0.00    -0.744 OA
ENDBRANCH  76  79
ENDBRANCH  48  72
BRANCH  60  83
ATOM     83  C   UNL A   1      45.086  26.951  33.921  1.00  0.00     0.023 A 
ATOM     84  C   UNL A   1      46.308  27.651  33.916  1.00  0.00     0.012 A 
ATOM     85  C   UNL A   1      44.979  25.750  34.649  1.00  0.00     0.148 A 
ATOM     86  C   UNL A   1      47.414  27.151  34.603  1.00  0.00     0.002 A 
ATOM     87  C   UNL A   1      46.071  25.280  35.368  1.00  0.00     0.091 A 
ATOM     88  F   UNL A   1      43.813  25.087  34.624  1.00  0.00    -0.205 F 
ATOM     89  C   UNL A   1      47.293  25.974  35.338  1.00  0.00     0.022 A 
BRANCH  87  90
ATOM     90  S   UNL A   1      45.976  23.824  36.417  1.00  0.00     0.127 S 
ATOM     91  O   UNL A   1      45.728  22.767  35.438  1.00  0.00    -0.237 OA
ATOM     92  O   UNL A   1      47.306  23.790  37.027  1.00  0.00    -0.237 OA
ATOM     93  O   UNL A   1      44.891  24.079  37.354  1.00  0.00    -0.744 OA
ENDBRANCH  87  90
ENDBRANCH  60  83
ENDBRANCH  34  35
ENDBRANCH  26  29
ENDBRANCH  24  25
ENDBRANCH  23  24
ENDBRANCH   1  23
TORSDOF 18
ENDMDL
MODEL 3
REMARK VINA RESULT:     -10.9      6.555     10.857
REMARK SMILES Nc1nc(N)nc(N/C=C/C(=O)NCCCCNC(=O)c2ccc(-c3c4nc(c(-c5cccc(S(=O)(=O)[O-])c5F)c5ccc([nH]5)c(-c5cccc(S(=O)(=O)[O-])c5F)c5nc(c(-c6cccc(S(=O)(=O)[O-])c6F)c6ccc3[nH]6)C=C5)C=C4)cc2)n1
REMARK SMILES IDX 15 1 14 2 13 3 11 4 12 5 10 7 9 8 8 9 7 11 2 12 3 13 84 14
REMARK SMILES IDX 4 15 6 16 1 17 5 20 16 23 17 24 18 25 19 26 20 28 21 29
REMARK SMILES IDX 22 30 83 31 23 32 82 33 24 34 25 35 26 36 76 37 27 38 81 39
REMARK SMILES IDX 75 40 77 41 28 42 80 43 74 44 73 45 29 47 61 48 41 49 60 50
REMARK SMILES IDX 42 51 45 52 59 53 78 54 43 55 44 56 58 58 79 59 46 60 30 61
REMARK SMILES IDX 31 62 39 63 32 64 34 65 40 66 33 67 35 68 36 69 37 70 38 71
REMARK SMILES IDX 62 72 63 73 71 74 64 75 66 76 72 77 65 78 67 79 68 80 69 81
REMARK SMILES IDX 70 82 47 83 48 84 56 85 49 86 51 87 57 88 50 89 52 90 53 91
REMARK SMILES IDX 54 92 55 93
REMARK H PARENT 13 6 8 10 1 18 1 19 5 21 5 22 18 27 77 46 45 57
REMARK Flexibility Score: inf
ROOT
ATOM      1  C   UNL A   1      41.845  19.541  27.233  1.00  0.00     0.023 C 
ENDROOT
BRANCH   1   2
ATOM      2  C   UNL A   1      42.317  19.374  25.786  1.00  0.00     0.116 C 
BRANCH   2   3
ATOM      3  N   UNL A   1      43.520  18.563  25.715  1.00  0.00    -0.353 N 
ATOM      4  C   UNL A   1      44.744  18.814  25.177  1.00  0.00     0.245 C 
ATOM      5  O   UNL A   1      45.651  17.996  25.328  1.00  0.00    -0.270 OA
ATOM      6  H   UNL A   1      43.436  17.674  26.130  1.00  0.00     0.163 HD
BRANCH   4   7
ATOM      7  C   UNL A   1      45.056  20.089  24.485  1.00  0.00     0.089 C 
ATOM      8  C   UNL A   1      45.870  21.045  24.941  1.00  0.00     0.091 C 
BRANCH   8   9
ATOM      9  N   UNL A   1      46.215  22.221  24.336  1.00  0.00    -0.330 N 
ATOM     10  H   UNL A   1      46.502  22.177  23.396  1.00  0.00     0.169 HD
BRANCH   9  11
ATOM     11  C   UNL A   1      46.194  23.480  24.939  1.00  0.00     0.233 A 
ATOM     12  C   UNL A   1      46.983  24.863  26.509  1.00  0.00     0.226 A 
ATOM     13  N   UNL A   1      46.100  25.803  26.221  1.00  0.00    -0.177 NA
ATOM     14  N   UNL A   1      47.066  23.681  25.920  1.00  0.00    -0.177 NA
ATOM     15  C   UNL A   1      45.267  25.503  25.241  1.00  0.00     0.226 A 
ATOM     16  N   UNL A   1      45.282  24.373  24.560  1.00  0.00    -0.177 NA
BRANCH  12  17
ATOM     17  N   UNL A   1      47.887  25.137  27.496  1.00  0.00    -0.368 N 
ATOM     18  H   UNL A   1      48.678  24.562  27.614  1.00  0.00     0.159 HD
ATOM     19  H   UNL A   1      47.748  25.910  28.091  1.00  0.00     0.159 HD
ENDBRANCH  12  17
BRANCH  15  20
ATOM     20  N   UNL A   1      44.304  26.417  24.922  1.00  0.00    -0.368 N 
ATOM     21  H   UNL A   1      43.777  26.845  25.634  1.00  0.00     0.159 HD
ATOM     22  H   UNL A   1      44.138  26.647  23.979  1.00  0.00     0.159 HD
ENDBRANCH  15  20
ENDBRANCH   9  11
ENDBRANCH   8   9
ENDBRANCH   4   7
ENDBRANCH   2   3
ENDBRANCH   1   2
BRANCH   1  23
ATOM     23  C   UNL A   1      41.060  20.830  27.495  1.00  0.00     0.023 C 
BRANCH  23  24
ATOM     24  C   UNL A   1      40.882  21.740  26.283  1.00  0.00     0.116 C 
BRANCH  24  25
ATOM     25  N   UNL A   1      39.487  21.971  25.937  1.00  0.00    -0.352 N 
ATOM     26  C   UNL A   1      38.720  23.090  26.168  1.00  0.00     0.251 C 
ATOM     27  H   UNL A   1      39.033  21.230  25.476  1.00  0.00     0.163 HD
ATOM     28  O   UNL A   1      37.526  23.083  25.900  1.00  0.00    -0.269 OA
BRANCH  26  29
ATOM     29  C   UNL A   1      39.345  24.284  26.780  1.00  0.00     0.039 A 
ATOM     30  C   UNL A   1      40.038  25.177  25.960  1.00  0.00     0.014 A 
ATOM     31  C   UNL A   1      39.216  24.536  28.148  1.00  0.00     0.014 A 
ATOM     32  C   UNL A   1      40.544  26.361  26.502  1.00  0.00     0.010 A 
ATOM     33  C   UNL A   1      39.663  25.745  28.672  1.00  0.00     0.010 A 
ATOM     34  C   UNL A   1      40.330  26.670  27.855  1.00  0.00    -0.014 A 
BRANCH  34  35
ATOM     35  C   UNL A   1      40.771  27.965  28.431  1.00  0.00     0.031 A 
ATOM     36  C   UNL A   1      42.234  28.247  28.634  1.00  0.00     0.074 A 
ATOM     37  C   UNL A   1      39.848  28.845  28.869  1.00  0.00     0.049 A 
ATOM     38  N   UNL A   1      42.804  29.292  29.176  1.00  0.00    -0.248 NA
ATOM     39  C   UNL A   1      43.179  27.205  28.199  1.00  0.00     0.031 C 
ATOM     40  C   UNL A   1      38.398  28.647  28.810  1.00  0.00     0.029 A 
ATOM     41  N   UNL A   1      39.993  30.066  29.476  1.00  0.00    -0.354 N 
ATOM     42  C   UNL A   1      44.167  29.020  29.183  1.00  0.00     0.074 A 
ATOM     43  C   UNL A   1      44.336  27.696  28.621  1.00  0.00     0.031 C 
ATOM     44  C   UNL A   1      37.788  29.712  29.354  1.00  0.00     0.029 A 
ATOM     45  C   UNL A   1      38.798  30.655  29.822  1.00  0.00     0.049 A 
ATOM     46  H   UNL A   1      40.868  30.482  29.648  1.00  0.00     0.167 HD
ATOM     47  C   UNL A   1      45.188  29.810  29.590  1.00  0.00     0.034 A 
ATOM     48  C   UNL A   1      38.545  31.823  30.444  1.00  0.00     0.034 A 
ATOM     49  C   UNL A   1      45.020  31.144  30.098  1.00  0.00     0.049 A 
ATOM     50  C   UNL A   1      39.698  32.707  30.835  1.00  0.00     0.074 A 
ATOM     51  C   UNL A   1      45.995  32.065  30.439  1.00  0.00     0.029 A 
ATOM     52  N   UNL A   1      43.797  31.748  30.346  1.00  0.00    -0.354 N 
ATOM     53  N   UNL A   1      40.984  32.508  30.672  1.00  0.00    -0.248 NA
ATOM     54  C   UNL A   1      39.365  33.995  31.462  1.00  0.00     0.031 C 
ATOM     55  C   UNL A   1      45.360  33.221  30.906  1.00  0.00     0.029 A 
ATOM     56  C   UNL A   1      43.990  33.025  30.842  1.00  0.00     0.049 A 
ATOM     57  H   UNL A   1      42.920  31.329  30.191  1.00  0.00     0.167 HD
ATOM     58  C   UNL A   1      41.612  33.655  31.143  1.00  0.00     0.074 A 
ATOM     59  C   UNL A   1      40.563  34.555  31.581  1.00  0.00     0.031 C 
ATOM     60  C   UNL A   1      42.937  33.932  31.222  1.00  0.00     0.034 A 
BRANCH  47  61
ATOM     61  C   UNL A   1      46.588  29.271  29.439  1.00  0.00     0.023 A 
ATOM     62  C   UNL A   1      47.188  28.594  30.519  1.00  0.00     0.012 A 
ATOM     63  C   UNL A   1      47.291  29.395  28.225  1.00  0.00     0.148 A 
ATOM     64  C   UNL A   1      48.480  28.083  30.411  1.00  0.00     0.002 A 
ATOM     65  C   UNL A   1      48.563  28.846  28.110  1.00  0.00     0.091 A 
ATOM     66  F   UNL A   1      46.717  30.064  27.216  1.00  0.00    -0.205 F 
ATOM     67  C   UNL A   1      49.163  28.201  29.203  1.00  0.00     0.022 A 
BRANCH  65  68
ATOM     68  S   UNL A   1      49.491  28.881  26.572  1.00  0.00     0.127 S 
ATOM     69  O   UNL A   1      49.803  30.305  26.448  1.00  0.00    -0.237 OA
ATOM     70  O   UNL A   1      50.642  28.032  26.882  1.00  0.00    -0.237 OA
ATOM     71  O   UNL A   1      48.599  28.340  25.558  1.00  0.00    -0.744 OA
ENDBRANCH  65  68
ENDBRANCH  47  61
BRANCH  48  72
ATOM     72  C   UNL A   1      37.137  32.260  30.653  1.00  0.00     0.023 A 
ATOM     73  C   UNL A   1      36.557  32.114  31.927  1.00  0.00     0.012 A 
ATOM     74  C   UNL A   1      36.389  32.859  29.621  1.00  0.00     0.148 A 
ATOM     75  C   UNL A   1      35.247  32.533  32.165  1.00  0.00     0.002 A 
ATOM     76  C   UNL A   1      35.103  33.322  29.878  1.00  0.00     0.091 A 
ATOM     77  F   UNL A   1      36.956  32.979  28.412  1.00  0.00    -0.205 F 
ATOM     78  C   UNL A   1      34.525  33.146  31.146  1.00  0.00     0.022 A 
BRANCH  76  79
ATOM     79  S   UNL A   1      34.147  34.239  28.665  1.00  0.00     0.127 S 
ATOM     80  O   UNL A   1      34.990  35.412  28.444  1.00  0.00    -0.237 OA
ATOM     81  O   UNL A   1      34.097  33.297  27.546  1.00  0.00    -0.237 OA
ATOM     82  O   UNL A   1      32.858  34.493  29.292  1.00  0.00    -0.744 OA
ENDBRANCH  76  79
ENDBRANCH  48  72
BRANCH  60  83
ATOM     83  C   UNL A   1      43.338  35.273  31.778  1.00  0.00     0.023 A 
ATOM     84  C   UNL A   1      43.635  36.331  30.897  1.00  0.00     0.012 A 
ATOM     85  C   UNL A   1      43.344  35.506  33.167  1.00  0.00     0.148 A 
ATOM     86  C   UNL A   1      43.957  37.595  31.390  1.00  0.00     0.002 A 
ATOM     87  C   UNL A   1      43.622  36.779  33.651  1.00  0.00     0.091 A 
ATOM     88  F   UNL A   1      43.080  34.480  33.990  1.00  0.00    -0.205 F 
ATOM     89  C   UNL A   1      43.939  37.822  32.765  1.00  0.00     0.022 A 
BRANCH  87  90
ATOM     90  S   UNL A   1      43.528  37.183  35.399  1.00  0.00     0.127 S 
ATOM     91  O   UNL A   1      43.852  38.609  35.394  1.00  0.00    -0.237 OA
ATOM     92  O   UNL A   1      42.133  36.876  35.717  1.00  0.00    -0.237 OA
ATOM     93  O   UNL A   1      44.498  36.321  36.060  1.00  0.00    -0.744 OA
ENDBRANCH  87  90
ENDBRANCH  60  83
ENDBRANCH  34  35
ENDBRANCH  26  29
ENDBRANCH  24  25
ENDBRANCH  23  24
ENDBRANCH   1  23
TORSDOF 18
ENDMDL
