MODEL 1
REMARK VINA RESULT:     -13.8      0.000      0.000
REMARK SMILES O=C(NCCCCNC(=O)[C@@H]1[C@H](C(=O)Nc2ccc(Cn3cncn3)cc2)[C@@H]2C=C[C@H]1CC2)c1ccc(-c2c3nc(c(-c4cccc(S(=O)(=O)[O-])c4F)c4ccc([nH]4)c(-c4cccc(S(=O)(=O)[O-])c4F)c4nc(c(-c5cccc(S(=O)(=O)[O-])c5F)c5ccc2[nH]5)C=C4)C=C3)cc1
REMARK SMILES IDX 6 1 5 2 4 3 3 4 1 5 2 6 34 8 35 9 96 10 36 11 95 12 37 13
REMARK SMILES IDX 38 14 39 15 89 16 40 17 94 18 88 19 90 20 41 21 93 22 87 23
REMARK SMILES IDX 86 24 42 26 74 27 54 28 73 29 55 30 58 31 72 32 91 33 56 34
REMARK SMILES IDX 57 35 71 37 92 38 59 39 43 40 44 41 52 42 45 43 47 44 53 45
REMARK SMILES IDX 46 46 48 47 49 48 50 49 51 50 75 51 76 52 84 53 77 54 79 55
REMARK SMILES IDX 85 56 78 57 80 58 81 59 82 60 83 61 60 62 61 63 69 64 62 65
REMARK SMILES IDX 64 66 70 67 63 68 65 69 66 70 67 71 68 72 7 73 8 74 9 75
REMARK SMILES IDX 10 77 11 78 12 79 31 80 28 81 30 82 32 83 29 84 33 85 13 86
REMARK SMILES IDX 14 87 15 88 16 90 17 91 27 92 18 93 26 94 19 95 20 96 21 97
REMARK SMILES IDX 22 98 25 99 23 100 24 101
REMARK H PARENT 3 7 90 25 58 36 8 76 15 89
REMARK Flexibility Score: inf
ROOT
ATOM      1  C   UNL A   1      31.824  27.918  27.533  1.00  0.00     0.023 C 
ENDROOT
BRANCH   1   2
ATOM      2  C   UNL A   1      32.096  29.372  27.104  1.00  0.00     0.023 C 
BRANCH   2   3
ATOM      3  C   UNL A   1      33.564  29.843  27.153  1.00  0.00     0.116 C 
BRANCH   3   4
ATOM      4  N   UNL A   1      33.849  30.808  28.195  1.00  0.00    -0.352 N 
ATOM      5  O   UNL A   1      34.860  32.190  29.593  1.00  0.00    -0.269 OA
ATOM      6  C   UNL A   1      34.997  31.301  28.749  1.00  0.00     0.251 C 
ATOM      7  H   UNL A   1      33.036  31.195  28.591  1.00  0.00     0.163 HD
BRANCH   6   8
ATOM      8  C   UNL A   1      36.353  30.778  28.486  1.00  0.00     0.039 A 
ATOM      9  C   UNL A   1      36.637  29.470  28.099  1.00  0.00     0.014 A 
ATOM     10  C   UNL A   1      37.412  31.645  28.814  1.00  0.00     0.014 A 
ATOM     11  C   UNL A   1      37.912  28.967  28.256  1.00  0.00     0.010 A 
ATOM     12  C   UNL A   1      38.697  31.157  28.941  1.00  0.00     0.010 A 
ATOM     13  C   UNL A   1      38.914  29.800  28.744  1.00  0.00    -0.014 A 
BRANCH  13  14
ATOM     14  C   UNL A   1      40.233  29.220  28.898  1.00  0.00     0.031 A 
ATOM     15  C   UNL A   1      40.649  29.114  30.321  1.00  0.00     0.074 A 
ATOM     16  C   UNL A   1      40.934  28.763  27.843  1.00  0.00     0.049 A 
ATOM     17  N   UNL A   1      41.639  29.701  30.909  1.00  0.00    -0.248 NA
ATOM     18  C   UNL A   1      39.726  28.432  31.244  1.00  0.00     0.031 C 
ATOM     19  C   UNL A   1      40.469  28.608  26.461  1.00  0.00     0.029 A 
ATOM     20  N   UNL A   1      42.169  28.191  27.816  1.00  0.00    -0.354 N 
ATOM     21  C   UNL A   1      41.602  29.249  32.229  1.00  0.00     0.074 A 
ATOM     22  C   UNL A   1      40.302  28.674  32.421  1.00  0.00     0.031 C 
ATOM     23  C   UNL A   1      41.284  27.742  25.818  1.00  0.00     0.029 A 
ATOM     24  C   UNL A   1      42.384  27.391  26.697  1.00  0.00     0.049 A 
ATOM     25  H   UNL A   1      42.844  28.331  28.519  1.00  0.00     0.167 HD
ATOM     26  C   UNL A   1      42.747  29.121  32.954  1.00  0.00     0.034 A 
ATOM     27  C   UNL A   1      43.334  26.430  26.565  1.00  0.00     0.034 A 
ATOM     28  C   UNL A   1      43.804  29.928  32.394  1.00  0.00     0.049 A 
ATOM     29  C   UNL A   1      44.371  26.688  27.590  1.00  0.00     0.074 A 
ATOM     30  C   UNL A   1      43.983  31.274  32.147  1.00  0.00     0.029 A 
ATOM     31  N   UNL A   1      44.748  29.275  31.642  1.00  0.00    -0.354 N 
ATOM     32  N   UNL A   1      45.145  27.736  27.580  1.00  0.00    -0.248 NA
ATOM     33  C   UNL A   1      44.234  26.018  28.873  1.00  0.00     0.031 C 
ATOM     34  C   UNL A   1      44.703  31.328  30.918  1.00  0.00     0.029 A 
ATOM     35  C   UNL A   1      44.982  30.020  30.520  1.00  0.00     0.049 A 
ATOM     36  H   UNL A   1      45.182  28.421  31.869  1.00  0.00     0.167 HD
ATOM     37  C   UNL A   1      45.203  28.128  28.911  1.00  0.00     0.074 A 
ATOM     38  C   UNL A   1      44.715  26.977  29.669  1.00  0.00     0.031 C 
ATOM     39  C   UNL A   1      45.353  29.444  29.247  1.00  0.00     0.034 A 
BRANCH  26  40
ATOM     40  C   UNL A   1      43.056  27.936  33.859  1.00  0.00     0.023 A 
ATOM     41  C   UNL A   1      43.721  26.841  33.258  1.00  0.00     0.012 A 
ATOM     42  C   UNL A   1      42.473  27.703  35.127  1.00  0.00     0.148 A 
ATOM     43  C   UNL A   1      43.692  25.561  33.822  1.00  0.00     0.002 A 
ATOM     44  C   UNL A   1      42.495  26.440  35.711  1.00  0.00     0.091 A 
ATOM     45  F   UNL A   1      41.792  28.661  35.751  1.00  0.00    -0.205 F 
ATOM     46  C   UNL A   1      43.068  25.358  35.044  1.00  0.00     0.022 A 
BRANCH  44  47
ATOM     47  S   UNL A   1      41.725  26.128  37.307  1.00  0.00     0.127 S 
ATOM     48  O   UNL A   1      40.636  27.104  37.296  1.00  0.00    -0.237 OA
ATOM     49  O   UNL A   1      41.307  24.732  37.163  1.00  0.00    -0.237 OA
ATOM     50  O   UNL A   1      42.763  26.342  38.302  1.00  0.00    -0.744 OA
ENDBRANCH  44  47
ENDBRANCH  26  40
BRANCH  27  51
ATOM     51  C   UNL A   1      43.259  25.133  25.848  1.00  0.00     0.023 A 
ATOM     52  C   UNL A   1      44.255  24.791  24.911  1.00  0.00     0.012 A 
ATOM     53  C   UNL A   1      42.379  24.115  26.282  1.00  0.00     0.148 A 
ATOM     54  C   UNL A   1      44.386  23.477  24.443  1.00  0.00     0.002 A 
ATOM     55  C   UNL A   1      42.505  22.815  25.806  1.00  0.00     0.091 A 
ATOM     56  F   UNL A   1      41.479  24.403  27.232  1.00  0.00    -0.205 F 
ATOM     57  C   UNL A   1      43.516  22.487  24.895  1.00  0.00     0.022 A 
BRANCH  55  58
ATOM     58  S   UNL A   1      41.435  21.481  26.363  1.00  0.00     0.127 S 
ATOM     59  O   UNL A   1      41.951  20.343  25.602  1.00  0.00    -0.237 OA
ATOM     60  O   UNL A   1      41.716  21.441  27.793  1.00  0.00    -0.237 OA
ATOM     61  O   UNL A   1      40.079  21.879  25.995  1.00  0.00    -0.744 OA
ENDBRANCH  55  58
ENDBRANCH  27  51
BRANCH  39  62
ATOM     62  C   UNL A   1      45.708  30.418  28.155  1.00  0.00     0.023 A 
ATOM     63  C   UNL A   1      44.736  31.144  27.434  1.00  0.00     0.012 A 
ATOM     64  C   UNL A   1      47.064  30.735  27.978  1.00  0.00     0.148 A 
ATOM     65  C   UNL A   1      45.114  32.151  26.541  1.00  0.00     0.002 A 
ATOM     66  C   UNL A   1      47.432  31.767  27.127  1.00  0.00     0.091 A 
ATOM     67  F   UNL A   1      47.972  30.036  28.676  1.00  0.00    -0.205 F 
ATOM     68  C   UNL A   1      46.462  32.472  26.398  1.00  0.00     0.022 A 
BRANCH  66  69
ATOM     69  S   UNL A   1      49.137  32.309  27.003  1.00  0.00     0.127 S 
ATOM     70  O   UNL A   1      49.808  31.100  26.530  1.00  0.00    -0.237 OA
ATOM     71  O   UNL A   1      49.052  33.388  26.018  1.00  0.00    -0.237 OA
ATOM     72  O   UNL A   1      49.515  32.755  28.339  1.00  0.00    -0.744 OA
ENDBRANCH  66  69
ENDBRANCH  39  62
ENDBRANCH  13  14
ENDBRANCH   6   8
ENDBRANCH   3   4
ENDBRANCH   2   3
ENDBRANCH   1   2
BRANCH   1  73
ATOM     73  C   UNL A   1      32.330  26.881  26.542  1.00  0.00     0.116 C 
BRANCH  73  74
ATOM     74  N   UNL A   1      31.710  25.576  26.614  1.00  0.00    -0.356 N 
ATOM     75  C   UNL A   1      32.283  24.342  26.651  1.00  0.00     0.224 C 
ATOM     76  H   UNL A   1      30.725  25.582  26.639  1.00  0.00     0.163 HD
ATOM     77  O   UNL A   1      31.635  23.471  27.246  1.00  0.00    -0.275 OA
BRANCH  75  78
ATOM     78  C   UNL A   1      33.571  23.923  25.926  1.00  0.00     0.098 C 
ATOM     79  C   UNL A   1      33.395  23.455  24.439  1.00  0.00     0.098 C 
ATOM     80  C   UNL A   1      34.797  23.194  26.559  1.00  0.00     0.025 C 
ATOM     81  C   UNL A   1      34.624  22.590  24.021  1.00  0.00     0.025 C 
ATOM     82  C   UNL A   1      34.807  21.711  26.247  1.00  0.00    -0.027 C 
ATOM     83  C   UNL A   1      36.066  23.699  25.809  1.00  0.00     0.009 C 
ATOM     84  C   UNL A   1      34.733  21.401  24.941  1.00  0.00    -0.027 C 
ATOM     85  C   UNL A   1      35.920  23.411  24.289  1.00  0.00     0.009 C 
BRANCH  79  86
ATOM     86  C   UNL A   1      32.057  22.974  23.798  1.00  0.00     0.228 C 
ATOM     87  O   UNL A   1      31.882  21.749  23.680  1.00  0.00    -0.274 OA
ATOM     88  N   UNL A   1      30.945  23.732  23.547  1.00  0.00    -0.326 N 
ATOM     89  H   UNL A   1      30.118  23.202  23.470  1.00  0.00     0.169 HD
BRANCH  88  90
ATOM     90  C   UNL A   1      30.743  25.104  23.379  1.00  0.00     0.041 A 
ATOM     91  C   UNL A   1      29.594  25.734  23.849  1.00  0.00     0.026 A 
ATOM     92  C   UNL A   1      31.662  25.868  22.705  1.00  0.00     0.026 A 
ATOM     93  C   UNL A   1      29.506  27.140  23.839  1.00  0.00     0.008 A 
ATOM     94  C   UNL A   1      31.596  27.259  22.696  1.00  0.00     0.008 A 
ATOM     95  C   UNL A   1      30.548  27.917  23.322  1.00  0.00    -0.026 A 
BRANCH  95  96
ATOM     96  C   UNL A   1      30.597  29.419  23.424  1.00  0.00     0.181 C 
BRANCH  96  97
ATOM     97  N   UNL A   1      29.457  30.052  22.800  1.00  0.00    -0.249 N 
ATOM     98  C   UNL A   1      28.575  30.933  23.338  1.00  0.00     0.220 A 
ATOM     99  N   UNL A   1      29.200  29.853  21.502  1.00  0.00    -0.160 NA
ATOM    100  N   UNL A   1      27.709  31.303  22.424  1.00  0.00    -0.224 NA
ATOM    101  C   UNL A   1      28.122  30.617  21.316  1.00  0.00     0.246 A 
ENDBRANCH  96  97
ENDBRANCH  95  96
ENDBRANCH  88  90
ENDBRANCH  79  86
ENDBRANCH  75  78
ENDBRANCH  73  74
ENDBRANCH   1  73
TORSDOF 18
ENDMDL
MODEL 2
REMARK VINA RESULT:     -13.5      1.672      1.967
REMARK SMILES O=C(NCCCCNC(=O)[C@@H]1[C@H](C(=O)Nc2ccc(Cn3cncn3)cc2)[C@@H]2C=C[C@H]1CC2)c1ccc(-c2c3nc(c(-c4cccc(S(=O)(=O)[O-])c4F)c4ccc([nH]4)c(-c4cccc(S(=O)(=O)[O-])c4F)c4nc(c(-c5cccc(S(=O)(=O)[O-])c5F)c5ccc2[nH]5)C=C4)C=C3)cc1
REMARK SMILES IDX 6 1 5 2 4 3 3 4 1 5 2 6 34 8 35 9 96 10 36 11 95 12 37 13
REMARK SMILES IDX 38 14 39 15 89 16 40 17 94 18 88 19 90 20 41 21 93 22 87 23
REMARK SMILES IDX 86 24 42 26 74 27 54 28 73 29 55 30 58 31 72 32 91 33 56 34
REMARK SMILES IDX 57 35 71 37 92 38 59 39 43 40 44 41 52 42 45 43 47 44 53 45
REMARK SMILES IDX 46 46 48 47 49 48 50 49 51 50 75 51 76 52 84 53 77 54 79 55
REMARK SMILES IDX 85 56 78 57 80 58 81 59 82 60 83 61 60 62 61 63 69 64 62 65
REMARK SMILES IDX 64 66 70 67 63 68 65 69 66 70 67 71 68 72 7 73 8 74 9 75
REMARK SMILES IDX 10 77 11 78 12 79 31 80 28 81 30 82 32 83 29 84 33 85 13 86
REMARK SMILES IDX 14 87 15 88 16 90 17 91 27 92 18 93 26 94 19 95 20 96 21 97
REMARK SMILES IDX 22 98 25 99 23 100 24 101
REMARK H PARENT 3 7 90 25 58 36 8 76 15 89
REMARK Flexibility Score: inf
ROOT
ATOM      1  C   UNL A   1      32.207  28.173  27.606  1.00  0.00     0.023 C 
ENDROOT
BRANCH   1   2
ATOM      2  C   UNL A   1      32.427  29.603  27.079  1.00  0.00     0.023 C 
BRANCH   2   3
ATOM      3  C   UNL A   1      33.875  30.136  27.110  1.00  0.00     0.116 C 
BRANCH   3   4
ATOM      4  N   UNL A   1      34.133  31.108  28.152  1.00  0.00    -0.352 N 
ATOM      5  O   UNL A   1      35.111  32.466  29.597  1.00  0.00    -0.269 OA
ATOM      6  C   UNL A   1      35.262  31.553  28.781  1.00  0.00     0.251 C 
ATOM      7  H   UNL A   1      33.314  31.543  28.481  1.00  0.00     0.163 HD
BRANCH   6   8
ATOM      8  C   UNL A   1      36.604  30.956  28.629  1.00  0.00     0.039 A 
ATOM      9  C   UNL A   1      36.851  29.672  28.146  1.00  0.00     0.014 A 
ATOM     10  C   UNL A   1      37.666  31.705  29.168  1.00  0.00     0.014 A 
ATOM     11  C   UNL A   1      38.061  29.062  28.401  1.00  0.00     0.010 A 
ATOM     12  C   UNL A   1      38.892  31.112  29.397  1.00  0.00     0.010 A 
ATOM     13  C   UNL A   1      39.045  29.766  29.087  1.00  0.00    -0.014 A 
BRANCH  13  14
ATOM     14  C   UNL A   1      40.295  29.076  29.337  1.00  0.00     0.031 A 
ATOM     15  C   UNL A   1      40.513  28.792  30.779  1.00  0.00     0.074 A 
ATOM     16  C   UNL A   1      41.098  28.682  28.332  1.00  0.00     0.049 A 
ATOM     17  N   UNL A   1      41.451  29.237  31.548  1.00  0.00    -0.248 NA
ATOM     18  C   UNL A   1      39.437  28.088  31.498  1.00  0.00     0.031 C 
ATOM     19  C   UNL A   1      40.810  28.707  26.894  1.00  0.00     0.029 A 
ATOM     20  N   UNL A   1      42.289  28.025  28.393  1.00  0.00    -0.354 N 
ATOM     21  C   UNL A   1      41.214  28.654  32.793  1.00  0.00     0.074 A 
ATOM     22  C   UNL A   1      39.867  28.161  32.756  1.00  0.00     0.031 C 
ATOM     23  C   UNL A   1      41.648  27.855  26.262  1.00  0.00     0.029 A 
ATOM     24  C   UNL A   1      42.600  27.332  27.226  1.00  0.00     0.049 A 
ATOM     25  H   UNL A   1      42.874  28.039  29.185  1.00  0.00     0.167 HD
ATOM     26  C   UNL A   1      42.244  28.365  33.634  1.00  0.00     0.034 A 
ATOM     27  C   UNL A   1      43.499  26.322  27.103  1.00  0.00     0.034 A 
ATOM     28  C   UNL A   1      43.412  29.145  33.306  1.00  0.00     0.049 A 
ATOM     29  C   UNL A   1      44.406  26.392  28.271  1.00  0.00     0.074 A 
ATOM     30  C   UNL A   1      43.704  30.492  33.237  1.00  0.00     0.029 A 
ATOM     31  N   UNL A   1      44.406  28.505  32.606  1.00  0.00    -0.354 N 
ATOM     32  N   UNL A   1      45.237  27.374  28.476  1.00  0.00    -0.248 NA
ATOM     33  C   UNL A   1      44.061  25.604  29.444  1.00  0.00     0.031 C 
ATOM     34  C   UNL A   1      44.581  30.621  32.120  1.00  0.00     0.029 A 
ATOM     35  C   UNL A   1      44.829  29.344  31.614  1.00  0.00     0.049 A 
ATOM     36  H   UNL A   1      44.753  27.602  32.787  1.00  0.00     0.167 HD
ATOM     37  C   UNL A   1      45.144  27.620  29.840  1.00  0.00     0.074 A 
ATOM     38  C   UNL A   1      44.491  26.435  30.397  1.00  0.00     0.031 C 
ATOM     39  C   UNL A   1      45.328  28.878  30.340  1.00  0.00     0.034 A 
BRANCH  26  40
ATOM     40  C   UNL A   1      42.359  27.072  34.431  1.00  0.00     0.023 A 
ATOM     41  C   UNL A   1      41.923  27.121  35.776  1.00  0.00     0.012 A 
ATOM     42  C   UNL A   1      43.136  25.949  34.058  1.00  0.00     0.148 A 
ATOM     43  C   UNL A   1      42.344  26.180  36.722  1.00  0.00     0.002 A 
ATOM     44  C   UNL A   1      43.506  24.985  34.991  1.00  0.00     0.091 A 
ATOM     45  F   UNL A   1      43.626  25.837  32.825  1.00  0.00    -0.205 F 
ATOM     46  C   UNL A   1      43.147  25.118  36.331  1.00  0.00     0.022 A 
BRANCH  44  47
ATOM     47  S   UNL A   1      44.523  23.574  34.532  1.00  0.00     0.127 S 
ATOM     48  O   UNL A   1      44.663  22.892  35.818  1.00  0.00    -0.237 OA
ATOM     49  O   UNL A   1      43.661  22.894  33.562  1.00  0.00    -0.237 OA
ATOM     50  O   UNL A   1      45.743  24.124  33.965  1.00  0.00    -0.744 OA
ENDBRANCH  44  47
ENDBRANCH  26  40
BRANCH  27  51
ATOM     51  C   UNL A   1      43.439  25.116  26.240  1.00  0.00     0.023 A 
ATOM     52  C   UNL A   1      44.415  24.919  25.244  1.00  0.00     0.012 A 
ATOM     53  C   UNL A   1      42.602  24.027  26.574  1.00  0.00     0.148 A 
ATOM     54  C   UNL A   1      44.570  23.674  24.620  1.00  0.00     0.002 A 
ATOM     55  C   UNL A   1      42.752  22.796  25.945  1.00  0.00     0.091 A 
ATOM     56  F   UNL A   1      41.724  24.171  27.575  1.00  0.00    -0.205 F 
ATOM     57  C   UNL A   1      43.743  22.611  24.974  1.00  0.00     0.022 A 
BRANCH  55  58
ATOM     58  S   UNL A   1      41.738  21.372  26.367  1.00  0.00     0.127 S 
ATOM     59  O   UNL A   1      42.347  20.317  25.558  1.00  0.00    -0.237 OA
ATOM     60  O   UNL A   1      41.964  21.252  27.803  1.00  0.00    -0.237 OA
ATOM     61  O   UNL A   1      40.377  21.720  25.968  1.00  0.00    -0.744 OA
ENDBRANCH  55  58
ENDBRANCH  27  51
BRANCH  39  62
ATOM     62  C   UNL A   1      45.882  29.932  29.417  1.00  0.00     0.023 A 
ATOM     63  C   UNL A   1      47.265  30.107  29.201  1.00  0.00     0.012 A 
ATOM     64  C   UNL A   1      44.973  30.643  28.617  1.00  0.00     0.148 A 
ATOM     65  C   UNL A   1      47.729  30.988  28.220  1.00  0.00     0.002 A 
ATOM     66  C   UNL A   1      45.437  31.480  27.613  1.00  0.00     0.091 A 
ATOM     67  F   UNL A   1      43.662  30.459  28.835  1.00  0.00    -0.205 F 
ATOM     68  C   UNL A   1      46.814  31.665  27.416  1.00  0.00     0.022 A 
BRANCH  66  69
ATOM     69  S   UNL A   1      44.309  32.272  26.466  1.00  0.00     0.127 S 
ATOM     70  O   UNL A   1      43.730  33.332  27.290  1.00  0.00    -0.237 OA
ATOM     71  O   UNL A   1      45.210  32.740  25.412  1.00  0.00    -0.237 OA
ATOM     72  O   UNL A   1      43.380  31.235  26.034  1.00  0.00    -0.744 OA
ENDBRANCH  66  69
ENDBRANCH  39  62
ENDBRANCH  13  14
ENDBRANCH   6   8
ENDBRANCH   3   4
ENDBRANCH   2   3
ENDBRANCH   1   2
BRANCH   1  73
ATOM     73  C   UNL A   1      32.511  27.089  26.584  1.00  0.00     0.116 C 
BRANCH  73  74
ATOM     74  N   UNL A   1      31.813  25.834  26.761  1.00  0.00    -0.356 N 
ATOM     75  C   UNL A   1      32.299  24.563  26.769  1.00  0.00     0.224 C 
ATOM     76  H   UNL A   1      30.841  25.911  26.894  1.00  0.00     0.163 HD
ATOM     77  O   UNL A   1      31.663  23.754  27.457  1.00  0.00    -0.275 OA
BRANCH  75  78
ATOM     78  C   UNL A   1      33.466  24.037  25.919  1.00  0.00     0.098 C 
ATOM     79  C   UNL A   1      33.087  23.518  24.488  1.00  0.00     0.098 C 
ATOM     80  C   UNL A   1      34.718  23.263  26.439  1.00  0.00     0.025 C 
ATOM     81  C   UNL A   1      34.207  22.564  23.971  1.00  0.00     0.025 C 
ATOM     82  C   UNL A   1      34.608  21.769  26.201  1.00  0.00    -0.027 C 
ATOM     83  C   UNL A   1      35.912  23.658  25.520  1.00  0.00     0.009 C 
ATOM     84  C   UNL A   1      34.361  21.410  24.929  1.00  0.00    -0.027 C 
ATOM     85  C   UNL A   1      35.569  23.316  24.044  1.00  0.00     0.009 C 
BRANCH  79  86
ATOM     86  C   UNL A   1      31.657  23.092  24.033  1.00  0.00     0.228 C 
ATOM     87  O   UNL A   1      31.393  21.877  24.025  1.00  0.00    -0.274 OA
ATOM     88  N   UNL A   1      30.573  23.909  23.850  1.00  0.00    -0.326 N 
ATOM     89  H   UNL A   1      29.712  23.434  23.903  1.00  0.00     0.169 HD
BRANCH  88  90
ATOM     90  C   UNL A   1      30.441  25.278  23.604  1.00  0.00     0.041 A 
ATOM     91  C   UNL A   1      29.285  25.971  23.953  1.00  0.00     0.026 A 
ATOM     92  C   UNL A   1      31.440  25.974  22.972  1.00  0.00     0.026 A 
ATOM     93  C   UNL A   1      29.254  27.377  23.873  1.00  0.00     0.008 A 
ATOM     94  C   UNL A   1      31.431  27.364  22.895  1.00  0.00     0.008 A 
ATOM     95  C   UNL A   1      30.365  28.089  23.405  1.00  0.00    -0.026 A 
BRANCH  95  96
ATOM     96  C   UNL A   1      30.466  29.592  23.444  1.00  0.00     0.181 C 
BRANCH  96  97
ATOM     97  N   UNL A   1      29.363  30.237  22.768  1.00  0.00    -0.249 N 
ATOM     98  C   UNL A   1      28.386  31.019  23.293  1.00  0.00     0.220 A 
ATOM     99  N   UNL A   1      29.249  30.162  21.436  1.00  0.00    -0.160 NA
ATOM    100  N   UNL A   1      27.597  31.444  22.333  1.00  0.00    -0.224 NA
ATOM    101  C   UNL A   1      28.156  30.894  21.213  1.00  0.00     0.246 A 
ENDBRANCH  96  97
ENDBRANCH  95  96
ENDBRANCH  88  90
ENDBRANCH  79  86
ENDBRANCH  75  78
ENDBRANCH  73  74
ENDBRANCH   1  73
TORSDOF 18
ENDMDL
MODEL 3
REMARK VINA RESULT:     -13.5      3.510      9.070
REMARK SMILES O=C(NCCCCNC(=O)[C@@H]1[C@H](C(=O)Nc2ccc(Cn3cncn3)cc2)[C@@H]2C=C[C@H]1CC2)c1ccc(-c2c3nc(c(-c4cccc(S(=O)(=O)[O-])c4F)c4ccc([nH]4)c(-c4cccc(S(=O)(=O)[O-])c4F)c4nc(c(-c5cccc(S(=O)(=O)[O-])c5F)c5ccc2[nH]5)C=C4)C=C3)cc1
REMARK SMILES IDX 6 1 5 2 4 3 3 4 1 5 2 6 34 8 35 9 96 10 36 11 95 12 37 13
REMARK SMILES IDX 38 14 39 15 89 16 40 17 94 18 88 19 90 20 41 21 93 22 87 23
REMARK SMILES IDX 86 24 42 26 74 27 54 28 73 29 55 30 58 31 72 32 91 33 56 34
REMARK SMILES IDX 57 35 71 37 92 38 59 39 43 40 44 41 52 42 45 43 47 44 53 45
REMARK SMILES IDX 46 46 48 47 49 48 50 49 51 50 75 51 76 52 84 53 77 54 79 55
REMARK SMILES IDX 85 56 78 57 80 58 81 59 82 60 83 61 60 62 61 63 69 64 62 65
REMARK SMILES IDX 64 66 70 67 63 68 65 69 66 70 67 71 68 72 7 73 8 74 9 75
REMARK SMILES IDX 10 77 11 78 12 79 31 80 28 81 30 82 32 83 29 84 33 85 13 86
REMARK SMILES IDX 14 87 15 88 16 90 17 91 27 92 18 93 26 94 19 95 20 96 21 97
REMARK SMILES IDX 22 98 25 99 23 100 24 101
REMARK H PARENT 3 7 90 25 58 36 8 76 15 89
REMARK Flexibility Score: inf
ROOT
ATOM      1  C   UNL A   1      36.338  22.897  23.733  1.00  0.00     0.023 C 
ENDROOT
BRANCH   1   2
ATOM      2  C   UNL A   1      37.096  22.190  24.873  1.00  0.00     0.023 C 
BRANCH   2   3
ATOM      3  C   UNL A   1      37.932  23.087  25.808  1.00  0.00     0.116 C 
BRANCH   3   4
ATOM      4  N   UNL A   1      38.983  22.393  26.522  1.00  0.00    -0.352 N 
ATOM      5  O   UNL A   1      40.678  21.892  27.851  1.00  0.00    -0.269 OA
ATOM      6  C   UNL A   1      39.992  22.789  27.355  1.00  0.00     0.251 C 
ATOM      7  H   UNL A   1      38.968  21.420  26.375  1.00  0.00     0.163 HD
BRANCH   6   8
ATOM      8  C   UNL A   1      40.373  24.194  27.610  1.00  0.00     0.039 A 
ATOM      9  C   UNL A   1      41.589  24.599  28.155  1.00  0.00     0.014 A 
ATOM     10  C   UNL A   1      39.350  25.142  27.427  1.00  0.00     0.014 A 
ATOM     11  C   UNL A   1      41.709  25.854  28.714  1.00  0.00     0.010 A 
ATOM     12  C   UNL A   1      39.473  26.411  27.955  1.00  0.00     0.010 A 
ATOM     13  C   UNL A   1      40.623  26.722  28.670  1.00  0.00    -0.014 A 
BRANCH  13  14
ATOM     14  C   UNL A   1      40.797  28.025  29.281  1.00  0.00     0.031 A 
ATOM     15  C   UNL A   1      41.812  28.854  28.579  1.00  0.00     0.074 A 
ATOM     16  C   UNL A   1      40.040  28.429  30.318  1.00  0.00     0.049 A 
ATOM     17  N   UNL A   1      42.935  29.299  29.039  1.00  0.00    -0.248 NA
ATOM     18  C   UNL A   1      41.649  29.035  27.127  1.00  0.00     0.031 C 
ATOM     19  C   UNL A   1      38.861  27.759  30.878  1.00  0.00     0.029 A 
ATOM     20  N   UNL A   1      40.071  29.609  30.994  1.00  0.00    -0.354 N 
ATOM     21  C   UNL A   1      43.495  30.034  27.993  1.00  0.00     0.074 A 
ATOM     22  C   UNL A   1      42.787  29.647  26.806  1.00  0.00     0.031 C 
ATOM     23  C   UNL A   1      38.143  28.656  31.590  1.00  0.00     0.029 A 
ATOM     24  C   UNL A   1      38.873  29.910  31.639  1.00  0.00     0.049 A 
ATOM     25  H   UNL A   1      40.863  30.193  31.026  1.00  0.00     0.167 HD
ATOM     26  C   UNL A   1      44.286  31.113  28.244  1.00  0.00     0.034 A 
ATOM     27  C   UNL A   1      38.477  31.134  32.073  1.00  0.00     0.034 A 
ATOM     28  C   UNL A   1      44.821  31.058  29.583  1.00  0.00     0.049 A 
ATOM     29  C   UNL A   1      39.686  31.982  32.170  1.00  0.00     0.074 A 
ATOM     30  C   UNL A   1      45.615  30.175  30.287  1.00  0.00     0.029 A 
ATOM     31  N   UNL A   1      44.217  31.857  30.523  1.00  0.00    -0.354 N 
ATOM     32  N   UNL A   1      40.645  31.769  33.025  1.00  0.00    -0.248 NA
ATOM     33  C   UNL A   1      40.042  32.788  31.013  1.00  0.00     0.031 C 
ATOM     34  C   UNL A   1      45.088  30.185  31.612  1.00  0.00     0.029 A 
ATOM     35  C   UNL A   1      44.051  31.118  31.660  1.00  0.00     0.049 A 
ATOM     36  H   UNL A   1      43.950  32.797  30.399  1.00  0.00     0.167 HD
ATOM     37  C   UNL A   1      41.806  31.996  32.298  1.00  0.00     0.074 A 
ATOM     38  C   UNL A   1      41.373  32.721  31.104  1.00  0.00     0.031 C 
ATOM     39  C   UNL A   1      42.956  31.314  32.582  1.00  0.00     0.034 A 
BRANCH  26  40
ATOM     40  C   UNL A   1      44.204  32.428  27.482  1.00  0.00     0.023 A 
ATOM     41  C   UNL A   1      45.148  32.614  26.445  1.00  0.00     0.012 A 
ATOM     42  C   UNL A   1      43.503  33.580  27.912  1.00  0.00     0.148 A 
ATOM     43  C   UNL A   1      45.469  33.886  25.959  1.00  0.00     0.002 A 
ATOM     44  C   UNL A   1      43.785  34.836  27.386  1.00  0.00     0.091 A 
ATOM     45  F   UNL A   1      42.625  33.510  28.911  1.00  0.00    -0.205 F 
ATOM     46  C   UNL A   1      44.795  35.000  26.439  1.00  0.00     0.022 A 
BRANCH  44  47
ATOM     47  S   UNL A   1      42.922  36.310  27.953  1.00  0.00     0.127 S 
ATOM     48  O   UNL A   1      41.541  35.989  27.594  1.00  0.00    -0.237 OA
ATOM     49  O   UNL A   1      43.211  36.285  29.389  1.00  0.00    -0.237 OA
ATOM     50  O   UNL A   1      43.523  37.426  27.242  1.00  0.00    -0.744 OA
ENDBRANCH  44  47
ENDBRANCH  26  40
BRANCH  27  51
ATOM     51  C   UNL A   1      37.114  31.721  32.098  1.00  0.00     0.023 A 
ATOM     52  C   UNL A   1      36.542  32.109  33.325  1.00  0.00     0.012 A 
ATOM     53  C   UNL A   1      36.492  32.160  30.907  1.00  0.00     0.148 A 
ATOM     54  C   UNL A   1      35.405  32.928  33.365  1.00  0.00     0.002 A 
ATOM     55  C   UNL A   1      35.358  32.962  30.951  1.00  0.00     0.091 A 
ATOM     56  F   UNL A   1      37.069  31.869  29.733  1.00  0.00    -0.205 F 
ATOM     57  C   UNL A   1      34.816  33.360  32.180  1.00  0.00     0.022 A 
BRANCH  55  58
ATOM     58  S   UNL A   1      34.559  33.578  29.463  1.00  0.00     0.127 S 
ATOM     59  O   UNL A   1      33.426  34.321  30.013  1.00  0.00    -0.237 OA
ATOM     60  O   UNL A   1      35.606  34.404  28.874  1.00  0.00    -0.237 OA
ATOM     61  O   UNL A   1      34.180  32.394  28.695  1.00  0.00    -0.744 OA
ENDBRANCH  55  58
ENDBRANCH  27  51
BRANCH  39  62
ATOM     62  C   UNL A   1      43.005  30.509  33.854  1.00  0.00     0.023 A 
ATOM     63  C   UNL A   1      43.333  31.074  35.104  1.00  0.00     0.012 A 
ATOM     64  C   UNL A   1      42.535  29.187  33.808  1.00  0.00     0.148 A 
ATOM     65  C   UNL A   1      43.213  30.327  36.280  1.00  0.00     0.002 A 
ATOM     66  C   UNL A   1      42.371  28.464  34.981  1.00  0.00     0.091 A 
ATOM     67  F   UNL A   1      42.223  28.668  32.610  1.00  0.00    -0.205 F 
ATOM     68  C   UNL A   1      42.719  29.026  36.219  1.00  0.00     0.022 A 
BRANCH  66  69
ATOM     69  S   UNL A   1      41.618  26.838  34.977  1.00  0.00     0.127 S 
ATOM     70  O   UNL A   1      42.713  25.995  34.501  1.00  0.00    -0.237 OA
ATOM     71  O   UNL A   1      41.269  26.649  36.386  1.00  0.00    -0.237 OA
ATOM     72  O   UNL A   1      40.466  26.930  34.088  1.00  0.00    -0.744 OA
ENDBRANCH  66  69
ENDBRANCH  39  62
ENDBRANCH  13  14
ENDBRANCH   6   8
ENDBRANCH   3   4
ENDBRANCH   2   3
ENDBRANCH   1   2
BRANCH   1  73
ATOM     73  C   UNL A   1      35.281  23.878  24.216  1.00  0.00     0.116 C 
BRANCH  73  74
ATOM     74  N   UNL A   1      34.441  24.462  23.192  1.00  0.00    -0.356 N 
ATOM     75  C   UNL A   1      33.907  25.711  23.115  1.00  0.00     0.224 C 
ATOM     76  H   UNL A   1      34.223  23.865  22.440  1.00  0.00     0.163 HD
ATOM     77  O   UNL A   1      33.719  26.140  21.968  1.00  0.00    -0.275 OA
BRANCH  75  78
ATOM     78  C   UNL A   1      33.416  26.558  24.299  1.00  0.00     0.098 C 
ATOM     79  C   UNL A   1      31.926  26.324  24.732  1.00  0.00     0.098 C 
ATOM     80  C   UNL A   1      33.827  28.028  24.622  1.00  0.00     0.025 C 
ATOM     81  C   UNL A   1      31.422  27.562  25.536  1.00  0.00     0.025 C 
ATOM     82  C   UNL A   1      32.770  29.027  24.196  1.00  0.00    -0.027 C 
ATOM     83  C   UNL A   1      33.815  28.174  26.173  1.00  0.00     0.009 C 
ATOM     84  C   UNL A   1      31.537  28.796  24.678  1.00  0.00    -0.027 C 
ATOM     85  C   UNL A   1      32.405  27.816  26.718  1.00  0.00     0.009 C 
BRANCH  79  86
ATOM     86  C   UNL A   1      30.820  25.676  23.844  1.00  0.00     0.228 C 
ATOM     87  O   UNL A   1      29.979  26.432  23.328  1.00  0.00    -0.274 OA
ATOM     88  N   UNL A   1      30.789  24.390  23.375  1.00  0.00    -0.326 N 
ATOM     89  H   UNL A   1      30.219  24.276  22.580  1.00  0.00     0.169 HD
BRANCH  88  90
ATOM     90  C   UNL A   1      31.399  23.205  23.796  1.00  0.00     0.041 A 
ATOM     91  C   UNL A   1      31.828  22.244  22.886  1.00  0.00     0.026 A 
ATOM     92  C   UNL A   1      31.560  22.939  25.133  1.00  0.00     0.026 A 
ATOM     93  C   UNL A   1      32.610  21.157  23.323  1.00  0.00     0.008 A 
ATOM     94  C   UNL A   1      32.340  21.877  25.581  1.00  0.00     0.008 A 
ATOM     95  C   UNL A   1      32.931  21.008  24.677  1.00  0.00    -0.026 A 
BRANCH  95  96
ATOM     96  C   UNL A   1      33.892  19.970  25.195  1.00  0.00     0.181 C 
BRANCH  96  97
ATOM     97  N   UNL A   1      33.439  18.621  24.939  1.00  0.00    -0.249 N 
ATOM     98  C   UNL A   1      33.914  17.722  24.040  1.00  0.00     0.220 A 
ATOM     99  N   UNL A   1      32.469  18.080  25.686  1.00  0.00    -0.160 NA
ATOM    100  N   UNL A   1      33.252  16.593  24.153  1.00  0.00    -0.224 NA
ATOM    101  C   UNL A   1      32.373  16.855  25.168  1.00  0.00     0.246 A 
ENDBRANCH  96  97
ENDBRANCH  95  96
ENDBRANCH  88  90
ENDBRANCH  79  86
ENDBRANCH  75  78
ENDBRANCH  73  74
ENDBRANCH   1  73
TORSDOF 18
ENDMDL
