MODEL 1
REMARK VINA RESULT:     -11.2      0.000      0.000
REMARK SMILES CO[C@H]1CN(C(=O)c2cn(C(C)C)cc(C(=O)NCCCCNC(=O)c3ccc(-c4c5nc(c(-c6cccc(S(=O)(=O)[O-])c6F)c6ccc([nH]6)c(-c6cccc(S(=O)(=O)[O-])c6F)c6nc(c(-c7cccc(S(=O)(=O)[O-])c7F)c7ccc4[nH]7)C=C6)C=C5)cc3)c2=O)CC[C@H]1[NH3+]
REMARK SMILES IDX 20 1 19 2 18 3 16 4 17 5 15 7 8 8 9 9 89 10 10 11 90 12
REMARK SMILES IDX 14 13 6 14 7 15 5 16 3 17 4 18 93 19 92 20 91 21 2 22 1 23
REMARK SMILES IDX 94 24 11 28 12 29 13 30 21 31 22 32 23 33 24 34 25 36 26 37
REMARK SMILES IDX 27 38 88 39 28 40 87 41 29 42 30 43 31 44 81 45 32 46 86 47
REMARK SMILES IDX 80 48 82 49 33 50 85 51 79 52 78 53 34 55 66 56 46 57 65 58
REMARK SMILES IDX 47 59 50 60 64 61 83 62 48 63 49 64 63 66 84 67 51 68 35 69
REMARK SMILES IDX 36 70 44 71 37 72 39 73 45 74 38 75 40 76 41 77 42 78 43 79
REMARK SMILES IDX 67 80 68 81 76 82 69 83 71 84 77 85 70 86 72 87 73 88 74 89
REMARK SMILES IDX 75 90 52 91 53 92 61 93 54 94 56 95 62 96 55 97 57 98 58 99
REMARK SMILES IDX 59 100 60 101
REMARK H PARENT 18 6 94 25 94 26 94 27 23 35 82 54 50 65
REMARK Flexibility Score: inf
ROOT
ATOM      1  C   UNL A   1      37.606  19.734  24.879  1.00  0.00     0.023 C 
ENDROOT
BRANCH   1   2
ATOM      2  C   UNL A   1      37.461  21.205  25.283  1.00  0.00     0.116 C 
BRANCH   2   3
ATOM      3  N   UNL A   1      37.251  22.049  24.122  1.00  0.00    -0.352 N 
ATOM      4  C   UNL A   1      36.142  22.654  23.621  1.00  0.00     0.256 C 
ATOM      5  O   UNL A   1      36.307  23.325  22.595  1.00  0.00    -0.269 OA
ATOM      6  H   UNL A   1      38.068  22.216  23.598  1.00  0.00     0.163 HD
BRANCH   4   7
ATOM      7  C   UNL A   1      34.798  22.605  24.264  1.00  0.00     0.104 A 
ATOM      8  C   UNL A   1      32.683  23.450  25.404  1.00  0.00     0.104 A 
ATOM      9  C   UNL A   1      32.164  22.228  25.238  1.00  0.00     0.103 A 
ATOM     10  C   UNL A   1      34.122  23.638  25.096  1.00  0.00     0.207 A 
ATOM     11  N   UNL A   1      32.865  21.163  24.680  1.00  0.00    -0.350 N 
ATOM     12  O   UNL A   1      34.701  24.606  25.575  1.00  0.00    -0.288 OA
ATOM     13  C   UNL A   1      34.130  21.439  24.157  1.00  0.00     0.103 A 
BRANCH   8  14
ATOM     14  C   UNL A   1      31.873  24.549  25.970  1.00  0.00     0.259 C 
ATOM     15  O   UNL A   1      31.564  24.538  27.159  1.00  0.00    -0.269 OA
BRANCH  14  16
ATOM     16  N   UNL A   1      31.496  25.552  25.090  1.00  0.00    -0.335 N 
ATOM     17  C   UNL A   1      32.859  27.067  23.709  1.00  0.00     0.195 C 
ATOM     18  C   UNL A   1      32.094  26.889  25.036  1.00  0.00     0.158 C 
ATOM     19  C   UNL A   1      31.928  26.780  22.488  1.00  0.00     0.213 C 
ATOM     20  C   UNL A   1      31.240  25.411  22.656  1.00  0.00     0.089 C 
ATOM     21  C   UNL A   1      30.561  25.256  24.013  1.00  0.00     0.126 C 
BRANCH  17  22
ATOM     22  O   UNL A   1      33.448  28.373  23.705  1.00  0.00    -0.373 OA
ATOM     23  C   UNL A   1      33.003  29.199  24.771  1.00  0.00     0.195 C 
ENDBRANCH  17  22
BRANCH  19  24
ATOM     24  N   UNL A   1      30.952  27.849  22.231  1.00  0.00    -0.353 N 
ATOM     25  H   UNL A   1      31.005  28.130  21.253  1.00  0.00     0.344 HD
ATOM     26  H   UNL A   1      31.161  28.650  22.827  1.00  0.00     0.344 HD
ATOM     27  H   UNL A   1      30.013  27.509  22.437  1.00  0.00     0.344 HD
ENDBRANCH  19  24
ENDBRANCH  14  16
ENDBRANCH   8  14
BRANCH  11  28
ATOM     28  C   UNL A   1      32.345  19.773  24.684  1.00  0.00     0.080 C 
ATOM     29  C   UNL A   1      32.611  19.108  23.334  1.00  0.00     0.031 C 
ATOM     30  C   UNL A   1      32.924  18.963  25.843  1.00  0.00     0.031 C 
ENDBRANCH  11  28
ENDBRANCH   4   7
ENDBRANCH   2   3
ENDBRANCH   1   2
BRANCH   1  31
ATOM     31  C   UNL A   1      38.786  19.000  25.511  1.00  0.00     0.023 C 
BRANCH  31  32
ATOM     32  C   UNL A   1      39.857  19.899  26.107  1.00  0.00     0.116 C 
BRANCH  32  33
ATOM     33  N   UNL A   1      41.220  19.436  25.875  1.00  0.00    -0.352 N 
ATOM     34  C   UNL A   1      42.388  20.139  26.062  1.00  0.00     0.251 C 
ATOM     35  H   UNL A   1      41.315  18.513  25.546  1.00  0.00     0.163 HD
ATOM     36  O   UNL A   1      43.471  19.647  25.764  1.00  0.00    -0.269 OA
BRANCH  34  37
ATOM     37  C   UNL A   1      42.298  21.524  26.571  1.00  0.00     0.039 A 
ATOM     38  C   UNL A   1      42.196  22.591  25.677  1.00  0.00     0.014 A 
ATOM     39  C   UNL A   1      42.445  21.754  27.942  1.00  0.00     0.014 A 
ATOM     40  C   UNL A   1      42.426  23.883  26.131  1.00  0.00     0.010 A 
ATOM     41  C   UNL A   1      42.593  23.063  28.405  1.00  0.00     0.010 A 
ATOM     42  C   UNL A   1      42.649  24.131  27.497  1.00  0.00    -0.014 A 
BRANCH  42  43
ATOM     43  C   UNL A   1      42.965  25.513  27.940  1.00  0.00     0.031 A 
ATOM     44  C   UNL A   1      44.352  26.077  27.781  1.00  0.00     0.074 A 
ATOM     45  C   UNL A   1      41.976  26.284  28.430  1.00  0.00     0.049 A 
ATOM     46  N   UNL A   1      44.787  27.275  28.079  1.00  0.00    -0.248 NA
ATOM     47  C   UNL A   1      45.384  25.189  27.220  1.00  0.00     0.031 C 
ATOM     48  C   UNL A   1      40.595  25.846  28.641  1.00  0.00     0.029 A 
ATOM     49  N   UNL A   1      41.973  27.600  28.817  1.00  0.00    -0.354 N 
ATOM     50  C   UNL A   1      46.145  27.273  27.782  1.00  0.00     0.074 A 
ATOM     51  C   UNL A   1      46.466  25.955  27.281  1.00  0.00     0.031 C 
ATOM     52  C   UNL A   1      39.868  26.886  29.073  1.00  0.00     0.029 A 
ATOM     53  C   UNL A   1      40.737  28.050  29.213  1.00  0.00     0.049 A 
ATOM     54  H   UNL A   1      42.778  28.167  28.811  1.00  0.00     0.167 HD
ATOM     55  C   UNL A   1      47.037  28.284  27.893  1.00  0.00     0.034 A 
ATOM     56  C   UNL A   1      40.341  29.264  29.642  1.00  0.00     0.034 A 
ATOM     57  C   UNL A   1      46.708  29.614  28.329  1.00  0.00     0.049 A 
ATOM     58  C   UNL A   1      41.344  30.376  29.729  1.00  0.00     0.074 A 
ATOM     59  C   UNL A   1      47.543  30.712  28.440  1.00  0.00     0.029 A 
ATOM     60  N   UNL A   1      45.443  30.030  28.713  1.00  0.00    -0.354 N 
ATOM     61  N   UNL A   1      42.609  30.369  29.386  1.00  0.00    -0.248 NA
ATOM     62  C   UNL A   1      40.868  31.664  30.252  1.00  0.00     0.031 C 
ATOM     63  C   UNL A   1      46.780  31.796  28.884  1.00  0.00     0.029 A 
ATOM     64  C   UNL A   1      45.472  31.370  29.056  1.00  0.00     0.049 A 
ATOM     65  H   UNL A   1      44.643  29.457  28.737  1.00  0.00     0.167 HD
ATOM     66  C   UNL A   1      43.083  31.646  29.653  1.00  0.00     0.074 A 
ATOM     67  C   UNL A   1      41.961  32.412  30.159  1.00  0.00     0.031 C 
ATOM     68  C   UNL A   1      44.341  32.130  29.519  1.00  0.00     0.034 A 
BRANCH  55  69
ATOM     69  C   UNL A   1      48.456  28.017  27.473  1.00  0.00     0.023 A 
ATOM     70  C   UNL A   1      49.403  27.666  28.455  1.00  0.00     0.012 A 
ATOM     71  C   UNL A   1      48.832  28.028  26.117  1.00  0.00     0.148 A 
ATOM     72  C   UNL A   1      50.709  27.339  28.094  1.00  0.00     0.002 A 
ATOM     73  C   UNL A   1      50.130  27.677  25.762  1.00  0.00     0.091 A 
ATOM     74  F   UNL A   1      47.917  28.385  25.203  1.00  0.00    -0.205 F 
ATOM     75  C   UNL A   1      51.069  27.335  26.749  1.00  0.00     0.022 A 
BRANCH  73  76
ATOM     76  S   UNL A   1      50.680  27.595  24.053  1.00  0.00     0.127 S 
ATOM     77  O   UNL A   1      51.036  28.988  23.791  1.00  0.00    -0.237 OA
ATOM     78  O   UNL A   1      51.819  26.679  24.139  1.00  0.00    -0.237 OA
ATOM     79  O   UNL A   1      49.548  27.086  23.291  1.00  0.00    -0.744 OA
ENDBRANCH  73  76
ENDBRANCH  55  69
BRANCH  56  80
ATOM     80  C   UNL A   1      38.905  29.479  29.961  1.00  0.00     0.023 A 
ATOM     81  C   UNL A   1      38.443  29.202  31.260  1.00  0.00     0.012 A 
ATOM     82  C   UNL A   1      38.032  30.062  29.023  1.00  0.00     0.148 A 
ATOM     83  C   UNL A   1      37.131  29.507  31.623  1.00  0.00     0.002 A 
ATOM     84  C   UNL A   1      36.742  30.407  29.404  1.00  0.00     0.091 A 
ATOM     85  F   UNL A   1      38.501  30.308  27.791  1.00  0.00    -0.205 F 
ATOM     86  C   UNL A   1      36.286  30.122  30.701  1.00  0.00     0.022 A 
BRANCH  84  87
ATOM     87  S   UNL A   1      35.626  31.316  28.331  1.00  0.00     0.127 S 
ATOM     88  O   UNL A   1      34.534  31.645  29.245  1.00  0.00    -0.237 OA
ATOM     89  O   UNL A   1      36.457  32.451  27.930  1.00  0.00    -0.237 OA
ATOM     90  O   UNL A   1      35.284  30.404  27.249  1.00  0.00    -0.744 OA
ENDBRANCH  84  87
ENDBRANCH  56  80
BRANCH  68  91
ATOM     91  C   UNL A   1      44.594  33.549  29.940  1.00  0.00     0.023 A 
ATOM     92  C   UNL A   1      45.074  33.794  31.241  1.00  0.00     0.012 A 
ATOM     93  C   UNL A   1      44.472  34.613  29.028  1.00  0.00     0.148 A 
ATOM     94  C   UNL A   1      45.425  35.084  31.633  1.00  0.00     0.002 A 
ATOM     95  C   UNL A   1      44.849  35.893  29.417  1.00  0.00     0.091 A 
ATOM     96  F   UNL A   1      44.002  34.351  27.800  1.00  0.00    -0.205 F 
ATOM     97  C   UNL A   1      45.323  36.131  30.718  1.00  0.00     0.022 A 
BRANCH  95  98
ATOM     98  S   UNL A   1      44.816  37.296  28.294  1.00  0.00     0.127 S 
ATOM     99  O   UNL A   1      45.205  38.394  29.178  1.00  0.00    -0.237 OA
ATOM    100  O   UNL A   1      45.825  36.922  27.303  1.00  0.00    -0.237 OA
ATOM    101  O   UNL A   1      43.456  37.367  27.778  1.00  0.00    -0.744 OA
ENDBRANCH  95  98
ENDBRANCH  68  91
ENDBRANCH  42  43
ENDBRANCH  34  37
ENDBRANCH  32  33
ENDBRANCH  31  32
ENDBRANCH   1  31
TORSDOF 19
ENDMDL
MODEL 2
REMARK VINA RESULT:     -11.0      5.282     10.367
REMARK SMILES CO[C@H]1CN(C(=O)c2cn(C(C)C)cc(C(=O)NCCCCNC(=O)c3ccc(-c4c5nc(c(-c6cccc(S(=O)(=O)[O-])c6F)c6ccc([nH]6)c(-c6cccc(S(=O)(=O)[O-])c6F)c6nc(c(-c7cccc(S(=O)(=O)[O-])c7F)c7ccc4[nH]7)C=C6)C=C5)cc3)c2=O)CC[C@H]1[NH3+]
REMARK SMILES IDX 20 1 19 2 18 3 16 4 17 5 15 7 8 8 9 9 89 10 10 11 90 12
REMARK SMILES IDX 14 13 6 14 7 15 5 16 3 17 4 18 93 19 92 20 91 21 2 22 1 23
REMARK SMILES IDX 94 24 11 28 12 29 13 30 21 31 22 32 23 33 24 34 25 36 26 37
REMARK SMILES IDX 27 38 88 39 28 40 87 41 29 42 30 43 31 44 81 45 32 46 86 47
REMARK SMILES IDX 80 48 82 49 33 50 85 51 79 52 78 53 34 55 66 56 46 57 65 58
REMARK SMILES IDX 47 59 50 60 64 61 83 62 48 63 49 64 63 66 84 67 51 68 35 69
REMARK SMILES IDX 36 70 44 71 37 72 39 73 45 74 38 75 40 76 41 77 42 78 43 79
REMARK SMILES IDX 67 80 68 81 76 82 69 83 71 84 77 85 70 86 72 87 73 88 74 89
REMARK SMILES IDX 75 90 52 91 53 92 61 93 54 94 56 95 62 96 55 97 57 98 58 99
REMARK SMILES IDX 59 100 60 101
REMARK H PARENT 18 6 94 25 94 26 94 27 23 35 82 54 50 65
REMARK Flexibility Score: inf
ROOT
ATOM      1  C   UNL A   1      30.654  29.892  24.598  1.00  0.00     0.023 C 
ENDROOT
BRANCH   1   2
ATOM      2  C   UNL A   1      30.029  29.472  23.264  1.00  0.00     0.116 C 
BRANCH   2   3
ATOM      3  N   UNL A   1      28.839  28.669  23.473  1.00  0.00    -0.352 N 
ATOM      4  C   UNL A   1      28.663  27.342  23.710  1.00  0.00     0.256 C 
ATOM      5  O   UNL A   1      27.493  26.968  23.853  1.00  0.00    -0.269 OA
ATOM      6  H   UNL A   1      28.000  29.182  23.439  1.00  0.00     0.163 HD
BRANCH   4   7
ATOM      7  C   UNL A   1      29.776  26.365  23.870  1.00  0.00     0.104 A 
ATOM      8  C   UNL A   1      31.079  24.387  24.806  1.00  0.00     0.104 A 
ATOM      9  C   UNL A   1      31.937  24.533  23.789  1.00  0.00     0.103 A 
ATOM     10  C   UNL A   1      30.054  25.441  25.003  1.00  0.00     0.207 A 
ATOM     11  N   UNL A   1      31.843  25.549  22.842  1.00  0.00    -0.350 N 
ATOM     12  O   UNL A   1      29.516  25.534  26.100  1.00  0.00    -0.288 OA
ATOM     13  C   UNL A   1      30.714  26.370  22.901  1.00  0.00     0.103 A 
BRANCH   8  14
ATOM     14  C   UNL A   1      31.215  23.264  25.758  1.00  0.00     0.259 C 
ATOM     15  O   UNL A   1      30.216  22.686  26.176  1.00  0.00    -0.269 OA
BRANCH  14  16
ATOM     16  N   UNL A   1      32.508  22.930  26.134  1.00  0.00    -0.335 N 
ATOM     17  C   UNL A   1      34.322  21.864  24.857  1.00  0.00     0.195 C 
ATOM     18  C   UNL A   1      33.160  21.649  25.848  1.00  0.00     0.158 C 
ATOM     19  C   UNL A   1      35.322  22.935  25.398  1.00  0.00     0.213 C 
ATOM     20  C   UNL A   1      34.564  24.218  25.789  1.00  0.00     0.089 C 
ATOM     21  C   UNL A   1      33.379  23.945  26.710  1.00  0.00     0.126 C 
BRANCH  17  22
ATOM     22  O   UNL A   1      34.917  20.589  24.585  1.00  0.00    -0.373 OA
ATOM     23  C   UNL A   1      34.152  19.492  25.063  1.00  0.00     0.195 C 
ENDBRANCH  17  22
BRANCH  19  24
ATOM     24  N   UNL A   1      36.165  22.447  26.500  1.00  0.00    -0.353 N 
ATOM     25  H   UNL A   1      37.084  22.195  26.139  1.00  0.00     0.344 HD
ATOM     26  H   UNL A   1      35.729  21.627  26.923  1.00  0.00     0.344 HD
ATOM     27  H   UNL A   1      36.264  23.179  27.202  1.00  0.00     0.344 HD
ENDBRANCH  19  24
ENDBRANCH  14  16
ENDBRANCH   8  14
BRANCH  11  28
ATOM     28  C   UNL A   1      32.908  25.812  21.843  1.00  0.00     0.080 C 
ATOM     29  C   UNL A   1      32.345  25.680  20.428  1.00  0.00     0.031 C 
ATOM     30  C   UNL A   1      33.564  27.173  22.071  1.00  0.00     0.031 C 
ENDBRANCH  11  28
ENDBRANCH   4   7
ENDBRANCH   2   3
ENDBRANCH   1   2
BRANCH   1  31
ATOM     31  C   UNL A   1      32.134  29.552  24.758  1.00  0.00     0.023 C 
BRANCH  31  32
ATOM     32  C   UNL A   1      32.718  29.853  26.129  1.00  0.00     0.116 C 
BRANCH  32  33
ATOM     33  N   UNL A   1      32.423  31.193  26.620  1.00  0.00    -0.352 N 
ATOM     34  C   UNL A   1      33.243  32.015  27.360  1.00  0.00     0.251 C 
ATOM     35  H   UNL A   1      31.534  31.553  26.397  1.00  0.00     0.163 HD
ATOM     36  O   UNL A   1      32.843  33.101  27.766  1.00  0.00    -0.269 OA
BRANCH  34  37
ATOM     37  C   UNL A   1      34.595  31.527  27.706  1.00  0.00     0.039 A 
ATOM     38  C   UNL A   1      34.793  30.181  28.019  1.00  0.00     0.014 A 
ATOM     39  C   UNL A   1      35.636  32.449  27.839  1.00  0.00     0.014 A 
ATOM     40  C   UNL A   1      35.974  29.793  28.638  1.00  0.00     0.010 A 
ATOM     41  C   UNL A   1      36.852  32.037  28.387  1.00  0.00     0.010 A 
ATOM     42  C   UNL A   1      37.008  30.721  28.849  1.00  0.00    -0.014 A 
BRANCH  42  43
ATOM     43  C   UNL A   1      38.228  30.293  29.581  1.00  0.00     0.031 A 
ATOM     44  C   UNL A   1      38.477  30.741  30.996  1.00  0.00     0.074 A 
ATOM     45  C   UNL A   1      39.083  29.441  28.983  1.00  0.00     0.049 A 
ATOM     46  N   UNL A   1      39.469  30.429  31.790  1.00  0.00    -0.248 NA
ATOM     47  C   UNL A   1      37.494  31.657  31.600  1.00  0.00     0.031 C 
ATOM     48  C   UNL A   1      38.953  28.946  27.612  1.00  0.00     0.029 A 
ATOM     49  N   UNL A   1      40.213  28.826  29.457  1.00  0.00    -0.354 N 
ATOM     50  C   UNL A   1      39.254  31.137  32.967  1.00  0.00     0.074 A 
ATOM     51  C   UNL A   1      38.037  31.898  32.786  1.00  0.00     0.031 C 
ATOM     52  C   UNL A   1      39.936  28.066  27.370  1.00  0.00     0.029 A 
ATOM     53  C   UNL A   1      40.790  27.970  28.550  1.00  0.00     0.049 A 
ATOM     54  H   UNL A   1      40.576  28.983  30.358  1.00  0.00     0.167 HD
ATOM     55  C   UNL A   1      39.989  31.133  34.103  1.00  0.00     0.034 A 
ATOM     56  C   UNL A   1      41.884  27.192  28.651  1.00  0.00     0.034 A 
ATOM     57  C   UNL A   1      41.162  30.330  34.310  1.00  0.00     0.049 A 
ATOM     58  C   UNL A   1      42.666  27.184  29.932  1.00  0.00     0.074 A 
ATOM     59  C   UNL A   1      41.951  30.239  35.442  1.00  0.00     0.029 A 
ATOM     60  N   UNL A   1      41.708  29.470  33.370  1.00  0.00    -0.354 N 
ATOM     61  N   UNL A   1      42.410  27.815  31.052  1.00  0.00    -0.248 NA
ATOM     62  C   UNL A   1      43.878  26.356  29.969  1.00  0.00     0.031 C 
ATOM     63  C   UNL A   1      42.971  29.315  35.190  1.00  0.00     0.029 A 
ATOM     64  C   UNL A   1      42.820  28.839  33.897  1.00  0.00     0.049 A 
ATOM     65  H   UNL A   1      41.355  29.330  32.461  1.00  0.00     0.167 HD
ATOM     66  C   UNL A   1      43.429  27.464  31.927  1.00  0.00     0.074 A 
ATOM     67  C   UNL A   1      44.291  26.540  31.217  1.00  0.00     0.031 C 
ATOM     68  C   UNL A   1      43.645  27.892  33.194  1.00  0.00     0.034 A 
BRANCH  55  69
ATOM     69  C   UNL A   1      39.512  31.982  35.250  1.00  0.00     0.023 A 
ATOM     70  C   UNL A   1      39.761  33.368  35.222  1.00  0.00     0.012 A 
ATOM     71  C   UNL A   1      38.752  31.432  36.299  1.00  0.00     0.148 A 
ATOM     72  C   UNL A   1      39.269  34.195  36.231  1.00  0.00     0.002 A 
ATOM     73  C   UNL A   1      38.243  32.267  37.288  1.00  0.00     0.091 A 
ATOM     74  F   UNL A   1      38.545  30.107  36.312  1.00  0.00    -0.205 F 
ATOM     75  C   UNL A   1      38.503  33.647  37.256  1.00  0.00     0.022 A 
BRANCH  73  76
ATOM     76  S   UNL A   1      37.206  31.665  38.626  1.00  0.00     0.127 S 
ATOM     77  O   UNL A   1      38.010  32.007  39.799  1.00  0.00    -0.237 OA
ATOM     78  O   UNL A   1      35.994  32.470  38.463  1.00  0.00    -0.237 OA
ATOM     79  O   UNL A   1      37.026  30.241  38.386  1.00  0.00    -0.744 OA
ENDBRANCH  73  76
ENDBRANCH  55  69
BRANCH  56  80
ATOM     80  C   UNL A   1      42.250  26.316  27.507  1.00  0.00     0.023 A 
ATOM     81  C   UNL A   1      43.134  26.802  26.527  1.00  0.00     0.012 A 
ATOM     82  C   UNL A   1      41.821  24.976  27.452  1.00  0.00     0.148 A 
ATOM     83  C   UNL A   1      43.590  25.965  25.509  1.00  0.00     0.002 A 
ATOM     84  C   UNL A   1      42.315  24.135  26.464  1.00  0.00     0.091 A 
ATOM     85  F   UNL A   1      40.974  24.543  28.397  1.00  0.00    -0.205 F 
ATOM     86  C   UNL A   1      43.193  24.629  25.486  1.00  0.00     0.022 A 
BRANCH  84  87
ATOM     87  S   UNL A   1      41.965  22.374  26.427  1.00  0.00     0.127 S 
ATOM     88  O   UNL A   1      42.387  21.958  27.763  1.00  0.00    -0.237 OA
ATOM     89  O   UNL A   1      40.520  22.362  26.205  1.00  0.00    -0.237 OA
ATOM     90  O   UNL A   1      42.751  21.836  25.325  1.00  0.00    -0.744 OA
ENDBRANCH  84  87
ENDBRANCH  56  80
BRANCH  68  91
ATOM     91  C   UNL A   1      44.871  27.392  33.903  1.00  0.00     0.023 A 
ATOM     92  C   UNL A   1      46.042  28.171  33.864  1.00  0.00     0.012 A 
ATOM     93  C   UNL A   1      44.831  26.227  34.693  1.00  0.00     0.148 A 
ATOM     94  C   UNL A   1      47.165  27.797  34.600  1.00  0.00     0.002 A 
ATOM     95  C   UNL A   1      45.946  25.873  35.444  1.00  0.00     0.091 A 
ATOM     96  F   UNL A   1      43.706  25.499  34.701  1.00  0.00    -0.205 F 
ATOM     97  C   UNL A   1      47.113  26.655  35.397  1.00  0.00     0.022 A 
BRANCH  95  98
ATOM     98  S   UNL A   1      45.958  24.458  36.551  1.00  0.00     0.127 S 
ATOM     99  O   UNL A   1      47.313  24.520  37.097  1.00  0.00    -0.237 OA
ATOM    100  O   UNL A   1      44.900  24.800  37.501  1.00  0.00    -0.237 OA
ATOM    101  O   UNL A   1      45.676  23.295  35.721  1.00  0.00    -0.744 OA
ENDBRANCH  95  98
ENDBRANCH  68  91
ENDBRANCH  42  43
ENDBRANCH  34  37
ENDBRANCH  32  33
ENDBRANCH  31  32
ENDBRANCH   1  31
TORSDOF 19
ENDMDL
MODEL 3
REMARK VINA RESULT:     -10.9      1.841      2.179
REMARK SMILES CO[C@H]1CN(C(=O)c2cn(C(C)C)cc(C(=O)NCCCCNC(=O)c3ccc(-c4c5nc(c(-c6cccc(S(=O)(=O)[O-])c6F)c6ccc([nH]6)c(-c6cccc(S(=O)(=O)[O-])c6F)c6nc(c(-c7cccc(S(=O)(=O)[O-])c7F)c7ccc4[nH]7)C=C6)C=C5)cc3)c2=O)CC[C@H]1[NH3+]
REMARK SMILES IDX 20 1 19 2 18 3 16 4 17 5 15 7 8 8 9 9 89 10 10 11 90 12
REMARK SMILES IDX 14 13 6 14 7 15 5 16 3 17 4 18 93 19 92 20 91 21 2 22 1 23
REMARK SMILES IDX 94 24 11 28 12 29 13 30 21 31 22 32 23 33 24 34 25 36 26 37
REMARK SMILES IDX 27 38 88 39 28 40 87 41 29 42 30 43 31 44 81 45 32 46 86 47
REMARK SMILES IDX 80 48 82 49 33 50 85 51 79 52 78 53 34 55 66 56 46 57 65 58
REMARK SMILES IDX 47 59 50 60 64 61 83 62 48 63 49 64 63 66 84 67 51 68 35 69
REMARK SMILES IDX 36 70 44 71 37 72 39 73 45 74 38 75 40 76 41 77 42 78 43 79
REMARK SMILES IDX 67 80 68 81 76 82 69 83 71 84 77 85 70 86 72 87 73 88 74 89
REMARK SMILES IDX 75 90 52 91 53 92 61 93 54 94 56 95 62 96 55 97 57 98 58 99
REMARK SMILES IDX 59 100 60 101
REMARK H PARENT 18 6 94 25 94 26 94 27 23 35 82 54 50 65
REMARK Flexibility Score: inf
ROOT
ATOM      1  C   UNL A   1      37.650  19.924  24.955  1.00  0.00     0.023 C 
ENDROOT
BRANCH   1   2
ATOM      2  C   UNL A   1      37.840  21.411  25.268  1.00  0.00     0.116 C 
BRANCH   2   3
ATOM      3  N   UNL A   1      37.400  22.239  24.161  1.00  0.00    -0.352 N 
ATOM      4  C   UNL A   1      36.164  22.590  23.717  1.00  0.00     0.256 C 
ATOM      5  O   UNL A   1      36.134  23.332  22.728  1.00  0.00    -0.269 OA
ATOM      6  H   UNL A   1      38.137  22.621  23.631  1.00  0.00     0.163 HD
BRANCH   4   7
ATOM      7  C   UNL A   1      34.891  22.194  24.383  1.00  0.00     0.104 A 
ATOM      8  C   UNL A   1      32.683  22.456  25.625  1.00  0.00     0.104 A 
ATOM      9  C   UNL A   1      32.449  21.161  25.382  1.00  0.00     0.103 A 
ATOM     10  C   UNL A   1      34.030  22.988  25.301  1.00  0.00     0.207 A 
ATOM     11  N   UNL A   1      33.352  20.324  24.734  1.00  0.00    -0.350 N 
ATOM     12  O   UNL A   1      34.391  24.029  25.837  1.00  0.00    -0.288 OA
ATOM     13  C   UNL A   1      34.501  20.915  24.206  1.00  0.00     0.103 A 
BRANCH   8  14
ATOM     14  C   UNL A   1      31.667  23.301  26.286  1.00  0.00     0.259 C 
ATOM     15  O   UNL A   1      31.363  23.097  27.459  1.00  0.00    -0.269 OA
BRANCH  14  16
ATOM     16  N   UNL A   1      31.098  24.300  25.510  1.00  0.00    -0.335 N 
ATOM     17  C   UNL A   1      31.882  26.578  25.005  1.00  0.00     0.195 C 
ATOM     18  C   UNL A   1      30.983  25.706  25.905  1.00  0.00     0.158 C 
ATOM     19  C   UNL A   1      31.543  26.352  23.497  1.00  0.00     0.213 C 
ATOM     20  C   UNL A   1      31.567  24.847  23.167  1.00  0.00     0.089 C 
ATOM     21  C   UNL A   1      30.723  24.020  24.131  1.00  0.00     0.126 C 
BRANCH  17  22
ATOM     22  O   UNL A   1      31.761  27.939  25.438  1.00  0.00    -0.373 OA
ATOM     23  C   UNL A   1      32.952  28.695  25.270  1.00  0.00     0.195 C 
ENDBRANCH  17  22
BRANCH  19  24
ATOM     24  N   UNL A   1      30.279  26.977  23.081  1.00  0.00    -0.353 N 
ATOM     25  H   UNL A   1      30.048  26.680  22.133  1.00  0.00     0.344 HD
ATOM     26  H   UNL A   1      30.378  27.992  23.104  1.00  0.00     0.344 HD
ATOM     27  H   UNL A   1      29.534  26.695  23.717  1.00  0.00     0.344 HD
ENDBRANCH  19  24
ENDBRANCH  14  16
ENDBRANCH   8  14
BRANCH  11  28
ATOM     28  C   UNL A   1      33.160  18.855  24.648  1.00  0.00     0.080 C 
ATOM     29  C   UNL A   1      34.464  18.178  24.223  1.00  0.00     0.031 C 
ATOM     30  C   UNL A   1      32.624  18.284  25.960  1.00  0.00     0.031 C 
ENDBRANCH  11  28
ENDBRANCH   4   7
ENDBRANCH   2   3
ENDBRANCH   1   2
BRANCH   1  31
ATOM     31  C   UNL A   1      38.789  19.014  25.411  1.00  0.00     0.023 C 
BRANCH  31  32
ATOM     32  C   UNL A   1      39.954  19.728  26.077  1.00  0.00     0.116 C 
BRANCH  32  33
ATOM     33  N   UNL A   1      41.242  19.072  25.887  1.00  0.00    -0.352 N 
ATOM     34  C   UNL A   1      42.494  19.630  26.008  1.00  0.00     0.251 C 
ATOM     35  H   UNL A   1      41.212  18.118  25.643  1.00  0.00     0.163 HD
ATOM     36  O   UNL A   1      43.500  18.976  25.754  1.00  0.00    -0.269 OA
BRANCH  34  37
ATOM     37  C   UNL A   1      42.592  21.055  26.389  1.00  0.00     0.039 A 
ATOM     38  C   UNL A   1      42.669  22.038  25.402  1.00  0.00     0.014 A 
ATOM     39  C   UNL A   1      42.732  21.388  27.739  1.00  0.00     0.014 A 
ATOM     40  C   UNL A   1      43.071  23.321  25.749  1.00  0.00     0.010 A 
ATOM     41  C   UNL A   1      43.056  22.700  28.091  1.00  0.00     0.010 A 
ATOM     42  C   UNL A   1      43.290  23.661  27.095  1.00  0.00    -0.014 A 
BRANCH  42  43
ATOM     43  C   UNL A   1      43.791  25.019  27.428  1.00  0.00     0.031 A 
ATOM     44  C   UNL A   1      45.208  25.418  27.114  1.00  0.00     0.074 A 
ATOM     45  C   UNL A   1      42.939  25.917  27.959  1.00  0.00     0.049 A 
ATOM     46  N   UNL A   1      45.793  26.574  27.301  1.00  0.00    -0.248 NA
ATOM     47  C   UNL A   1      46.083  24.396  26.515  1.00  0.00     0.031 C 
ATOM     48  C   UNL A   1      41.547  25.644  28.317  1.00  0.00     0.029 A 
ATOM     49  N   UNL A   1      43.112  27.242  28.268  1.00  0.00    -0.354 N 
ATOM     50  C   UNL A   1      47.108  26.408  26.885  1.00  0.00     0.074 A 
ATOM     51  C   UNL A   1      47.241  25.040  26.435  1.00  0.00     0.031 C 
ATOM     52  C   UNL A   1      40.977  26.777  28.752  1.00  0.00     0.029 A 
ATOM     53  C   UNL A   1      41.973  27.844  28.746  1.00  0.00     0.049 A 
ATOM     54  H   UNL A   1      43.968  27.715  28.158  1.00  0.00     0.167 HD
ATOM     55  C   UNL A   1      48.108  27.319  26.857  1.00  0.00     0.034 A 
ATOM     56  C   UNL A   1      41.750  29.113  29.138  1.00  0.00     0.034 A 
ATOM     57  C   UNL A   1      47.965  28.696  27.243  1.00  0.00     0.049 A 
ATOM     58  C   UNL A   1      42.868  30.111  29.071  1.00  0.00     0.074 A 
ATOM     59  C   UNL A   1      48.917  29.699  27.216  1.00  0.00     0.029 A 
ATOM     60  N   UNL A   1      46.793  29.267  27.714  1.00  0.00    -0.354 N 
ATOM     61  N   UNL A   1      44.087  29.948  28.617  1.00  0.00    -0.248 NA
ATOM     62  C   UNL A   1      42.582  31.467  29.558  1.00  0.00     0.031 C 
ATOM     63  C   UNL A   1      48.318  30.882  27.662  1.00  0.00     0.029 A 
ATOM     64  C   UNL A   1      46.995  30.610  27.974  1.00  0.00     0.049 A 
ATOM     65  H   UNL A   1      45.943  28.787  27.843  1.00  0.00     0.167 HD
ATOM     66  C   UNL A   1      44.716  31.176  28.766  1.00  0.00     0.074 A 
ATOM     67  C   UNL A   1      43.734  32.085  29.325  1.00  0.00     0.031 C 
ATOM     68  C   UNL A   1      45.999  31.512  28.492  1.00  0.00     0.034 A 
BRANCH  55  69
ATOM     69  C   UNL A   1      49.446  26.878  26.328  1.00  0.00     0.023 A 
ATOM     70  C   UNL A   1      50.238  26.018  27.113  1.00  0.00     0.012 A 
ATOM     71  C   UNL A   1      49.876  27.237  25.038  1.00  0.00     0.148 A 
ATOM     72  C   UNL A   1      51.449  25.529  26.624  1.00  0.00     0.002 A 
ATOM     73  C   UNL A   1      51.073  26.726  24.547  1.00  0.00     0.091 A 
ATOM     74  F   UNL A   1      49.112  28.073  24.319  1.00  0.00    -0.205 F 
ATOM     75  C   UNL A   1      51.860  25.874  25.339  1.00  0.00     0.022 A 
BRANCH  73  76
ATOM     76  S   UNL A   1      51.668  27.073  22.887  1.00  0.00     0.127 S 
ATOM     77  O   UNL A   1      51.852  28.522  22.937  1.00  0.00    -0.237 OA
ATOM     78  O   UNL A   1      52.911  26.301  22.836  1.00  0.00    -0.237 OA
ATOM     79  O   UNL A   1      50.627  26.607  21.982  1.00  0.00    -0.744 OA
ENDBRANCH  73  76
ENDBRANCH  55  69
BRANCH  56  80
ATOM     80  C   UNL A   1      40.382  29.500  29.571  1.00  0.00     0.023 A 
ATOM     81  C   UNL A   1      39.481  30.012  28.620  1.00  0.00     0.012 A 
ATOM     82  C   UNL A   1      39.939  29.253  30.885  1.00  0.00     0.148 A 
ATOM     83  C   UNL A   1      38.156  30.270  28.970  1.00  0.00     0.002 A 
ATOM     84  C   UNL A   1      38.607  29.467  31.214  1.00  0.00     0.091 A 
ATOM     85  F   UNL A   1      40.822  28.770  31.770  1.00  0.00    -0.205 F 
ATOM     86  C   UNL A   1      37.715  29.984  30.261  1.00  0.00     0.022 A 
BRANCH  84  87
ATOM     87  S   UNL A   1      37.917  29.008  32.807  1.00  0.00     0.127 S 
ATOM     88  O   UNL A   1      38.091  27.557  32.802  1.00  0.00    -0.237 OA
ATOM     89  O   UNL A   1      38.793  29.730  33.730  1.00  0.00    -0.237 OA
ATOM     90  O   UNL A   1      36.537  29.474  32.792  1.00  0.00    -0.744 OA
ENDBRANCH  84  87
ENDBRANCH  56  80
BRANCH  68  91
ATOM     91  C   UNL A   1      46.440  32.913  28.807  1.00  0.00     0.023 A 
ATOM     92  C   UNL A   1      46.969  33.186  30.082  1.00  0.00     0.012 A 
ATOM     93  C   UNL A   1      46.439  33.916  27.819  1.00  0.00     0.148 A 
ATOM     94  C   UNL A   1      47.490  34.445  30.375  1.00  0.00     0.002 A 
ATOM     95  C   UNL A   1      46.983  35.161  28.111  1.00  0.00     0.091 A 
ATOM     96  F   UNL A   1      45.917  33.629  26.618  1.00  0.00    -0.205 F 
ATOM     97  C   UNL A   1      47.507  35.428  29.387  1.00  0.00     0.022 A 
BRANCH  95  98
ATOM     98  S   UNL A   1      47.110  36.472  26.888  1.00  0.00     0.127 S 
ATOM     99  O   UNL A   1      45.702  36.757  26.612  1.00  0.00    -0.237 OA
ATOM    100  O   UNL A   1      47.812  37.519  27.629  1.00  0.00    -0.237 OA
ATOM    101  O   UNL A   1      47.859  35.912  25.772  1.00  0.00    -0.744 OA
ENDBRANCH  95  98
ENDBRANCH  68  91
ENDBRANCH  42  43
ENDBRANCH  34  37
ENDBRANCH  32  33
ENDBRANCH  31  32
ENDBRANCH   1  31
TORSDOF 19
ENDMDL
