MODEL 1
REMARK VINA RESULT:     -12.8      0.000      0.000
REMARK SMILES Cc1ccc(N2C(=O)C[C@H](Sc3ccccc3C(=O)NCCCCNC(=O)c3ccc(-c4c5nc(c(-c6cccc(S(=O)(=O)[O-])c6F)c6ccc([nH]6)c(-c6cccc(S(=O)(=O)[O-])c6F)c6nc(c(-c7cccc(S(=O)(=O)[O-])c7F)c7ccc4[nH]7)C=C6)C=C5)cc3)C2=O)cc1
REMARK SMILES IDX 22 1 21 2 20 3 18 4 19 5 17 7 12 8 13 9 14 10 16 11 15 12
REMARK SMILES IDX 11 13 10 14 6 15 7 16 91 17 8 18 9 19 92 20 5 21 1 22 2 23
REMARK SMILES IDX 3 24 94 25 4 26 93 27 23 28 24 29 25 30 26 31 27 33 28 34
REMARK SMILES IDX 29 35 90 36 30 37 89 38 31 39 32 40 33 41 83 42 34 43 88 44
REMARK SMILES IDX 82 45 84 46 35 47 87 48 81 49 80 50 36 52 68 53 48 54 67 55
REMARK SMILES IDX 49 56 52 57 66 58 85 59 50 60 51 61 65 63 86 64 53 65 37 66
REMARK SMILES IDX 38 67 46 68 39 69 41 70 47 71 40 72 42 73 43 74 44 75 45 76
REMARK SMILES IDX 69 77 70 78 78 79 71 80 73 81 79 82 72 83 74 84 75 85 76 86
REMARK SMILES IDX 77 87 54 88 55 89 63 90 56 91 58 92 64 93 57 94 59 95 60 96
REMARK SMILES IDX 61 97 62 98
REMARK H PARENT 20 6 25 32 84 51 52 62
REMARK Flexibility Score: inf
ROOT
ATOM      1  C   UNL A   1      37.004  21.483  24.439  1.00  0.00     0.023 C 
ENDROOT
BRANCH   1   2
ATOM      2  C   UNL A   1      35.971  22.544  24.819  1.00  0.00     0.116 C 
BRANCH   2   3
ATOM      3  N   UNL A   1      35.107  22.217  25.949  1.00  0.00    -0.352 N 
ATOM      4  C   UNL A   1      34.078  21.317  26.130  1.00  0.00     0.252 C 
ATOM      5  O   UNL A   1      33.653  21.148  27.271  1.00  0.00    -0.269 OA
ATOM      6  H   UNL A   1      35.301  22.751  26.753  1.00  0.00     0.163 HD
BRANCH   4   7
ATOM      7  C   UNL A   1      33.435  20.609  24.991  1.00  0.00     0.053 A 
ATOM      8  C   UNL A   1      32.514  21.240  24.120  1.00  0.00     0.021 A 
ATOM      9  C   UNL A   1      31.997  20.499  23.039  1.00  0.00     0.016 A 
ATOM     10  C   UNL A   1      32.347  19.161  22.841  1.00  0.00     0.001 A 
ATOM     11  C   UNL A   1      33.685  19.236  24.837  1.00  0.00     0.015 A 
ATOM     12  C   UNL A   1      33.170  18.522  23.756  1.00  0.00     0.001 A 
BRANCH   8  13
ATOM     13  S   UNL A   1      31.639  22.783  24.439  1.00  0.00    -0.111 SA
BRANCH  13  14
ATOM     14  C   UNL A   1      32.760  24.123  23.931  1.00  0.00     0.151 C 
ATOM     15  N   UNL A   1      32.635  26.346  24.619  1.00  0.00    -0.250 N 
ATOM     16  C   UNL A   1      32.062  26.315  23.369  1.00  0.00     0.235 C 
ATOM     17  C   UNL A   1      33.075  25.107  25.025  1.00  0.00     0.247 C 
ATOM     18  O   UNL A   1      31.557  27.239  22.746  1.00  0.00    -0.274 OA
ATOM     19  C   UNL A   1      32.302  24.968  22.766  1.00  0.00     0.126 C 
ATOM     20  O   UNL A   1      33.616  24.812  26.084  1.00  0.00    -0.273 OA
BRANCH  15  21
ATOM     21  C   UNL A   1      32.840  27.544  25.346  1.00  0.00     0.052 A 
ATOM     22  C   UNL A   1      33.483  31.025  27.823  1.00  0.00     0.044 C 
ATOM     23  C   UNL A   1      33.260  29.837  26.935  1.00  0.00    -0.051 A 
ATOM     24  C   UNL A   1      31.977  29.301  26.787  1.00  0.00     0.005 A 
ATOM     25  C   UNL A   1      34.331  29.219  26.284  1.00  0.00     0.005 A 
ATOM     26  C   UNL A   1      31.765  28.182  25.978  1.00  0.00     0.027 A 
ATOM     27  C   UNL A   1      34.125  28.072  25.512  1.00  0.00     0.027 A 
ENDBRANCH  15  21
ENDBRANCH  13  14
ENDBRANCH   8  13
ENDBRANCH   4   7
ENDBRANCH   2   3
ENDBRANCH   1   2
BRANCH   1  28
ATOM     28  C   UNL A   1      38.281  21.430  25.270  1.00  0.00     0.023 C 
BRANCH  28  29
ATOM     29  C   UNL A   1      38.645  22.704  26.017  1.00  0.00     0.116 C 
BRANCH  29  30
ATOM     30  N   UNL A   1      39.869  22.644  26.795  1.00  0.00    -0.352 N 
ATOM     31  C   UNL A   1      40.604  23.673  27.362  1.00  0.00     0.251 C 
ATOM     32  H   UNL A   1      40.229  21.739  26.941  1.00  0.00     0.163 HD
ATOM     33  O   UNL A   1      41.723  23.406  27.799  1.00  0.00    -0.269 OA
BRANCH  31  34
ATOM     34  C   UNL A   1      40.011  25.024  27.571  1.00  0.00     0.039 A 
ATOM     35  C   UNL A   1      40.462  26.074  26.755  1.00  0.00     0.014 A 
ATOM     36  C   UNL A   1      39.215  25.320  28.672  1.00  0.00     0.014 A 
ATOM     37  C   UNL A   1      40.383  27.392  27.207  1.00  0.00     0.010 A 
ATOM     38  C   UNL A   1      39.206  26.602  29.167  1.00  0.00     0.010 A 
ATOM     39  C   UNL A   1      39.878  27.613  28.479  1.00  0.00    -0.014 A 
BRANCH  39  40
ATOM     40  C   UNL A   1      40.081  28.815  29.269  1.00  0.00     0.031 A 
ATOM     41  C   UNL A   1      39.202  29.979  29.092  1.00  0.00     0.074 A 
ATOM     42  C   UNL A   1      40.861  28.678  30.364  1.00  0.00     0.049 A 
ATOM     43  N   UNL A   1      39.381  31.114  29.671  1.00  0.00    -0.248 NA
ATOM     44  C   UNL A   1      38.048  29.955  28.202  1.00  0.00     0.031 C 
ATOM     45  C   UNL A   1      40.847  29.478  31.580  1.00  0.00     0.029 A 
ATOM     46  N   UNL A   1      41.981  27.849  30.520  1.00  0.00    -0.354 N 
ATOM     47  C   UNL A   1      38.219  31.838  29.509  1.00  0.00     0.074 A 
ATOM     48  C   UNL A   1      37.505  31.147  28.464  1.00  0.00     0.031 C 
ATOM     49  C   UNL A   1      42.020  29.317  32.215  1.00  0.00     0.029 A 
ATOM     50  C   UNL A   1      42.885  28.586  31.305  1.00  0.00     0.049 A 
ATOM     51  H   UNL A   1      42.107  26.944  30.155  1.00  0.00     0.167 HD
ATOM     52  C   UNL A   1      37.940  32.825  30.407  1.00  0.00     0.034 A 
ATOM     53  C   UNL A   1      44.084  29.038  30.826  1.00  0.00     0.034 A 
ATOM     54  C   UNL A   1      39.119  33.094  31.253  1.00  0.00     0.049 A 
ATOM     55  C   UNL A   1      44.214  30.555  30.889  1.00  0.00     0.074 A 
ATOM     56  C   UNL A   1      39.451  32.766  32.556  1.00  0.00     0.029 A 
ATOM     57  N   UNL A   1      40.292  33.555  30.658  1.00  0.00    -0.354 N 
ATOM     58  N   UNL A   1      43.237  31.365  31.195  1.00  0.00    -0.248 NA
ATOM     59  C   UNL A   1      45.448  31.277  30.593  1.00  0.00     0.031 C 
ATOM     60  C   UNL A   1      40.862  32.909  32.698  1.00  0.00     0.029 A 
ATOM     61  C   UNL A   1      41.380  33.371  31.499  1.00  0.00     0.049 A 
ATOM     62  H   UNL A   1      40.342  33.956  29.761  1.00  0.00     0.167 HD
ATOM     63  C   UNL A   1      43.625  32.665  31.007  1.00  0.00     0.074 A 
ATOM     64  C   UNL A   1      45.047  32.555  30.720  1.00  0.00     0.031 C 
ATOM     65  C   UNL A   1      42.730  33.703  31.037  1.00  0.00     0.034 A 
BRANCH  52  66
ATOM     66  C   UNL A   1      36.558  33.400  30.719  1.00  0.00     0.023 A 
ATOM     67  C   UNL A   1      36.015  33.110  31.993  1.00  0.00     0.012 A 
ATOM     68  C   UNL A   1      35.698  34.113  29.844  1.00  0.00     0.148 A 
ATOM     69  C   UNL A   1      34.705  33.455  32.358  1.00  0.00     0.002 A 
ATOM     70  C   UNL A   1      34.398  34.480  30.213  1.00  0.00     0.091 A 
ATOM     71  F   UNL A   1      36.095  34.426  28.614  1.00  0.00    -0.205 F 
ATOM     72  C   UNL A   1      33.893  34.140  31.467  1.00  0.00     0.022 A 
BRANCH  70  73
ATOM     73  S   UNL A   1      33.291  35.383  29.107  1.00  0.00     0.127 S 
ATOM     74  O   UNL A   1      34.226  36.217  28.352  1.00  0.00    -0.237 OA
ATOM     75  O   UNL A   1      32.675  34.305  28.334  1.00  0.00    -0.237 OA
ATOM     76  O   UNL A   1      32.366  36.125  29.956  1.00  0.00    -0.744 OA
ENDBRANCH  70  73
ENDBRANCH  52  66
BRANCH  53  77
ATOM     77  C   UNL A   1      44.668  28.158  29.766  1.00  0.00     0.023 A 
ATOM     78  C   UNL A   1      45.007  26.838  30.154  1.00  0.00     0.012 A 
ATOM     79  C   UNL A   1      44.492  28.435  28.399  1.00  0.00     0.148 A 
ATOM     80  C   UNL A   1      44.998  25.793  29.229  1.00  0.00     0.002 A 
ATOM     81  C   UNL A   1      44.498  27.386  27.478  1.00  0.00     0.091 A 
ATOM     82  F   UNL A   1      44.243  29.696  28.025  1.00  0.00    -0.205 F 
ATOM     83  C   UNL A   1      44.701  26.061  27.897  1.00  0.00     0.022 A 
BRANCH  81  84
ATOM     84  S   UNL A   1      44.125  27.664  25.740  1.00  0.00     0.127 S 
ATOM     85  O   UNL A   1      45.422  28.096  25.228  1.00  0.00    -0.237 OA
ATOM     86  O   UNL A   1      43.697  26.340  25.287  1.00  0.00    -0.237 OA
ATOM     87  O   UNL A   1      43.064  28.661  25.746  1.00  0.00    -0.744 OA
ENDBRANCH  81  84
ENDBRANCH  53  77
BRANCH  65  88
ATOM     88  C   UNL A   1      43.027  35.130  30.600  1.00  0.00     0.023 A 
ATOM     89  C   UNL A   1      43.611  36.080  31.460  1.00  0.00     0.012 A 
ATOM     90  C   UNL A   1      42.862  35.525  29.245  1.00  0.00     0.148 A 
ATOM     91  C   UNL A   1      43.951  37.368  31.027  1.00  0.00     0.002 A 
ATOM     92  C   UNL A   1      43.314  36.764  28.793  1.00  0.00     0.091 A 
ATOM     93  F   UNL A   1      42.247  34.706  28.379  1.00  0.00    -0.205 F 
ATOM     94  C   UNL A   1      43.825  37.703  29.689  1.00  0.00     0.022 A 
BRANCH  92  95
ATOM     95  S   UNL A   1      43.411  37.124  27.033  1.00  0.00     0.127 S 
ATOM     96  O   UNL A   1      44.364  38.230  26.998  1.00  0.00    -0.237 OA
ATOM     97  O   UNL A   1      43.919  35.866  26.480  1.00  0.00    -0.237 OA
ATOM     98  O   UNL A   1      42.043  37.434  26.637  1.00  0.00    -0.744 OA
ENDBRANCH  92  95
ENDBRANCH  65  88
ENDBRANCH  39  40
ENDBRANCH  31  34
ENDBRANCH  29  30
ENDBRANCH  28  29
ENDBRANCH   1  28
TORSDOF 17
ENDMDL
MODEL 2
REMARK VINA RESULT:     -12.6      3.955      9.730
REMARK SMILES Cc1ccc(N2C(=O)C[C@H](Sc3ccccc3C(=O)NCCCCNC(=O)c3ccc(-c4c5nc(c(-c6cccc(S(=O)(=O)[O-])c6F)c6ccc([nH]6)c(-c6cccc(S(=O)(=O)[O-])c6F)c6nc(c(-c7cccc(S(=O)(=O)[O-])c7F)c7ccc4[nH]7)C=C6)C=C5)cc3)C2=O)cc1
REMARK SMILES IDX 22 1 21 2 20 3 18 4 19 5 17 7 12 8 13 9 14 10 16 11 15 12
REMARK SMILES IDX 11 13 10 14 6 15 7 16 91 17 8 18 9 19 92 20 5 21 1 22 2 23
REMARK SMILES IDX 3 24 94 25 4 26 93 27 23 28 24 29 25 30 26 31 27 33 28 34
REMARK SMILES IDX 29 35 90 36 30 37 89 38 31 39 32 40 33 41 83 42 34 43 88 44
REMARK SMILES IDX 82 45 84 46 35 47 87 48 81 49 80 50 36 52 68 53 48 54 67 55
REMARK SMILES IDX 49 56 52 57 66 58 85 59 50 60 51 61 65 63 86 64 53 65 37 66
REMARK SMILES IDX 38 67 46 68 39 69 41 70 47 71 40 72 42 73 43 74 44 75 45 76
REMARK SMILES IDX 69 77 70 78 78 79 71 80 73 81 79 82 72 83 74 84 75 85 76 86
REMARK SMILES IDX 77 87 54 88 55 89 63 90 56 91 58 92 64 93 57 94 59 95 60 96
REMARK SMILES IDX 61 97 62 98
REMARK H PARENT 20 6 25 32 84 51 52 62
REMARK Flexibility Score: inf
ROOT
ATOM      1  C   UNL A   1      32.836  28.626  26.893  1.00  0.00     0.023 C 
ENDROOT
BRANCH   1   2
ATOM      2  C   UNL A   1      31.824  29.209  25.907  1.00  0.00     0.116 C 
BRANCH   2   3
ATOM      3  N   UNL A   1      32.180  29.109  24.495  1.00  0.00    -0.352 N 
ATOM      4  C   UNL A   1      31.446  29.096  23.327  1.00  0.00     0.252 C 
ATOM      5  O   UNL A   1      32.054  29.180  22.263  1.00  0.00    -0.269 OA
ATOM      6  H   UNL A   1      33.150  29.035  24.344  1.00  0.00     0.163 HD
BRANCH   4   7
ATOM      7  C   UNL A   1      29.970  28.918  23.322  1.00  0.00     0.053 A 
ATOM      8  C   UNL A   1      29.351  27.653  23.465  1.00  0.00     0.021 A 
ATOM      9  C   UNL A   1      27.943  27.594  23.499  1.00  0.00     0.016 A 
ATOM     10  C   UNL A   1      27.164  28.744  23.356  1.00  0.00     0.001 A 
ATOM     11  C   UNL A   1      29.167  30.043  23.070  1.00  0.00     0.015 A 
ATOM     12  C   UNL A   1      27.776  29.965  23.114  1.00  0.00     0.001 A 
BRANCH   8  13
ATOM     13  S   UNL A   1      30.149  26.052  23.250  1.00  0.00    -0.111 SA
BRANCH  13  14
ATOM     14  C   UNL A   1      31.134  25.762  24.752  1.00  0.00     0.151 C 
ATOM     15  N   UNL A   1      32.882  24.236  24.970  1.00  0.00    -0.250 N 
ATOM     16  C   UNL A   1      31.787  23.625  25.537  1.00  0.00     0.235 C 
ATOM     17  C   UNL A   1      32.590  25.492  24.488  1.00  0.00     0.247 C 
ATOM     18  O   UNL A   1      31.715  22.507  26.027  1.00  0.00    -0.274 OA
ATOM     19  C   UNL A   1      30.680  24.626  25.636  1.00  0.00     0.126 C 
ATOM     20  O   UNL A   1      33.347  26.274  23.924  1.00  0.00    -0.273 OA
BRANCH  15  21
ATOM     21  C   UNL A   1      34.178  23.668  24.986  1.00  0.00     0.052 A 
ATOM     22  C   UNL A   1      38.030  21.729  25.251  1.00  0.00     0.044 C 
ATOM     23  C   UNL A   1      36.706  22.423  25.134  1.00  0.00    -0.051 A 
ATOM     24  C   UNL A   1      36.350  23.418  26.049  1.00  0.00     0.005 A 
ATOM     25  C   UNL A   1      35.790  22.054  24.144  1.00  0.00     0.005 A 
ATOM     26  C   UNL A   1      35.108  24.054  25.959  1.00  0.00     0.027 A 
ATOM     27  C   UNL A   1      34.531  22.658  24.083  1.00  0.00     0.027 A 
ENDBRANCH  15  21
ENDBRANCH  13  14
ENDBRANCH   8  13
ENDBRANCH   4   7
ENDBRANCH   2   3
ENDBRANCH   1   2
BRANCH   1  28
ATOM     28  C   UNL A   1      33.614  29.615  27.754  1.00  0.00     0.023 C 
BRANCH  28  29
ATOM     29  C   UNL A   1      34.105  30.870  27.050  1.00  0.00     0.116 C 
BRANCH  29  30
ATOM     30  N   UNL A   1      34.855  31.798  27.878  1.00  0.00    -0.352 N 
ATOM     31  C   UNL A   1      35.938  31.559  28.708  1.00  0.00     0.251 C 
ATOM     32  H   UNL A   1      34.548  32.733  27.844  1.00  0.00     0.163 HD
ATOM     33  O   UNL A   1      36.281  32.457  29.477  1.00  0.00    -0.269 OA
BRANCH  31  34
ATOM     34  C   UNL A   1      36.755  30.319  28.579  1.00  0.00     0.039 A 
ATOM     35  C   UNL A   1      36.887  29.498  29.711  1.00  0.00     0.014 A 
ATOM     36  C   UNL A   1      37.557  30.075  27.470  1.00  0.00     0.014 A 
ATOM     37  C   UNL A   1      38.001  28.667  29.842  1.00  0.00     0.010 A 
ATOM     38  C   UNL A   1      38.700  29.326  27.622  1.00  0.00     0.010 A 
ATOM     39  C   UNL A   1      38.964  28.708  28.845  1.00  0.00    -0.014 A 
BRANCH  39  40
ATOM     40  C   UNL A   1      40.336  28.252  28.979  1.00  0.00     0.031 A 
ATOM     41  C   UNL A   1      40.666  26.829  28.823  1.00  0.00     0.074 A 
ATOM     42  C   UNL A   1      41.287  29.210  28.910  1.00  0.00     0.049 A 
ATOM     43  N   UNL A   1      41.834  26.331  29.033  1.00  0.00    -0.248 NA
ATOM     44  C   UNL A   1      39.670  25.836  28.440  1.00  0.00     0.031 C 
ATOM     45  C   UNL A   1      42.677  29.066  28.503  1.00  0.00     0.029 A 
ATOM     46  N   UNL A   1      41.209  30.529  29.377  1.00  0.00    -0.354 N 
ATOM     47  C   UNL A   1      41.832  25.059  28.501  1.00  0.00     0.074 A 
ATOM     48  C   UNL A   1      40.437  24.751  28.302  1.00  0.00     0.031 C 
ATOM     49  C   UNL A   1      43.375  30.111  28.978  1.00  0.00     0.029 A 
ATOM     50  C   UNL A   1      42.488  30.824  29.880  1.00  0.00     0.049 A 
ATOM     51  H   UNL A   1      40.423  31.123  29.358  1.00  0.00     0.167 HD
ATOM     52  C   UNL A   1      43.025  24.508  28.137  1.00  0.00     0.034 A 
ATOM     53  C   UNL A   1      42.730  31.046  31.208  1.00  0.00     0.034 A 
ATOM     54  C   UNL A   1      44.143  25.324  28.649  1.00  0.00     0.049 A 
ATOM     55  C   UNL A   1      43.727  30.059  31.802  1.00  0.00     0.074 A 
ATOM     56  C   UNL A   1      45.012  26.226  28.059  1.00  0.00     0.029 A 
ATOM     57  N   UNL A   1      44.295  25.481  30.025  1.00  0.00    -0.354 N 
ATOM     58  N   UNL A   1      44.179  29.005  31.180  1.00  0.00    -0.248 NA
ATOM     59  C   UNL A   1      44.278  30.173  33.150  1.00  0.00     0.031 C 
ATOM     60  C   UNL A   1      45.589  27.017  29.094  1.00  0.00     0.029 A 
ATOM     61  C   UNL A   1      45.110  26.566  30.313  1.00  0.00     0.049 A 
ATOM     62  H   UNL A   1      43.878  24.901  30.702  1.00  0.00     0.167 HD
ATOM     63  C   UNL A   1      44.928  28.238  32.031  1.00  0.00     0.074 A 
ATOM     64  C   UNL A   1      45.035  29.063  33.225  1.00  0.00     0.031 C 
ATOM     65  C   UNL A   1      45.333  26.969  31.703  1.00  0.00     0.034 A 
BRANCH  52  66
ATOM     66  C   UNL A   1      43.228  23.381  27.123  1.00  0.00     0.023 A 
ATOM     67  C   UNL A   1      43.944  23.700  25.945  1.00  0.00     0.012 A 
ATOM     68  C   UNL A   1      42.697  22.066  27.170  1.00  0.00     0.148 A 
ATOM     69  C   UNL A   1      44.083  22.805  24.873  1.00  0.00     0.002 A 
ATOM     70  C   UNL A   1      42.855  21.161  26.113  1.00  0.00     0.091 A 
ATOM     71  F   UNL A   1      41.992  21.660  28.221  1.00  0.00    -0.205 F 
ATOM     72  C   UNL A   1      43.536  21.533  24.955  1.00  0.00     0.022 A 
BRANCH  70  73
ATOM     73  S   UNL A   1      42.179  19.486  26.157  1.00  0.00     0.127 S 
ATOM     74  O   UNL A   1      40.748  19.729  25.977  1.00  0.00    -0.237 OA
ATOM     75  O   UNL A   1      42.837  18.854  25.015  1.00  0.00    -0.237 OA
ATOM     76  O   UNL A   1      42.541  18.924  27.453  1.00  0.00    -0.744 OA
ENDBRANCH  70  73
ENDBRANCH  52  66
BRANCH  53  77
ATOM     77  C   UNL A   1      41.564  31.644  31.930  1.00  0.00     0.023 A 
ATOM     78  C   UNL A   1      41.080  32.882  31.436  1.00  0.00     0.012 A 
ATOM     79  C   UNL A   1      40.719  30.865  32.740  1.00  0.00     0.148 A 
ATOM     80  C   UNL A   1      39.742  33.245  31.598  1.00  0.00     0.002 A 
ATOM     81  C   UNL A   1      39.386  31.244  32.909  1.00  0.00     0.091 A 
ATOM     82  F   UNL A   1      41.199  29.732  33.266  1.00  0.00    -0.205 F 
ATOM     83  C   UNL A   1      38.885  32.405  32.299  1.00  0.00     0.022 A 
BRANCH  81  84
ATOM     84  S   UNL A   1      38.224  30.204  33.807  1.00  0.00     0.127 S 
ATOM     85  O   UNL A   1      36.992  30.979  33.696  1.00  0.00    -0.237 OA
ATOM     86  O   UNL A   1      38.241  28.962  33.036  1.00  0.00    -0.237 OA
ATOM     87  O   UNL A   1      38.795  30.082  35.141  1.00  0.00    -0.744 OA
ENDBRANCH  81  84
ENDBRANCH  53  77
BRANCH  65  88
ATOM     88  C   UNL A   1      45.947  25.967  32.670  1.00  0.00     0.023 A 
ATOM     89  C   UNL A   1      47.328  25.929  32.946  1.00  0.00     0.012 A 
ATOM     90  C   UNL A   1      45.125  25.116  33.456  1.00  0.00     0.148 A 
ATOM     91  C   UNL A   1      47.875  25.055  33.894  1.00  0.00     0.002 A 
ATOM     92  C   UNL A   1      45.660  24.337  34.481  1.00  0.00     0.091 A 
ATOM     93  F   UNL A   1      43.810  25.038  33.205  1.00  0.00    -0.205 F 
ATOM     94  C   UNL A   1      47.040  24.276  34.679  1.00  0.00     0.022 A 
BRANCH  92  95
ATOM     95  S   UNL A   1      44.591  23.529  35.680  1.00  0.00     0.127 S 
ATOM     96  O   UNL A   1      43.681  24.607  36.056  1.00  0.00    -0.237 OA
ATOM     97  O   UNL A   1      43.974  22.463  34.886  1.00  0.00    -0.237 OA
ATOM     98  O   UNL A   1      45.490  23.047  36.720  1.00  0.00    -0.744 OA
ENDBRANCH  92  95
ENDBRANCH  65  88
ENDBRANCH  39  40
ENDBRANCH  31  34
ENDBRANCH  29  30
ENDBRANCH  28  29
ENDBRANCH   1  28
TORSDOF 17
ENDMDL
MODEL 3
REMARK VINA RESULT:     -12.5      3.897      9.978
REMARK SMILES Cc1ccc(N2C(=O)C[C@H](Sc3ccccc3C(=O)NCCCCNC(=O)c3ccc(-c4c5nc(c(-c6cccc(S(=O)(=O)[O-])c6F)c6ccc([nH]6)c(-c6cccc(S(=O)(=O)[O-])c6F)c6nc(c(-c7cccc(S(=O)(=O)[O-])c7F)c7ccc4[nH]7)C=C6)C=C5)cc3)C2=O)cc1
REMARK SMILES IDX 22 1 21 2 20 3 18 4 19 5 17 7 12 8 13 9 14 10 16 11 15 12
REMARK SMILES IDX 11 13 10 14 6 15 7 16 91 17 8 18 9 19 92 20 5 21 1 22 2 23
REMARK SMILES IDX 3 24 94 25 4 26 93 27 23 28 24 29 25 30 26 31 27 33 28 34
REMARK SMILES IDX 29 35 90 36 30 37 89 38 31 39 32 40 33 41 83 42 34 43 88 44
REMARK SMILES IDX 82 45 84 46 35 47 87 48 81 49 80 50 36 52 68 53 48 54 67 55
REMARK SMILES IDX 49 56 52 57 66 58 85 59 50 60 51 61 65 63 86 64 53 65 37 66
REMARK SMILES IDX 38 67 46 68 39 69 41 70 47 71 40 72 42 73 43 74 44 75 45 76
REMARK SMILES IDX 69 77 70 78 78 79 71 80 73 81 79 82 72 83 74 84 75 85 76 86
REMARK SMILES IDX 77 87 54 88 55 89 63 90 56 91 58 92 64 93 57 94 59 95 60 96
REMARK SMILES IDX 61 97 62 98
REMARK H PARENT 20 6 25 32 84 51 52 62
REMARK Flexibility Score: inf
ROOT
ATOM      1  C   UNL A   1      31.791  29.276  27.292  1.00  0.00     0.023 C 
ENDROOT
BRANCH   1   2
ATOM      2  C   UNL A   1      31.555  28.232  26.200  1.00  0.00     0.116 C 
BRANCH   2   3
ATOM      3  N   UNL A   1      32.104  26.905  26.459  1.00  0.00    -0.352 N 
ATOM      4  C   UNL A   1      32.791  25.992  25.686  1.00  0.00     0.252 C 
ATOM      5  O   UNL A   1      33.284  25.016  26.247  1.00  0.00    -0.269 OA
ATOM      6  H   UNL A   1      31.952  26.595  27.381  1.00  0.00     0.163 HD
BRANCH   4   7
ATOM      7  C   UNL A   1      32.891  26.123  24.208  1.00  0.00     0.053 A 
ATOM      8  C   UNL A   1      32.287  25.203  23.317  1.00  0.00     0.021 A 
ATOM      9  C   UNL A   1      32.396  25.442  21.932  1.00  0.00     0.016 A 
ATOM     10  C   UNL A   1      33.113  26.532  21.436  1.00  0.00     0.001 A 
ATOM     11  C   UNL A   1      33.698  27.147  23.686  1.00  0.00     0.015 A 
ATOM     12  C   UNL A   1      33.788  27.370  22.312  1.00  0.00     0.001 A 
BRANCH   8  13
ATOM     13  S   UNL A   1      31.691  23.555  23.735  1.00  0.00    -0.111 SA
BRANCH  13  14
ATOM     14  C   UNL A   1      33.053  22.407  23.365  1.00  0.00     0.151 C 
ATOM     15  N   UNL A   1      33.419  20.343  24.383  1.00  0.00    -0.250 N 
ATOM     16  C   UNL A   1      34.285  21.216  25.000  1.00  0.00     0.235 C 
ATOM     17  C   UNL A   1      32.662  20.955  23.410  1.00  0.00     0.247 C 
ATOM     18  O   UNL A   1      35.066  20.987  25.912  1.00  0.00    -0.274 OA
ATOM     19  C   UNL A   1      34.270  22.511  24.252  1.00  0.00     0.126 C 
ATOM     20  O   UNL A   1      31.803  20.449  22.699  1.00  0.00    -0.273 OA
BRANCH  15  21
ATOM     21  C   UNL A   1      33.398  18.954  24.655  1.00  0.00     0.052 A 
ATOM     22  C   UNL A   1      33.061  14.700  25.333  1.00  0.00     0.044 C 
ATOM     23  C   UNL A   1      33.210  16.176  25.114  1.00  0.00    -0.051 A 
ATOM     24  C   UNL A   1      32.576  17.082  25.970  1.00  0.00     0.005 A 
ATOM     25  C   UNL A   1      33.937  16.668  24.026  1.00  0.00     0.005 A 
ATOM     26  C   UNL A   1      32.693  18.458  25.758  1.00  0.00     0.027 A 
ATOM     27  C   UNL A   1      34.015  18.044  23.789  1.00  0.00     0.027 A 
ENDBRANCH  15  21
ENDBRANCH  13  14
ENDBRANCH   8  13
ENDBRANCH   4   7
ENDBRANCH   2   3
ENDBRANCH   1   2
BRANCH   1  28
ATOM     28  C   UNL A   1      32.664  30.473  26.930  1.00  0.00     0.023 C 
BRANCH  28  29
ATOM     29  C   UNL A   1      34.165  30.226  26.919  1.00  0.00     0.116 C 
BRANCH  29  30
ATOM     30  N   UNL A   1      34.976  31.288  27.486  1.00  0.00    -0.352 N 
ATOM     31  C   UNL A   1      36.144  31.204  28.227  1.00  0.00     0.251 C 
ATOM     32  H   UNL A   1      34.648  32.202  27.318  1.00  0.00     0.163 HD
ATOM     33  O   UNL A   1      36.545  32.226  28.784  1.00  0.00    -0.269 OA
BRANCH  31  34
ATOM     34  C   UNL A   1      36.968  29.963  28.236  1.00  0.00     0.039 A 
ATOM     35  C   UNL A   1      37.100  29.269  29.449  1.00  0.00     0.014 A 
ATOM     36  C   UNL A   1      37.777  29.606  27.162  1.00  0.00     0.014 A 
ATOM     37  C   UNL A   1      38.218  28.465  29.674  1.00  0.00     0.010 A 
ATOM     38  C   UNL A   1      38.923  28.885  27.399  1.00  0.00     0.010 A 
ATOM     39  C   UNL A   1      39.186  28.404  28.682  1.00  0.00    -0.014 A 
BRANCH  39  40
ATOM     40  C   UNL A   1      40.559  27.974  28.870  1.00  0.00     0.031 A 
ATOM     41  C   UNL A   1      40.924  26.559  28.717  1.00  0.00     0.074 A 
ATOM     42  C   UNL A   1      41.493  28.952  28.849  1.00  0.00     0.049 A 
ATOM     43  N   UNL A   1      42.092  26.083  28.973  1.00  0.00    -0.248 NA
ATOM     44  C   UNL A   1      39.965  25.550  28.285  1.00  0.00     0.031 C 
ATOM     45  C   UNL A   1      42.902  28.838  28.499  1.00  0.00     0.029 A 
ATOM     46  N   UNL A   1      41.370  30.265  29.322  1.00  0.00    -0.354 N 
ATOM     47  C   UNL A   1      42.138  24.815  28.431  1.00  0.00     0.074 A 
ATOM     48  C   UNL A   1      40.759  24.481  28.172  1.00  0.00     0.031 C 
ATOM     49  C   UNL A   1      43.559  29.892  29.011  1.00  0.00     0.029 A 
ATOM     50  C   UNL A   1      42.620  30.581  29.880  1.00  0.00     0.049 A 
ATOM     51  H   UNL A   1      40.574  30.843  29.275  1.00  0.00     0.167 HD
ATOM     52  C   UNL A   1      43.355  24.290  28.113  1.00  0.00     0.034 A 
ATOM     53  C   UNL A   1      42.802  30.795  31.219  1.00  0.00     0.034 A 
ATOM     54  C   UNL A   1      44.434  25.124  28.678  1.00  0.00     0.049 A 
ATOM     55  C   UNL A   1      43.793  29.824  31.847  1.00  0.00     0.074 A 
ATOM     56  C   UNL A   1      45.309  26.048  28.132  1.00  0.00     0.029 A 
ATOM     57  N   UNL A   1      44.526  25.272  30.060  1.00  0.00    -0.354 N 
ATOM     58  N   UNL A   1      44.292  28.783  31.236  1.00  0.00    -0.248 NA
ATOM     59  C   UNL A   1      44.285  29.937  33.217  1.00  0.00     0.031 C 
ATOM     60  C   UNL A   1      45.826  26.842  29.196  1.00  0.00     0.029 A 
ATOM     61  C   UNL A   1      45.307  26.371  30.391  1.00  0.00     0.049 A 
ATOM     62  H   UNL A   1      44.093  24.679  30.715  1.00  0.00     0.167 HD
ATOM     63  C   UNL A   1      45.020  28.024  32.112  1.00  0.00     0.074 A 
ATOM     64  C   UNL A   1      45.060  28.842  33.316  1.00  0.00     0.031 C 
ATOM     65  C   UNL A   1      45.463  26.767  31.792  1.00  0.00     0.034 A 
BRANCH  52  66
ATOM     66  C   UNL A   1      43.624  23.176  27.101  1.00  0.00     0.023 A 
ATOM     67  C   UNL A   1      44.493  23.482  26.026  1.00  0.00     0.012 A 
ATOM     68  C   UNL A   1      43.025  21.891  27.046  1.00  0.00     0.148 A 
ATOM     69  C   UNL A   1      44.715  22.604  24.954  1.00  0.00     0.002 A 
ATOM     70  C   UNL A   1      43.264  21.002  25.991  1.00  0.00     0.091 A 
ATOM     71  F   UNL A   1      42.178  21.501  27.993  1.00  0.00    -0.205 F 
ATOM     72  C   UNL A   1      44.099  21.362  24.935  1.00  0.00     0.022 A 
BRANCH  70  73
ATOM     73  S   UNL A   1      42.505  19.365  25.907  1.00  0.00     0.127 S 
ATOM     74  O   UNL A   1      43.105  18.812  24.693  1.00  0.00    -0.237 OA
ATOM     75  O   UNL A   1      42.962  18.744  27.149  1.00  0.00    -0.237 OA
ATOM     76  O   UNL A   1      41.064  19.577  25.828  1.00  0.00    -0.744 OA
ENDBRANCH  70  73
ENDBRANCH  52  66
BRANCH  53  77
ATOM     77  C   UNL A   1      41.595  31.365  31.895  1.00  0.00     0.023 A 
ATOM     78  C   UNL A   1      41.168  32.644  31.460  1.00  0.00     0.012 A 
ATOM     79  C   UNL A   1      40.680  30.547  32.583  1.00  0.00     0.148 A 
ATOM     80  C   UNL A   1      39.828  33.024  31.550  1.00  0.00     0.002 A 
ATOM     81  C   UNL A   1      39.344  30.941  32.682  1.00  0.00     0.091 A 
ATOM     82  F   UNL A   1      41.102  29.369  33.058  1.00  0.00    -0.205 F 
ATOM     83  C   UNL A   1      38.908  32.153  32.123  1.00  0.00     0.022 A 
BRANCH  81  84
ATOM     84  S   UNL A   1      38.103  29.864  33.414  1.00  0.00     0.127 S 
ATOM     85  O   UNL A   1      38.561  28.549  32.976  1.00  0.00    -0.237 OA
ATOM     86  O   UNL A   1      38.257  30.123  34.845  1.00  0.00    -0.237 OA
ATOM     87  O   UNL A   1      36.839  30.329  32.859  1.00  0.00    -0.744 OA
ENDBRANCH  81  84
ENDBRANCH  53  77
BRANCH  65  88
ATOM     88  C   UNL A   1      46.056  25.769  32.776  1.00  0.00     0.023 A 
ATOM     89  C   UNL A   1      47.440  25.677  33.020  1.00  0.00     0.012 A 
ATOM     90  C   UNL A   1      45.217  24.981  33.608  1.00  0.00     0.148 A 
ATOM     91  C   UNL A   1      47.972  24.810  33.983  1.00  0.00     0.002 A 
ATOM     92  C   UNL A   1      45.743  24.212  34.645  1.00  0.00     0.091 A 
ATOM     93  F   UNL A   1      43.894  24.955  33.392  1.00  0.00    -0.205 F 
ATOM     94  C   UNL A   1      47.123  24.094  34.812  1.00  0.00     0.022 A 
BRANCH  92  95
ATOM     95  S   UNL A   1      44.669  23.490  35.895  1.00  0.00     0.127 S 
ATOM     96  O   UNL A   1      43.956  24.661  36.400  1.00  0.00    -0.237 OA
ATOM     97  O   UNL A   1      43.844  22.568  35.110  1.00  0.00    -0.237 OA
ATOM     98  O   UNL A   1      45.571  22.828  36.828  1.00  0.00    -0.744 OA
ENDBRANCH  92  95
ENDBRANCH  65  88
ENDBRANCH  39  40
ENDBRANCH  31  34
ENDBRANCH  29  30
ENDBRANCH  28  29
ENDBRANCH   1  28
TORSDOF 17
ENDMDL
