MODEL 1
REMARK VINA RESULT:     -12.1      0.000      0.000
REMARK SMILES CC(C)(C(=O)NCCCCNC(=O)c1ccc(-c2c3nc(c(-c4cccc(S(=O)(=O)[O-])c4F)c4ccc([nH]4)c(-c4cccc(S(=O)(=O)[O-])c4F)c4nc(c(-c5cccc(S(=O)(=O)[O-])c5F)c5ccc2[nH]5)C=C4)C=C3)cc1)c1ccc(NS(=O)(=O)c2c(F)cc(F)cc2F)cc1
REMARK SMILES IDX 8 1 7 2 6 3 4 4 5 5 2 7 1 8 3 9 77 10 78 11 95 12 79 13
REMARK SMILES IDX 94 14 80 15 81 16 82 18 83 19 84 20 85 21 86 22 92 23 87 24
REMARK SMILES IDX 88 25 91 26 93 27 89 28 90 29 9 30 10 31 11 32 12 33 13 35
REMARK SMILES IDX 14 36 15 37 76 38 16 39 75 40 17 41 18 42 19 43 69 44 20 45
REMARK SMILES IDX 74 46 68 47 70 48 21 49 73 50 67 51 66 52 22 54 54 55 34 56
REMARK SMILES IDX 53 57 35 58 38 59 52 60 71 61 36 62 37 63 51 65 72 66 39 67
REMARK SMILES IDX 23 68 24 69 32 70 25 71 27 72 33 73 26 74 28 75 29 76 30 77
REMARK SMILES IDX 31 78 55 79 56 80 64 81 57 82 59 83 65 84 58 85 60 86 61 87
REMARK SMILES IDX 62 88 63 89 40 90 41 91 49 92 42 93 44 94 50 95 43 96 45 97
REMARK SMILES IDX 46 98 47 99 48 100
REMARK H PARENT 6 6 81 17 11 34 70 53 38 64
REMARK Flexibility Score: inf
ROOT
ATOM      1  C   UNL A   1      31.391  28.187  26.290  1.00  0.00     0.023 C 
ENDROOT
BRANCH   1   2
ATOM      2  C   UNL A   1      31.553  29.249  25.211  1.00  0.00     0.116 C 
BRANCH   2   3
ATOM      3  N   UNL A   1      30.990  28.847  23.937  1.00  0.00    -0.355 N 
ATOM      4  C   UNL A   1      31.479  28.110  22.899  1.00  0.00     0.230 C 
ATOM      5  O   UNL A   1      30.680  27.902  21.979  1.00  0.00    -0.274 OA
ATOM      6  H   UNL A   1      30.071  29.171  23.791  1.00  0.00     0.163 HD
BRANCH   4   7
ATOM      7  C   UNL A   1      32.942  27.559  22.858  1.00  0.00     0.068 C 
ATOM      8  C   UNL A   1      33.370  27.311  21.394  1.00  0.00     0.026 C 
ATOM      9  C   UNL A   1      33.898  28.586  23.509  1.00  0.00     0.026 C 
BRANCH   7  10
ATOM     10  C   UNL A   1      33.028  26.195  23.622  1.00  0.00    -0.033 A 
ATOM     11  C   UNL A   1      32.326  25.054  23.193  1.00  0.00     0.007 A 
ATOM     12  C   UNL A   1      33.827  26.055  24.775  1.00  0.00     0.007 A 
ATOM     13  C   UNL A   1      32.400  23.845  23.886  1.00  0.00     0.027 A 
ATOM     14  C   UNL A   1      33.950  24.820  25.437  1.00  0.00     0.027 A 
ATOM     15  C   UNL A   1      33.252  23.707  24.974  1.00  0.00     0.049 A 
BRANCH  15  16
ATOM     16  N   UNL A   1      33.369  22.429  25.615  1.00  0.00    -0.279 N 
ATOM     17  H   UNL A   1      32.662  22.116  26.223  1.00  0.00     0.180 HD
BRANCH  16  18
ATOM     18  S   UNL A   1      34.744  21.446  25.321  1.00  0.00     0.267 S 
ATOM     19  O   UNL A   1      35.424  22.005  24.170  1.00  0.00    -0.201 OA
ATOM     20  O   UNL A   1      35.442  21.407  26.588  1.00  0.00    -0.201 OA
BRANCH  18  21
ATOM     21  C   UNL A   1      34.213  19.825  24.913  1.00  0.00     0.159 A 
ATOM     22  C   UNL A   1      35.158  18.827  24.691  1.00  0.00     0.149 A 
ATOM     23  C   UNL A   1      32.862  19.499  24.842  1.00  0.00     0.149 A 
ATOM     24  F   UNL A   1      36.467  19.080  24.799  1.00  0.00    -0.205 F 
ATOM     25  C   UNL A   1      34.771  17.553  24.285  1.00  0.00     0.080 A 
ATOM     26  C   UNL A   1      32.459  18.214  24.473  1.00  0.00     0.080 A 
ATOM     27  F   UNL A   1      31.898  20.387  25.112  1.00  0.00    -0.205 F 
ATOM     28  C   UNL A   1      33.420  17.259  24.172  1.00  0.00     0.129 A 
ATOM     29  F   UNL A   1      33.036  16.044  23.766  1.00  0.00    -0.207 F 
ENDBRANCH  18  21
ENDBRANCH  16  18
ENDBRANCH  15  16
ENDBRANCH   7  10
ENDBRANCH   4   7
ENDBRANCH   2   3
ENDBRANCH   1   2
BRANCH   1  30
ATOM     30  C   UNL A   1      32.375  28.293  27.453  1.00  0.00     0.023 C 
BRANCH  30  31
ATOM     31  C   UNL A   1      33.665  29.051  27.157  1.00  0.00     0.116 C 
BRANCH  31  32
ATOM     32  N   UNL A   1      33.677  30.413  27.678  1.00  0.00    -0.352 N 
ATOM     33  C   UNL A   1      34.656  31.046  28.409  1.00  0.00     0.251 C 
ATOM     34  H   UNL A   1      32.877  30.951  27.482  1.00  0.00     0.163 HD
ATOM     35  O   UNL A   1      34.463  32.173  28.855  1.00  0.00    -0.269 OA
BRANCH  33  36
ATOM     36  C   UNL A   1      35.925  30.340  28.681  1.00  0.00     0.039 A 
ATOM     37  C   UNL A   1      36.993  30.500  27.797  1.00  0.00     0.014 A 
ATOM     38  C   UNL A   1      36.070  29.569  29.837  1.00  0.00     0.014 A 
ATOM     39  C   UNL A   1      38.236  29.948  28.113  1.00  0.00     0.010 A 
ATOM     40  C   UNL A   1      37.328  29.087  30.187  1.00  0.00     0.010 A 
ATOM     41  C   UNL A   1      38.423  29.272  29.331  1.00  0.00    -0.014 A 
BRANCH  41  42
ATOM     42  C   UNL A   1      39.760  28.768  29.739  1.00  0.00     0.031 A 
ATOM     43  C   UNL A   1      40.538  29.474  30.815  1.00  0.00     0.074 A 
ATOM     44  C   UNL A   1      40.313  27.735  29.072  1.00  0.00     0.049 A 
ATOM     45  N   UNL A   1      41.744  29.228  31.256  1.00  0.00    -0.248 NA
ATOM     46  C   UNL A   1      39.889  30.630  31.458  1.00  0.00     0.031 C 
ATOM     47  C   UNL A   1      39.698  27.024  27.949  1.00  0.00     0.029 A 
ATOM     48  N   UNL A   1      41.534  27.125  29.221  1.00  0.00    -0.354 N 
ATOM     49  C   UNL A   1      42.011  30.214  32.198  1.00  0.00     0.074 A 
ATOM     50  C   UNL A   1      40.858  31.086  32.237  1.00  0.00     0.031 C 
ATOM     51  C   UNL A   1      40.542  26.075  27.512  1.00  0.00     0.029 A 
ATOM     52  C   UNL A   1      41.768  26.127  28.303  1.00  0.00     0.049 A 
ATOM     53  H   UNL A   1      42.182  27.378  29.919  1.00  0.00     0.167 HD
ATOM     54  C   UNL A   1      43.103  30.362  32.986  1.00  0.00     0.034 A 
ATOM     55  C   UNL A   1      42.851  25.346  28.114  1.00  0.00     0.034 A 
ATOM     56  C   UNL A   1      44.228  29.466  32.978  1.00  0.00     0.049 A 
ATOM     57  C   UNL A   1      44.030  25.497  29.037  1.00  0.00     0.074 A 
ATOM     58  C   UNL A   1      45.342  29.476  33.799  1.00  0.00     0.029 A 
ATOM     59  N   UNL A   1      44.385  28.402  32.103  1.00  0.00    -0.354 N 
ATOM     60  N   UNL A   1      44.195  26.332  30.034  1.00  0.00    -0.248 NA
ATOM     61  C   UNL A   1      45.156  24.574  28.834  1.00  0.00     0.031 C 
ATOM     62  C   UNL A   1      46.181  28.429  33.408  1.00  0.00     0.029 A 
ATOM     63  C   UNL A   1      45.579  27.752  32.359  1.00  0.00     0.049 A 
ATOM     64  H   UNL A   1      43.742  28.147  31.403  1.00  0.00     0.167 HD
ATOM     65  C   UNL A   1      45.425  26.013  30.599  1.00  0.00     0.074 A 
ATOM     66  C   UNL A   1      45.952  24.893  29.845  1.00  0.00     0.031 C 
ATOM     67  C   UNL A   1      46.066  26.604  31.637  1.00  0.00     0.034 A 
BRANCH  54  68
ATOM     68  C   UNL A   1      43.104  31.503  33.970  1.00  0.00     0.023 A 
ATOM     69  C   UNL A   1      43.619  32.755  33.576  1.00  0.00     0.012 A 
ATOM     70  C   UNL A   1      42.554  31.356  35.257  1.00  0.00     0.148 A 
ATOM     71  C   UNL A   1      43.621  33.834  34.460  1.00  0.00     0.002 A 
ATOM     72  C   UNL A   1      42.518  32.448  36.118  1.00  0.00     0.091 A 
ATOM     73  F   UNL A   1      42.090  30.153  35.622  1.00  0.00    -0.205 F 
ATOM     74  C   UNL A   1      43.062  33.682  35.725  1.00  0.00     0.022 A 
BRANCH  72  75
ATOM     75  S   UNL A   1      41.751  32.378  37.739  1.00  0.00     0.127 S 
ATOM     76  O   UNL A   1      40.378  32.003  37.402  1.00  0.00    -0.237 OA
ATOM     77  O   UNL A   1      42.524  31.326  38.401  1.00  0.00    -0.237 OA
ATOM     78  O   UNL A   1      41.914  33.704  38.318  1.00  0.00    -0.744 OA
ENDBRANCH  72  75
ENDBRANCH  54  68
BRANCH  55  79
ATOM     79  C   UNL A   1      42.838  24.303  27.050  1.00  0.00     0.023 A 
ATOM     80  C   UNL A   1      43.502  24.548  25.832  1.00  0.00     0.012 A 
ATOM     81  C   UNL A   1      42.202  23.061  27.248  1.00  0.00     0.148 A 
ATOM     82  C   UNL A   1      43.507  23.590  24.819  1.00  0.00     0.002 A 
ATOM     83  C   UNL A   1      42.259  22.090  26.255  1.00  0.00     0.091 A 
ATOM     84  F   UNL A   1      41.567  22.849  28.409  1.00  0.00    -0.205 F 
ATOM     85  C   UNL A   1      42.895  22.358  25.033  1.00  0.00     0.022 A 
BRANCH  83  86
ATOM     86  S   UNL A   1      41.618  20.428  26.497  1.00  0.00     0.127 S 
ATOM     87  O   UNL A   1      40.178  20.643  26.378  1.00  0.00    -0.237 OA
ATOM     88  O   UNL A   1      42.228  19.704  25.381  1.00  0.00    -0.237 OA
ATOM     89  O   UNL A   1      42.092  20.014  27.810  1.00  0.00    -0.744 OA
ENDBRANCH  83  86
ENDBRANCH  55  79
BRANCH  67  90
ATOM     90  C   UNL A   1      47.398  26.035  32.051  1.00  0.00     0.023 A 
ATOM     91  C   UNL A   1      48.575  26.467  31.408  1.00  0.00     0.012 A 
ATOM     92  C   UNL A   1      47.490  25.133  33.129  1.00  0.00     0.148 A 
ATOM     93  C   UNL A   1      49.819  25.987  31.812  1.00  0.00     0.002 A 
ATOM     94  C   UNL A   1      48.737  24.695  33.558  1.00  0.00     0.091 A 
ATOM     95  F   UNL A   1      46.357  24.719  33.716  1.00  0.00    -0.205 F 
ATOM     96  C   UNL A   1      49.902  25.111  32.892  1.00  0.00     0.022 A 
BRANCH  94  97
ATOM     97  S   UNL A   1      48.945  23.645  35.000  1.00  0.00     0.127 S 
ATOM     98  O   UNL A   1      50.399  23.508  35.060  1.00  0.00    -0.237 OA
ATOM     99  O   UNL A   1      48.365  24.462  36.066  1.00  0.00    -0.237 OA
ATOM    100  O   UNL A   1      48.212  22.419  34.713  1.00  0.00    -0.744 OA
ENDBRANCH  94  97
ENDBRANCH  67  90
ENDBRANCH  41  42
ENDBRANCH  33  36
ENDBRANCH  31  32
ENDBRANCH  30  31
ENDBRANCH   1  30
TORSDOF 18
ENDMDL
MODEL 2
REMARK VINA RESULT:     -11.9      2.214      2.965
REMARK SMILES CC(C)(C(=O)NCCCCNC(=O)c1ccc(-c2c3nc(c(-c4cccc(S(=O)(=O)[O-])c4F)c4ccc([nH]4)c(-c4cccc(S(=O)(=O)[O-])c4F)c4nc(c(-c5cccc(S(=O)(=O)[O-])c5F)c5ccc2[nH]5)C=C4)C=C3)cc1)c1ccc(NS(=O)(=O)c2c(F)cc(F)cc2F)cc1
REMARK SMILES IDX 8 1 7 2 6 3 4 4 5 5 2 7 1 8 3 9 77 10 78 11 95 12 79 13
REMARK SMILES IDX 94 14 80 15 81 16 82 18 83 19 84 20 85 21 86 22 92 23 87 24
REMARK SMILES IDX 88 25 91 26 93 27 89 28 90 29 9 30 10 31 11 32 12 33 13 35
REMARK SMILES IDX 14 36 15 37 76 38 16 39 75 40 17 41 18 42 19 43 69 44 20 45
REMARK SMILES IDX 74 46 68 47 70 48 21 49 73 50 67 51 66 52 22 54 54 55 34 56
REMARK SMILES IDX 53 57 35 58 38 59 52 60 71 61 36 62 37 63 51 65 72 66 39 67
REMARK SMILES IDX 23 68 24 69 32 70 25 71 27 72 33 73 26 74 28 75 29 76 30 77
REMARK SMILES IDX 31 78 55 79 56 80 64 81 57 82 59 83 65 84 58 85 60 86 61 87
REMARK SMILES IDX 62 88 63 89 40 90 41 91 49 92 42 93 44 94 50 95 43 96 45 97
REMARK SMILES IDX 46 98 47 99 48 100
REMARK H PARENT 6 6 81 17 11 34 70 53 38 64
REMARK Flexibility Score: inf
ROOT
ATOM      1  C   UNL A   1      32.023  28.119  27.433  1.00  0.00     0.023 C 
ENDROOT
BRANCH   1   2
ATOM      2  C   UNL A   1      31.860  26.915  26.515  1.00  0.00     0.116 C 
BRANCH   2   3
ATOM      3  N   UNL A   1      30.674  26.994  25.686  1.00  0.00    -0.355 N 
ATOM      4  C   UNL A   1      30.485  26.996  24.335  1.00  0.00     0.230 C 
ATOM      5  O   UNL A   1      29.304  27.007  23.970  1.00  0.00    -0.274 OA
ATOM      6  H   UNL A   1      29.837  27.061  26.201  1.00  0.00     0.163 HD
BRANCH   4   7
ATOM      7  C   UNL A   1      31.664  26.985  23.309  1.00  0.00     0.068 C 
ATOM      8  C   UNL A   1      31.111  27.079  21.870  1.00  0.00     0.026 C 
ATOM      9  C   UNL A   1      32.598  28.188  23.583  1.00  0.00     0.026 C 
BRANCH   7  10
ATOM     10  C   UNL A   1      32.472  25.649  23.427  1.00  0.00    -0.033 A 
ATOM     11  C   UNL A   1      31.867  24.393  23.247  1.00  0.00     0.007 A 
ATOM     12  C   UNL A   1      33.853  25.655  23.714  1.00  0.00     0.007 A 
ATOM     13  C   UNL A   1      32.592  23.206  23.364  1.00  0.00     0.027 A 
ATOM     14  C   UNL A   1      34.596  24.463  23.771  1.00  0.00     0.027 A 
ATOM     15  C   UNL A   1      33.966  23.237  23.570  1.00  0.00     0.049 A 
BRANCH  15  16
ATOM     16  N   UNL A   1      34.696  22.003  23.604  1.00  0.00    -0.279 N 
ATOM     17  H   UNL A   1      35.118  21.658  22.785  1.00  0.00     0.180 HD
BRANCH  16  18
ATOM     18  S   UNL A   1      34.832  21.129  25.074  1.00  0.00     0.267 S 
ATOM     19  O   UNL A   1      36.243  21.066  25.399  1.00  0.00    -0.201 OA
ATOM     20  O   UNL A   1      33.939  21.808  25.988  1.00  0.00    -0.201 OA
BRANCH  18  21
ATOM     21  C   UNL A   1      34.253  19.493  24.822  1.00  0.00     0.159 A 
ATOM     22  C   UNL A   1      35.167  18.446  24.727  1.00  0.00     0.149 A 
ATOM     23  C   UNL A   1      32.893  19.205  24.753  1.00  0.00     0.149 A 
ATOM     24  F   UNL A   1      36.482  18.666  24.839  1.00  0.00    -0.205 F 
ATOM     25  C   UNL A   1      34.744  17.150  24.445  1.00  0.00     0.080 A 
ATOM     26  C   UNL A   1      32.453  17.903  24.509  1.00  0.00     0.080 A 
ATOM     27  F   UNL A   1      31.956  20.148  24.907  1.00  0.00    -0.205 F 
ATOM     28  C   UNL A   1      33.387  16.891  24.331  1.00  0.00     0.129 A 
ATOM     29  F   UNL A   1      32.968  15.653  24.042  1.00  0.00    -0.207 F 
ENDBRANCH  18  21
ENDBRANCH  16  18
ENDBRANCH  15  16
ENDBRANCH   7  10
ENDBRANCH   4   7
ENDBRANCH   2   3
ENDBRANCH   1   2
BRANCH   1  30
ATOM     30  C   UNL A   1      31.509  29.439  26.864  1.00  0.00     0.023 C 
BRANCH  30  31
ATOM     31  C   UNL A   1      32.567  30.341  26.237  1.00  0.00     0.116 C 
BRANCH  31  32
ATOM     32  N   UNL A   1      32.449  31.742  26.627  1.00  0.00    -0.352 N 
ATOM     33  C   UNL A   1      33.291  32.489  27.417  1.00  0.00     0.251 C 
ATOM     34  H   UNL A   1      31.660  32.215  26.278  1.00  0.00     0.163 HD
ATOM     35  O   UNL A   1      32.990  33.637  27.728  1.00  0.00    -0.269 OA
BRANCH  33  36
ATOM     36  C   UNL A   1      34.541  31.881  27.918  1.00  0.00     0.039 A 
ATOM     37  C   UNL A   1      35.676  32.682  28.056  1.00  0.00     0.014 A 
ATOM     38  C   UNL A   1      34.569  30.538  28.301  1.00  0.00     0.014 A 
ATOM     39  C   UNL A   1      36.822  32.153  28.654  1.00  0.00     0.010 A 
ATOM     40  C   UNL A   1      35.684  30.037  28.966  1.00  0.00     0.010 A 
ATOM     41  C   UNL A   1      36.821  30.839  29.150  1.00  0.00    -0.014 A 
BRANCH  41  42
ATOM     42  C   UNL A   1      37.990  30.287  29.884  1.00  0.00     0.031 A 
ATOM     43  C   UNL A   1      38.283  30.740  31.287  1.00  0.00     0.074 A 
ATOM     44  C   UNL A   1      38.840  29.455  29.250  1.00  0.00     0.049 A 
ATOM     45  N   UNL A   1      39.291  30.429  32.060  1.00  0.00    -0.248 NA
ATOM     46  C   UNL A   1      37.339  31.695  31.891  1.00  0.00     0.031 C 
ATOM     47  C   UNL A   1      38.714  29.012  27.860  1.00  0.00     0.029 A 
ATOM     48  N   UNL A   1      39.998  28.858  29.684  1.00  0.00    -0.354 N 
ATOM     49  C   UNL A   1      39.123  31.172  33.221  1.00  0.00     0.074 A 
ATOM     50  C   UNL A   1      37.937  31.980  33.038  1.00  0.00     0.031 C 
ATOM     51  C   UNL A   1      39.751  28.214  27.555  1.00  0.00     0.029 A 
ATOM     52  C   UNL A   1      40.630  28.110  28.717  1.00  0.00     0.049 A 
ATOM     53  H   UNL A   1      40.344  28.957  30.601  1.00  0.00     0.167 HD
ATOM     54  C   UNL A   1      39.866  31.159  34.354  1.00  0.00     0.034 A 
ATOM     55  C   UNL A   1      41.789  27.424  28.758  1.00  0.00     0.034 A 
ATOM     56  C   UNL A   1      41.017  30.319  34.550  1.00  0.00     0.049 A 
ATOM     57  C   UNL A   1      42.569  27.385  30.045  1.00  0.00     0.074 A 
ATOM     58  C   UNL A   1      41.784  30.165  35.691  1.00  0.00     0.029 A 
ATOM     59  N   UNL A   1      41.569  29.495  33.581  1.00  0.00    -0.354 N 
ATOM     60  N   UNL A   1      42.302  27.965  31.188  1.00  0.00    -0.248 NA
ATOM     61  C   UNL A   1      43.789  26.564  30.057  1.00  0.00     0.031 C 
ATOM     62  C   UNL A   1      42.812  29.261  35.406  1.00  0.00     0.029 A 
ATOM     63  C   UNL A   1      42.671  28.834  34.095  1.00  0.00     0.049 A 
ATOM     64  H   UNL A   1      41.228  29.396  32.664  1.00  0.00     0.167 HD
ATOM     65  C   UNL A   1      43.298  27.555  32.067  1.00  0.00     0.074 A 
ATOM     66  C   UNL A   1      44.163  26.658  31.327  1.00  0.00     0.031 C 
ATOM     67  C   UNL A   1      43.489  27.901  33.364  1.00  0.00     0.034 A 
BRANCH  54  68
ATOM     68  C   UNL A   1      39.417  32.036  35.493  1.00  0.00     0.023 A 
ATOM     69  C   UNL A   1      38.547  31.509  36.470  1.00  0.00     0.012 A 
ATOM     70  C   UNL A   1      39.889  33.355  35.628  1.00  0.00     0.148 A 
ATOM     71  C   UNL A   1      38.124  32.293  37.543  1.00  0.00     0.002 A 
ATOM     72  C   UNL A   1      39.500  34.116  36.725  1.00  0.00     0.091 A 
ATOM     73  F   UNL A   1      40.697  33.847  34.678  1.00  0.00    -0.205 F 
ATOM     74  C   UNL A   1      38.608  33.591  37.675  1.00  0.00     0.022 A 
BRANCH  72  75
ATOM     75  S   UNL A   1      40.127  35.771  37.028  1.00  0.00     0.127 S 
ATOM     76  O   UNL A   1      39.419  36.137  38.253  1.00  0.00    -0.237 OA
ATOM     77  O   UNL A   1      41.560  35.530  37.201  1.00  0.00    -0.237 OA
ATOM     78  O   UNL A   1      39.783  36.552  35.848  1.00  0.00    -0.744 OA
ENDBRANCH  72  75
ENDBRANCH  54  68
BRANCH  55  79
ATOM     79  C   UNL A   1      42.243  26.660  27.561  1.00  0.00     0.023 A 
ATOM     80  C   UNL A   1      42.975  27.321  26.555  1.00  0.00     0.012 A 
ATOM     81  C   UNL A   1      41.985  25.282  27.430  1.00  0.00     0.148 A 
ATOM     82  C   UNL A   1      43.413  26.631  25.425  1.00  0.00     0.002 A 
ATOM     83  C   UNL A   1      42.472  24.589  26.327  1.00  0.00     0.091 A 
ATOM     84  F   UNL A   1      41.278  24.672  28.392  1.00  0.00    -0.205 F 
ATOM     85  C   UNL A   1      43.171  25.265  25.315  1.00  0.00     0.022 A 
BRANCH  83  86
ATOM     86  S   UNL A   1      42.327  22.805  26.171  1.00  0.00     0.127 S 
ATOM     87  O   UNL A   1      43.069  22.341  27.340  1.00  0.00    -0.237 OA
ATOM     88  O   UNL A   1      40.878  22.613  26.242  1.00  0.00    -0.237 OA
ATOM     89  O   UNL A   1      42.911  22.477  24.877  1.00  0.00    -0.744 OA
ENDBRANCH  83  86
ENDBRANCH  55  79
BRANCH  67  90
ATOM     90  C   UNL A   1      44.658  27.285  34.087  1.00  0.00     0.023 A 
ATOM     91  C   UNL A   1      45.923  27.903  34.027  1.00  0.00     0.012 A 
ATOM     92  C   UNL A   1      44.485  26.140  34.888  1.00  0.00     0.148 A 
ATOM     93  C   UNL A   1      47.004  27.373  34.730  1.00  0.00     0.002 A 
ATOM     94  C   UNL A   1      45.554  25.645  35.624  1.00  0.00     0.091 A 
ATOM     95  F   UNL A   1      43.278  25.556  34.917  1.00  0.00    -0.205 F 
ATOM     96  C   UNL A   1      46.818  26.253  35.537  1.00  0.00     0.022 A 
BRANCH  94  97
ATOM     97  S   UNL A   1      45.383  24.266  36.764  1.00  0.00     0.127 S 
ATOM     98  O   UNL A   1      44.975  23.188  35.866  1.00  0.00    -0.237 OA
ATOM     99  O   UNL A   1      46.738  24.136  37.299  1.00  0.00    -0.237 OA
ATOM    100  O   UNL A   1      44.384  24.678  37.742  1.00  0.00    -0.744 OA
ENDBRANCH  94  97
ENDBRANCH  67  90
ENDBRANCH  41  42
ENDBRANCH  33  36
ENDBRANCH  31  32
ENDBRANCH  30  31
ENDBRANCH   1  30
TORSDOF 18
ENDMDL
MODEL 3
REMARK VINA RESULT:     -11.9      4.471      9.708
REMARK SMILES CC(C)(C(=O)NCCCCNC(=O)c1ccc(-c2c3nc(c(-c4cccc(S(=O)(=O)[O-])c4F)c4ccc([nH]4)c(-c4cccc(S(=O)(=O)[O-])c4F)c4nc(c(-c5cccc(S(=O)(=O)[O-])c5F)c5ccc2[nH]5)C=C4)C=C3)cc1)c1ccc(NS(=O)(=O)c2c(F)cc(F)cc2F)cc1
REMARK SMILES IDX 8 1 7 2 6 3 4 4 5 5 2 7 1 8 3 9 77 10 78 11 95 12 79 13
REMARK SMILES IDX 94 14 80 15 81 16 82 18 83 19 84 20 85 21 86 22 92 23 87 24
REMARK SMILES IDX 88 25 91 26 93 27 89 28 90 29 9 30 10 31 11 32 12 33 13 35
REMARK SMILES IDX 14 36 15 37 76 38 16 39 75 40 17 41 18 42 19 43 69 44 20 45
REMARK SMILES IDX 74 46 68 47 70 48 21 49 73 50 67 51 66 52 22 54 54 55 34 56
REMARK SMILES IDX 53 57 35 58 38 59 52 60 71 61 36 62 37 63 51 65 72 66 39 67
REMARK SMILES IDX 23 68 24 69 32 70 25 71 27 72 33 73 26 74 28 75 29 76 30 77
REMARK SMILES IDX 31 78 55 79 56 80 64 81 57 82 59 83 65 84 58 85 60 86 61 87
REMARK SMILES IDX 62 88 63 89 40 90 41 91 49 92 42 93 44 94 50 95 43 96 45 97
REMARK SMILES IDX 46 98 47 99 48 100
REMARK H PARENT 6 6 81 17 11 34 70 53 38 64
REMARK Flexibility Score: inf
ROOT
ATOM      1  C   UNL A   1      35.971  21.932  24.272  1.00  0.00     0.023 C 
ENDROOT
BRANCH   1   2
ATOM      2  C   UNL A   1      35.587  20.908  25.332  1.00  0.00     0.116 C 
BRANCH   2   3
ATOM      3  N   UNL A   1      35.591  19.549  24.829  1.00  0.00    -0.355 N 
ATOM      4  C   UNL A   1      34.597  18.644  24.596  1.00  0.00     0.230 C 
ATOM      5  O   UNL A   1      34.965  17.579  24.087  1.00  0.00    -0.274 OA
ATOM      6  H   UNL A   1      36.491  19.210  24.614  1.00  0.00     0.163 HD
BRANCH   4   7
ATOM      7  C   UNL A   1      33.097  18.917  24.939  1.00  0.00     0.068 C 
ATOM      8  C   UNL A   1      32.207  17.811  24.330  1.00  0.00     0.026 C 
ATOM      9  C   UNL A   1      32.915  18.939  26.475  1.00  0.00     0.026 C 
BRANCH   7  10
ATOM     10  C   UNL A   1      32.644  20.287  24.332  1.00  0.00    -0.033 A 
ATOM     11  C   UNL A   1      32.515  20.483  22.945  1.00  0.00     0.007 A 
ATOM     12  C   UNL A   1      32.336  21.386  25.160  1.00  0.00     0.007 A 
ATOM     13  C   UNL A   1      32.121  21.711  22.411  1.00  0.00     0.027 A 
ATOM     14  C   UNL A   1      31.879  22.603  24.626  1.00  0.00     0.027 A 
ATOM     15  C   UNL A   1      31.748  22.755  23.247  1.00  0.00     0.049 A 
BRANCH  15  16
ATOM     16  N   UNL A   1      31.268  23.977  22.669  1.00  0.00    -0.279 N 
ATOM     17  H   UNL A   1      30.325  24.059  22.400  1.00  0.00     0.180 HD
BRANCH  16  18
ATOM     18  S   UNL A   1      32.340  25.298  22.445  1.00  0.00     0.267 S 
ATOM     19  O   UNL A   1      33.640  24.738  22.136  1.00  0.00    -0.201 OA
ATOM     20  O   UNL A   1      31.691  26.131  21.456  1.00  0.00    -0.201 OA
BRANCH  18  21
ATOM     21  C   UNL A   1      32.469  26.192  23.948  1.00  0.00     0.159 A 
ATOM     22  C   UNL A   1      33.633  26.099  24.707  1.00  0.00     0.149 A 
ATOM     23  C   UNL A   1      31.448  27.029  24.387  1.00  0.00     0.149 A 
ATOM     24  F   UNL A   1      34.663  25.347  24.300  1.00  0.00    -0.205 F 
ATOM     25  C   UNL A   1      33.735  26.730  25.943  1.00  0.00     0.080 A 
ATOM     26  C   UNL A   1      31.551  27.699  25.607  1.00  0.00     0.080 A 
ATOM     27  F   UNL A   1      30.331  27.224  23.675  1.00  0.00    -0.205 F 
ATOM     28  C   UNL A   1      32.686  27.521  26.387  1.00  0.00     0.129 A 
ATOM     29  F   UNL A   1      32.763  28.119  27.582  1.00  0.00    -0.207 F 
ENDBRANCH  18  21
ENDBRANCH  16  18
ENDBRANCH  15  16
ENDBRANCH   7  10
ENDBRANCH   4   7
ENDBRANCH   2   3
ENDBRANCH   1   2
BRANCH   1  30
ATOM     30  C   UNL A   1      37.088  22.892  24.676  1.00  0.00     0.023 C 
BRANCH  30  31
ATOM     31  C   UNL A   1      37.748  22.605  26.021  1.00  0.00     0.116 C 
BRANCH  31  32
ATOM     32  N   UNL A   1      39.050  21.958  25.908  1.00  0.00    -0.352 N 
ATOM     33  C   UNL A   1      40.296  22.481  26.159  1.00  0.00     0.251 C 
ATOM     34  H   UNL A   1      39.033  21.019  25.612  1.00  0.00     0.163 HD
ATOM     35  O   UNL A   1      41.304  21.823  25.919  1.00  0.00    -0.269 OA
BRANCH  33  36
ATOM     36  C   UNL A   1      40.409  23.858  26.684  1.00  0.00     0.039 A 
ATOM     37  C   UNL A   1      40.643  24.046  28.047  1.00  0.00     0.014 A 
ATOM     38  C   UNL A   1      40.340  24.952  25.818  1.00  0.00     0.014 A 
ATOM     39  C   UNL A   1      40.886  25.333  28.532  1.00  0.00     0.010 A 
ATOM     40  C   UNL A   1      40.659  26.222  26.290  1.00  0.00     0.010 A 
ATOM     41  C   UNL A   1      40.936  26.426  27.650  1.00  0.00    -0.014 A 
BRANCH  41  42
ATOM     42  C   UNL A   1      41.296  27.787  28.123  1.00  0.00     0.031 A 
ATOM     43  C   UNL A   1      42.738  28.210  28.182  1.00  0.00     0.074 A 
ATOM     44  C   UNL A   1      40.333  28.604  28.593  1.00  0.00     0.049 A 
ATOM     45  N   UNL A   1      43.252  29.326  28.631  1.00  0.00    -0.248 NA
ATOM     46  C   UNL A   1      43.738  27.240  27.704  1.00  0.00     0.031 C 
ATOM     47  C   UNL A   1      38.908  28.276  28.674  1.00  0.00     0.029 A 
ATOM     48  N   UNL A   1      40.411  29.869  29.123  1.00  0.00    -0.354 N 
ATOM     49  C   UNL A   1      44.629  29.179  28.523  1.00  0.00     0.074 A 
ATOM     50  C   UNL A   1      44.874  27.851  28.003  1.00  0.00     0.031 C 
ATOM     51  C   UNL A   1      38.247  29.310  29.219  1.00  0.00     0.029 A 
ATOM     52  C   UNL A   1      39.201  30.364  29.551  1.00  0.00     0.049 A 
ATOM     53  H   UNL A   1      41.254  30.374  29.189  1.00  0.00     0.167 HD
ATOM     54  C   UNL A   1      45.604  30.079  28.798  1.00  0.00     0.034 A 
ATOM     55  C   UNL A   1      38.894  31.532  30.151  1.00  0.00     0.034 A 
ATOM     56  C   UNL A   1      45.355  31.414  29.270  1.00  0.00     0.049 A 
ATOM     57  C   UNL A   1      39.989  32.535  30.398  1.00  0.00     0.074 A 
ATOM     58  C   UNL A   1      46.266  32.431  29.493  1.00  0.00     0.029 A 
ATOM     59  N   UNL A   1      44.105  31.917  29.596  1.00  0.00    -0.354 N 
ATOM     60  N   UNL A   1      41.269  32.440  30.135  1.00  0.00    -0.248 NA
ATOM     61  C   UNL A   1      39.591  33.820  30.990  1.00  0.00     0.031 C 
ATOM     62  C   UNL A   1      45.568  33.544  29.972  1.00  0.00     0.029 A 
ATOM     63  C   UNL A   1      44.219  33.228  30.024  1.00  0.00     0.049 A 
ATOM     64  H   UNL A   1      43.260  31.415  29.533  1.00  0.00     0.167 HD
ATOM     65  C   UNL A   1      41.825  33.662  30.494  1.00  0.00     0.074 A 
ATOM     66  C   UNL A   1      40.736  34.490  30.975  1.00  0.00     0.031 C 
ATOM     67  C   UNL A   1      43.121  34.058  30.447  1.00  0.00     0.034 A 
BRANCH  54  68
ATOM     68  C   UNL A   1      47.028  29.667  28.533  1.00  0.00     0.023 A 
ATOM     69  C   UNL A   1      47.607  29.947  27.277  1.00  0.00     0.012 A 
ATOM     70  C   UNL A   1      47.808  29.054  29.532  1.00  0.00     0.148 A 
ATOM     71  C   UNL A   1      48.928  29.589  27.007  1.00  0.00     0.002 A 
ATOM     72  C   UNL A   1      49.138  28.742  29.270  1.00  0.00     0.091 A 
ATOM     73  F   UNL A   1      47.235  28.776  30.711  1.00  0.00    -0.205 F 
ATOM     74  C   UNL A   1      49.694  28.997  28.006  1.00  0.00     0.022 A 
BRANCH  72  75
ATOM     75  S   UNL A   1      50.232  28.048  30.513  1.00  0.00     0.127 S 
ATOM     76  O   UNL A   1      50.554  29.227  31.317  1.00  0.00    -0.237 OA
ATOM     77  O   UNL A   1      49.364  27.076  31.180  1.00  0.00    -0.237 OA
ATOM     78  O   UNL A   1      51.348  27.463  29.784  1.00  0.00    -0.744 OA
ENDBRANCH  72  75
ENDBRANCH  54  68
BRANCH  55  79
ATOM     79  C   UNL A   1      37.477  31.842  30.493  1.00  0.00     0.023 A 
ATOM     80  C   UNL A   1      36.974  31.476  31.756  1.00  0.00     0.012 A 
ATOM     81  C   UNL A   1      36.638  32.525  29.591  1.00  0.00     0.148 A 
ATOM     82  C   UNL A   1      35.652  31.754  32.103  1.00  0.00     0.002 A 
ATOM     83  C   UNL A   1      35.339  32.848  29.965  1.00  0.00     0.091 A 
ATOM     84  F   UNL A   1      37.132  32.857  28.389  1.00  0.00    -0.205 F 
ATOM     85  C   UNL A   1      34.837  32.449  31.213  1.00  0.00     0.022 A 
BRANCH  83  86
ATOM     86  S   UNL A   1      34.265  33.859  28.937  1.00  0.00     0.127 S 
ATOM     87  O   UNL A   1      33.722  32.871  28.009  1.00  0.00    -0.237 OA
ATOM     88  O   UNL A   1      33.309  34.377  29.917  1.00  0.00    -0.237 OA
ATOM     89  O   UNL A   1      35.129  34.875  28.350  1.00  0.00    -0.744 OA
ENDBRANCH  83  86
ENDBRANCH  55  79
BRANCH  67  90
ATOM     90  C   UNL A   1      43.439  35.461  30.892  1.00  0.00     0.023 A 
ATOM     91  C   UNL A   1      43.818  35.704  32.227  1.00  0.00     0.012 A 
ATOM     92  C   UNL A   1      43.440  36.525  29.968  1.00  0.00     0.148 A 
ATOM     93  C   UNL A   1      44.163  36.989  32.643  1.00  0.00     0.002 A 
ATOM     94  C   UNL A   1      43.832  37.794  30.378  1.00  0.00     0.091 A 
ATOM     95  F   UNL A   1      43.059  36.278  28.706  1.00  0.00    -0.205 F 
ATOM     96  C   UNL A   1      44.182  38.030  31.718  1.00  0.00     0.022 A 
BRANCH  94  97
ATOM     97  S   UNL A   1      43.979  39.172  29.235  1.00  0.00     0.127 S 
ATOM     98  O   UNL A   1      42.619  39.269  28.710  1.00  0.00    -0.237 OA
ATOM     99  O   UNL A   1      44.372  40.269  30.120  1.00  0.00    -0.237 OA
ATOM    100  O   UNL A   1      44.997  38.783  28.267  1.00  0.00    -0.744 OA
ENDBRANCH  94  97
ENDBRANCH  67  90
ENDBRANCH  41  42
ENDBRANCH  33  36
ENDBRANCH  31  32
ENDBRANCH  30  31
ENDBRANCH   1  30
TORSDOF 18
ENDMDL
