MODEL 1
REMARK VINA RESULT:     -13.4      0.000      0.000
REMARK SMILES O=C(NCCCCNC(=O)c1ccc(-c2c3nc(c(-c4cccc(S(=O)(=O)[O-])c4F)c4ccc([nH]4)c(-c4cccc(S(=O)(=O)[O-])c4F)c4nc(c(-c5cccc(S(=O)(=O)[O-])c5F)c5ccc2[nH]5)C=C4)C=C3)cc1)C1=Cc2c(ccc(Cl)c2Sc2ccccc2)O[C@H]1C(F)(F)F
REMARK SMILES IDX 6 1 5 2 4 3 3 4 1 5 2 6 74 8 75 9 91 10 76 11 90 12 77 13
REMARK SMILES IDX 82 14 78 15 80 16 79 17 81 18 92 19 93 20 94 21 95 22 83 23
REMARK SMILES IDX 84 24 85 25 89 26 86 27 88 28 87 29 7 30 8 31 9 32 10 34
REMARK SMILES IDX 11 35 12 36 73 37 13 38 72 39 14 40 15 41 16 42 66 43 17 44
REMARK SMILES IDX 71 45 65 46 67 47 18 48 70 49 64 50 63 51 19 53 51 54 31 55
REMARK SMILES IDX 50 56 32 57 35 58 49 59 68 60 33 61 34 62 48 64 69 65 36 66
REMARK SMILES IDX 20 67 21 68 29 69 22 70 24 71 30 72 23 73 25 74 26 75 27 76
REMARK SMILES IDX 28 77 52 78 53 79 61 80 54 81 56 82 62 83 55 84 57 85 58 86
REMARK SMILES IDX 59 87 60 88 37 89 38 90 46 91 39 92 41 93 47 94 40 95 42 96
REMARK SMILES IDX 43 97 44 98 45 99
REMARK H PARENT 3 7 8 33 67 52 35 63
REMARK Flexibility Score: inf
ROOT
ATOM      1  C   UNL A   1      31.572  29.451  26.749  1.00  0.00     0.023 C 
ENDROOT
BRANCH   1   2
ATOM      2  C   UNL A   1      32.115  28.096  27.197  1.00  0.00     0.023 C 
BRANCH   2   3
ATOM      3  C   UNL A   1      31.764  26.932  26.273  1.00  0.00     0.116 C 
BRANCH   3   4
ATOM      4  N   UNL A   1      31.217  25.785  26.980  1.00  0.00    -0.352 N 
ATOM      5  O   UNL A   1      30.498  23.669  27.278  1.00  0.00    -0.270 OA
ATOM      6  C   UNL A   1      31.038  24.497  26.560  1.00  0.00     0.251 C 
ATOM      7  H   UNL A   1      30.930  25.964  27.906  1.00  0.00     0.163 HD
BRANCH   6   8
ATOM      8  C   UNL A   1      31.453  24.108  25.198  1.00  0.00     0.067 C 
ATOM      9  C   UNL A   1      31.865  22.858  24.959  1.00  0.00     0.026 C 
ATOM     10  C   UNL A   1      31.743  25.201  24.226  1.00  0.00     0.314 C 
ATOM     11  C   UNL A   1      33.285  22.791  24.544  1.00  0.00     0.033 A 
ATOM     12  O   UNL A   1      33.065  25.071  23.622  1.00  0.00    -0.475 OA
ATOM     13  C   UNL A   1      33.807  23.951  23.918  1.00  0.00     0.129 A 
ATOM     14  C   UNL A   1      34.131  21.708  24.904  1.00  0.00     0.042 A 
ATOM     15  C   UNL A   1      35.167  24.057  23.655  1.00  0.00     0.049 A 
ATOM     16  C   UNL A   1      35.516  21.871  24.653  1.00  0.00     0.055 A 
ATOM     17  C   UNL A   1      36.021  23.030  24.041  1.00  0.00     0.025 A 
ATOM     18  Cl  UNL A   1      36.709  20.699  25.121  1.00  0.00    -0.083 Cl
BRANCH  10  19
ATOM     19  C   UNL A   1      30.669  25.269  23.128  1.00  0.00     0.429 C 
ATOM     20  F   UNL A   1      31.131  25.812  21.979  1.00  0.00    -0.167 F 
ATOM     21  F   UNL A   1      30.208  24.032  22.821  1.00  0.00    -0.167 F 
ATOM     22  F   UNL A   1      29.600  26.009  23.513  1.00  0.00    -0.167 F 
ENDBRANCH  10  19
BRANCH  14  23
ATOM     23  S   UNL A   1      33.605  20.211  25.791  1.00  0.00    -0.088 SA
BRANCH  23  24
ATOM     24  C   UNL A   1      33.531  18.882  24.617  1.00  0.00     0.012 A 
ATOM     25  C   UNL A   1      32.554  18.910  23.612  1.00  0.00     0.015 A 
ATOM     26  C   UNL A   1      34.457  17.833  24.643  1.00  0.00     0.015 A 
ATOM     27  C   UNL A   1      32.561  17.954  22.595  1.00  0.00     0.001 A 
ATOM     28  C   UNL A   1      34.457  16.872  23.627  1.00  0.00     0.001 A 
ATOM     29  C   UNL A   1      33.521  16.943  22.596  1.00  0.00     0.000 A 
ENDBRANCH  23  24
ENDBRANCH  14  23
ENDBRANCH   6   8
ENDBRANCH   3   4
ENDBRANCH   2   3
ENDBRANCH   1   2
BRANCH   1  30
ATOM     30  C   UNL A   1      32.591  30.448  26.194  1.00  0.00     0.116 C 
BRANCH  30  31
ATOM     31  N   UNL A   1      32.485  31.793  26.745  1.00  0.00    -0.352 N 
ATOM     32  C   UNL A   1      33.395  32.487  27.514  1.00  0.00     0.251 C 
ATOM     33  H   UNL A   1      31.649  32.271  26.540  1.00  0.00     0.163 HD
ATOM     34  O   UNL A   1      33.119  33.609  27.931  1.00  0.00    -0.269 OA
BRANCH  32  35
ATOM     35  C   UNL A   1      34.680  31.848  27.884  1.00  0.00     0.039 A 
ATOM     36  C   UNL A   1      35.812  32.654  28.039  1.00  0.00     0.014 A 
ATOM     37  C   UNL A   1      34.749  30.480  28.156  1.00  0.00     0.014 A 
ATOM     38  C   UNL A   1      36.979  32.110  28.584  1.00  0.00     0.010 A 
ATOM     39  C   UNL A   1      35.891  29.954  28.761  1.00  0.00     0.010 A 
ATOM     40  C   UNL A   1      37.006  30.770  29.009  1.00  0.00    -0.014 A 
BRANCH  40  41
ATOM     41  C   UNL A   1      38.146  30.232  29.800  1.00  0.00     0.031 A 
ATOM     42  C   UNL A   1      38.392  30.691  31.209  1.00  0.00     0.074 A 
ATOM     43  C   UNL A   1      39.037  29.418  29.196  1.00  0.00     0.049 A 
ATOM     44  N   UNL A   1      39.379  30.385  32.012  1.00  0.00    -0.248 NA
ATOM     45  C   UNL A   1      37.421  31.637  31.783  1.00  0.00     0.031 C 
ATOM     46  C   UNL A   1      38.968  28.975  27.801  1.00  0.00     0.029 A 
ATOM     47  N   UNL A   1      40.192  28.843  29.669  1.00  0.00    -0.354 N 
ATOM     48  C   UNL A   1      39.172  31.126  33.168  1.00  0.00     0.074 A 
ATOM     49  C   UNL A   1      37.976  31.914  32.955  1.00  0.00     0.031 C 
ATOM     50  C   UNL A   1      40.030  28.198  27.532  1.00  0.00     0.029 A 
ATOM     51  C   UNL A   1      40.866  28.102  28.725  1.00  0.00     0.049 A 
ATOM     52  H   UNL A   1      40.508  28.950  30.594  1.00  0.00     0.167 HD
ATOM     53  C   UNL A   1      39.893  31.129  34.316  1.00  0.00     0.034 A 
ATOM     54  C   UNL A   1      42.027  27.420  28.807  1.00  0.00     0.034 A 
ATOM     55  C   UNL A   1      41.044  30.302  34.553  1.00  0.00     0.049 A 
ATOM     56  C   UNL A   1      42.764  27.380  30.115  1.00  0.00     0.074 A 
ATOM     57  C   UNL A   1      41.778  30.162  35.718  1.00  0.00     0.029 A 
ATOM     58  N   UNL A   1      41.631  29.472  33.611  1.00  0.00    -0.354 N 
ATOM     59  N   UNL A   1      42.452  27.949  31.254  1.00  0.00    -0.248 NA
ATOM     60  C   UNL A   1      43.994  26.575  30.164  1.00  0.00     0.031 C 
ATOM     61  C   UNL A   1      42.806  29.243  35.481  1.00  0.00     0.029 A 
ATOM     62  C   UNL A   1      42.715  28.815  34.167  1.00  0.00     0.049 A 
ATOM     63  H   UNL A   1      41.322  29.365  32.682  1.00  0.00     0.167 HD
ATOM     64  C   UNL A   1      43.425  27.547  32.161  1.00  0.00     0.074 A 
ATOM     65  C   UNL A   1      44.329  26.671  31.445  1.00  0.00     0.031 C 
ATOM     66  C   UNL A   1      43.569  27.892  33.464  1.00  0.00     0.034 A 
BRANCH  53  67
ATOM     67  C   UNL A   1      39.403  32.001  35.439  1.00  0.00     0.023 A 
ATOM     68  C   UNL A   1      38.496  31.463  36.375  1.00  0.00     0.012 A 
ATOM     69  C   UNL A   1      39.868  33.319  35.603  1.00  0.00     0.148 A 
ATOM     70  C   UNL A   1      38.038  32.233  37.443  1.00  0.00     0.002 A 
ATOM     71  C   UNL A   1      39.432  34.070  36.690  1.00  0.00     0.091 A 
ATOM     72  F   UNL A   1      40.708  33.824  34.689  1.00  0.00    -0.205 F 
ATOM     73  C   UNL A   1      38.513  33.531  37.606  1.00  0.00     0.022 A 
BRANCH  71  74
ATOM     74  S   UNL A   1      40.044  35.729  37.010  1.00  0.00     0.127 S 
ATOM     75  O   UNL A   1      39.582  36.448  35.825  1.00  0.00    -0.237 OA
ATOM     76  O   UNL A   1      39.352  36.089  38.249  1.00  0.00    -0.237 OA
ATOM     77  O   UNL A   1      41.487  35.591  37.148  1.00  0.00    -0.744 OA
ENDBRANCH  71  74
ENDBRANCH  53  67
BRANCH  54  78
ATOM     78  C   UNL A   1      42.506  26.637  27.634  1.00  0.00     0.023 A 
ATOM     79  C   UNL A   1      43.386  27.248  26.720  1.00  0.00     0.012 A 
ATOM     80  C   UNL A   1      42.144  25.291  27.443  1.00  0.00     0.148 A 
ATOM     81  C   UNL A   1      43.879  26.540  25.625  1.00  0.00     0.002 A 
ATOM     82  C   UNL A   1      42.678  24.575  26.376  1.00  0.00     0.091 A 
ATOM     83  F   UNL A   1      41.290  24.730  28.312  1.00  0.00    -0.205 F 
ATOM     84  C   UNL A   1      43.536  25.201  25.459  1.00  0.00     0.022 A 
BRANCH  82  85
ATOM     85  S   UNL A   1      42.386  22.813  26.177  1.00  0.00     0.127 S 
ATOM     86  O   UNL A   1      40.930  22.740  26.232  1.00  0.00    -0.237 OA
ATOM     87  O   UNL A   1      42.967  22.548  24.859  1.00  0.00    -0.237 OA
ATOM     88  O   UNL A   1      43.104  22.182  27.277  1.00  0.00    -0.744 OA
ENDBRANCH  82  85
ENDBRANCH  54  78
BRANCH  66  89
ATOM     89  C   UNL A   1      44.733  27.310  34.216  1.00  0.00     0.023 A 
ATOM     90  C   UNL A   1      45.958  28.004  34.237  1.00  0.00     0.012 A 
ATOM     91  C   UNL A   1      44.594  26.127  34.969  1.00  0.00     0.148 A 
ATOM     92  C   UNL A   1      47.034  27.521  34.981  1.00  0.00     0.002 A 
ATOM     93  C   UNL A   1      45.660  25.671  35.737  1.00  0.00     0.091 A 
ATOM     94  F   UNL A   1      43.428  25.466  34.916  1.00  0.00    -0.205 F 
ATOM     95  C   UNL A   1      46.881  26.362  35.739  1.00  0.00     0.022 A 
BRANCH  93  96
ATOM     96  S   UNL A   1      45.509  24.233  36.804  1.00  0.00     0.127 S 
ATOM     97  O   UNL A   1      44.490  24.671  37.756  1.00  0.00    -0.237 OA
ATOM     98  O   UNL A   1      45.067  23.190  35.875  1.00  0.00    -0.237 OA
ATOM     99  O   UNL A   1      46.841  24.015  37.355  1.00  0.00    -0.744 OA
ENDBRANCH  93  96
ENDBRANCH  66  89
ENDBRANCH  40  41
ENDBRANCH  32  35
ENDBRANCH  30  31
ENDBRANCH   1  30
TORSDOF 17
ENDMDL
MODEL 2
REMARK VINA RESULT:     -13.3      5.215      7.729
REMARK SMILES O=C(NCCCCNC(=O)c1ccc(-c2c3nc(c(-c4cccc(S(=O)(=O)[O-])c4F)c4ccc([nH]4)c(-c4cccc(S(=O)(=O)[O-])c4F)c4nc(c(-c5cccc(S(=O)(=O)[O-])c5F)c5ccc2[nH]5)C=C4)C=C3)cc1)C1=Cc2c(ccc(Cl)c2Sc2ccccc2)O[C@H]1C(F)(F)F
REMARK SMILES IDX 6 1 5 2 4 3 3 4 1 5 2 6 74 8 75 9 91 10 76 11 90 12 77 13
REMARK SMILES IDX 82 14 78 15 80 16 79 17 81 18 92 19 93 20 94 21 95 22 83 23
REMARK SMILES IDX 84 24 85 25 89 26 86 27 88 28 87 29 7 30 8 31 9 32 10 34
REMARK SMILES IDX 11 35 12 36 73 37 13 38 72 39 14 40 15 41 16 42 66 43 17 44
REMARK SMILES IDX 71 45 65 46 67 47 18 48 70 49 64 50 63 51 19 53 51 54 31 55
REMARK SMILES IDX 50 56 32 57 35 58 49 59 68 60 33 61 34 62 48 64 69 65 36 66
REMARK SMILES IDX 20 67 21 68 29 69 22 70 24 71 30 72 23 73 25 74 26 75 27 76
REMARK SMILES IDX 28 77 52 78 53 79 61 80 54 81 56 82 62 83 55 84 57 85 58 86
REMARK SMILES IDX 59 87 60 88 37 89 38 90 46 91 39 92 41 93 47 94 40 95 42 96
REMARK SMILES IDX 43 97 44 98 45 99
REMARK H PARENT 3 7 8 33 67 52 35 63
REMARK Flexibility Score: inf
ROOT
ATOM      1  C   UNL A   1      36.768  21.426  24.234  1.00  0.00     0.023 C 
ENDROOT
BRANCH   1   2
ATOM      2  C   UNL A   1      36.676  22.885  23.795  1.00  0.00     0.023 C 
BRANCH   2   3
ATOM      3  C   UNL A   1      35.307  23.528  23.999  1.00  0.00     0.116 C 
BRANCH   3   4
ATOM      4  N   UNL A   1      34.783  24.153  22.795  1.00  0.00    -0.352 N 
ATOM      5  O   UNL A   1      33.577  25.597  21.552  1.00  0.00    -0.270 OA
ATOM      6  C   UNL A   1      33.975  25.247  22.653  1.00  0.00     0.251 C 
ATOM      7  H   UNL A   1      35.050  23.722  21.951  1.00  0.00     0.163 HD
BRANCH   6   8
ATOM      8  C   UNL A   1      33.531  25.988  23.850  1.00  0.00     0.067 C 
ATOM      9  C   UNL A   1      33.481  25.369  25.035  1.00  0.00     0.026 C 
ATOM     10  C   UNL A   1      32.816  27.279  23.637  1.00  0.00     0.314 C 
ATOM     11  C   UNL A   1      32.104  25.269  25.573  1.00  0.00     0.033 A 
ATOM     12  O   UNL A   1      31.528  27.320  24.323  1.00  0.00    -0.475 OA
ATOM     13  C   UNL A   1      31.191  26.262  25.137  1.00  0.00     0.129 A 
ATOM     14  C   UNL A   1      31.666  24.154  26.336  1.00  0.00     0.042 A 
ATOM     15  C   UNL A   1      29.840  26.156  25.438  1.00  0.00     0.049 A 
ATOM     16  C   UNL A   1      30.275  24.064  26.590  1.00  0.00     0.055 A 
ATOM     17  C   UNL A   1      29.381  25.050  26.143  1.00  0.00     0.025 A 
ATOM     18  Cl  UNL A   1      29.548  22.719  27.415  1.00  0.00    -0.083 Cl
BRANCH  10  19
ATOM     19  C   UNL A   1      33.680  28.472  24.073  1.00  0.00     0.429 C 
ATOM     20  F   UNL A   1      32.996  29.639  24.078  1.00  0.00    -0.167 F 
ATOM     21  F   UNL A   1      34.160  28.293  25.328  1.00  0.00    -0.167 F 
ATOM     22  F   UNL A   1      34.750  28.645  23.258  1.00  0.00    -0.167 F 
ENDBRANCH  10  19
BRANCH  14  23
ATOM     23  S   UNL A   1      32.714  22.770  26.876  1.00  0.00    -0.088 SA
BRANCH  23  24
ATOM     24  C   UNL A   1      32.749  21.573  25.566  1.00  0.00     0.012 A 
ATOM     25  C   UNL A   1      33.210  20.276  25.834  1.00  0.00     0.015 A 
ATOM     26  C   UNL A   1      32.280  21.882  24.284  1.00  0.00     0.015 A 
ATOM     27  C   UNL A   1      33.117  19.280  24.862  1.00  0.00     0.001 A 
ATOM     28  C   UNL A   1      32.195  20.882  23.309  1.00  0.00     0.001 A 
ATOM     29  C   UNL A   1      32.597  19.579  23.604  1.00  0.00     0.000 A 
ENDBRANCH  23  24
ENDBRANCH  14  23
ENDBRANCH   6   8
ENDBRANCH   3   4
ENDBRANCH   2   3
ENDBRANCH   1   2
BRANCH   1  30
ATOM     30  C   UNL A   1      37.330  21.165  25.633  1.00  0.00     0.116 C 
BRANCH  30  31
ATOM     31  N   UNL A   1      38.493  20.286  25.664  1.00  0.00    -0.352 N 
ATOM     32  C   UNL A   1      39.751  20.535  26.170  1.00  0.00     0.251 C 
ATOM     33  H   UNL A   1      38.361  19.394  25.269  1.00  0.00     0.163 HD
ATOM     34  O   UNL A   1      40.632  19.684  26.073  1.00  0.00    -0.269 OA
BRANCH  32  35
ATOM     35  C   UNL A   1      40.050  21.854  26.776  1.00  0.00     0.039 A 
ATOM     36  C   UNL A   1      41.009  21.926  27.791  1.00  0.00     0.014 A 
ATOM     37  C   UNL A   1      39.453  23.019  26.291  1.00  0.00     0.014 A 
ATOM     38  C   UNL A   1      41.457  23.174  28.233  1.00  0.00     0.010 A 
ATOM     39  C   UNL A   1      39.947  24.263  26.685  1.00  0.00     0.010 A 
ATOM     40  C   UNL A   1      40.975  24.353  27.637  1.00  0.00    -0.014 A 
BRANCH  40  41
ATOM     41  C   UNL A   1      41.597  25.674  27.920  1.00  0.00     0.031 A 
ATOM     42  C   UNL A   1      40.824  26.756  28.621  1.00  0.00     0.074 A 
ATOM     43  C   UNL A   1      42.825  25.940  27.429  1.00  0.00     0.049 A 
ATOM     44  N   UNL A   1      41.184  27.988  28.878  1.00  0.00    -0.248 NA
ATOM     45  C   UNL A   1      39.462  26.422  29.066  1.00  0.00     0.031 C 
ATOM     46  C   UNL A   1      43.643  25.010  26.646  1.00  0.00     0.029 A 
ATOM     47  N   UNL A   1      43.588  27.081  27.489  1.00  0.00    -0.354 N 
ATOM     48  C   UNL A   1      40.085  28.587  29.478  1.00  0.00     0.074 A 
ATOM     49  C   UNL A   1      39.037  27.590  29.529  1.00  0.00     0.031 C 
ATOM     50  C   UNL A   1      44.791  25.615  26.301  1.00  0.00     0.029 A 
ATOM     51  C   UNL A   1      44.786  26.980  26.817  1.00  0.00     0.049 A 
ATOM     52  H   UNL A   1      43.306  27.894  27.966  1.00  0.00     0.167 HD
ATOM     53  C   UNL A   1      39.967  29.843  29.972  1.00  0.00     0.034 A 
ATOM     54  C   UNL A   1      45.772  27.882  26.638  1.00  0.00     0.034 A 
ATOM     55  C   UNL A   1      41.026  30.816  29.979  1.00  0.00     0.049 A 
ATOM     56  C   UNL A   1      45.645  29.244  27.262  1.00  0.00     0.074 A 
ATOM     57  C   UNL A   1      41.032  32.078  30.546  1.00  0.00     0.029 A 
ATOM     58  N   UNL A   1      42.269  30.636  29.394  1.00  0.00    -0.354 N 
ATOM     59  N   UNL A   1      44.664  29.731  27.982  1.00  0.00    -0.248 NA
ATOM     60  C   UNL A   1      46.774  30.168  27.082  1.00  0.00     0.031 C 
ATOM     61  C   UNL A   1      42.281  32.660  30.308  1.00  0.00     0.029 A 
ATOM     62  C   UNL A   1      43.052  31.762  29.588  1.00  0.00     0.049 A 
ATOM     63  H   UNL A   1      42.554  29.827  28.911  1.00  0.00     0.167 HD
ATOM     64  C   UNL A   1      45.069  31.003  28.368  1.00  0.00     0.074 A 
ATOM     65  C   UNL A   1      46.393  31.206  27.817  1.00  0.00     0.031 C 
ATOM     66  C   UNL A   1      44.394  31.928  29.093  1.00  0.00     0.034 A 
BRANCH  53  67
ATOM     67  C   UNL A   1      38.662  30.212  30.623  1.00  0.00     0.023 A 
ATOM     68  C   UNL A   1      38.441  29.841  31.965  1.00  0.00     0.012 A 
ATOM     69  C   UNL A   1      37.684  30.959  29.941  1.00  0.00     0.148 A 
ATOM     70  C   UNL A   1      37.255  30.185  32.611  1.00  0.00     0.002 A 
ATOM     71  C   UNL A   1      36.517  31.327  30.602  1.00  0.00     0.091 A 
ATOM     72  F   UNL A   1      37.898  31.278  28.656  1.00  0.00    -0.205 F 
ATOM     73  C   UNL A   1      36.298  30.936  31.933  1.00  0.00     0.022 A 
BRANCH  71  74
ATOM     74  S   UNL A   1      35.261  32.348  29.821  1.00  0.00     0.127 S 
ATOM     75  O   UNL A   1      34.354  32.606  30.937  1.00  0.00    -0.237 OA
ATOM     76  O   UNL A   1      36.029  33.513  29.379  1.00  0.00    -0.237 OA
ATOM     77  O   UNL A   1      34.721  31.541  28.736  1.00  0.00    -0.744 OA
ENDBRANCH  71  74
ENDBRANCH  53  67
BRANCH  54  78
ATOM     78  C   UNL A   1      47.011  27.486  25.913  1.00  0.00     0.023 A 
ATOM     79  C   UNL A   1      48.001  26.760  26.602  1.00  0.00     0.012 A 
ATOM     80  C   UNL A   1      47.195  27.773  24.547  1.00  0.00     0.148 A 
ATOM     81  C   UNL A   1      49.163  26.346  25.951  1.00  0.00     0.002 A 
ATOM     82  C   UNL A   1      48.334  27.315  23.892  1.00  0.00     0.091 A 
ATOM     83  F   UNL A   1      46.252  28.482  23.911  1.00  0.00    -0.205 F 
ATOM     84  C   UNL A   1      49.324  26.612  24.594  1.00  0.00     0.022 A 
BRANCH  82  85
ATOM     85  S   UNL A   1      48.546  27.505  22.118  1.00  0.00     0.127 S 
ATOM     86  O   UNL A   1      49.755  28.319  22.043  1.00  0.00    -0.237 OA
ATOM     87  O   UNL A   1      48.707  26.120  21.672  1.00  0.00    -0.237 OA
ATOM     88  O   UNL A   1      47.317  28.136  21.654  1.00  0.00    -0.744 OA
ENDBRANCH  82  85
ENDBRANCH  54  78
BRANCH  66  89
ATOM     89  C   UNL A   1      45.076  33.242  29.358  1.00  0.00     0.023 A 
ATOM     90  C   UNL A   1      45.885  33.381  30.502  1.00  0.00     0.012 A 
ATOM     91  C   UNL A   1      44.987  34.305  28.439  1.00  0.00     0.148 A 
ATOM     92  C   UNL A   1      46.581  34.566  30.737  1.00  0.00     0.002 A 
ATOM     93  C   UNL A   1      45.712  35.470  28.662  1.00  0.00     0.091 A 
ATOM     94  F   UNL A   1      44.192  34.163  27.368  1.00  0.00    -0.205 F 
ATOM     95  C   UNL A   1      46.504  35.605  29.812  1.00  0.00     0.022 A 
BRANCH  93  96
ATOM     96  S   UNL A   1      45.729  36.817  27.472  1.00  0.00     0.127 S 
ATOM     97  O   UNL A   1      46.329  36.177  26.303  1.00  0.00    -0.237 OA
ATOM     98  O   UNL A   1      44.306  37.134  27.328  1.00  0.00    -0.237 OA
ATOM     99  O   UNL A   1      46.517  37.875  28.091  1.00  0.00    -0.744 OA
ENDBRANCH  93  96
ENDBRANCH  66  89
ENDBRANCH  40  41
ENDBRANCH  32  35
ENDBRANCH  30  31
ENDBRANCH   1  30
TORSDOF 17
ENDMDL
MODEL 3
REMARK VINA RESULT:     -13.3      5.113      8.232
REMARK SMILES O=C(NCCCCNC(=O)c1ccc(-c2c3nc(c(-c4cccc(S(=O)(=O)[O-])c4F)c4ccc([nH]4)c(-c4cccc(S(=O)(=O)[O-])c4F)c4nc(c(-c5cccc(S(=O)(=O)[O-])c5F)c5ccc2[nH]5)C=C4)C=C3)cc1)C1=Cc2c(ccc(Cl)c2Sc2ccccc2)O[C@H]1C(F)(F)F
REMARK SMILES IDX 6 1 5 2 4 3 3 4 1 5 2 6 74 8 75 9 91 10 76 11 90 12 77 13
REMARK SMILES IDX 82 14 78 15 80 16 79 17 81 18 92 19 93 20 94 21 95 22 83 23
REMARK SMILES IDX 84 24 85 25 89 26 86 27 88 28 87 29 7 30 8 31 9 32 10 34
REMARK SMILES IDX 11 35 12 36 73 37 13 38 72 39 14 40 15 41 16 42 66 43 17 44
REMARK SMILES IDX 71 45 65 46 67 47 18 48 70 49 64 50 63 51 19 53 51 54 31 55
REMARK SMILES IDX 50 56 32 57 35 58 49 59 68 60 33 61 34 62 48 64 69 65 36 66
REMARK SMILES IDX 20 67 21 68 29 69 22 70 24 71 30 72 23 73 25 74 26 75 27 76
REMARK SMILES IDX 28 77 52 78 53 79 61 80 54 81 56 82 62 83 55 84 57 85 58 86
REMARK SMILES IDX 59 87 60 88 37 89 38 90 46 91 39 92 41 93 47 94 40 95 42 96
REMARK SMILES IDX 43 97 44 98 45 99
REMARK H PARENT 3 7 8 33 67 52 35 63
REMARK Flexibility Score: inf
ROOT
ATOM      1  C   UNL A   1      36.784  21.621  23.871  1.00  0.00     0.023 C 
ENDROOT
BRANCH   1   2
ATOM      2  C   UNL A   1      36.594  23.083  23.472  1.00  0.00     0.023 C 
BRANCH   2   3
ATOM      3  C   UNL A   1      35.169  23.607  23.631  1.00  0.00     0.116 C 
BRANCH   3   4
ATOM      4  N   UNL A   1      34.163  22.696  23.109  1.00  0.00    -0.352 N 
ATOM      5  O   UNL A   1      32.154  21.686  22.937  1.00  0.00    -0.270 OA
ATOM      6  C   UNL A   1      32.844  22.559  23.441  1.00  0.00     0.251 C 
ATOM      7  H   UNL A   1      34.480  22.082  22.407  1.00  0.00     0.163 HD
BRANCH   6   8
ATOM      8  C   UNL A   1      32.253  23.444  24.465  1.00  0.00     0.067 C 
ATOM      9  C   UNL A   1      31.577  24.536  24.090  1.00  0.00     0.026 C 
ATOM     10  C   UNL A   1      32.730  23.292  25.869  1.00  0.00     0.314 C 
ATOM     11  C   UNL A   1      32.226  25.792  24.533  1.00  0.00     0.033 A 
ATOM     12  O   UNL A   1      33.195  24.553  26.437  1.00  0.00    -0.475 OA
ATOM     13  C   UNL A   1      33.040  25.698  25.690  1.00  0.00     0.129 A 
ATOM     14  C   UNL A   1      32.186  26.981  23.757  1.00  0.00     0.042 A 
ATOM     15  C   UNL A   1      33.831  26.771  26.082  1.00  0.00     0.049 A 
ATOM     16  C   UNL A   1      33.035  28.038  24.170  1.00  0.00     0.055 A 
ATOM     17  C   UNL A   1      33.845  27.928  25.312  1.00  0.00     0.025 A 
ATOM     18  Cl  UNL A   1      33.197  29.524  23.285  1.00  0.00    -0.083 Cl
BRANCH  10  19
ATOM     19  C   UNL A   1      31.641  22.683  26.765  1.00  0.00     0.429 C 
ATOM     20  F   UNL A   1      32.146  22.083  27.867  1.00  0.00    -0.167 F 
ATOM     21  F   UNL A   1      30.778  23.634  27.197  1.00  0.00    -0.167 F 
ATOM     22  F   UNL A   1      30.909  21.749  26.107  1.00  0.00    -0.167 F 
ENDBRANCH  10  19
BRANCH  14  23
ATOM     23  S   UNL A   1      31.260  27.199  22.208  1.00  0.00    -0.088 SA
BRANCH  23  24
ATOM     24  C   UNL A   1      29.876  28.258  22.547  1.00  0.00     0.012 A 
ATOM     25  C   UNL A   1      29.928  29.601  22.147  1.00  0.00     0.015 A 
ATOM     26  C   UNL A   1      28.717  27.769  23.161  1.00  0.00     0.015 A 
ATOM     27  C   UNL A   1      28.803  30.418  22.275  1.00  0.00     0.001 A 
ATOM     28  C   UNL A   1      27.594  28.592  23.294  1.00  0.00     0.001 A 
ATOM     29  C   UNL A   1      27.633  29.909  22.836  1.00  0.00     0.000 A 
ENDBRANCH  23  24
ENDBRANCH  14  23
ENDBRANCH   6   8
ENDBRANCH   3   4
ENDBRANCH   2   3
ENDBRANCH   1   2
BRANCH   1  30
ATOM     30  C   UNL A   1      37.200  21.355  25.319  1.00  0.00     0.116 C 
BRANCH  30  31
ATOM     31  N   UNL A   1      38.292  20.401  25.470  1.00  0.00    -0.352 N 
ATOM     32  C   UNL A   1      39.511  20.573  26.091  1.00  0.00     0.251 C 
ATOM     33  H   UNL A   1      38.138  19.513  25.074  1.00  0.00     0.163 HD
ATOM     34  O   UNL A   1      40.337  19.664  26.087  1.00  0.00    -0.269 OA
BRANCH  32  35
ATOM     35  C   UNL A   1      39.841  21.879  26.709  1.00  0.00     0.039 A 
ATOM     36  C   UNL A   1      40.790  21.918  27.735  1.00  0.00     0.014 A 
ATOM     37  C   UNL A   1      39.282  23.064  26.225  1.00  0.00     0.014 A 
ATOM     38  C   UNL A   1      41.268  23.150  28.190  1.00  0.00     0.010 A 
ATOM     39  C   UNL A   1      39.807  24.290  26.633  1.00  0.00     0.010 A 
ATOM     40  C   UNL A   1      40.826  24.345  27.597  1.00  0.00    -0.014 A 
BRANCH  40  41
ATOM     41  C   UNL A   1      41.482  25.646  27.896  1.00  0.00     0.031 A 
ATOM     42  C   UNL A   1      40.737  26.741  28.605  1.00  0.00     0.074 A 
ATOM     43  C   UNL A   1      42.719  25.885  27.411  1.00  0.00     0.049 A 
ATOM     44  N   UNL A   1      41.128  27.960  28.876  1.00  0.00    -0.248 NA
ATOM     45  C   UNL A   1      39.365  26.439  29.044  1.00  0.00     0.031 C 
ATOM     46  C   UNL A   1      43.514  24.942  26.620  1.00  0.00     0.029 A 
ATOM     47  N   UNL A   1      43.512  27.004  27.484  1.00  0.00    -0.354 N 
ATOM     48  C   UNL A   1      40.044  28.582  29.480  1.00  0.00     0.074 A 
ATOM     49  C   UNL A   1      38.969  27.613  29.517  1.00  0.00     0.031 C 
ATOM     50  C   UNL A   1      44.679  25.520  26.284  1.00  0.00     0.029 A 
ATOM     51  C   UNL A   1      44.708  26.879  26.815  1.00  0.00     0.049 A 
ATOM     52  H   UNL A   1      43.250  27.819  27.969  1.00  0.00     0.167 HD
ATOM     53  C   UNL A   1      39.958  29.836  29.986  1.00  0.00     0.034 A 
ATOM     54  C   UNL A   1      45.718  27.756  26.648  1.00  0.00     0.034 A 
ATOM     55  C   UNL A   1      41.043  30.780  30.007  1.00  0.00     0.049 A 
ATOM     56  C   UNL A   1      45.626  29.114  27.286  1.00  0.00     0.074 A 
ATOM     57  C   UNL A   1      41.080  32.035  30.588  1.00  0.00     0.029 A 
ATOM     58  N   UNL A   1      42.282  30.573  29.424  1.00  0.00    -0.354 N 
ATOM     59  N   UNL A   1      44.656  29.619  28.009  1.00  0.00    -0.248 NA
ATOM     60  C   UNL A   1      46.780  30.010  27.119  1.00  0.00     0.031 C 
ATOM     61  C   UNL A   1      42.345  32.586  30.359  1.00  0.00     0.029 A 
ATOM     62  C   UNL A   1      43.094  31.675  29.631  1.00  0.00     0.049 A 
ATOM     63  H   UNL A   1      42.547  29.762  28.933  1.00  0.00     0.167 HD
ATOM     64  C   UNL A   1      45.094  30.876  28.408  1.00  0.00     0.074 A 
ATOM     65  C   UNL A   1      46.424  31.049  27.864  1.00  0.00     0.031 C 
ATOM     66  C   UNL A   1      44.442  31.811  29.142  1.00  0.00     0.034 A 
BRANCH  53  67
ATOM     67  C   UNL A   1      38.661  30.232  30.638  1.00  0.00     0.023 A 
ATOM     68  C   UNL A   1      38.446  29.894  31.990  1.00  0.00     0.012 A 
ATOM     69  C   UNL A   1      37.686  30.974  29.946  1.00  0.00     0.148 A 
ATOM     70  C   UNL A   1      37.268  30.265  32.635  1.00  0.00     0.002 A 
ATOM     71  C   UNL A   1      36.527  31.369  30.606  1.00  0.00     0.091 A 
ATOM     72  F   UNL A   1      37.895  31.262  28.653  1.00  0.00    -0.205 F 
ATOM     73  C   UNL A   1      36.313  31.010  31.947  1.00  0.00     0.022 A 
BRANCH  71  74
ATOM     74  S   UNL A   1      35.276  32.385  29.811  1.00  0.00     0.127 S 
ATOM     75  O   UNL A   1      34.360  32.646  30.919  1.00  0.00    -0.237 OA
ATOM     76  O   UNL A   1      36.047  33.550  29.371  1.00  0.00    -0.237 OA
ATOM     77  O   UNL A   1      34.747  31.573  28.725  1.00  0.00    -0.744 OA
ENDBRANCH  71  74
ENDBRANCH  53  67
BRANCH  54  78
ATOM     78  C   UNL A   1      46.948  27.334  25.922  1.00  0.00     0.023 A 
ATOM     79  C   UNL A   1      47.066  27.630  24.551  1.00  0.00     0.012 A 
ATOM     80  C   UNL A   1      48.016  26.695  26.581  1.00  0.00     0.148 A 
ATOM     81  C   UNL A   1      48.214  27.276  23.842  1.00  0.00     0.002 A 
ATOM     82  C   UNL A   1      49.178  26.389  25.879  1.00  0.00     0.091 A 
ATOM     83  F   UNL A   1      47.880  26.404  27.883  1.00  0.00    -0.205 F 
ATOM     84  C   UNL A   1      49.275  26.668  24.507  1.00  0.00     0.022 A 
BRANCH  82  85
ATOM     85  S   UNL A   1      50.632  25.727  26.700  1.00  0.00     0.127 S 
ATOM     86  O   UNL A   1      51.553  25.543  25.583  1.00  0.00    -0.237 OA
ATOM     87  O   UNL A   1      50.989  26.807  27.623  1.00  0.00    -0.237 OA
ATOM     88  O   UNL A   1      50.174  24.512  27.363  1.00  0.00    -0.744 OA
ENDBRANCH  82  85
ENDBRANCH  54  78
BRANCH  66  89
ATOM     89  C   UNL A   1      45.157  33.103  29.422  1.00  0.00     0.023 A 
ATOM     90  C   UNL A   1      45.982  33.202  30.559  1.00  0.00     0.012 A 
ATOM     91  C   UNL A   1      45.083  34.185  28.524  1.00  0.00     0.148 A 
ATOM     92  C   UNL A   1      46.709  34.366  30.808  1.00  0.00     0.002 A 
ATOM     93  C   UNL A   1      45.838  35.328  28.759  1.00  0.00     0.091 A 
ATOM     94  F   UNL A   1      44.273  34.082  27.460  1.00  0.00    -0.205 F 
ATOM     95  C   UNL A   1      46.647  35.423  29.903  1.00  0.00     0.022 A 
BRANCH  93  96
ATOM     96  S   UNL A   1      45.873  36.696  27.594  1.00  0.00     0.127 S 
ATOM     97  O   UNL A   1      44.576  37.327  27.833  1.00  0.00    -0.237 OA
ATOM     98  O   UNL A   1      47.024  37.477  28.052  1.00  0.00    -0.237 OA
ATOM     99  O   UNL A   1      46.050  36.086  26.282  1.00  0.00    -0.744 OA
ENDBRANCH  93  96
ENDBRANCH  66  89
ENDBRANCH  40  41
ENDBRANCH  32  35
ENDBRANCH  30  31
ENDBRANCH   1  30
TORSDOF 17
ENDMDL
