MODEL 1
REMARK VINA RESULT:     -12.3      0.000      0.000
REMARK SMILES C[C@@H](C(=O)NCCCCNC(=O)c1ccc(-c2c3nc(c(-c4cccc(S(=O)(=O)[O-])c4F)c4ccc([nH]4)c(-c4cccc(S(=O)(=O)[O-])c4F)c4nc(c(-c5cccc(S(=O)(=O)[O-])c5F)c5ccc2[nH]5)C=C4)C=C3)cc1)c1ccc(C[C@H]2CCCC2=O)cc1-c1ccc(F)cc1
REMARK SMILES IDX 7 1 6 2 5 3 3 4 4 5 2 7 1 8 76 9 77 10 88 11 78 12 87 13
REMARK SMILES IDX 79 14 89 15 90 16 95 17 91 18 94 19 92 20 93 21 80 22 81 23
REMARK SMILES IDX 82 24 85 25 83 26 84 27 86 28 8 29 9 30 10 31 11 32 12 34
REMARK SMILES IDX 13 35 14 36 75 37 15 38 74 39 16 40 17 41 18 42 68 43 19 44
REMARK SMILES IDX 73 45 67 46 69 47 20 48 72 49 66 50 65 51 21 53 53 54 33 55
REMARK SMILES IDX 52 56 34 57 37 58 51 59 70 60 35 61 36 62 50 64 71 65 38 66
REMARK SMILES IDX 22 67 23 68 31 69 24 70 26 71 32 72 25 73 27 74 28 75 29 76
REMARK SMILES IDX 30 77 54 78 55 79 63 80 56 81 58 82 64 83 57 84 59 85 60 86
REMARK SMILES IDX 61 87 62 88 39 89 40 90 48 91 41 92 43 93 49 94 42 95 44 96
REMARK SMILES IDX 45 97 46 98 47 99
REMARK H PARENT 5 6 10 33 69 52 37 63
REMARK Flexibility Score: inf
ROOT
ATOM      1  C   UNL A   1      34.173  31.543  27.707  1.00  0.00     0.023 C 
ENDROOT
BRANCH   1   2
ATOM      2  C   UNL A   1      33.943  30.053  27.449  1.00  0.00     0.116 C 
BRANCH   2   3
ATOM      3  N   UNL A   1      33.987  29.728  26.040  1.00  0.00    -0.356 N 
ATOM      4  C   UNL A   1      33.042  29.200  25.216  1.00  0.00     0.227 C 
ATOM      5  O   UNL A   1      33.229  29.391  24.010  1.00  0.00    -0.274 OA
ATOM      6  H   UNL A   1      34.848  29.923  25.604  1.00  0.00     0.163 HD
BRANCH   4   7
ATOM      7  C   UNL A   1      31.742  28.576  25.754  1.00  0.00     0.106 C 
ATOM      8  C   UNL A   1      31.482  28.535  27.265  1.00  0.00     0.023 C 
BRANCH   7   9
ATOM      9  C   UNL A   1      31.438  27.175  25.203  1.00  0.00    -0.028 A 
ATOM     10  C   UNL A   1      32.016  26.093  25.900  1.00  0.00     0.005 A 
ATOM     11  C   UNL A   1      30.682  26.913  24.029  1.00  0.00    -0.014 A 
ATOM     12  C   UNL A   1      31.876  24.782  25.452  1.00  0.00     0.004 A 
ATOM     13  C   UNL A   1      30.597  25.577  23.575  1.00  0.00     0.012 A 
ATOM     14  C   UNL A   1      31.197  24.513  24.263  1.00  0.00    -0.047 A 
BRANCH  11  15
ATOM     15  C   UNL A   1      29.897  27.933  23.297  1.00  0.00    -0.018 A 
ATOM     16  C   UNL A   1      28.496  27.961  23.455  1.00  0.00     0.012 A 
ATOM     17  C   UNL A   1      30.479  28.889  22.450  1.00  0.00     0.012 A 
ATOM     18  C   UNL A   1      27.714  28.939  22.838  1.00  0.00     0.040 A 
ATOM     19  C   UNL A   1      29.699  29.880  21.843  1.00  0.00     0.040 A 
ATOM     20  C   UNL A   1      28.325  29.898  22.048  1.00  0.00     0.123 A 
ATOM     21  F   UNL A   1      27.584  30.849  21.470  1.00  0.00    -0.207 F 
ENDBRANCH  11  15
BRANCH  14  22
ATOM     22  C   UNL A   1      31.105  23.101  23.737  1.00  0.00     0.047 C 
BRANCH  22  23
ATOM     23  C   UNL A   1      32.311  22.594  22.937  1.00  0.00     0.060 C 
ATOM     24  C   UNL A   1      33.152  23.659  22.228  1.00  0.00     0.012 C 
ATOM     25  C   UNL A   1      33.344  21.906  23.801  1.00  0.00     0.136 C 
ATOM     26  C   UNL A   1      34.329  23.956  23.148  1.00  0.00     0.009 C 
ATOM     27  C   UNL A   1      34.665  22.630  23.815  1.00  0.00     0.076 C 
ATOM     28  O   UNL A   1      33.142  20.859  24.407  1.00  0.00    -0.299 OA
ENDBRANCH  22  23
ENDBRANCH  14  22
ENDBRANCH   7   9
ENDBRANCH   4   7
ENDBRANCH   2   3
ENDBRANCH   1   2
BRANCH   1  29
ATOM     29  C   UNL A   1      32.913  32.411  27.673  1.00  0.00     0.023 C 
BRANCH  29  30
ATOM     30  C   UNL A   1      33.128  33.872  27.297  1.00  0.00     0.116 C 
BRANCH  30  31
ATOM     31  N   UNL A   1      32.749  34.798  28.356  1.00  0.00    -0.352 N 
ATOM     32  C   UNL A   1      33.288  34.942  29.612  1.00  0.00     0.251 C 
ATOM     33  H   UNL A   1      32.003  35.403  28.142  1.00  0.00     0.163 HD
ATOM     34  O   UNL A   1      32.771  35.710  30.420  1.00  0.00    -0.269 OA
BRANCH  32  35
ATOM     35  C   UNL A   1      34.467  34.139  29.995  1.00  0.00     0.039 A 
ATOM     36  C   UNL A   1      35.715  34.483  29.468  1.00  0.00     0.014 A 
ATOM     37  C   UNL A   1      34.349  33.090  30.910  1.00  0.00     0.014 A 
ATOM     38  C   UNL A   1      36.862  33.835  29.933  1.00  0.00     0.010 A 
ATOM     39  C   UNL A   1      35.498  32.483  31.412  1.00  0.00     0.010 A 
ATOM     40  C   UNL A   1      36.765  32.865  30.944  1.00  0.00    -0.014 A 
BRANCH  40  41
ATOM     41  C   UNL A   1      37.977  32.300  31.590  1.00  0.00     0.031 A 
ATOM     42  C   UNL A   1      38.727  31.164  30.953  1.00  0.00     0.074 A 
ATOM     43  C   UNL A   1      38.323  32.732  32.821  1.00  0.00     0.049 A 
ATOM     44  N   UNL A   1      39.746  30.491  31.418  1.00  0.00    -0.248 NA
ATOM     45  C   UNL A   1      38.259  30.711  29.633  1.00  0.00     0.031 C 
ATOM     46  C   UNL A   1      37.617  33.766  33.583  1.00  0.00     0.029 A 
ATOM     47  N   UNL A   1      39.325  32.326  33.667  1.00  0.00    -0.354 N 
ATOM     48  C   UNL A   1      40.019  29.511  30.472  1.00  0.00     0.074 A 
ATOM     49  C   UNL A   1      39.049  29.668  29.409  1.00  0.00     0.031 C 
ATOM     50  C   UNL A   1      38.197  33.900  34.786  1.00  0.00     0.029 A 
ATOM     51  C   UNL A   1      39.295  32.945  34.896  1.00  0.00     0.049 A 
ATOM     52  H   UNL A   1      40.003  31.656  33.418  1.00  0.00     0.167 HD
ATOM     53  C   UNL A   1      41.003  28.581  30.478  1.00  0.00     0.034 A 
ATOM     54  C   UNL A   1      40.050  32.751  35.995  1.00  0.00     0.034 A 
ATOM     55  C   UNL A   1      41.997  28.462  31.510  1.00  0.00     0.049 A 
ATOM     56  C   UNL A   1      41.156  31.733  35.955  1.00  0.00     0.074 A 
ATOM     57  C   UNL A   1      43.111  27.642  31.537  1.00  0.00     0.029 A 
ATOM     58  N   UNL A   1      41.992  29.168  32.701  1.00  0.00    -0.354 N 
ATOM     59  N   UNL A   1      41.528  30.960  34.964  1.00  0.00    -0.248 NA
ATOM     60  C   UNL A   1      41.966  31.580  37.173  1.00  0.00     0.031 C 
ATOM     61  C   UNL A   1      43.768  27.834  32.757  1.00  0.00     0.029 A 
ATOM     62  C   UNL A   1      43.068  28.784  33.482  1.00  0.00     0.049 A 
ATOM     63  H   UNL A   1      41.322  29.844  32.955  1.00  0.00     0.167 HD
ATOM     64  C   UNL A   1      42.625  30.246  35.431  1.00  0.00     0.074 A 
ATOM     65  C   UNL A   1      42.880  30.702  36.781  1.00  0.00     0.031 C 
ATOM     66  C   UNL A   1      43.343  29.281  34.805  1.00  0.00     0.034 A 
BRANCH  53  67
ATOM     67  C   UNL A   1      41.102  27.646  29.304  1.00  0.00     0.023 A 
ATOM     68  C   UNL A   1      40.350  26.455  29.305  1.00  0.00     0.012 A 
ATOM     69  C   UNL A   1      41.847  27.996  28.160  1.00  0.00     0.148 A 
ATOM     70  C   UNL A   1      40.349  25.615  28.192  1.00  0.00     0.002 A 
ATOM     71  C   UNL A   1      41.812  27.173  27.040  1.00  0.00     0.091 A 
ATOM     72  F   UNL A   1      42.568  29.125  28.189  1.00  0.00    -0.205 F 
ATOM     73  C   UNL A   1      41.069  25.981  27.057  1.00  0.00     0.022 A 
BRANCH  71  74
ATOM     74  S   UNL A   1      42.645  27.586  25.503  1.00  0.00     0.127 S 
ATOM     75  O   UNL A   1      44.038  27.672  25.938  1.00  0.00    -0.237 OA
ATOM     76  O   UNL A   1      42.339  26.425  24.667  1.00  0.00    -0.237 OA
ATOM     77  O   UNL A   1      42.057  28.837  25.049  1.00  0.00    -0.744 OA
ENDBRANCH  71  74
ENDBRANCH  53  67
BRANCH  54  78
ATOM     78  C   UNL A   1      39.815  33.570  37.219  1.00  0.00     0.023 A 
ATOM     79  C   UNL A   1      40.389  34.852  37.314  1.00  0.00     0.012 A 
ATOM     80  C   UNL A   1      39.019  33.095  38.279  1.00  0.00     0.148 A 
ATOM     81  C   UNL A   1      40.204  35.631  38.458  1.00  0.00     0.002 A 
ATOM     82  C   UNL A   1      38.794  33.899  39.390  1.00  0.00     0.091 A 
ATOM     83  F   UNL A   1      38.497  31.862  38.184  1.00  0.00    -0.205 F 
ATOM     84  C   UNL A   1      39.399  35.160  39.490  1.00  0.00     0.022 A 
BRANCH  82  85
ATOM     85  S   UNL A   1      37.655  33.414  40.693  1.00  0.00     0.127 S 
ATOM     86  O   UNL A   1      37.544  34.645  41.470  1.00  0.00    -0.237 OA
ATOM     87  O   UNL A   1      36.454  33.053  39.937  1.00  0.00    -0.237 OA
ATOM     88  O   UNL A   1      38.297  32.288  41.358  1.00  0.00    -0.744 OA
ENDBRANCH  82  85
ENDBRANCH  54  78
BRANCH  66  89
ATOM     89  C   UNL A   1      44.480  28.652  35.566  1.00  0.00     0.023 A 
ATOM     90  C   UNL A   1      45.782  29.169  35.413  1.00  0.00     0.012 A 
ATOM     91  C   UNL A   1      44.251  27.611  36.486  1.00  0.00     0.148 A 
ATOM     92  C   UNL A   1      46.845  28.640  36.144  1.00  0.00     0.002 A 
ATOM     93  C   UNL A   1      45.308  27.120  37.245  1.00  0.00     0.091 A 
ATOM     94  F   UNL A   1      43.008  27.123  36.604  1.00  0.00    -0.205 F 
ATOM     95  C   UNL A   1      46.605  27.626  37.067  1.00  0.00     0.022 A 
BRANCH  93  96
ATOM     96  S   UNL A   1      45.080  25.877  38.522  1.00  0.00     0.127 S 
ATOM     97  O   UNL A   1      46.439  25.727  39.039  1.00  0.00    -0.237 OA
ATOM     98  O   UNL A   1      44.148  26.538  39.438  1.00  0.00    -0.237 OA
ATOM     99  O   UNL A   1      44.535  24.706  37.849  1.00  0.00    -0.744 OA
ENDBRANCH  93  96
ENDBRANCH  66  89
ENDBRANCH  40  41
ENDBRANCH  32  35
ENDBRANCH  30  31
ENDBRANCH  29  30
ENDBRANCH   1  29
TORSDOF 18
ENDMDL
MODEL 2
REMARK VINA RESULT:     -11.7      1.855      7.354
REMARK SMILES C[C@@H](C(=O)NCCCCNC(=O)c1ccc(-c2c3nc(c(-c4cccc(S(=O)(=O)[O-])c4F)c4ccc([nH]4)c(-c4cccc(S(=O)(=O)[O-])c4F)c4nc(c(-c5cccc(S(=O)(=O)[O-])c5F)c5ccc2[nH]5)C=C4)C=C3)cc1)c1ccc(C[C@H]2CCCC2=O)cc1-c1ccc(F)cc1
REMARK SMILES IDX 7 1 6 2 5 3 3 4 4 5 2 7 1 8 76 9 77 10 88 11 78 12 87 13
REMARK SMILES IDX 79 14 89 15 90 16 95 17 91 18 94 19 92 20 93 21 80 22 81 23
REMARK SMILES IDX 82 24 85 25 83 26 84 27 86 28 8 29 9 30 10 31 11 32 12 34
REMARK SMILES IDX 13 35 14 36 75 37 15 38 74 39 16 40 17 41 18 42 68 43 19 44
REMARK SMILES IDX 73 45 67 46 69 47 20 48 72 49 66 50 65 51 21 53 53 54 33 55
REMARK SMILES IDX 52 56 34 57 37 58 51 59 70 60 35 61 36 62 50 64 71 65 38 66
REMARK SMILES IDX 22 67 23 68 31 69 24 70 26 71 32 72 25 73 27 74 28 75 29 76
REMARK SMILES IDX 30 77 54 78 55 79 63 80 56 81 58 82 64 83 57 84 59 85 60 86
REMARK SMILES IDX 61 87 62 88 39 89 40 90 48 91 41 92 43 93 49 94 42 95 44 96
REMARK SMILES IDX 45 97 46 98 47 99
REMARK H PARENT 5 6 10 33 69 52 37 63
REMARK Flexibility Score: inf
ROOT
ATOM      1  C   UNL A   1      34.603  30.926  27.960  1.00  0.00     0.023 C 
ENDROOT
BRANCH   1   2
ATOM      2  C   UNL A   1      34.306  29.504  27.482  1.00  0.00     0.116 C 
BRANCH   2   3
ATOM      3  N   UNL A   1      34.229  29.417  26.040  1.00  0.00    -0.356 N 
ATOM      4  C   UNL A   1      33.184  29.125  25.218  1.00  0.00     0.227 C 
ATOM      5  O   UNL A   1      33.314  29.497  24.048  1.00  0.00    -0.274 OA
ATOM      6  H   UNL A   1      35.076  29.602  25.575  1.00  0.00     0.163 HD
BRANCH   4   7
ATOM      7  C   UNL A   1      31.862  28.544  25.751  1.00  0.00     0.106 C 
ATOM      8  C   UNL A   1      31.583  28.532  27.258  1.00  0.00     0.023 C 
BRANCH   7   9
ATOM      9  C   UNL A   1      31.527  27.142  25.217  1.00  0.00    -0.028 A 
ATOM     10  C   UNL A   1      32.150  26.061  25.873  1.00  0.00     0.005 A 
ATOM     11  C   UNL A   1      30.700  26.882  24.091  1.00  0.00    -0.014 A 
ATOM     12  C   UNL A   1      31.986  24.751  25.432  1.00  0.00     0.004 A 
ATOM     13  C   UNL A   1      30.590  25.546  23.641  1.00  0.00     0.012 A 
ATOM     14  C   UNL A   1      31.235  24.482  24.288  1.00  0.00    -0.047 A 
BRANCH  11  15
ATOM     15  C   UNL A   1      29.868  27.901  23.412  1.00  0.00    -0.018 A 
ATOM     16  C   UNL A   1      30.498  28.866  22.598  1.00  0.00     0.012 A 
ATOM     17  C   UNL A   1      28.471  27.954  23.528  1.00  0.00     0.012 A 
ATOM     18  C   UNL A   1      29.758  29.811  21.886  1.00  0.00     0.040 A 
ATOM     19  C   UNL A   1      27.726  28.890  22.802  1.00  0.00     0.040 A 
ATOM     20  C   UNL A   1      28.376  29.805  21.985  1.00  0.00     0.123 A 
ATOM     21  F   UNL A   1      27.660  30.695  21.289  1.00  0.00    -0.207 F 
ENDBRANCH  11  15
BRANCH  14  22
ATOM     22  C   UNL A   1      31.113  23.071  23.766  1.00  0.00     0.047 C 
BRANCH  22  23
ATOM     23  C   UNL A   1      32.297  22.545  22.946  1.00  0.00     0.060 C 
ATOM     24  C   UNL A   1      33.139  23.597  22.217  1.00  0.00     0.012 C 
ATOM     25  C   UNL A   1      33.337  21.846  23.793  1.00  0.00     0.136 C 
ATOM     26  C   UNL A   1      34.337  23.881  23.116  1.00  0.00     0.009 C 
ATOM     27  C   UNL A   1      34.667  22.554  23.781  1.00  0.00     0.076 C 
ATOM     28  O   UNL A   1      33.132  20.804  24.406  1.00  0.00    -0.299 OA
ENDBRANCH  22  23
ENDBRANCH  14  22
ENDBRANCH   7   9
ENDBRANCH   4   7
ENDBRANCH   2   3
ENDBRANCH   1   2
BRANCH   1  29
ATOM     29  C   UNL A   1      33.406  31.879  27.949  1.00  0.00     0.023 C 
BRANCH  29  30
ATOM     30  C   UNL A   1      33.658  33.248  27.328  1.00  0.00     0.116 C 
BRANCH  30  31
ATOM     31  N   UNL A   1      33.028  34.336  28.065  1.00  0.00    -0.352 N 
ATOM     32  C   UNL A   1      33.327  34.818  29.316  1.00  0.00     0.251 C 
ATOM     33  H   UNL A   1      32.286  34.787  27.602  1.00  0.00     0.163 HD
ATOM     34  O   UNL A   1      32.617  35.681  29.829  1.00  0.00    -0.269 OA
BRANCH  32  35
ATOM     35  C   UNL A   1      34.480  34.265  30.055  1.00  0.00     0.039 A 
ATOM     36  C   UNL A   1      34.239  33.452  31.166  1.00  0.00     0.014 A 
ATOM     37  C   UNL A   1      35.786  34.502  29.620  1.00  0.00     0.014 A 
ATOM     38  C   UNL A   1      35.306  32.798  31.786  1.00  0.00     0.010 A 
ATOM     39  C   UNL A   1      36.842  33.806  30.205  1.00  0.00     0.010 A 
ATOM     40  C   UNL A   1      36.609  32.932  31.278  1.00  0.00    -0.014 A 
BRANCH  40  41
ATOM     41  C   UNL A   1      37.728  32.103  31.794  1.00  0.00     0.031 A 
ATOM     42  C   UNL A   1      38.328  32.379  33.143  1.00  0.00     0.074 A 
ATOM     43  C   UNL A   1      38.285  31.180  30.983  1.00  0.00     0.049 A 
ATOM     44  N   UNL A   1      39.363  31.818  33.712  1.00  0.00    -0.248 NA
ATOM     45  C   UNL A   1      37.699  33.437  33.951  1.00  0.00     0.031 C 
ATOM     46  C   UNL A   1      37.850  30.884  29.615  1.00  0.00     0.029 A 
ATOM     47  N   UNL A   1      39.366  30.354  31.170  1.00  0.00    -0.354 N 
ATOM     48  C   UNL A   1      39.537  32.477  34.923  1.00  0.00     0.074 A 
ATOM     49  C   UNL A   1      38.506  33.489  35.004  1.00  0.00     0.031 C 
ATOM     50  C   UNL A   1      38.664  29.957  29.083  1.00  0.00     0.029 A 
ATOM     51  C   UNL A   1      39.695  29.615  30.057  1.00  0.00     0.049 A 
ATOM     52  H   UNL A   1      39.859  30.295  32.021  1.00  0.00     0.167 HD
ATOM     53  C   UNL A   1      40.456  32.242  35.888  1.00  0.00     0.034 A 
ATOM     54  C   UNL A   1      40.724  28.772  29.836  1.00  0.00     0.034 A 
ATOM     55  C   UNL A   1      41.444  31.199  35.827  1.00  0.00     0.049 A 
ATOM     56  C   UNL A   1      41.707  28.509  30.943  1.00  0.00     0.074 A 
ATOM     57  C   UNL A   1      42.328  30.797  36.813  1.00  0.00     0.029 A 
ATOM     58  N   UNL A   1      41.692  30.405  34.720  1.00  0.00    -0.354 N 
ATOM     59  N   UNL A   1      41.726  28.993  32.160  1.00  0.00    -0.248 NA
ATOM     60  C   UNL A   1      42.796  27.562  30.656  1.00  0.00     0.031 C 
ATOM     61  C   UNL A   1      43.129  29.775  36.293  1.00  0.00     0.029 A 
ATOM     62  C   UNL A   1      42.733  29.533  34.988  1.00  0.00     0.049 A 
ATOM     63  H   UNL A   1      41.200  30.454  33.868  1.00  0.00     0.167 HD
ATOM     64  C   UNL A   1      42.810  28.395  32.791  1.00  0.00     0.074 A 
ATOM     65  C   UNL A   1      43.405  27.487  31.832  1.00  0.00     0.031 C 
ATOM     66  C   UNL A   1      43.286  28.597  34.044  1.00  0.00     0.034 A 
BRANCH  53  67
ATOM     67  C   UNL A   1      40.408  33.085  37.133  1.00  0.00     0.023 A 
ATOM     68  C   UNL A   1      39.490  32.760  38.151  1.00  0.00     0.012 A 
ATOM     69  C   UNL A   1      41.340  34.121  37.343  1.00  0.00     0.148 A 
ATOM     70  C   UNL A   1      39.487  33.464  39.354  1.00  0.00     0.002 A 
ATOM     71  C   UNL A   1      41.355  34.794  38.559  1.00  0.00     0.091 A 
ATOM     72  F   UNL A   1      42.192  34.423  36.354  1.00  0.00    -0.205 F 
ATOM     73  C   UNL A   1      40.426  34.470  39.562  1.00  0.00     0.022 A 
BRANCH  71  74
ATOM     74  S   UNL A   1      42.569  36.057  38.956  1.00  0.00     0.127 S 
ATOM     75  O   UNL A   1      42.293  37.062  37.930  1.00  0.00    -0.237 OA
ATOM     76  O   UNL A   1      42.174  36.446  40.310  1.00  0.00    -0.237 OA
ATOM     77  O   UNL A   1      43.869  35.412  38.861  1.00  0.00    -0.744 OA
ENDBRANCH  71  74
ENDBRANCH  53  67
BRANCH  54  78
ATOM     78  C   UNL A   1      40.855  28.080  28.522  1.00  0.00     0.023 A 
ATOM     79  C   UNL A   1      41.439  28.762  27.437  1.00  0.00     0.012 A 
ATOM     80  C   UNL A   1      40.420  26.753  28.343  1.00  0.00     0.148 A 
ATOM     81  C   UNL A   1      41.554  28.147  26.189  1.00  0.00     0.002 A 
ATOM     82  C   UNL A   1      40.589  26.128  27.113  1.00  0.00     0.091 A 
ATOM     83  F   UNL A   1      39.845  26.124  29.380  1.00  0.00    -0.205 F 
ATOM     84  C   UNL A   1      41.139  26.828  26.030  1.00  0.00     0.022 A 
BRANCH  82  85
ATOM     85  S   UNL A   1      40.207  24.389  26.875  1.00  0.00     0.127 S 
ATOM     86  O   UNL A   1      38.832  24.445  26.390  1.00  0.00    -0.237 OA
ATOM     87  O   UNL A   1      41.198  23.988  25.873  1.00  0.00    -0.237 OA
ATOM     88  O   UNL A   1      40.405  23.775  28.181  1.00  0.00    -0.744 OA
ENDBRANCH  82  85
ENDBRANCH  54  78
BRANCH  66  89
ATOM     89  C   UNL A   1      44.506  27.821  34.462  1.00  0.00     0.023 A 
ATOM     90  C   UNL A   1      45.783  28.382  34.263  1.00  0.00     0.012 A 
ATOM     91  C   UNL A   1      44.388  26.580  35.117  1.00  0.00     0.148 A 
ATOM     92  C   UNL A   1      46.927  27.708  34.688  1.00  0.00     0.002 A 
ATOM     93  C   UNL A   1      45.531  25.935  35.578  1.00  0.00     0.091 A 
ATOM     94  F   UNL A   1      43.165  26.055  35.280  1.00  0.00    -0.205 F 
ATOM     95  C   UNL A   1      46.800  26.492  35.354  1.00  0.00     0.022 A 
BRANCH  93  96
ATOM     96  S   UNL A   1      45.460  24.410  36.525  1.00  0.00     0.127 S 
ATOM     97  O   UNL A   1      44.889  23.481  35.553  1.00  0.00    -0.237 OA
ATOM     98  O   UNL A   1      46.869  24.173  36.841  1.00  0.00    -0.237 OA
ATOM     99  O   UNL A   1      44.623  24.696  37.682  1.00  0.00    -0.744 OA
ENDBRANCH  93  96
ENDBRANCH  66  89
ENDBRANCH  40  41
ENDBRANCH  32  35
ENDBRANCH  30  31
ENDBRANCH  29  30
ENDBRANCH   1  29
TORSDOF 18
ENDMDL
MODEL 3
REMARK VINA RESULT:     -11.6      5.317      9.000
REMARK SMILES C[C@@H](C(=O)NCCCCNC(=O)c1ccc(-c2c3nc(c(-c4cccc(S(=O)(=O)[O-])c4F)c4ccc([nH]4)c(-c4cccc(S(=O)(=O)[O-])c4F)c4nc(c(-c5cccc(S(=O)(=O)[O-])c5F)c5ccc2[nH]5)C=C4)C=C3)cc1)c1ccc(C[C@H]2CCCC2=O)cc1-c1ccc(F)cc1
REMARK SMILES IDX 7 1 6 2 5 3 3 4 4 5 2 7 1 8 76 9 77 10 88 11 78 12 87 13
REMARK SMILES IDX 79 14 89 15 90 16 95 17 91 18 94 19 92 20 93 21 80 22 81 23
REMARK SMILES IDX 82 24 85 25 83 26 84 27 86 28 8 29 9 30 10 31 11 32 12 34
REMARK SMILES IDX 13 35 14 36 75 37 15 38 74 39 16 40 17 41 18 42 68 43 19 44
REMARK SMILES IDX 73 45 67 46 69 47 20 48 72 49 66 50 65 51 21 53 53 54 33 55
REMARK SMILES IDX 52 56 34 57 37 58 51 59 70 60 35 61 36 62 50 64 71 65 38 66
REMARK SMILES IDX 22 67 23 68 31 69 24 70 26 71 32 72 25 73 27 74 28 75 29 76
REMARK SMILES IDX 30 77 54 78 55 79 63 80 56 81 58 82 64 83 57 84 59 85 60 86
REMARK SMILES IDX 61 87 62 88 39 89 40 90 48 91 41 92 43 93 49 94 42 95 44 96
REMARK SMILES IDX 45 97 46 98 47 99
REMARK H PARENT 5 6 10 33 69 52 37 63
REMARK Flexibility Score: inf
ROOT
ATOM      1  C   UNL A   1      35.634  21.775  24.609  1.00  0.00     0.023 C 
ENDROOT
BRANCH   1   2
ATOM      2  C   UNL A   1      34.631  22.863  24.995  1.00  0.00     0.116 C 
BRANCH   2   3
ATOM      3  N   UNL A   1      34.254  23.685  23.866  1.00  0.00    -0.356 N 
ATOM      4  C   UNL A   1      33.483  24.804  23.795  1.00  0.00     0.227 C 
ATOM      5  O   UNL A   1      33.650  25.495  22.784  1.00  0.00    -0.274 OA
ATOM      6  H   UNL A   1      34.617  23.382  23.003  1.00  0.00     0.163 HD
BRANCH   4   7
ATOM      7  C   UNL A   1      32.609  25.272  24.971  1.00  0.00     0.106 C 
ATOM      8  C   UNL A   1      31.955  24.240  25.897  1.00  0.00     0.023 C 
BRANCH   7   9
ATOM      9  C   UNL A   1      31.523  26.289  24.587  1.00  0.00    -0.028 A 
ATOM     10  C   UNL A   1      30.432  25.785  23.848  1.00  0.00     0.005 A 
ATOM     11  C   UNL A   1      31.581  27.680  24.868  1.00  0.00    -0.014 A 
ATOM     12  C   UNL A   1      29.426  26.622  23.375  1.00  0.00     0.004 A 
ATOM     13  C   UNL A   1      30.567  28.510  24.337  1.00  0.00     0.012 A 
ATOM     14  C   UNL A   1      29.501  28.000  23.582  1.00  0.00    -0.047 A 
BRANCH  11  15
ATOM     15  C   UNL A   1      32.580  28.311  25.760  1.00  0.00    -0.018 A 
ATOM     16  C   UNL A   1      32.214  29.460  26.492  1.00  0.00     0.012 A 
ATOM     17  C   UNL A   1      33.883  27.818  25.925  1.00  0.00     0.012 A 
ATOM     18  C   UNL A   1      33.095  30.059  27.394  1.00  0.00     0.040 A 
ATOM     19  C   UNL A   1      34.762  28.406  26.841  1.00  0.00     0.040 A 
ATOM     20  C   UNL A   1      34.358  29.517  27.570  1.00  0.00     0.123 A 
ATOM     21  F   UNL A   1      35.200  30.074  28.447  1.00  0.00    -0.207 F 
ENDBRANCH  11  15
BRANCH  14  22
ATOM     22  C   UNL A   1      28.449  28.918  23.010  1.00  0.00     0.047 C 
BRANCH  22  23
ATOM     23  C   UNL A   1      28.869  30.376  22.785  1.00  0.00     0.060 C 
ATOM     24  C   UNL A   1      29.503  30.698  21.428  1.00  0.00     0.012 C 
ATOM     25  C   UNL A   1      27.702  31.338  22.819  1.00  0.00     0.136 C 
ATOM     26  C   UNL A   1      28.384  31.251  20.555  1.00  0.00     0.009 C 
ATOM     27  C   UNL A   1      27.481  32.030  21.499  1.00  0.00     0.076 C 
ATOM     28  O   UNL A   1      27.022  31.552  23.816  1.00  0.00    -0.299 OA
ENDBRANCH  22  23
ENDBRANCH  14  22
ENDBRANCH   7   9
ENDBRANCH   4   7
ENDBRANCH   2   3
ENDBRANCH   1   2
BRANCH   1  29
ATOM     29  C   UNL A   1      37.085  22.244  24.483  1.00  0.00     0.023 C 
BRANCH  29  30
ATOM     30  C   UNL A   1      37.800  22.542  25.795  1.00  0.00     0.116 C 
BRANCH  30  31
ATOM     31  N   UNL A   1      39.111  21.913  25.890  1.00  0.00    -0.352 N 
ATOM     32  C   UNL A   1      40.315  22.472  26.244  1.00  0.00     0.251 C 
ATOM     33  H   UNL A   1      39.137  20.954  25.668  1.00  0.00     0.163 HD
ATOM     34  O   UNL A   1      41.348  21.811  26.168  1.00  0.00    -0.269 OA
BRANCH  32  35
ATOM     35  C   UNL A   1      40.363  23.884  26.677  1.00  0.00     0.039 A 
ATOM     36  C   UNL A   1      40.323  24.168  28.045  1.00  0.00     0.014 A 
ATOM     37  C   UNL A   1      40.502  24.913  25.743  1.00  0.00     0.014 A 
ATOM     38  C   UNL A   1      40.519  25.480  28.482  1.00  0.00     0.010 A 
ATOM     39  C   UNL A   1      40.752  26.211  26.183  1.00  0.00     0.010 A 
ATOM     40  C   UNL A   1      40.784  26.502  27.555  1.00  0.00    -0.014 A 
BRANCH  40  41
ATOM     41  C   UNL A   1      41.185  27.862  27.999  1.00  0.00     0.031 A 
ATOM     42  C   UNL A   1      42.634  28.246  28.082  1.00  0.00     0.074 A 
ATOM     43  C   UNL A   1      40.234  28.707  28.450  1.00  0.00     0.049 A 
ATOM     44  N   UNL A   1      43.166  29.352  28.533  1.00  0.00    -0.248 NA
ATOM     45  C   UNL A   1      43.617  27.252  27.621  1.00  0.00     0.031 C 
ATOM     46  C   UNL A   1      38.799  28.414  28.506  1.00  0.00     0.029 A 
ATOM     47  N   UNL A   1      40.334  29.965  28.991  1.00  0.00    -0.354 N 
ATOM     48  C   UNL A   1      44.541  29.177  28.449  1.00  0.00     0.074 A 
ATOM     49  C   UNL A   1      44.765  27.851  27.914  1.00  0.00     0.031 C 
ATOM     50  C   UNL A   1      38.158  29.453  29.064  1.00  0.00     0.029 A 
ATOM     51  C   UNL A   1      39.134  30.473  29.433  1.00  0.00     0.049 A 
ATOM     52  H   UNL A   1      41.184  30.459  29.055  1.00  0.00     0.167 HD
ATOM     53  C   UNL A   1      45.525  30.050  28.765  1.00  0.00     0.034 A 
ATOM     54  C   UNL A   1      38.852  31.620  30.082  1.00  0.00     0.034 A 
ATOM     55  C   UNL A   1      45.298  31.386  29.246  1.00  0.00     0.049 A 
ATOM     56  C   UNL A   1      39.966  32.582  30.388  1.00  0.00     0.074 A 
ATOM     57  C   UNL A   1      46.226  32.389  29.464  1.00  0.00     0.029 A 
ATOM     58  N   UNL A   1      44.062  31.902  29.597  1.00  0.00    -0.354 N 
ATOM     59  N   UNL A   1      41.242  32.481  30.107  1.00  0.00    -0.248 NA
ATOM     60  C   UNL A   1      39.600  33.830  31.076  1.00  0.00     0.031 C 
ATOM     61  C   UNL A   1      45.554  33.505  29.972  1.00  0.00     0.029 A 
ATOM     62  C   UNL A   1      44.206  33.201  30.056  1.00  0.00     0.049 A 
ATOM     63  H   UNL A   1      43.207  31.418  29.530  1.00  0.00     0.167 HD
ATOM     64  C   UNL A   1      41.825  33.658  30.561  1.00  0.00     0.074 A 
ATOM     65  C   UNL A   1      40.760  34.473  31.106  1.00  0.00     0.031 C 
ATOM     66  C   UNL A   1      43.131  34.021  30.550  1.00  0.00     0.034 A 
BRANCH  53  67
ATOM     67  C   UNL A   1      46.951  29.621  28.548  1.00  0.00     0.023 A 
ATOM     68  C   UNL A   1      47.557  29.852  27.297  1.00  0.00     0.012 A 
ATOM     69  C   UNL A   1      47.720  29.097  29.606  1.00  0.00     0.148 A 
ATOM     70  C   UNL A   1      48.904  29.552  27.096  1.00  0.00     0.002 A 
ATOM     71  C   UNL A   1      49.071  28.835  29.408  1.00  0.00     0.091 A 
ATOM     72  F   UNL A   1      47.117  28.870  30.781  1.00  0.00    -0.205 F 
ATOM     73  C   UNL A   1      49.661  29.056  28.153  1.00  0.00     0.022 A 
BRANCH  71  74
ATOM     74  S   UNL A   1      50.152  28.262  30.723  1.00  0.00     0.127 S 
ATOM     75  O   UNL A   1      49.987  29.318  31.720  1.00  0.00    -0.237 OA
ATOM     76  O   UNL A   1      49.544  26.982  31.085  1.00  0.00    -0.237 OA
ATOM     77  O   UNL A   1      51.481  28.163  30.138  1.00  0.00    -0.744 OA
ENDBRANCH  71  74
ENDBRANCH  53  67
BRANCH  54  78
ATOM     78  C   UNL A   1      37.444  31.944  30.453  1.00  0.00     0.023 A 
ATOM     79  C   UNL A   1      36.943  31.524  31.700  1.00  0.00     0.012 A 
ATOM     80  C   UNL A   1      36.606  32.673  29.587  1.00  0.00     0.148 A 
ATOM     81  C   UNL A   1      35.623  31.793  32.063  1.00  0.00     0.002 A 
ATOM     82  C   UNL A   1      35.309  32.986  29.980  1.00  0.00     0.091 A 
ATOM     83  F   UNL A   1      37.090  33.047  28.393  1.00  0.00    -0.205 F 
ATOM     84  C   UNL A   1      34.810  32.532  31.210  1.00  0.00     0.022 A 
BRANCH  82  85
ATOM     85  S   UNL A   1      34.254  34.052  28.993  1.00  0.00     0.127 S 
ATOM     86  O   UNL A   1      33.811  33.146  27.938  1.00  0.00    -0.237 OA
ATOM     87  O   UNL A   1      33.215  34.434  29.952  1.00  0.00    -0.237 OA
ATOM     88  O   UNL A   1      35.110  35.155  28.578  1.00  0.00    -0.744 OA
ENDBRANCH  82  85
ENDBRANCH  54  78
BRANCH  66  89
ATOM     89  C   UNL A   1      43.488  35.361  31.137  1.00  0.00     0.023 A 
ATOM     90  C   UNL A   1      43.798  35.453  32.509  1.00  0.00     0.012 A 
ATOM     91  C   UNL A   1      43.594  36.506  30.324  1.00  0.00     0.148 A 
ATOM     92  C   UNL A   1      44.183  36.671  33.068  1.00  0.00     0.002 A 
ATOM     93  C   UNL A   1      44.022  37.707  30.880  1.00  0.00     0.091 A 
ATOM     94  F   UNL A   1      43.278  36.400  29.025  1.00  0.00    -0.205 F 
ATOM     95  C   UNL A   1      44.305  37.793  32.253  1.00  0.00     0.022 A 
BRANCH  93  96
ATOM     96  S   UNL A   1      44.296  39.181  29.892  1.00  0.00     0.127 S 
ATOM     97  O   UNL A   1      42.935  39.524  29.482  1.00  0.00    -0.237 OA
ATOM     98  O   UNL A   1      44.890  40.102  30.863  1.00  0.00    -0.237 OA
ATOM     99  O   UNL A   1      45.190  38.782  28.814  1.00  0.00    -0.744 OA
ENDBRANCH  93  96
ENDBRANCH  66  89
ENDBRANCH  40  41
ENDBRANCH  32  35
ENDBRANCH  30  31
ENDBRANCH  29  30
ENDBRANCH   1  29
TORSDOF 18
ENDMDL
