MODEL 1
REMARK VINA RESULT:     -11.7      0.000      0.000
REMARK SMILES COc1ccc(OC)c(-c2cc(C(=O)NCCCCNC(=O)c3ccc(-c4c5nc(c(-c6cccc(S(=O)(=O)[O-])c6F)c6ccc([nH]6)c(-c6cccc(S(=O)(=O)[O-])c6F)c6nc(c(-c7cccc(S(=O)(=O)[O-])c7F)c7ccc4[nH]7)C=C6)C=C5)cc3)ccn2)c1
REMARK SMILES IDX 18 1 17 2 16 3 15 4 13 5 14 6 12 8 10 9 11 10 88 11 87 12
REMARK SMILES IDX 86 13 9 14 3 15 4 16 89 17 5 18 6 19 2 20 1 21 7 22 8 23
REMARK SMILES IDX 19 24 20 25 21 26 22 28 23 29 24 30 85 31 25 32 84 33 26 34
REMARK SMILES IDX 27 35 28 36 78 37 29 38 83 39 77 40 79 41 30 42 82 43 76 44
REMARK SMILES IDX 75 45 31 47 63 48 43 49 62 50 44 51 47 52 61 53 80 54 45 55
REMARK SMILES IDX 46 56 60 58 81 59 48 60 32 61 33 62 41 63 34 64 36 65 42 66
REMARK SMILES IDX 35 67 37 68 38 69 39 70 40 71 64 72 65 73 73 74 66 75 68 76
REMARK SMILES IDX 74 77 67 78 69 79 70 80 71 81 72 82 49 83 50 84 58 85 51 86
REMARK SMILES IDX 53 87 59 88 52 89 54 90 55 91 56 92 57 93
REMARK H PARENT 15 7 20 27 79 46 47 57
REMARK Flexibility Score: inf
ROOT
ATOM      1  C   UNL A   1      31.841  28.985  24.897  1.00  0.00     0.023 C 
ENDROOT
BRANCH   1   2
ATOM      2  C   UNL A   1      32.160  28.875  23.403  1.00  0.00     0.023 C 
BRANCH   2   3
ATOM      3  C   UNL A   1      33.393  28.025  23.086  1.00  0.00     0.116 C 
BRANCH   3   4
ATOM      4  N   UNL A   1      33.231  27.341  21.816  1.00  0.00    -0.352 N 
ATOM      5  C   UNL A   1      32.969  26.032  21.503  1.00  0.00     0.251 C 
ATOM      6  O   UNL A   1      32.837  25.727  20.319  1.00  0.00    -0.269 OA
ATOM      7  H   UNL A   1      33.329  27.927  21.030  1.00  0.00     0.163 HD
BRANCH   5   8
ATOM      8  C   UNL A   1      32.775  24.974  22.530  1.00  0.00     0.043 A 
ATOM      9  C   UNL A   1      33.492  23.188  23.959  1.00  0.00     0.075 A 
ATOM     10  C   UNL A   1      33.753  24.062  22.908  1.00  0.00     0.043 A 
ATOM     11  N   UNL A   1      32.293  23.135  24.584  1.00  0.00    -0.256 NA
ATOM     12  C   UNL A   1      31.326  23.964  24.137  1.00  0.00     0.112 A 
ATOM     13  C   UNL A   1      31.519  24.896  23.134  1.00  0.00     0.034 A 
BRANCH   9  14
ATOM     14  C   UNL A   1      34.567  22.362  24.518  1.00  0.00     0.046 A 
ATOM     15  C   UNL A   1      36.897  22.373  25.311  1.00  0.00     0.119 A 
ATOM     16  C   UNL A   1      36.881  20.986  25.346  1.00  0.00     0.050 A 
ATOM     17  C   UNL A   1      35.749  23.051  24.903  1.00  0.00     0.060 A 
ATOM     18  C   UNL A   1      35.722  20.289  25.004  1.00  0.00     0.051 A 
ATOM     19  C   UNL A   1      34.559  20.958  24.590  1.00  0.00     0.128 A 
BRANCH  15  20
ATOM     20  O   UNL A   1      38.095  22.948  25.626  1.00  0.00    -0.497 OA
ATOM     21  C   UNL A   1      38.047  24.078  26.490  1.00  0.00     0.278 C 
ENDBRANCH  15  20
BRANCH  19  22
ATOM     22  O   UNL A   1      33.572  20.078  24.231  1.00  0.00    -0.496 OA
ATOM     23  C   UNL A   1      32.894  19.348  25.240  1.00  0.00     0.278 C 
ENDBRANCH  19  22
ENDBRANCH   9  14
ENDBRANCH   5   8
ENDBRANCH   3   4
ENDBRANCH   2   3
ENDBRANCH   1   2
BRANCH   1  24
ATOM     24  C   UNL A   1      32.950  29.599  25.747  1.00  0.00     0.116 C 
BRANCH  24  25
ATOM     25  N   UNL A   1      32.626  30.929  26.240  1.00  0.00    -0.352 N 
ATOM     26  C   UNL A   1      33.293  31.677  27.182  1.00  0.00     0.251 C 
ATOM     27  H   UNL A   1      31.826  31.348  25.849  1.00  0.00     0.163 HD
ATOM     28  O   UNL A   1      32.829  32.744  27.563  1.00  0.00    -0.269 OA
BRANCH  26  29
ATOM     29  C   UNL A   1      34.550  31.158  27.763  1.00  0.00     0.039 A 
ATOM     30  C   UNL A   1      35.609  32.047  27.966  1.00  0.00     0.014 A 
ATOM     31  C   UNL A   1      34.673  29.816  28.129  1.00  0.00     0.014 A 
ATOM     32  C   UNL A   1      36.772  31.600  28.597  1.00  0.00     0.010 A 
ATOM     33  C   UNL A   1      35.805  29.389  28.816  1.00  0.00     0.010 A 
ATOM     34  C   UNL A   1      36.866  30.275  29.055  1.00  0.00    -0.014 A 
BRANCH  34  35
ATOM     35  C   UNL A   1      38.057  29.808  29.807  1.00  0.00     0.031 A 
ATOM     36  C   UNL A   1      38.295  30.268  31.219  1.00  0.00     0.074 A 
ATOM     37  C   UNL A   1      38.972  29.040  29.184  1.00  0.00     0.049 A 
ATOM     38  N   UNL A   1      39.295  29.993  32.015  1.00  0.00    -0.248 NA
ATOM     39  C   UNL A   1      37.295  31.178  31.801  1.00  0.00     0.031 C 
ATOM     40  C   UNL A   1      38.904  28.611  27.785  1.00  0.00     0.029 A 
ATOM     41  N   UNL A   1      40.152  28.507  29.637  1.00  0.00    -0.354 N 
ATOM     42  C   UNL A   1      39.061  30.715  33.179  1.00  0.00     0.074 A 
ATOM     43  C   UNL A   1      37.846  31.473  32.969  1.00  0.00     0.031 C 
ATOM     44  C   UNL A   1      39.994  27.884  27.494  1.00  0.00     0.029 A 
ATOM     45  C   UNL A   1      40.845  27.807  28.678  1.00  0.00     0.049 A 
ATOM     46  H   UNL A   1      40.471  28.614  30.562  1.00  0.00     0.167 HD
ATOM     47  C   UNL A   1      39.772  30.720  34.334  1.00  0.00     0.034 A 
ATOM     48  C   UNL A   1      42.033  27.174  28.743  1.00  0.00     0.034 A 
ATOM     49  C   UNL A   1      40.954  29.931  34.553  1.00  0.00     0.049 A 
ATOM     50  C   UNL A   1      42.768  27.136  30.054  1.00  0.00     0.074 A 
ATOM     51  C   UNL A   1      41.698  29.800  35.712  1.00  0.00     0.029 A 
ATOM     52  N   UNL A   1      41.568  29.142  33.592  1.00  0.00    -0.354 N 
ATOM     53  N   UNL A   1      42.440  27.685  31.199  1.00  0.00    -0.248 NA
ATOM     54  C   UNL A   1      44.012  26.354  30.098  1.00  0.00     0.031 C 
ATOM     55  C   UNL A   1      42.768  28.935  35.449  1.00  0.00     0.029 A 
ATOM     56  C   UNL A   1      42.681  28.519  34.130  1.00  0.00     0.049 A 
ATOM     57  H   UNL A   1      41.257  29.040  32.664  1.00  0.00     0.167 HD
ATOM     58  C   UNL A   1      43.419  27.295  32.105  1.00  0.00     0.074 A 
ATOM     59  C   UNL A   1      44.338  26.438  31.381  1.00  0.00     0.031 C 
ATOM     60  C   UNL A   1      43.558  27.630  33.411  1.00  0.00     0.034 A 
BRANCH  47  61
ATOM     61  C   UNL A   1      39.240  31.552  35.471  1.00  0.00     0.023 A 
ATOM     62  C   UNL A   1      38.287  30.992  36.347  1.00  0.00     0.012 A 
ATOM     63  C   UNL A   1      39.704  32.861  35.702  1.00  0.00     0.148 A 
ATOM     64  C   UNL A   1      37.776  31.732  37.411  1.00  0.00     0.002 A 
ATOM     65  C   UNL A   1      39.221  33.578  36.791  1.00  0.00     0.091 A 
ATOM     66  F   UNL A   1      40.593  33.388  34.847  1.00  0.00    -0.205 F 
ATOM     67  C   UNL A   1      38.250  33.021  37.639  1.00  0.00     0.022 A 
BRANCH  65  68
ATOM     68  S   UNL A   1      39.823  35.218  37.212  1.00  0.00     0.127 S 
ATOM     69  O   UNL A   1      39.095  35.492  38.450  1.00  0.00    -0.237 OA
ATOM     70  O   UNL A   1      41.257  34.987  37.388  1.00  0.00    -0.237 OA
ATOM     71  O   UNL A   1      39.482  36.069  36.081  1.00  0.00    -0.744 OA
ENDBRANCH  65  68
ENDBRANCH  47  61
BRANCH  48  72
ATOM     72  C   UNL A   1      42.553  26.458  27.545  1.00  0.00     0.023 A 
ATOM     73  C   UNL A   1      43.406  27.134  26.652  1.00  0.00     0.012 A 
ATOM     74  C   UNL A   1      42.252  25.101  27.314  1.00  0.00     0.148 A 
ATOM     75  C   UNL A   1      43.928  26.481  25.534  1.00  0.00     0.002 A 
ATOM     76  C   UNL A   1      42.818  24.442  26.230  1.00  0.00     0.091 A 
ATOM     77  F   UNL A   1      41.429  24.479  28.171  1.00  0.00    -0.205 F 
ATOM     78  C   UNL A   1      43.643  25.134  25.330  1.00  0.00     0.022 A 
BRANCH  76  79
ATOM     79  S   UNL A   1      42.618  22.675  25.969  1.00  0.00     0.127 S 
ATOM     80  O   UNL A   1      43.166  22.508  24.626  1.00  0.00    -0.237 OA
ATOM     81  O   UNL A   1      43.437  22.114  27.044  1.00  0.00    -0.237 OA
ATOM     82  O   UNL A   1      41.191  22.420  26.110  1.00  0.00    -0.744 OA
ENDBRANCH  76  79
ENDBRANCH  48  72
BRANCH  60  83
ATOM     83  C   UNL A   1      44.736  27.058  34.154  1.00  0.00     0.023 A 
ATOM     84  C   UNL A   1      45.968  27.743  34.139  1.00  0.00     0.012 A 
ATOM     85  C   UNL A   1      44.607  25.883  34.922  1.00  0.00     0.148 A 
ATOM     86  C   UNL A   1      47.062  27.250  34.849  1.00  0.00     0.002 A 
ATOM     87  C   UNL A   1      45.690  25.422  35.663  1.00  0.00     0.091 A 
ATOM     88  F   UNL A   1      43.434  25.233  34.907  1.00  0.00    -0.205 F 
ATOM     89  C   UNL A   1      46.919  26.098  35.619  1.00  0.00     0.022 A 
BRANCH  87  90
ATOM     90  S   UNL A   1      45.565  23.999  36.752  1.00  0.00     0.127 S 
ATOM     91  O   UNL A   1      46.943  23.859  37.218  1.00  0.00    -0.237 OA
ATOM     92  O   UNL A   1      44.622  24.465  37.771  1.00  0.00    -0.237 OA
ATOM     93  O   UNL A   1      45.065  22.909  35.926  1.00  0.00    -0.744 OA
ENDBRANCH  87  90
ENDBRANCH  60  83
ENDBRANCH  34  35
ENDBRANCH  26  29
ENDBRANCH  24  25
ENDBRANCH   1  24
TORSDOF 17
ENDMDL
MODEL 2
REMARK VINA RESULT:     -11.7      2.196      3.234
REMARK SMILES COc1ccc(OC)c(-c2cc(C(=O)NCCCCNC(=O)c3ccc(-c4c5nc(c(-c6cccc(S(=O)(=O)[O-])c6F)c6ccc([nH]6)c(-c6cccc(S(=O)(=O)[O-])c6F)c6nc(c(-c7cccc(S(=O)(=O)[O-])c7F)c7ccc4[nH]7)C=C6)C=C5)cc3)ccn2)c1
REMARK SMILES IDX 18 1 17 2 16 3 15 4 13 5 14 6 12 8 10 9 11 10 88 11 87 12
REMARK SMILES IDX 86 13 9 14 3 15 4 16 89 17 5 18 6 19 2 20 1 21 7 22 8 23
REMARK SMILES IDX 19 24 20 25 21 26 22 28 23 29 24 30 85 31 25 32 84 33 26 34
REMARK SMILES IDX 27 35 28 36 78 37 29 38 83 39 77 40 79 41 30 42 82 43 76 44
REMARK SMILES IDX 75 45 31 47 63 48 43 49 62 50 44 51 47 52 61 53 80 54 45 55
REMARK SMILES IDX 46 56 60 58 81 59 48 60 32 61 33 62 41 63 34 64 36 65 42 66
REMARK SMILES IDX 35 67 37 68 38 69 39 70 40 71 64 72 65 73 73 74 66 75 68 76
REMARK SMILES IDX 74 77 67 78 69 79 70 80 71 81 72 82 49 83 50 84 58 85 51 86
REMARK SMILES IDX 53 87 59 88 52 89 54 90 55 91 56 92 57 93
REMARK H PARENT 15 7 20 27 79 46 47 57
REMARK Flexibility Score: inf
ROOT
ATOM      1  C   UNL A   1      31.909  28.352  27.331  1.00  0.00     0.023 C 
ENDROOT
BRANCH   1   2
ATOM      2  C   UNL A   1      31.771  27.061  26.519  1.00  0.00     0.023 C 
BRANCH   2   3
ATOM      3  C   UNL A   1      31.363  27.279  25.060  1.00  0.00     0.116 C 
BRANCH   3   4
ATOM      4  N   UNL A   1      32.374  28.044  24.353  1.00  0.00    -0.352 N 
ATOM      5  C   UNL A   1      33.266  27.702  23.369  1.00  0.00     0.251 C 
ATOM      6  O   UNL A   1      33.996  28.578  22.909  1.00  0.00    -0.269 OA
ATOM      7  H   UNL A   1      32.430  28.987  24.633  1.00  0.00     0.163 HD
BRANCH   5   8
ATOM      8  C   UNL A   1      33.350  26.336  22.789  1.00  0.00     0.043 A 
ATOM      9  C   UNL A   1      33.810  23.984  22.850  1.00  0.00     0.075 A 
ATOM     10  C   UNL A   1      33.885  25.237  23.450  1.00  0.00     0.043 A 
ATOM     11  N   UNL A   1      33.305  23.799  21.608  1.00  0.00    -0.256 NA
ATOM     12  C   UNL A   1      32.879  24.895  20.945  1.00  0.00     0.112 A 
ATOM     13  C   UNL A   1      32.871  26.165  21.489  1.00  0.00     0.034 A 
BRANCH   9  14
ATOM     14  C   UNL A   1      34.171  22.779  23.604  1.00  0.00     0.046 A 
ATOM     15  C   UNL A   1      33.299  20.712  24.616  1.00  0.00     0.119 A 
ATOM     16  C   UNL A   1      34.517  20.524  25.256  1.00  0.00     0.050 A 
ATOM     17  C   UNL A   1      33.133  21.828  23.797  1.00  0.00     0.060 A 
ATOM     18  C   UNL A   1      35.561  21.427  25.056  1.00  0.00     0.051 A 
ATOM     19  C   UNL A   1      35.408  22.556  24.235  1.00  0.00     0.128 A 
BRANCH  15  20
ATOM     20  O   UNL A   1      32.337  19.791  24.916  1.00  0.00    -0.497 OA
ATOM     21  C   UNL A   1      32.779  18.450  25.098  1.00  0.00     0.278 C 
ENDBRANCH  15  20
BRANCH  19  22
ATOM     22  O   UNL A   1      36.530  23.342  24.244  1.00  0.00    -0.496 OA
ATOM     23  C   UNL A   1      37.213  23.560  25.468  1.00  0.00     0.278 C 
ENDBRANCH  19  22
ENDBRANCH   9  14
ENDBRANCH   5   8
ENDBRANCH   3   4
ENDBRANCH   2   3
ENDBRANCH   1   2
BRANCH   1  24
ATOM     24  C   UNL A   1      33.342  28.838  27.528  1.00  0.00     0.116 C 
BRANCH  24  25
ATOM     25  N   UNL A   1      33.454  30.286  27.597  1.00  0.00    -0.352 N 
ATOM     26  C   UNL A   1      34.522  31.041  28.024  1.00  0.00     0.251 C 
ATOM     27  H   UNL A   1      32.664  30.792  27.301  1.00  0.00     0.163 HD
ATOM     28  O   UNL A   1      34.418  32.258  28.117  1.00  0.00    -0.269 OA
BRANCH  26  29
ATOM     29  C   UNL A   1      35.779  30.366  28.412  1.00  0.00     0.039 A 
ATOM     30  C   UNL A   1      36.860  30.407  27.528  1.00  0.00     0.014 A 
ATOM     31  C   UNL A   1      35.899  29.724  29.647  1.00  0.00     0.014 A 
ATOM     32  C   UNL A   1      38.085  29.856  27.911  1.00  0.00     0.010 A 
ATOM     33  C   UNL A   1      37.137  29.235  30.053  1.00  0.00     0.010 A 
ATOM     34  C   UNL A   1      38.241  29.294  29.189  1.00  0.00    -0.014 A 
BRANCH  34  35
ATOM     35  C   UNL A   1      39.559  28.787  29.646  1.00  0.00     0.031 A 
ATOM     36  C   UNL A   1      40.317  29.504  30.728  1.00  0.00     0.074 A 
ATOM     37  C   UNL A   1      40.111  27.728  29.021  1.00  0.00     0.049 A 
ATOM     38  N   UNL A   1      41.494  29.227  31.228  1.00  0.00    -0.248 NA
ATOM     39  C   UNL A   1      39.688  30.704  31.300  1.00  0.00     0.031 C 
ATOM     40  C   UNL A   1      39.518  27.010  27.891  1.00  0.00     0.029 A 
ATOM     41  N   UNL A   1      41.308  27.090  29.228  1.00  0.00    -0.354 N 
ATOM     42  C   UNL A   1      41.757  30.230  32.153  1.00  0.00     0.074 A 
ATOM     43  C   UNL A   1      40.637  31.145  32.113  1.00  0.00     0.031 C 
ATOM     44  C   UNL A   1      40.352  26.033  27.503  1.00  0.00     0.029 A 
ATOM     45  C   UNL A   1      41.545  26.064  28.344  1.00  0.00     0.049 A 
ATOM     46  H   UNL A   1      41.936  27.344  29.943  1.00  0.00     0.167 HD
ATOM     47  C   UNL A   1      42.818  30.360  32.987  1.00  0.00     0.034 A 
ATOM     48  C   UNL A   1      42.604  25.240  28.225  1.00  0.00     0.034 A 
ATOM     49  C   UNL A   1      43.908  29.424  33.053  1.00  0.00     0.049 A 
ATOM     50  C   UNL A   1      43.737  25.360  29.207  1.00  0.00     0.074 A 
ATOM     51  C   UNL A   1      44.986  29.419  33.920  1.00  0.00     0.029 A 
ATOM     52  N   UNL A   1      44.061  28.328  32.218  1.00  0.00    -0.354 N 
ATOM     53  N   UNL A   1      43.887  26.214  30.191  1.00  0.00    -0.248 NA
ATOM     54  C   UNL A   1      44.825  24.378  29.092  1.00  0.00     0.031 C 
ATOM     55  C   UNL A   1      45.796  28.322  33.603  1.00  0.00     0.029 A 
ATOM     56  C   UNL A   1      45.214  27.638  32.547  1.00  0.00     0.049 A 
ATOM     57  H   UNL A   1      43.440  28.078  31.496  1.00  0.00     0.167 HD
ATOM     58  C   UNL A   1      45.068  25.857  30.830  1.00  0.00     0.074 A 
ATOM     59  C   UNL A   1      45.580  24.690  30.137  1.00  0.00     0.031 C 
ATOM     60  C   UNL A   1      45.685  26.450  31.882  1.00  0.00     0.034 A 
BRANCH  47  61
ATOM     61  C   UNL A   1      42.807  31.521  33.945  1.00  0.00     0.023 A 
ATOM     62  C   UNL A   1      43.281  32.777  33.511  1.00  0.00     0.012 A 
ATOM     63  C   UNL A   1      42.296  31.391  35.251  1.00  0.00     0.148 A 
ATOM     64  C   UNL A   1      43.283  33.874  34.371  1.00  0.00     0.002 A 
ATOM     65  C   UNL A   1      42.262  32.501  36.088  1.00  0.00     0.091 A 
ATOM     66  F   UNL A   1      41.870  30.186  35.656  1.00  0.00    -0.205 F 
ATOM     67  C   UNL A   1      42.765  33.739  35.655  1.00  0.00     0.022 A 
BRANCH  65  68
ATOM     68  S   UNL A   1      41.545  32.446  37.736  1.00  0.00     0.127 S 
ATOM     69  O   UNL A   1      40.160  32.080  37.444  1.00  0.00    -0.237 OA
ATOM     70  O   UNL A   1      42.330  31.393  38.381  1.00  0.00    -0.237 OA
ATOM     71  O   UNL A   1      41.739  33.775  38.298  1.00  0.00    -0.744 OA
ENDBRANCH  65  68
ENDBRANCH  47  61
BRANCH  48  72
ATOM     72  C   UNL A   1      42.597  24.177  27.182  1.00  0.00     0.023 A 
ATOM     73  C   UNL A   1      43.267  24.399  25.963  1.00  0.00     0.012 A 
ATOM     74  C   UNL A   1      41.977  22.932  27.408  1.00  0.00     0.148 A 
ATOM     75  C   UNL A   1      43.297  23.412  24.977  1.00  0.00     0.002 A 
ATOM     76  C   UNL A   1      42.057  21.934  26.443  1.00  0.00     0.091 A 
ATOM     77  F   UNL A   1      41.335  22.744  28.570  1.00  0.00    -0.205 F 
ATOM     78  C   UNL A   1      42.702  22.178  25.222  1.00  0.00     0.022 A 
BRANCH  76  79
ATOM     79  S   UNL A   1      41.441  20.270  26.730  1.00  0.00     0.127 S 
ATOM     80  O   UNL A   1      40.022  20.516  26.974  1.00  0.00    -0.237 OA
ATOM     81  O   UNL A   1      41.744  19.610  25.460  1.00  0.00    -0.237 OA
ATOM     82  O   UNL A   1      42.203  19.764  27.864  1.00  0.00    -0.744 OA
ENDBRANCH  76  79
ENDBRANCH  48  72
BRANCH  60  83
ATOM     83  C   UNL A   1      46.975  25.843  32.364  1.00  0.00     0.023 A 
ATOM     84  C   UNL A   1      48.196  26.255  31.791  1.00  0.00     0.012 A 
ATOM     85  C   UNL A   1      46.988  24.918  33.427  1.00  0.00     0.148 A 
ATOM     86  C   UNL A   1      49.405  25.731  32.247  1.00  0.00     0.002 A 
ATOM     87  C   UNL A   1      48.200  24.435  33.906  1.00  0.00     0.091 A 
ATOM     88  F   UNL A   1      45.816  24.521  33.945  1.00  0.00    -0.205 F 
ATOM     89  C   UNL A   1      49.408  24.832  33.311  1.00  0.00     0.022 A 
BRANCH  87  90
ATOM     90  S   UNL A   1      48.299  23.345  35.331  1.00  0.00     0.127 S 
ATOM     91  O   UNL A   1      47.319  23.945  36.233  1.00  0.00    -0.237 OA
ATOM     92  O   UNL A   1      47.899  22.054  34.768  1.00  0.00    -0.237 OA
ATOM     93  O   UNL A   1      49.684  23.401  35.778  1.00  0.00    -0.744 OA
ENDBRANCH  87  90
ENDBRANCH  60  83
ENDBRANCH  34  35
ENDBRANCH  26  29
ENDBRANCH  24  25
ENDBRANCH   1  24
TORSDOF 17
ENDMDL
MODEL 3
REMARK VINA RESULT:     -11.6      2.152      2.867
REMARK SMILES COc1ccc(OC)c(-c2cc(C(=O)NCCCCNC(=O)c3ccc(-c4c5nc(c(-c6cccc(S(=O)(=O)[O-])c6F)c6ccc([nH]6)c(-c6cccc(S(=O)(=O)[O-])c6F)c6nc(c(-c7cccc(S(=O)(=O)[O-])c7F)c7ccc4[nH]7)C=C6)C=C5)cc3)ccn2)c1
REMARK SMILES IDX 18 1 17 2 16 3 15 4 13 5 14 6 12 8 10 9 11 10 88 11 87 12
REMARK SMILES IDX 86 13 9 14 3 15 4 16 89 17 5 18 6 19 2 20 1 21 7 22 8 23
REMARK SMILES IDX 19 24 20 25 21 26 22 28 23 29 24 30 85 31 25 32 84 33 26 34
REMARK SMILES IDX 27 35 28 36 78 37 29 38 83 39 77 40 79 41 30 42 82 43 76 44
REMARK SMILES IDX 75 45 31 47 63 48 43 49 62 50 44 51 47 52 61 53 80 54 45 55
REMARK SMILES IDX 46 56 60 58 81 59 48 60 32 61 33 62 41 63 34 64 36 65 42 66
REMARK SMILES IDX 35 67 37 68 38 69 39 70 40 71 64 72 65 73 73 74 66 75 68 76
REMARK SMILES IDX 74 77 67 78 69 79 70 80 71 81 72 82 49 83 50 84 58 85 51 86
REMARK SMILES IDX 53 87 59 88 52 89 54 90 55 91 56 92 57 93
REMARK H PARENT 15 7 20 27 79 46 47 57
REMARK Flexibility Score: inf
ROOT
ATOM      1  C   UNL A   1      31.892  28.278  27.360  1.00  0.00     0.023 C 
ENDROOT
BRANCH   1   2
ATOM      2  C   UNL A   1      31.756  26.984  26.553  1.00  0.00     0.023 C 
BRANCH   2   3
ATOM      3  C   UNL A   1      31.153  27.175  25.159  1.00  0.00     0.116 C 
BRANCH   3   4
ATOM      4  N   UNL A   1      31.990  28.046  24.353  1.00  0.00    -0.352 N 
ATOM      5  C   UNL A   1      32.903  27.787  23.363  1.00  0.00     0.251 C 
ATOM      6  O   UNL A   1      33.449  28.738  22.806  1.00  0.00    -0.269 OA
ATOM      7  H   UNL A   1      31.883  29.004  24.557  1.00  0.00     0.163 HD
BRANCH   5   8
ATOM      8  C   UNL A   1      33.216  26.414  22.886  1.00  0.00     0.043 A 
ATOM      9  C   UNL A   1      34.086  24.192  23.113  1.00  0.00     0.075 A 
ATOM     10  C   UNL A   1      33.949  25.483  23.613  1.00  0.00     0.043 A 
ATOM     11  N   UNL A   1      33.599  23.821  21.906  1.00  0.00    -0.256 NA
ATOM     12  C   UNL A   1      32.974  24.768  21.174  1.00  0.00     0.112 A 
ATOM     13  C   UNL A   1      32.751  26.058  21.620  1.00  0.00     0.034 A 
BRANCH   9  14
ATOM     14  C   UNL A   1      34.668  23.134  23.945  1.00  0.00     0.046 A 
ATOM     15  C   UNL A   1      36.694  22.413  25.142  1.00  0.00     0.119 A 
ATOM     16  C   UNL A   1      36.128  21.159  25.325  1.00  0.00     0.050 A 
ATOM     17  C   UNL A   1      35.968  23.388  24.461  1.00  0.00     0.060 A 
ATOM     18  C   UNL A   1      34.841  20.896  24.856  1.00  0.00     0.051 A 
ATOM     19  C   UNL A   1      34.097  21.868  24.167  1.00  0.00     0.128 A 
BRANCH  15  20
ATOM     20  O   UNL A   1      37.972  22.546  25.605  1.00  0.00    -0.497 OA
ATOM     21  C   UNL A   1      38.285  23.773  26.257  1.00  0.00     0.278 C 
ENDBRANCH  15  20
BRANCH  19  22
ATOM     22  O   UNL A   1      32.898  21.371  23.732  1.00  0.00    -0.496 OA
ATOM     23  C   UNL A   1      32.178  20.474  24.562  1.00  0.00     0.278 C 
ENDBRANCH  19  22
ENDBRANCH   9  14
ENDBRANCH   5   8
ENDBRANCH   3   4
ENDBRANCH   2   3
ENDBRANCH   1   2
BRANCH   1  24
ATOM     24  C   UNL A   1      33.325  28.760  27.564  1.00  0.00     0.116 C 
BRANCH  24  25
ATOM     25  N   UNL A   1      33.454  30.209  27.537  1.00  0.00    -0.352 N 
ATOM     26  C   UNL A   1      34.537  30.978  27.896  1.00  0.00     0.251 C 
ATOM     27  H   UNL A   1      32.664  30.704  27.222  1.00  0.00     0.163 HD
ATOM     28  O   UNL A   1      34.447  32.199  27.911  1.00  0.00    -0.269 OA
BRANCH  26  29
ATOM     29  C   UNL A   1      35.794  30.315  28.305  1.00  0.00     0.039 A 
ATOM     30  C   UNL A   1      36.866  30.304  27.409  1.00  0.00     0.014 A 
ATOM     31  C   UNL A   1      35.922  29.735  29.569  1.00  0.00     0.014 A 
ATOM     32  C   UNL A   1      38.091  29.765  27.808  1.00  0.00     0.010 A 
ATOM     33  C   UNL A   1      37.160  29.258  29.987  1.00  0.00     0.010 A 
ATOM     34  C   UNL A   1      38.257  29.267  29.111  1.00  0.00    -0.014 A 
BRANCH  34  35
ATOM     35  C   UNL A   1      39.575  28.774  29.580  1.00  0.00     0.031 A 
ATOM     36  C   UNL A   1      40.316  29.499  30.669  1.00  0.00     0.074 A 
ATOM     37  C   UNL A   1      40.145  27.722  28.960  1.00  0.00     0.049 A 
ATOM     38  N   UNL A   1      41.490  29.235  31.181  1.00  0.00    -0.248 NA
ATOM     39  C   UNL A   1      39.667  30.692  31.236  1.00  0.00     0.031 C 
ATOM     40  C   UNL A   1      39.571  26.997  27.824  1.00  0.00     0.029 A 
ATOM     41  N   UNL A   1      41.347  27.098  29.178  1.00  0.00    -0.354 N 
ATOM     42  C   UNL A   1      41.734  30.241  32.108  1.00  0.00     0.074 A 
ATOM     43  C   UNL A   1      40.603  31.143  32.058  1.00  0.00     0.031 C 
ATOM     44  C   UNL A   1      40.421  26.030  27.444  1.00  0.00     0.029 A 
ATOM     45  C   UNL A   1      41.605  26.075  28.296  1.00  0.00     0.049 A 
ATOM     46  H   UNL A   1      41.966  27.358  29.899  1.00  0.00     0.167 HD
ATOM     47  C   UNL A   1      42.785  30.383  32.952  1.00  0.00     0.034 A 
ATOM     48  C   UNL A   1      42.674  25.262  28.187  1.00  0.00     0.034 A 
ATOM     49  C   UNL A   1      43.885  29.459  33.029  1.00  0.00     0.049 A 
ATOM     50  C   UNL A   1      43.796  25.395  29.179  1.00  0.00     0.074 A 
ATOM     51  C   UNL A   1      44.954  29.466  33.905  1.00  0.00     0.029 A 
ATOM     52  N   UNL A   1      44.058  28.365  32.194  1.00  0.00    -0.354 N 
ATOM     53  N   UNL A   1      43.927  26.250  30.165  1.00  0.00    -0.248 NA
ATOM     54  C   UNL A   1      44.896  24.425  29.075  1.00  0.00     0.031 C 
ATOM     55  C   UNL A   1      45.780  28.378  33.596  1.00  0.00     0.029 A 
ATOM     56  C   UNL A   1      45.216  27.688  32.534  1.00  0.00     0.049 A 
ATOM     57  H   UNL A   1      43.447  28.108  31.467  1.00  0.00     0.167 HD
ATOM     58  C   UNL A   1      45.106  25.906  30.815  1.00  0.00     0.074 A 
ATOM     59  C   UNL A   1      45.638  24.745  30.127  1.00  0.00     0.031 C 
ATOM     60  C   UNL A   1      45.707  26.506  31.873  1.00  0.00     0.034 A 
BRANCH  47  61
ATOM     61  C   UNL A   1      42.752  31.543  33.910  1.00  0.00     0.023 A 
ATOM     62  C   UNL A   1      43.239  32.799  33.489  1.00  0.00     0.012 A 
ATOM     63  C   UNL A   1      42.208  31.413  35.203  1.00  0.00     0.148 A 
ATOM     64  C   UNL A   1      43.221  33.895  34.349  1.00  0.00     0.002 A 
ATOM     65  C   UNL A   1      42.155  32.522  36.040  1.00  0.00     0.091 A 
ATOM     66  F   UNL A   1      41.771  30.208  35.597  1.00  0.00    -0.205 F 
ATOM     67  C   UNL A   1      42.670  33.760  35.621  1.00  0.00     0.022 A 
BRANCH  65  68
ATOM     68  S   UNL A   1      41.398  32.467  37.670  1.00  0.00     0.127 S 
ATOM     69  O   UNL A   1      40.055  31.982  37.355  1.00  0.00    -0.237 OA
ATOM     70  O   UNL A   1      42.245  31.503  38.373  1.00  0.00    -0.237 OA
ATOM     71  O   UNL A   1      41.471  33.826  38.187  1.00  0.00    -0.744 OA
ENDBRANCH  65  68
ENDBRANCH  47  61
BRANCH  48  72
ATOM     72  C   UNL A   1      42.689  24.199  27.143  1.00  0.00     0.023 A 
ATOM     73  C   UNL A   1      43.375  24.427  25.934  1.00  0.00     0.012 A 
ATOM     74  C   UNL A   1      42.074  22.951  27.360  1.00  0.00     0.148 A 
ATOM     75  C   UNL A   1      43.425  23.441  24.949  1.00  0.00     0.002 A 
ATOM     76  C   UNL A   1      42.175  21.954  26.397  1.00  0.00     0.091 A 
ATOM     77  F   UNL A   1      41.417  22.758  28.513  1.00  0.00    -0.205 F 
ATOM     78  C   UNL A   1      42.835  22.202  25.184  1.00  0.00     0.022 A 
BRANCH  76  79
ATOM     79  S   UNL A   1      41.566  20.286  26.674  1.00  0.00     0.127 S 
ATOM     80  O   UNL A   1      40.133  20.515  26.839  1.00  0.00    -0.237 OA
ATOM     81  O   UNL A   1      41.945  19.612  25.432  1.00  0.00    -0.237 OA
ATOM     82  O   UNL A   1      42.273  19.805  27.854  1.00  0.00    -0.744 OA
ENDBRANCH  76  79
ENDBRANCH  48  72
BRANCH  60  83
ATOM     83  C   UNL A   1      46.999  25.913  32.367  1.00  0.00     0.023 A 
ATOM     84  C   UNL A   1      48.222  26.357  31.824  1.00  0.00     0.012 A 
ATOM     85  C   UNL A   1      47.009  24.969  33.413  1.00  0.00     0.148 A 
ATOM     86  C   UNL A   1      49.432  25.847  32.292  1.00  0.00     0.002 A 
ATOM     87  C   UNL A   1      48.222  24.498  33.905  1.00  0.00     0.091 A 
ATOM     88  F   UNL A   1      45.836  24.541  33.903  1.00  0.00    -0.205 F 
ATOM     89  C   UNL A   1      49.432  24.929  33.339  1.00  0.00     0.022 A 
BRANCH  87  90
ATOM     90  S   UNL A   1      48.316  23.384  35.311  1.00  0.00     0.127 S 
ATOM     91  O   UNL A   1      47.489  24.078  36.296  1.00  0.00    -0.237 OA
ATOM     92  O   UNL A   1      47.726  22.155  34.778  1.00  0.00    -0.237 OA
ATOM     93  O   UNL A   1      49.730  23.277  35.639  1.00  0.00    -0.744 OA
ENDBRANCH  87  90
ENDBRANCH  60  83
ENDBRANCH  34  35
ENDBRANCH  26  29
ENDBRANCH  24  25
ENDBRANCH   1  24
TORSDOF 17
ENDMDL
