MODEL 1
REMARK VINA RESULT:     -13.5      0.000      0.000
REMARK SMILES O=C(NCCCCNC(=O)[C@@H](Cc1ccc(O)cc1)Nc1c2ccccc2nc2ccccc12)c1ccc(-c2c3nc(c(-c4cccc(S(=O)(=O)[O-])c4F)c4ccc([nH]4)c(-c4cccc(S(=O)(=O)[O-])c4F)c4nc(c(-c5cccc(S(=O)(=O)[O-])c5F)c5ccc2[nH]5)C=C4)C=C3)cc1
REMARK SMILES IDX 5 1 4 2 3 3 1 4 2 5 35 7 36 8 97 9 37 10 96 11 38 12 39 13
REMARK SMILES IDX 40 14 90 15 41 16 95 17 89 18 91 19 42 20 94 21 88 22 87 23
REMARK SMILES IDX 43 25 75 26 55 27 74 28 56 29 59 30 73 31 92 32 57 33 58 34
REMARK SMILES IDX 72 36 93 37 60 38 44 39 45 40 53 41 46 42 48 43 54 44 47 45
REMARK SMILES IDX 49 46 50 47 51 48 52 49 76 50 77 51 85 52 78 53 80 54 86 55
REMARK SMILES IDX 79 56 81 57 82 58 83 59 84 60 61 61 62 62 70 63 63 64 65 65
REMARK SMILES IDX 71 66 64 67 66 68 67 69 68 70 69 71 6 72 7 73 8 74 9 75
REMARK SMILES IDX 10 77 11 78 12 79 13 80 14 81 19 82 15 83 18 84 16 85 17 86
REMARK SMILES IDX 20 88 21 90 22 91 34 92 23 93 27 94 29 95 33 96 24 97 26 98
REMARK SMILES IDX 28 99 30 100 32 101 25 102 31 103
REMARK H PARENT 3 6 91 24 59 35 8 76 17 87 20 89
REMARK Flexibility Score: inf
ROOT
ATOM      1  C   UNL A   1      31.685  28.533  25.867  1.00  0.00     0.023 C 
ENDROOT
BRANCH   1   2
ATOM      2  C   UNL A   1      32.775  29.591  25.942  1.00  0.00     0.116 C 
BRANCH   2   3
ATOM      3  N   UNL A   1      32.348  30.880  26.482  1.00  0.00    -0.352 N 
ATOM      4  O   UNL A   1      32.587  32.810  27.645  1.00  0.00    -0.269 OA
ATOM      5  C   UNL A   1      33.088  31.766  27.237  1.00  0.00     0.251 C 
ATOM      6  H   UNL A   1      31.422  31.148  26.283  1.00  0.00     0.163 HD
BRANCH   5   7
ATOM      7  C   UNL A   1      34.474  31.385  27.580  1.00  0.00     0.039 A 
ATOM      8  C   UNL A   1      34.740  30.068  27.955  1.00  0.00     0.014 A 
ATOM      9  C   UNL A   1      35.453  32.372  27.707  1.00  0.00     0.014 A 
ATOM     10  C   UNL A   1      35.895  29.794  28.669  1.00  0.00     0.010 A 
ATOM     11  C   UNL A   1      36.673  32.056  28.316  1.00  0.00     0.010 A 
ATOM     12  C   UNL A   1      36.879  30.781  28.862  1.00  0.00    -0.014 A 
BRANCH  12  13
ATOM     13  C   UNL A   1      38.109  30.415  29.618  1.00  0.00     0.031 A 
ATOM     14  C   UNL A   1      38.298  30.790  31.065  1.00  0.00     0.074 A 
ATOM     15  C   UNL A   1      39.031  29.654  28.995  1.00  0.00     0.049 A 
ATOM     16  N   UNL A   1      39.277  30.463  31.872  1.00  0.00    -0.248 NA
ATOM     17  C   UNL A   1      37.276  31.645  31.690  1.00  0.00     0.031 C 
ATOM     18  C   UNL A   1      38.978  29.266  27.583  1.00  0.00     0.029 A 
ATOM     19  N   UNL A   1      40.163  29.038  29.465  1.00  0.00    -0.354 N 
ATOM     20  C   UNL A   1      39.018  31.108  33.077  1.00  0.00     0.074 A 
ATOM     21  C   UNL A   1      37.786  31.847  32.899  1.00  0.00     0.031 C 
ATOM     22  C   UNL A   1      39.979  28.417  27.321  1.00  0.00     0.029 A 
ATOM     23  C   UNL A   1      40.788  28.255  28.523  1.00  0.00     0.049 A 
ATOM     24  H   UNL A   1      40.494  29.146  30.385  1.00  0.00     0.167 HD
ATOM     25  C   UNL A   1      39.732  31.075  34.228  1.00  0.00     0.034 A 
ATOM     26  C   UNL A   1      41.892  27.489  28.608  1.00  0.00     0.034 A 
ATOM     27  C   UNL A   1      40.927  30.293  34.419  1.00  0.00     0.049 A 
ATOM     28  C   UNL A   1      42.613  27.405  29.920  1.00  0.00     0.074 A 
ATOM     29  C   UNL A   1      41.710  30.181  35.554  1.00  0.00     0.029 A 
ATOM     30  N   UNL A   1      41.501  29.477  33.457  1.00  0.00    -0.354 N 
ATOM     31  N   UNL A   1      42.303  27.965  31.064  1.00  0.00    -0.248 NA
ATOM     32  C   UNL A   1      43.824  26.576  29.959  1.00  0.00     0.031 C 
ATOM     33  C   UNL A   1      42.757  29.292  35.279  1.00  0.00     0.029 A 
ATOM     34  C   UNL A   1      42.622  28.848  33.974  1.00  0.00     0.049 A 
ATOM     35  H   UNL A   1      41.162  29.360  32.539  1.00  0.00     0.167 HD
ATOM     36  C   UNL A   1      43.284  27.562  31.959  1.00  0.00     0.074 A 
ATOM     37  C   UNL A   1      44.167  26.668  31.237  1.00  0.00     0.031 C 
ATOM     38  C   UNL A   1      43.463  27.930  33.251  1.00  0.00     0.034 A 
BRANCH  25  39
ATOM     39  C   UNL A   1      39.217  31.865  35.404  1.00  0.00     0.023 A 
ATOM     40  C   UNL A   1      38.326  31.252  36.308  1.00  0.00     0.012 A 
ATOM     41  C   UNL A   1      39.677  33.171  35.666  1.00  0.00     0.148 A 
ATOM     42  C   UNL A   1      37.889  31.931  37.446  1.00  0.00     0.002 A 
ATOM     43  C   UNL A   1      39.262  33.830  36.820  1.00  0.00     0.091 A 
ATOM     44  F   UNL A   1      40.506  33.746  34.783  1.00  0.00    -0.205 F 
ATOM     45  C   UNL A   1      38.365  33.214  37.706  1.00  0.00     0.022 A 
BRANCH  43  46
ATOM     46  S   UNL A   1      39.876  35.456  37.276  1.00  0.00     0.127 S 
ATOM     47  O   UNL A   1      39.156  35.703  38.524  1.00  0.00    -0.237 OA
ATOM     48  O   UNL A   1      41.311  35.215  37.438  1.00  0.00    -0.237 OA
ATOM     49  O   UNL A   1      39.534  36.336  36.167  1.00  0.00    -0.744 OA
ENDBRANCH  43  46
ENDBRANCH  25  39
BRANCH  26  50
ATOM     50  C   UNL A   1      42.333  26.707  27.419  1.00  0.00     0.023 A 
ATOM     51  C   UNL A   1      43.112  27.329  26.426  1.00  0.00     0.012 A 
ATOM     52  C   UNL A   1      42.063  25.329  27.314  1.00  0.00     0.148 A 
ATOM     53  C   UNL A   1      43.607  26.594  25.347  1.00  0.00     0.002 A 
ATOM     54  C   UNL A   1      42.619  24.589  26.277  1.00  0.00     0.091 A 
ATOM     55  F   UNL A   1      41.298  24.752  28.252  1.00  0.00    -0.205 F 
ATOM     56  C   UNL A   1      43.377  25.221  25.283  1.00  0.00     0.022 A 
BRANCH  54  57
ATOM     57  S   UNL A   1      42.512  22.797  26.273  1.00  0.00     0.127 S 
ATOM     58  O   UNL A   1      41.112  22.574  26.620  1.00  0.00    -0.237 OA
ATOM     59  O   UNL A   1      42.866  22.458  24.893  1.00  0.00    -0.237 OA
ATOM     60  O   UNL A   1      43.501  22.371  27.255  1.00  0.00    -0.744 OA
ENDBRANCH  54  57
ENDBRANCH  26  50
BRANCH  38  61
ATOM     61  C   UNL A   1      44.668  27.375  33.957  1.00  0.00     0.023 A 
ATOM     62  C   UNL A   1      45.886  28.083  33.891  1.00  0.00     0.012 A 
ATOM     63  C   UNL A   1      44.595  26.190  34.710  1.00  0.00     0.148 A 
ATOM     64  C   UNL A   1      47.021  27.602  34.540  1.00  0.00     0.002 A 
ATOM     65  C   UNL A   1      45.722  25.735  35.385  1.00  0.00     0.091 A 
ATOM     66  F   UNL A   1      43.436  25.516  34.739  1.00  0.00    -0.205 F 
ATOM     67  C   UNL A   1      46.937  26.434  35.294  1.00  0.00     0.022 A 
BRANCH  65  68
ATOM     68  S   UNL A   1      45.671  24.276  36.432  1.00  0.00     0.127 S 
ATOM     69  O   UNL A   1      44.668  24.656  37.425  1.00  0.00    -0.237 OA
ATOM     70  O   UNL A   1      45.243  23.231  35.501  1.00  0.00    -0.237 OA
ATOM     71  O   UNL A   1      47.029  24.110  36.932  1.00  0.00    -0.744 OA
ENDBRANCH  65  68
ENDBRANCH  38  61
ENDBRANCH  12  13
ENDBRANCH   5   7
ENDBRANCH   2   3
ENDBRANCH   1   2
BRANCH   1  72
ATOM     72  C   UNL A   1      31.875  27.373  26.828  1.00  0.00     0.023 C 
BRANCH  72  73
ATOM     73  C   UNL A   1      32.341  26.059  26.212  1.00  0.00     0.116 C 
BRANCH  73  74
ATOM     74  N   UNL A   1      31.806  24.939  26.949  1.00  0.00    -0.354 N 
ATOM     75  C   UNL A   1      31.353  23.725  26.534  1.00  0.00     0.242 C 
ATOM     76  H   UNL A   1      31.762  25.077  27.922  1.00  0.00     0.163 HD
ATOM     77  O   UNL A   1      30.711  23.079  27.374  1.00  0.00    -0.273 OA
BRANCH  75  78
ATOM     78  C   UNL A   1      31.592  23.124  25.122  1.00  0.00     0.173 C 
BRANCH  78  79
ATOM     79  C   UNL A   1      30.615  23.608  24.015  1.00  0.00     0.070 C 
BRANCH  79  80
ATOM     80  C   UNL A   1      30.641  24.993  23.398  1.00  0.00    -0.045 A 
ATOM     81  C   UNL A   1      31.574  25.400  22.433  1.00  0.00     0.007 A 
ATOM     82  C   UNL A   1      29.621  25.901  23.747  1.00  0.00     0.007 A 
ATOM     83  C   UNL A   1      31.585  26.717  21.951  1.00  0.00     0.046 A 
ATOM     84  C   UNL A   1      29.612  27.206  23.247  1.00  0.00     0.046 A 
ATOM     85  C   UNL A   1      30.618  27.616  22.384  1.00  0.00     0.115 A 
BRANCH  85  86
ATOM     86  O   UNL A   1      30.625  28.920  21.994  1.00  0.00    -0.508 OA
ATOM     87  H   UNL A   1      30.845  29.592  22.610  1.00  0.00     0.293 HD
ENDBRANCH  85  86
ENDBRANCH  79  80
ENDBRANCH  78  79
BRANCH  78  88
ATOM     88  N   UNL A   1      33.008  23.146  24.732  1.00  0.00    -0.372 N 
ATOM     89  H   UNL A   1      33.332  23.988  24.339  1.00  0.00     0.161 HD
BRANCH  88  90
ATOM     90  C   UNL A   1      33.959  22.119  24.849  1.00  0.00     0.054 A 
ATOM     91  C   UNL A   1      33.689  20.728  24.602  1.00  0.00     0.024 A 
ATOM     92  C   UNL A   1      35.296  22.497  25.233  1.00  0.00     0.024 A 
ATOM     93  C   UNL A   1      32.454  20.150  24.191  1.00  0.00     0.012 A 
ATOM     94  C   UNL A   1      34.768  19.827  24.737  1.00  0.00     0.073 A 
ATOM     95  C   UNL A   1      36.273  21.482  25.286  1.00  0.00     0.073 A 
ATOM     96  C   UNL A   1      35.717  23.813  25.577  1.00  0.00     0.012 A 
ATOM     97  C   UNL A   1      32.278  18.778  23.997  1.00  0.00     0.001 A 
ATOM     98  C   UNL A   1      34.584  18.466  24.526  1.00  0.00     0.029 A 
ATOM     99  N   UNL A   1      36.010  20.198  25.049  1.00  0.00    -0.248 NA
ATOM    100  C   UNL A   1      37.587  21.797  25.604  1.00  0.00     0.029 A 
ATOM    101  C   UNL A   1      37.042  24.108  25.907  1.00  0.00     0.001 A 
ATOM    102  C   UNL A   1      33.351  17.928  24.171  1.00  0.00     0.002 A 
ATOM    103  C   UNL A   1      37.985  23.096  25.908  1.00  0.00     0.002 A 
ENDBRANCH  88  90
ENDBRANCH  78  88
ENDBRANCH  75  78
ENDBRANCH  73  74
ENDBRANCH  72  73
ENDBRANCH   1  72
TORSDOF 19
ENDMDL
MODEL 2
REMARK VINA RESULT:     -13.3      1.796      4.432
REMARK SMILES O=C(NCCCCNC(=O)[C@@H](Cc1ccc(O)cc1)Nc1c2ccccc2nc2ccccc12)c1ccc(-c2c3nc(c(-c4cccc(S(=O)(=O)[O-])c4F)c4ccc([nH]4)c(-c4cccc(S(=O)(=O)[O-])c4F)c4nc(c(-c5cccc(S(=O)(=O)[O-])c5F)c5ccc2[nH]5)C=C4)C=C3)cc1
REMARK SMILES IDX 5 1 4 2 3 3 1 4 2 5 35 7 36 8 97 9 37 10 96 11 38 12 39 13
REMARK SMILES IDX 40 14 90 15 41 16 95 17 89 18 91 19 42 20 94 21 88 22 87 23
REMARK SMILES IDX 43 25 75 26 55 27 74 28 56 29 59 30 73 31 92 32 57 33 58 34
REMARK SMILES IDX 72 36 93 37 60 38 44 39 45 40 53 41 46 42 48 43 54 44 47 45
REMARK SMILES IDX 49 46 50 47 51 48 52 49 76 50 77 51 85 52 78 53 80 54 86 55
REMARK SMILES IDX 79 56 81 57 82 58 83 59 84 60 61 61 62 62 70 63 63 64 65 65
REMARK SMILES IDX 71 66 64 67 66 68 67 69 68 70 69 71 6 72 7 73 8 74 9 75
REMARK SMILES IDX 10 77 11 78 12 79 13 80 14 81 19 82 15 83 18 84 16 85 17 86
REMARK SMILES IDX 20 88 21 90 22 91 34 92 23 93 27 94 29 95 33 96 24 97 26 98
REMARK SMILES IDX 28 99 30 100 32 101 25 102 31 103
REMARK H PARENT 3 6 91 24 59 35 8 76 17 87 20 89
REMARK Flexibility Score: inf
ROOT
ATOM      1  C   UNL A   1      31.752  29.096  26.247  1.00  0.00     0.023 C 
ENDROOT
BRANCH   1   2
ATOM      2  C   UNL A   1      32.987  29.873  26.676  1.00  0.00     0.116 C 
BRANCH   2   3
ATOM      3  N   UNL A   1      32.737  31.254  27.083  1.00  0.00    -0.352 N 
ATOM      4  O   UNL A   1      33.269  33.272  27.967  1.00  0.00    -0.269 OA
ATOM      5  C   UNL A   1      33.627  32.141  27.651  1.00  0.00     0.251 C 
ATOM      6  H   UNL A   1      31.824  31.592  26.935  1.00  0.00     0.163 HD
BRANCH   5   7
ATOM      7  C   UNL A   1      35.000  31.662  27.915  1.00  0.00     0.039 A 
ATOM      8  C   UNL A   1      35.196  30.322  28.250  1.00  0.00     0.014 A 
ATOM      9  C   UNL A   1      36.049  32.579  28.010  1.00  0.00     0.014 A 
ATOM     10  C   UNL A   1      36.365  29.956  28.899  1.00  0.00     0.010 A 
ATOM     11  C   UNL A   1      37.274  32.170  28.549  1.00  0.00     0.010 A 
ATOM     12  C   UNL A   1      37.421  30.872  29.059  1.00  0.00    -0.014 A 
BRANCH  12  13
ATOM     13  C   UNL A   1      38.659  30.408  29.744  1.00  0.00     0.031 A 
ATOM     14  C   UNL A   1      38.989  30.810  31.159  1.00  0.00     0.074 A 
ATOM     15  C   UNL A   1      39.455  29.537  29.091  1.00  0.00     0.049 A 
ATOM     16  N   UNL A   1      39.986  30.412  31.910  1.00  0.00    -0.248 NA
ATOM     17  C   UNL A   1      38.103  31.784  31.817  1.00  0.00     0.031 C 
ATOM     18  C   UNL A   1      39.263  29.110  27.702  1.00  0.00     0.029 A 
ATOM     19  N   UNL A   1      40.551  28.826  29.506  1.00  0.00    -0.354 N 
ATOM     20  C   UNL A   1      39.879  31.120  33.102  1.00  0.00     0.074 A 
ATOM     21  C   UNL A   1      38.717  31.973  32.979  1.00  0.00     0.031 C 
ATOM     22  C   UNL A   1      40.153  28.156  27.407  1.00  0.00     0.029 A 
ATOM     23  C   UNL A   1      41.027  27.953  28.556  1.00  0.00     0.049 A 
ATOM     24  H   UNL A   1      40.957  28.930  30.397  1.00  0.00     0.167 HD
ATOM     25  C   UNL A   1      40.667  31.052  34.203  1.00  0.00     0.034 A 
ATOM     26  C   UNL A   1      42.054  27.082  28.597  1.00  0.00     0.034 A 
ATOM     27  C   UNL A   1      41.789  30.160  34.342  1.00  0.00     0.049 A 
ATOM     28  C   UNL A   1      42.854  26.969  29.859  1.00  0.00     0.074 A 
ATOM     29  C   UNL A   1      42.638  30.007  35.425  1.00  0.00     0.029 A 
ATOM     30  N   UNL A   1      42.210  29.258  33.377  1.00  0.00    -0.354 N 
ATOM     31  N   UNL A   1      42.685  27.595  30.998  1.00  0.00    -0.248 NA
ATOM     32  C   UNL A   1      43.978  26.023  29.849  1.00  0.00     0.031 C 
ATOM     33  C   UNL A   1      43.568  29.007  35.116  1.00  0.00     0.029 A 
ATOM     34  C   UNL A   1      43.298  28.537  33.841  1.00  0.00     0.049 A 
ATOM     35  H   UNL A   1      41.796  29.146  32.490  1.00  0.00     0.167 HD
ATOM     36  C   UNL A   1      43.682  27.125  31.840  1.00  0.00     0.074 A 
ATOM     37  C   UNL A   1      44.419  26.123  31.096  1.00  0.00     0.031 C 
ATOM     38  C   UNL A   1      43.989  27.515  33.101  1.00  0.00     0.034 A 
BRANCH  25  39
ATOM     39  C   UNL A   1      40.319  31.929  35.378  1.00  0.00     0.023 A 
ATOM     40  C   UNL A   1      41.020  33.137  35.568  1.00  0.00     0.012 A 
ATOM     41  C   UNL A   1      39.250  31.609  36.238  1.00  0.00     0.148 A 
ATOM     42  C   UNL A   1      40.673  34.005  36.604  1.00  0.00     0.002 A 
ATOM     43  C   UNL A   1      38.888  32.495  37.249  1.00  0.00     0.091 A 
ATOM     44  F   UNL A   1      38.609  30.445  36.057  1.00  0.00    -0.205 F 
ATOM     45  C   UNL A   1      39.601  33.689  37.435  1.00  0.00     0.022 A 
BRANCH  43  46
ATOM     46  S   UNL A   1      37.478  32.208  38.325  1.00  0.00     0.127 S 
ATOM     47  O   UNL A   1      37.958  32.758  39.592  1.00  0.00    -0.237 OA
ATOM     48  O   UNL A   1      36.426  32.993  37.679  1.00  0.00    -0.237 OA
ATOM     49  O   UNL A   1      37.253  30.769  38.309  1.00  0.00    -0.744 OA
ENDBRANCH  43  46
ENDBRANCH  25  39
BRANCH  26  50
ATOM     50  C   UNL A   1      42.328  26.221  27.413  1.00  0.00     0.023 A 
ATOM     51  C   UNL A   1      43.161  26.696  26.384  1.00  0.00     0.012 A 
ATOM     52  C   UNL A   1      41.845  24.900  27.347  1.00  0.00     0.148 A 
ATOM     53  C   UNL A   1      43.500  25.874  25.307  1.00  0.00     0.002 A 
ATOM     54  C   UNL A   1      42.245  24.065  26.310  1.00  0.00     0.091 A 
ATOM     55  F   UNL A   1      41.030  24.465  28.319  1.00  0.00    -0.205 F 
ATOM     56  C   UNL A   1      43.058  24.553  25.280  1.00  0.00     0.022 A 
BRANCH  54  57
ATOM     57  S   UNL A   1      41.860  22.311  26.349  1.00  0.00     0.127 S 
ATOM     58  O   UNL A   1      42.624  21.806  25.213  1.00  0.00    -0.237 OA
ATOM     59  O   UNL A   1      42.363  21.901  27.661  1.00  0.00    -0.237 OA
ATOM     60  O   UNL A   1      40.407  22.255  26.232  1.00  0.00    -0.744 OA
ENDBRANCH  54  57
ENDBRANCH  26  50
BRANCH  38  61
ATOM     61  C   UNL A   1      45.182  26.864  33.744  1.00  0.00     0.023 A 
ATOM     62  C   UNL A   1      46.458  27.429  33.547  1.00  0.00     0.012 A 
ATOM     63  C   UNL A   1      45.043  25.732  34.567  1.00  0.00     0.148 A 
ATOM     64  C   UNL A   1      47.584  26.857  34.135  1.00  0.00     0.002 A 
ATOM     65  C   UNL A   1      46.167  25.188  35.179  1.00  0.00     0.091 A 
ATOM     66  F   UNL A   1      43.825  25.193  34.720  1.00  0.00    -0.205 F 
ATOM     67  C   UNL A   1      47.438  25.743  34.958  1.00  0.00     0.022 A 
BRANCH  65  68
ATOM     68  S   UNL A   1      46.045  23.796  36.308  1.00  0.00     0.127 S 
ATOM     69  O   UNL A   1      44.960  24.221  37.191  1.00  0.00    -0.237 OA
ATOM     70  O   UNL A   1      45.705  22.689  35.413  1.00  0.00    -0.237 OA
ATOM     71  O   UNL A   1      47.359  23.681  36.926  1.00  0.00    -0.744 OA
ENDBRANCH  65  68
ENDBRANCH  38  61
ENDBRANCH  12  13
ENDBRANCH   5   7
ENDBRANCH   2   3
ENDBRANCH   1   2
BRANCH   1  72
ATOM     72  C   UNL A   1      31.487  27.845  27.065  1.00  0.00     0.023 C 
BRANCH  72  73
ATOM     73  C   UNL A   1      32.293  26.609  26.685  1.00  0.00     0.116 C 
BRANCH  73  74
ATOM     74  N   UNL A   1      31.600  25.410  27.093  1.00  0.00    -0.354 N 
ATOM     75  C   UNL A   1      30.962  24.451  26.370  1.00  0.00     0.242 C 
ATOM     76  H   UNL A   1      31.589  25.259  28.066  1.00  0.00     0.163 HD
ATOM     77  O   UNL A   1      30.238  23.684  27.020  1.00  0.00    -0.273 OA
BRANCH  75  78
ATOM     78  C   UNL A   1      31.091  24.266  24.833  1.00  0.00     0.173 C 
BRANCH  78  79
ATOM     79  C   UNL A   1      31.182  22.794  24.343  1.00  0.00     0.070 C 
BRANCH  79  80
ATOM     80  C   UNL A   1      32.402  21.910  24.517  1.00  0.00    -0.045 A 
ATOM     81  C   UNL A   1      32.338  20.528  24.752  1.00  0.00     0.007 A 
ATOM     82  C   UNL A   1      33.677  22.486  24.349  1.00  0.00     0.007 A 
ATOM     83  C   UNL A   1      33.503  19.779  24.971  1.00  0.00     0.046 A 
ATOM     84  C   UNL A   1      34.842  21.736  24.538  1.00  0.00     0.046 A 
ATOM     85  C   UNL A   1      34.744  20.397  24.888  1.00  0.00     0.115 A 
BRANCH  85  86
ATOM     86  O   UNL A   1      35.898  19.727  25.154  1.00  0.00    -0.508 OA
ATOM     87  H   UNL A   1      35.933  18.795  25.054  1.00  0.00     0.293 HD
ENDBRANCH  85  86
ENDBRANCH  79  80
ENDBRANCH  78  79
BRANCH  78  88
ATOM     88  N   UNL A   1      30.139  25.096  24.083  1.00  0.00    -0.372 N 
ATOM     89  H   UNL A   1      29.269  24.679  23.885  1.00  0.00     0.161 HD
BRANCH  88  90
ATOM     90  C   UNL A   1      30.311  26.407  23.611  1.00  0.00     0.054 A 
ATOM     91  C   UNL A   1      31.575  26.972  23.221  1.00  0.00     0.024 A 
ATOM     92  C   UNL A   1      29.133  27.232  23.505  1.00  0.00     0.024 A 
ATOM     93  C   UNL A   1      32.844  26.327  23.223  1.00  0.00     0.012 A 
ATOM     94  C   UNL A   1      31.567  28.300  22.741  1.00  0.00     0.073 A 
ATOM     95  C   UNL A   1      29.286  28.526  22.969  1.00  0.00     0.073 A 
ATOM     96  C   UNL A   1      27.821  26.854  23.909  1.00  0.00     0.012 A 
ATOM     97  C   UNL A   1      34.029  26.966  22.847  1.00  0.00     0.001 A 
ATOM     98  C   UNL A   1      32.750  28.919  22.355  1.00  0.00     0.029 A 
ATOM     99  N   UNL A   1      30.463  29.034  22.606  1.00  0.00    -0.248 NA
ATOM    100  C   UNL A   1      28.179  29.346  22.800  1.00  0.00     0.029 A 
ATOM    101  C   UNL A   1      26.720  27.698  23.743  1.00  0.00     0.001 A 
ATOM    102  C   UNL A   1      33.982  28.275  22.414  1.00  0.00     0.002 A 
ATOM    103  C   UNL A   1      26.898  28.946  23.173  1.00  0.00     0.002 A 
ENDBRANCH  88  90
ENDBRANCH  78  88
ENDBRANCH  75  78
ENDBRANCH  73  74
ENDBRANCH  72  73
ENDBRANCH   1  72
TORSDOF 19
ENDMDL
MODEL 3
REMARK VINA RESULT:     -13.2      4.466     10.032
REMARK SMILES O=C(NCCCCNC(=O)[C@@H](Cc1ccc(O)cc1)Nc1c2ccccc2nc2ccccc12)c1ccc(-c2c3nc(c(-c4cccc(S(=O)(=O)[O-])c4F)c4ccc([nH]4)c(-c4cccc(S(=O)(=O)[O-])c4F)c4nc(c(-c5cccc(S(=O)(=O)[O-])c5F)c5ccc2[nH]5)C=C4)C=C3)cc1
REMARK SMILES IDX 5 1 4 2 3 3 1 4 2 5 35 7 36 8 97 9 37 10 96 11 38 12 39 13
REMARK SMILES IDX 40 14 90 15 41 16 95 17 89 18 91 19 42 20 94 21 88 22 87 23
REMARK SMILES IDX 43 25 75 26 55 27 74 28 56 29 59 30 73 31 92 32 57 33 58 34
REMARK SMILES IDX 72 36 93 37 60 38 44 39 45 40 53 41 46 42 48 43 54 44 47 45
REMARK SMILES IDX 49 46 50 47 51 48 52 49 76 50 77 51 85 52 78 53 80 54 86 55
REMARK SMILES IDX 79 56 81 57 82 58 83 59 84 60 61 61 62 62 70 63 63 64 65 65
REMARK SMILES IDX 71 66 64 67 66 68 67 69 68 70 69 71 6 72 7 73 8 74 9 75
REMARK SMILES IDX 10 77 11 78 12 79 13 80 14 81 19 82 15 83 18 84 16 85 17 86
REMARK SMILES IDX 20 88 21 90 22 91 34 92 23 93 27 94 29 95 33 96 24 97 26 98
REMARK SMILES IDX 28 99 30 100 32 101 25 102 31 103
REMARK H PARENT 3 6 91 24 59 35 8 76 17 87 20 89
REMARK Flexibility Score: inf
ROOT
ATOM      1  C   UNL A   1      35.651  23.115  24.542  1.00  0.00     0.023 C 
ENDROOT
BRANCH   1   2
ATOM      2  C   UNL A   1      36.216  22.347  25.726  1.00  0.00     0.116 C 
BRANCH   2   3
ATOM      3  N   UNL A   1      37.240  21.359  25.390  1.00  0.00    -0.352 N 
ATOM      4  O   UNL A   1      39.331  20.487  25.353  1.00  0.00    -0.269 OA
ATOM      5  C   UNL A   1      38.576  21.380  25.728  1.00  0.00     0.251 C 
ATOM      6  H   UNL A   1      36.939  20.587  24.859  1.00  0.00     0.163 HD
BRANCH   5   7
ATOM      7  C   UNL A   1      39.071  22.539  26.501  1.00  0.00     0.039 A 
ATOM      8  C   UNL A   1      38.609  23.814  26.179  1.00  0.00     0.014 A 
ATOM      9  C   UNL A   1      40.121  22.371  27.406  1.00  0.00     0.014 A 
ATOM     10  C   UNL A   1      39.347  24.917  26.578  1.00  0.00     0.010 A 
ATOM     11  C   UNL A   1      40.783  23.497  27.908  1.00  0.00     0.010 A 
ATOM     12  C   UNL A   1      40.445  24.777  27.448  1.00  0.00    -0.014 A 
BRANCH  12  13
ATOM     13  C   UNL A   1      41.181  26.005  27.857  1.00  0.00     0.031 A 
ATOM     14  C   UNL A   1      42.571  26.307  27.358  1.00  0.00     0.074 A 
ATOM     15  C   UNL A   1      40.536  26.900  28.633  1.00  0.00     0.049 A 
ATOM     16  N   UNL A   1      43.296  27.378  27.562  1.00  0.00    -0.248 NA
ATOM     17  C   UNL A   1      43.240  25.285  26.538  1.00  0.00     0.031 C 
ATOM     18  C   UNL A   1      39.206  26.696  29.213  1.00  0.00     0.029 A 
ATOM     19  N   UNL A   1      40.883  28.164  29.034  1.00  0.00    -0.354 N 
ATOM     20  C   UNL A   1      44.520  27.141  26.943  1.00  0.00     0.074 A 
ATOM     21  C   UNL A   1      44.440  25.823  26.352  1.00  0.00     0.031 C 
ATOM     22  C   UNL A   1      38.816  27.821  29.825  1.00  0.00     0.029 A 
ATOM     23  C   UNL A   1      39.892  28.801  29.745  1.00  0.00     0.049 A 
ATOM     24  H   UNL A   1      41.754  28.575  28.833  1.00  0.00     0.167 HD
ATOM     25  C   UNL A   1      45.601  27.954  26.863  1.00  0.00     0.034 A 
ATOM     26  C   UNL A   1      39.847  30.037  30.278  1.00  0.00     0.034 A 
ATOM     27  C   UNL A   1      45.655  29.288  27.403  1.00  0.00     0.049 A 
ATOM     28  C   UNL A   1      41.027  30.943  30.098  1.00  0.00     0.074 A 
ATOM     29  C   UNL A   1      46.700  30.194  27.357  1.00  0.00     0.029 A 
ATOM     30  N   UNL A   1      44.616  29.914  28.074  1.00  0.00    -0.354 N 
ATOM     31  N   UNL A   1      42.141  30.722  29.443  1.00  0.00    -0.248 NA
ATOM     32  C   UNL A   1      40.943  32.273  30.717  1.00  0.00     0.031 C 
ATOM     33  C   UNL A   1      46.290  31.370  27.996  1.00  0.00     0.029 A 
ATOM     34  C   UNL A   1      44.989  31.197  28.438  1.00  0.00     0.049 A 
ATOM     35  H   UNL A   1      43.740  29.506  28.265  1.00  0.00     0.167 HD
ATOM     36  C   UNL A   1      42.893  31.880  29.575  1.00  0.00     0.074 A 
ATOM     37  C   UNL A   1      42.087  32.820  30.327  1.00  0.00     0.031 C 
ATOM     38  C   UNL A   1      44.155  32.131  29.148  1.00  0.00     0.034 A 
BRANCH  25  39
ATOM     39  C   UNL A   1      46.809  27.452  26.114  1.00  0.00     0.023 A 
ATOM     40  C   UNL A   1      46.939  27.745  24.741  1.00  0.00     0.012 A 
ATOM     41  C   UNL A   1      47.852  26.775  26.776  1.00  0.00     0.148 A 
ATOM     42  C   UNL A   1      48.079  27.358  24.036  1.00  0.00     0.002 A 
ATOM     43  C   UNL A   1      49.000  26.421  26.074  1.00  0.00     0.091 A 
ATOM     44  F   UNL A   1      47.701  26.484  28.077  1.00  0.00    -0.205 F 
ATOM     45  C   UNL A   1      49.112  26.707  24.705  1.00  0.00     0.022 A 
BRANCH  43  46
ATOM     46  S   UNL A   1      50.414  25.642  26.865  1.00  0.00     0.127 S 
ATOM     47  O   UNL A   1      51.306  25.425  25.728  1.00  0.00    -0.237 OA
ATOM     48  O   UNL A   1      50.859  26.677  27.800  1.00  0.00    -0.237 OA
ATOM     49  O   UNL A   1      49.899  24.437  27.501  1.00  0.00    -0.744 OA
ENDBRANCH  43  46
ENDBRANCH  25  39
BRANCH  26  50
ATOM     50  C   UNL A   1      38.612  30.485  30.980  1.00  0.00     0.023 A 
ATOM     51  C   UNL A   1      38.510  30.334  32.375  1.00  0.00     0.012 A 
ATOM     52  C   UNL A   1      37.581  31.146  30.286  1.00  0.00     0.148 A 
ATOM     53  C   UNL A   1      37.398  30.824  33.063  1.00  0.00     0.002 A 
ATOM     54  C   UNL A   1      36.513  31.695  30.986  1.00  0.00     0.091 A 
ATOM     55  F   UNL A   1      37.676  31.262  28.953  1.00  0.00    -0.205 F 
ATOM     56  C   UNL A   1      36.410  31.522  32.372  1.00  0.00     0.022 A 
BRANCH  54  57
ATOM     57  S   UNL A   1      35.331  32.765  30.159  1.00  0.00     0.127 S 
ATOM     58  O   UNL A   1      34.772  31.878  29.146  1.00  0.00    -0.237 OA
ATOM     59  O   UNL A   1      34.412  33.123  31.241  1.00  0.00    -0.237 OA
ATOM     60  O   UNL A   1      36.132  33.884  29.674  1.00  0.00    -0.744 OA
ENDBRANCH  54  57
ENDBRANCH  26  50
BRANCH  38  61
ATOM     61  C   UNL A   1      44.740  33.470  29.501  1.00  0.00     0.023 A 
ATOM     62  C   UNL A   1      45.468  33.604  30.701  1.00  0.00     0.012 A 
ATOM     63  C   UNL A   1      44.609  34.575  28.641  1.00  0.00     0.148 A 
ATOM     64  C   UNL A   1      46.030  34.828  31.055  1.00  0.00     0.002 A 
ATOM     65  C   UNL A   1      45.204  35.784  28.984  1.00  0.00     0.091 A 
ATOM     66  F   UNL A   1      43.891  34.436  27.518  1.00  0.00    -0.205 F 
ATOM     67  C   UNL A   1      45.907  35.915  30.193  1.00  0.00     0.022 A 
BRANCH  65  68
ATOM     68  S   UNL A   1      45.146  37.208  27.890  1.00  0.00     0.127 S 
ATOM     69  O   UNL A   1      45.940  36.745  26.754  1.00  0.00    -0.237 OA
ATOM     70  O   UNL A   1      43.715  37.344  27.619  1.00  0.00    -0.237 OA
ATOM     71  O   UNL A   1      45.715  38.309  28.656  1.00  0.00    -0.744 OA
ENDBRANCH  65  68
ENDBRANCH  38  61
ENDBRANCH  12  13
ENDBRANCH   5   7
ENDBRANCH   2   3
ENDBRANCH   1   2
BRANCH   1  72
ATOM     72  C   UNL A   1      34.411  23.931  24.862  1.00  0.00     0.023 C 
BRANCH  72  73
ATOM     73  C   UNL A   1      34.246  25.235  24.091  1.00  0.00     0.116 C 
BRANCH  73  74
ATOM     74  N   UNL A   1      34.022  24.968  22.690  1.00  0.00    -0.354 N 
ATOM     75  C   UNL A   1      32.998  25.310  21.863  1.00  0.00     0.242 C 
ATOM     76  H   UNL A   1      34.737  24.448  22.257  1.00  0.00     0.163 HD
ATOM     77  O   UNL A   1      32.964  24.711  20.779  1.00  0.00    -0.273 OA
BRANCH  75  78
ATOM     78  C   UNL A   1      31.914  26.375  22.186  1.00  0.00     0.173 C 
BRANCH  78  79
ATOM     79  C   UNL A   1      30.725  25.875  23.053  1.00  0.00     0.070 C 
BRANCH  79  80
ATOM     80  C   UNL A   1      30.876  25.065  24.326  1.00  0.00    -0.045 A 
ATOM     81  C   UNL A   1      30.996  25.633  25.603  1.00  0.00     0.007 A 
ATOM     82  C   UNL A   1      30.806  23.660  24.238  1.00  0.00     0.007 A 
ATOM     83  C   UNL A   1      31.199  24.829  26.734  1.00  0.00     0.046 A 
ATOM     84  C   UNL A   1      30.980  22.855  25.367  1.00  0.00     0.046 A 
ATOM     85  C   UNL A   1      31.217  23.447  26.600  1.00  0.00     0.115 A 
BRANCH  85  86
ATOM     86  O   UNL A   1      31.473  22.627  27.656  1.00  0.00    -0.508 OA
ATOM     87  H   UNL A   1      31.994  21.857  27.536  1.00  0.00     0.293 HD
ENDBRANCH  85  86
ENDBRANCH  79  80
ENDBRANCH  78  79
BRANCH  78  88
ATOM     88  N   UNL A   1      32.491  27.651  22.628  1.00  0.00    -0.372 N 
ATOM     89  H   UNL A   1      33.394  27.853  22.291  1.00  0.00     0.161 HD
BRANCH  88  90
ATOM     90  C   UNL A   1      31.920  28.620  23.468  1.00  0.00     0.054 A 
ATOM     91  C   UNL A   1      30.782  29.429  23.121  1.00  0.00     0.024 A 
ATOM     92  C   UNL A   1      32.518  28.804  24.767  1.00  0.00     0.024 A 
ATOM     93  C   UNL A   1      30.033  29.389  21.911  1.00  0.00     0.012 A 
ATOM     94  C   UNL A   1      30.317  30.339  24.096  1.00  0.00     0.073 A 
ATOM     95  C   UNL A   1      31.910  29.727  25.642  1.00  0.00     0.073 A 
ATOM     96  C   UNL A   1      33.683  28.139  25.242  1.00  0.00     0.012 A 
ATOM     97  C   UNL A   1      28.950  30.233  21.652  1.00  0.00     0.001 A 
ATOM     98  C   UNL A   1      29.228  31.162  23.832  1.00  0.00     0.029 A 
ATOM     99  N   UNL A   1      30.852  30.464  25.310  1.00  0.00    -0.248 NA
ATOM    100  C   UNL A   1      32.416  29.909  26.922  1.00  0.00     0.029 A 
ATOM    101  C   UNL A   1      34.185  28.344  26.530  1.00  0.00     0.001 A 
ATOM    102  C   UNL A   1      28.547  31.131  22.619  1.00  0.00     0.002 A 
ATOM    103  C   UNL A   1      33.539  29.225  27.379  1.00  0.00     0.002 A 
ENDBRANCH  88  90
ENDBRANCH  78  88
ENDBRANCH  75  78
ENDBRANCH  73  74
ENDBRANCH  72  73
ENDBRANCH   1  72
TORSDOF 19
ENDMDL
