MODEL 1
REMARK VINA RESULT:     -10.4      0.000      0.000
REMARK SMILES C[C@H](NC(=O)N(CC(=O)NCCCCNC(=O)c1ccc(-c2c3nc(c(-c4cccc(S(=O)(=O)[O-])c4F)c4ccc([nH]4)c(-c4cccc(S(=O)(=O)[O-])c4F)c4nc(c(-c5cccc(S(=O)(=O)[O-])c5F)c5ccc2[nH]5)C=C4)C=C3)cc1)CC(F)(F)F)[C@@H]1CCCO1
REMARK SMILES IDX 12 1 11 2 10 3 8 4 9 5 7 7 6 8 4 9 3 10 5 12 2 13 1 14 86 15
REMARK SMILES IDX 87 16 90 17 88 18 89 19 81 20 82 21 83 22 84 23 85 24 13 25
REMARK SMILES IDX 14 26 15 27 16 28 17 30 18 31 19 32 80 33 20 34 79 35 21 36
REMARK SMILES IDX 22 37 23 38 73 39 24 40 78 41 72 42 74 43 25 44 77 45 71 46
REMARK SMILES IDX 70 47 26 49 58 50 38 51 57 52 39 53 42 54 56 55 75 56 40 57
REMARK SMILES IDX 41 58 55 60 76 61 43 62 27 63 28 64 36 65 29 66 31 67 37 68
REMARK SMILES IDX 30 69 32 70 33 71 34 72 35 73 59 74 60 75 68 76 61 77 63 78
REMARK SMILES IDX 69 79 62 80 64 81 65 82 66 83 67 84 44 85 45 86 53 87 46 88
REMARK SMILES IDX 48 89 54 90 47 91 49 92 50 93 51 94 52 95
REMARK H PARENT 10 6 3 11 15 29 74 48 42 59
REMARK Flexibility Score: inf
ROOT
ATOM      1  C   UNL A   1      35.148  21.950  25.958  1.00  0.00     0.023 C 
ENDROOT
BRANCH   1   2
ATOM      2  C   UNL A   1      34.253  21.899  24.725  1.00  0.00     0.116 C 
BRANCH   2   3
ATOM      3  N   UNL A   1      32.861  21.710  25.088  1.00  0.00    -0.355 N 
ATOM      4  C   UNL A   1      32.038  22.540  25.791  1.00  0.00     0.239 C 
ATOM      5  O   UNL A   1      30.897  22.174  26.072  1.00  0.00    -0.273 OA
ATOM      6  H   UNL A   1      32.455  20.866  24.786  1.00  0.00     0.163 HD
BRANCH   4   7
ATOM      7  C   UNL A   1      32.502  23.958  26.103  1.00  0.00     0.221 C 
BRANCH   7   8
ATOM      8  N   UNL A   1      32.418  24.981  25.063  1.00  0.00    -0.306 N 
BRANCH   8   9
ATOM      9  C   UNL A   1      33.437  25.652  24.458  1.00  0.00     0.318 C 
ATOM     10  N   UNL A   1      33.756  26.936  24.699  1.00  0.00    -0.333 N 
ATOM     11  H   UNL A   1      34.545  27.200  24.172  1.00  0.00     0.165 HD
ATOM     12  O   UNL A   1      34.184  25.080  23.656  1.00  0.00    -0.249 OA
BRANCH  10  13
ATOM     13  C   UNL A   1      33.277  28.068  25.517  1.00  0.00     0.109 C 
ATOM     14  C   UNL A   1      34.344  28.584  26.499  1.00  0.00     0.034 C 
BRANCH  13  15
ATOM     15  C   UNL A   1      32.699  29.199  24.610  1.00  0.00     0.140 C 
ATOM     16  C   UNL A   1      31.350  29.775  25.036  1.00  0.00     0.036 C 
ATOM     17  O   UNL A   1      32.551  28.697  23.268  1.00  0.00    -0.376 OA
ATOM     18  C   UNL A   1      30.459  29.619  23.824  1.00  0.00     0.031 C 
ATOM     19  C   UNL A   1      31.163  28.600  22.959  1.00  0.00     0.160 C 
ENDBRANCH  13  15
ENDBRANCH  10  13
ENDBRANCH   8   9
BRANCH   8  20
ATOM     20  C   UNL A   1      31.052  25.255  24.545  1.00  0.00     0.237 C 
BRANCH  20  21
ATOM     21  C   UNL A   1      30.038  25.912  25.489  1.00  0.00     0.406 C 
ATOM     22  F   UNL A   1      30.590  26.840  26.295  1.00  0.00    -0.169 F 
ATOM     23  F   UNL A   1      29.073  26.532  24.766  1.00  0.00    -0.169 F 
ATOM     24  F   UNL A   1      29.421  24.996  26.266  1.00  0.00    -0.169 F 
ENDBRANCH  20  21
ENDBRANCH   8  20
ENDBRANCH   7   8
ENDBRANCH   4   7
ENDBRANCH   2   3
ENDBRANCH   1   2
BRANCH   1  25
ATOM     25  C   UNL A   1      35.973  23.230  26.074  1.00  0.00     0.023 C 
BRANCH  25  26
ATOM     26  C   UNL A   1      37.206  23.254  25.182  1.00  0.00     0.116 C 
BRANCH  26  27
ATOM     27  N   UNL A   1      38.243  22.348  25.656  1.00  0.00    -0.352 N 
ATOM     28  C   UNL A   1      39.407  22.658  26.319  1.00  0.00     0.251 C 
ATOM     29  H   UNL A   1      38.091  21.392  25.478  1.00  0.00     0.163 HD
ATOM     30  O   UNL A   1      40.269  21.814  26.501  1.00  0.00    -0.269 OA
BRANCH  28  31
ATOM     31  C   UNL A   1      39.600  24.046  26.785  1.00  0.00     0.039 A 
ATOM     32  C   UNL A   1      39.322  24.361  28.115  1.00  0.00     0.014 A 
ATOM     33  C   UNL A   1      40.122  25.007  25.915  1.00  0.00     0.014 A 
ATOM     34  C   UNL A   1      39.629  25.635  28.593  1.00  0.00     0.010 A 
ATOM     35  C   UNL A   1      40.498  26.248  26.414  1.00  0.00     0.010 A 
ATOM     36  C   UNL A   1      40.252  26.575  27.756  1.00  0.00    -0.014 A 
BRANCH  36  37
ATOM     37  C   UNL A   1      40.687  27.896  28.271  1.00  0.00     0.031 A 
ATOM     38  C   UNL A   1      42.148  28.196  28.452  1.00  0.00     0.074 A 
ATOM     39  C   UNL A   1      39.759  28.779  28.687  1.00  0.00     0.049 A 
ATOM     40  N   UNL A   1      42.713  29.271  28.936  1.00  0.00    -0.248 NA
ATOM     41  C   UNL A   1      43.097  27.138  28.072  1.00  0.00     0.031 C 
ATOM     42  C   UNL A   1      38.312  28.554  28.671  1.00  0.00     0.029 A 
ATOM     43  N   UNL A   1      39.896  30.028  29.241  1.00  0.00    -0.354 N 
ATOM     44  C   UNL A   1      44.075  29.003  28.962  1.00  0.00     0.074 A 
ATOM     45  C   UNL A   1      44.249  27.651  28.476  1.00  0.00     0.031 C 
ATOM     46  C   UNL A   1      37.696  29.625  29.196  1.00  0.00     0.029 A 
ATOM     47  C   UNL A   1      38.701  30.600  29.608  1.00  0.00     0.049 A 
ATOM     48  H   UNL A   1      40.766  30.470  29.363  1.00  0.00     0.167 HD
ATOM     49  C   UNL A   1      45.092  29.818  29.328  1.00  0.00     0.034 A 
ATOM     50  C   UNL A   1      38.442  31.773  30.218  1.00  0.00     0.034 A 
ATOM     51  C   UNL A   1      44.915  31.177  29.764  1.00  0.00     0.049 A 
ATOM     52  C   UNL A   1      39.584  32.693  30.548  1.00  0.00     0.074 A 
ATOM     53  C   UNL A   1      45.882  32.131  30.022  1.00  0.00     0.029 A 
ATOM     54  N   UNL A   1      43.688  31.769  30.023  1.00  0.00    -0.354 N 
ATOM     55  N   UNL A   1      40.869  32.506  30.368  1.00  0.00    -0.248 NA
ATOM     56  C   UNL A   1      39.241  33.997  31.130  1.00  0.00     0.031 C 
ATOM     57  C   UNL A   1      45.240  33.292  30.468  1.00  0.00     0.029 A 
ATOM     58  C   UNL A   1      43.871  33.068  30.464  1.00  0.00     0.049 A 
ATOM     59  H   UNL A   1      42.814  31.329  29.911  1.00  0.00     0.167 HD
ATOM     60  C   UNL A   1      41.489  33.673  30.797  1.00  0.00     0.074 A 
ATOM     61  C   UNL A   1      40.434  34.573  31.218  1.00  0.00     0.031 C 
ATOM     62  C   UNL A   1      42.812  33.966  30.853  1.00  0.00     0.034 A 
BRANCH  49  63
ATOM     63  C   UNL A   1      46.492  29.270  29.223  1.00  0.00     0.023 A 
ATOM     64  C   UNL A   1      47.094  28.672  30.350  1.00  0.00     0.012 A 
ATOM     65  C   UNL A   1      47.203  29.320  28.008  1.00  0.00     0.148 A 
ATOM     66  C   UNL A   1      48.395  28.176  30.284  1.00  0.00     0.002 A 
ATOM     67  C   UNL A   1      48.483  28.782  27.938  1.00  0.00     0.091 A 
ATOM     68  F   UNL A   1      46.628  29.915  26.952  1.00  0.00    -0.205 F 
ATOM     69  C   UNL A   1      49.085  28.223  29.077  1.00  0.00     0.022 A 
BRANCH  67  70
ATOM     70  S   UNL A   1      49.418  28.727  26.405  1.00  0.00     0.127 S 
ATOM     71  O   UNL A   1      49.973  30.078  26.348  1.00  0.00    -0.237 OA
ATOM     72  O   UNL A   1      50.401  27.677  26.678  1.00  0.00    -0.237 OA
ATOM     73  O   UNL A   1      48.455  28.395  25.365  1.00  0.00    -0.744 OA
ENDBRANCH  67  70
ENDBRANCH  49  63
BRANCH  50  74
ATOM     74  C   UNL A   1      37.029  32.155  30.492  1.00  0.00     0.023 A 
ATOM     75  C   UNL A   1      36.493  31.951  31.778  1.00  0.00     0.012 A 
ATOM     76  C   UNL A   1      36.245  32.793  29.511  1.00  0.00     0.148 A 
ATOM     77  C   UNL A   1      35.194  32.364  32.077  1.00  0.00     0.002 A 
ATOM     78  C   UNL A   1      34.973  33.251  29.832  1.00  0.00     0.091 A 
ATOM     79  F   UNL A   1      36.776  32.970  28.293  1.00  0.00    -0.205 F 
ATOM     80  C   UNL A   1      34.440  33.025  31.111  1.00  0.00     0.022 A 
BRANCH  78  81
ATOM     81  S   UNL A   1      33.985  34.235  28.700  1.00  0.00     0.127 S 
ATOM     82  O   UNL A   1      33.664  33.260  27.660  1.00  0.00    -0.237 OA
ATOM     83  O   UNL A   1      32.859  34.625  29.549  1.00  0.00    -0.237 OA
ATOM     84  O   UNL A   1      34.839  35.339  28.287  1.00  0.00    -0.744 OA
ENDBRANCH  78  81
ENDBRANCH  50  74
BRANCH  62  85
ATOM     85  C   UNL A   1      43.205  35.317  31.391  1.00  0.00     0.023 A 
ATOM     86  C   UNL A   1      43.408  35.481  32.777  1.00  0.00     0.012 A 
ATOM     87  C   UNL A   1      43.448  36.400  30.524  1.00  0.00     0.148 A 
ATOM     88  C   UNL A   1      43.819  36.709  33.293  1.00  0.00     0.002 A 
ATOM     89  C   UNL A   1      43.903  37.608  31.041  1.00  0.00     0.091 A 
ATOM     90  F   UNL A   1      43.231  36.230  29.212  1.00  0.00    -0.205 F 
ATOM     91  C   UNL A   1      44.078  37.767  32.425  1.00  0.00     0.022 A 
BRANCH  89  92
ATOM     92  S   UNL A   1      44.352  38.996  29.993  1.00  0.00     0.127 S 
ATOM     93  O   UNL A   1      44.782  39.987  30.977  1.00  0.00    -0.237 OA
ATOM     94  O   UNL A   1      45.431  38.435  29.180  1.00  0.00    -0.237 OA
ATOM     95  O   UNL A   1      43.150  39.339  29.244  1.00  0.00    -0.744 OA
ENDBRANCH  89  92
ENDBRANCH  62  85
ENDBRANCH  36  37
ENDBRANCH  28  31
ENDBRANCH  26  27
ENDBRANCH  25  26
ENDBRANCH   1  25
TORSDOF 20
ENDMDL
MODEL 2
REMARK VINA RESULT:     -10.4      4.701      9.648
REMARK SMILES C[C@H](NC(=O)N(CC(=O)NCCCCNC(=O)c1ccc(-c2c3nc(c(-c4cccc(S(=O)(=O)[O-])c4F)c4ccc([nH]4)c(-c4cccc(S(=O)(=O)[O-])c4F)c4nc(c(-c5cccc(S(=O)(=O)[O-])c5F)c5ccc2[nH]5)C=C4)C=C3)cc1)CC(F)(F)F)[C@@H]1CCCO1
REMARK SMILES IDX 12 1 11 2 10 3 8 4 9 5 7 7 6 8 4 9 3 10 5 12 2 13 1 14 86 15
REMARK SMILES IDX 87 16 90 17 88 18 89 19 81 20 82 21 83 22 84 23 85 24 13 25
REMARK SMILES IDX 14 26 15 27 16 28 17 30 18 31 19 32 80 33 20 34 79 35 21 36
REMARK SMILES IDX 22 37 23 38 73 39 24 40 78 41 72 42 74 43 25 44 77 45 71 46
REMARK SMILES IDX 70 47 26 49 58 50 38 51 57 52 39 53 42 54 56 55 75 56 40 57
REMARK SMILES IDX 41 58 55 60 76 61 43 62 27 63 28 64 36 65 29 66 31 67 37 68
REMARK SMILES IDX 30 69 32 70 33 71 34 72 35 73 59 74 60 75 68 76 61 77 63 78
REMARK SMILES IDX 69 79 62 80 64 81 65 82 66 83 67 84 44 85 45 86 53 87 46 88
REMARK SMILES IDX 48 89 54 90 47 91 49 92 50 93 51 94 52 95
REMARK H PARENT 10 6 3 11 15 29 74 48 42 59
REMARK Flexibility Score: inf
ROOT
ATOM      1  C   UNL A   1      31.063  29.291  24.126  1.00  0.00     0.023 C 
ENDROOT
BRANCH   1   2
ATOM      2  C   UNL A   1      30.053  28.250  23.659  1.00  0.00     0.116 C 
BRANCH   2   3
ATOM      3  N   UNL A   1      30.406  27.715  22.357  1.00  0.00    -0.355 N 
ATOM      4  C   UNL A   1      31.138  26.604  22.057  1.00  0.00     0.239 C 
ATOM      5  O   UNL A   1      31.404  26.346  20.883  1.00  0.00    -0.273 OA
ATOM      6  H   UNL A   1      30.072  28.225  21.584  1.00  0.00     0.163 HD
BRANCH   4   7
ATOM      7  C   UNL A   1      31.504  25.630  23.172  1.00  0.00     0.221 C 
BRANCH   7   8
ATOM      8  N   UNL A   1      32.844  25.050  23.200  1.00  0.00    -0.306 N 
BRANCH   8   9
ATOM      9  C   UNL A   1      33.279  23.906  22.600  1.00  0.00     0.318 C 
ATOM     10  N   UNL A   1      33.521  22.751  23.242  1.00  0.00    -0.333 N 
ATOM     11  H   UNL A   1      33.796  22.052  22.605  1.00  0.00     0.165 HD
ATOM     12  O   UNL A   1      33.436  23.854  21.375  1.00  0.00    -0.249 OA
BRANCH  10  13
ATOM     13  C   UNL A   1      33.498  22.215  24.619  1.00  0.00     0.109 C 
ATOM     14  C   UNL A   1      32.247  21.365  24.905  1.00  0.00     0.034 C 
BRANCH  13  15
ATOM     15  C   UNL A   1      34.825  21.457  24.938  1.00  0.00     0.140 C 
ATOM     16  C   UNL A   1      35.508  21.829  26.252  1.00  0.00     0.036 C 
ATOM     17  O   UNL A   1      35.769  21.692  23.876  1.00  0.00    -0.376 OA
ATOM     18  C   UNL A   1      36.915  22.227  25.860  1.00  0.00     0.031 C 
ATOM     19  C   UNL A   1      36.839  22.490  24.375  1.00  0.00     0.160 C 
ENDBRANCH  13  15
ENDBRANCH  10  13
ENDBRANCH   8   9
BRANCH   8  20
ATOM     20  C   UNL A   1      33.876  25.858  23.900  1.00  0.00     0.237 C 
BRANCH  20  21
ATOM     21  C   UNL A   1      34.009  25.704  25.419  1.00  0.00     0.406 C 
ATOM     22  F   UNL A   1      34.081  26.884  26.066  1.00  0.00    -0.169 F 
ATOM     23  F   UNL A   1      32.930  25.044  25.910  1.00  0.00    -0.169 F 
ATOM     24  F   UNL A   1      35.098  24.977  25.749  1.00  0.00    -0.169 F 
ENDBRANCH  20  21
ENDBRANCH   8  20
ENDBRANCH   7   8
ENDBRANCH   4   7
ENDBRANCH   2   3
ENDBRANCH   1   2
BRANCH   1  25
ATOM     25  C   UNL A   1      31.547  29.086  25.560  1.00  0.00     0.023 C 
BRANCH  25  26
ATOM     26  C   UNL A   1      32.835  29.826  25.890  1.00  0.00     0.116 C 
BRANCH  26  27
ATOM     27  N   UNL A   1      32.588  31.198  26.313  1.00  0.00    -0.352 N 
ATOM     28  C   UNL A   1      33.278  31.940  27.243  1.00  0.00     0.251 C 
ATOM     29  H   UNL A   1      31.831  31.651  25.877  1.00  0.00     0.163 HD
ATOM     30  O   UNL A   1      32.853  33.018  27.625  1.00  0.00    -0.269 OA
BRANCH  28  31
ATOM     31  C   UNL A   1      34.535  31.388  27.787  1.00  0.00     0.039 A 
ATOM     32  C   UNL A   1      35.612  32.245  28.011  1.00  0.00     0.014 A 
ATOM     33  C   UNL A   1      34.610  30.036  28.135  1.00  0.00     0.014 A 
ATOM     34  C   UNL A   1      36.752  31.756  28.649  1.00  0.00     0.010 A 
ATOM     35  C   UNL A   1      35.714  29.573  28.839  1.00  0.00     0.010 A 
ATOM     36  C   UNL A   1      36.797  30.426  29.099  1.00  0.00    -0.014 A 
BRANCH  36  37
ATOM     37  C   UNL A   1      37.953  29.915  29.875  1.00  0.00     0.031 A 
ATOM     38  C   UNL A   1      38.225  30.430  31.260  1.00  0.00     0.074 A 
ATOM     39  C   UNL A   1      38.824  29.075  29.283  1.00  0.00     0.049 A 
ATOM     40  N   UNL A   1      39.212  30.140  32.066  1.00  0.00    -0.248 NA
ATOM     41  C   UNL A   1      37.283  31.427  31.796  1.00  0.00     0.031 C 
ATOM     42  C   UNL A   1      38.731  28.596  27.903  1.00  0.00     0.029 A 
ATOM     43  N   UNL A   1      39.981  28.505  29.756  1.00  0.00    -0.354 N 
ATOM     44  C   UNL A   1      39.038  30.948  33.182  1.00  0.00     0.074 A 
ATOM     45  C   UNL A   1      37.869  31.765  32.935  1.00  0.00     0.031 C 
ATOM     46  C   UNL A   1      39.788  27.812  27.638  1.00  0.00     0.029 A 
ATOM     47  C   UNL A   1      40.645  27.751  28.818  1.00  0.00     0.049 A 
ATOM     48  H   UNL A   1      40.303  28.627  30.678  1.00  0.00     0.167 HD
ATOM     49  C   UNL A   1      39.766  30.987  34.323  1.00  0.00     0.034 A 
ATOM     50  C   UNL A   1      41.818  27.093  28.894  1.00  0.00     0.034 A 
ATOM     51  C   UNL A   1      40.898  30.138  34.581  1.00  0.00     0.049 A 
ATOM     52  C   UNL A   1      42.572  27.091  30.194  1.00  0.00     0.074 A 
ATOM     53  C   UNL A   1      41.617  29.996  35.753  1.00  0.00     0.029 A 
ATOM     54  N   UNL A   1      41.485  29.299  33.646  1.00  0.00    -0.354 N 
ATOM     55  N   UNL A   1      42.277  27.699  31.318  1.00  0.00    -0.248 NA
ATOM     56  C   UNL A   1      43.798  26.284  30.251  1.00  0.00     0.031 C 
ATOM     57  C   UNL A   1      42.661  29.093  35.517  1.00  0.00     0.029 A 
ATOM     58  C   UNL A   1      42.575  28.655  34.204  1.00  0.00     0.049 A 
ATOM     59  H   UNL A   1      41.172  29.180  32.720  1.00  0.00     0.167 HD
ATOM     60  C   UNL A   1      43.268  27.337  32.221  1.00  0.00     0.074 A 
ATOM     61  C   UNL A   1      44.158  26.431  31.520  1.00  0.00     0.031 C 
ATOM     62  C   UNL A   1      43.437  27.732  33.507  1.00  0.00     0.034 A 
BRANCH  49  63
ATOM     63  C   UNL A   1      39.326  31.949  35.395  1.00  0.00     0.023 A 
ATOM     64  C   UNL A   1      38.385  31.536  36.361  1.00  0.00     0.012 A 
ATOM     65  C   UNL A   1      39.860  33.251  35.467  1.00  0.00     0.148 A 
ATOM     66  C   UNL A   1      37.946  32.414  37.350  1.00  0.00     0.002 A 
ATOM     67  C   UNL A   1      39.452  34.105  36.485  1.00  0.00     0.091 A 
ATOM     68  F   UNL A   1      40.734  33.638  34.527  1.00  0.00    -0.205 F 
ATOM     69  C   UNL A   1      38.486  33.695  37.418  1.00  0.00     0.022 A 
BRANCH  67  70
ATOM     70  S   UNL A   1      40.152  35.746  36.698  1.00  0.00     0.127 S 
ATOM     71  O   UNL A   1      41.586  35.462  36.674  1.00  0.00    -0.237 OA
ATOM     72  O   UNL A   1      39.653  36.453  35.517  1.00  0.00    -0.237 OA
ATOM     73  O   UNL A   1      39.627  36.241  37.962  1.00  0.00    -0.744 OA
ENDBRANCH  67  70
ENDBRANCH  49  63
BRANCH  50  74
ATOM     74  C   UNL A   1      42.305  26.335  27.709  1.00  0.00     0.023 A 
ATOM     75  C   UNL A   1      43.230  26.935  26.834  1.00  0.00     0.012 A 
ATOM     76  C   UNL A   1      41.920  24.996  27.494  1.00  0.00     0.148 A 
ATOM     77  C   UNL A   1      43.753  26.219  25.756  1.00  0.00     0.002 A 
ATOM     78  C   UNL A   1      42.487  24.273  26.451  1.00  0.00     0.091 A 
ATOM     79  F   UNL A   1      41.033  24.450  28.337  1.00  0.00    -0.205 F 
ATOM     80  C   UNL A   1      43.393  24.887  25.572  1.00  0.00     0.022 A 
BRANCH  78  81
ATOM     81  S   UNL A   1      42.192  22.516  26.221  1.00  0.00     0.127 S 
ATOM     82  O   UNL A   1      42.945  22.245  24.999  1.00  0.00    -0.237 OA
ATOM     83  O   UNL A   1      42.772  21.954  27.441  1.00  0.00    -0.237 OA
ATOM     84  O   UNL A   1      40.747  22.368  26.117  1.00  0.00    -0.744 OA
ENDBRANCH  78  81
ENDBRANCH  50  74
BRANCH  62  85
ATOM     85  C   UNL A   1      44.630  27.192  34.252  1.00  0.00     0.023 A 
ATOM     86  C   UNL A   1      45.848  27.901  34.219  1.00  0.00     0.012 A 
ATOM     87  C   UNL A   1      44.526  26.032  35.043  1.00  0.00     0.148 A 
ATOM     88  C   UNL A   1      46.952  27.447  34.939  1.00  0.00     0.002 A 
ATOM     89  C   UNL A   1      45.617  25.611  35.796  1.00  0.00     0.091 A 
ATOM     90  F   UNL A   1      43.365  25.362  35.047  1.00  0.00    -0.205 F 
ATOM     91  C   UNL A   1      46.833  26.311  35.736  1.00  0.00     0.022 A 
BRANCH  89  92
ATOM     92  S   UNL A   1      45.529  24.215  36.923  1.00  0.00     0.127 S 
ATOM     93  O   UNL A   1      46.895  24.161  37.439  1.00  0.00    -0.237 OA
ATOM     94  O   UNL A   1      44.527  24.661  37.892  1.00  0.00    -0.237 OA
ATOM     95  O   UNL A   1      45.119  23.073  36.116  1.00  0.00    -0.744 OA
ENDBRANCH  89  92
ENDBRANCH  62  85
ENDBRANCH  36  37
ENDBRANCH  28  31
ENDBRANCH  26  27
ENDBRANCH  25  26
ENDBRANCH   1  25
TORSDOF 20
ENDMDL
MODEL 3
REMARK VINA RESULT:     -10.4      2.138      2.793
REMARK SMILES C[C@H](NC(=O)N(CC(=O)NCCCCNC(=O)c1ccc(-c2c3nc(c(-c4cccc(S(=O)(=O)[O-])c4F)c4ccc([nH]4)c(-c4cccc(S(=O)(=O)[O-])c4F)c4nc(c(-c5cccc(S(=O)(=O)[O-])c5F)c5ccc2[nH]5)C=C4)C=C3)cc1)CC(F)(F)F)[C@@H]1CCCO1
REMARK SMILES IDX 12 1 11 2 10 3 8 4 9 5 7 7 6 8 4 9 3 10 5 12 2 13 1 14 86 15
REMARK SMILES IDX 87 16 90 17 88 18 89 19 81 20 82 21 83 22 84 23 85 24 13 25
REMARK SMILES IDX 14 26 15 27 16 28 17 30 18 31 19 32 80 33 20 34 79 35 21 36
REMARK SMILES IDX 22 37 23 38 73 39 24 40 78 41 72 42 74 43 25 44 77 45 71 46
REMARK SMILES IDX 70 47 26 49 58 50 38 51 57 52 39 53 42 54 56 55 75 56 40 57
REMARK SMILES IDX 41 58 55 60 76 61 43 62 27 63 28 64 36 65 29 66 31 67 37 68
REMARK SMILES IDX 30 69 32 70 33 71 34 72 35 73 59 74 60 75 68 76 61 77 63 78
REMARK SMILES IDX 69 79 62 80 64 81 65 82 66 83 67 84 44 85 45 86 53 87 46 88
REMARK SMILES IDX 48 89 54 90 47 91 49 92 50 93 51 94 52 95
REMARK H PARENT 10 6 3 11 15 29 74 48 42 59
REMARK Flexibility Score: inf
ROOT
ATOM      1  C   UNL A   1      34.430  21.694  24.269  1.00  0.00     0.023 C 
ENDROOT
BRANCH   1   2
ATOM      2  C   UNL A   1      33.323  22.438  23.532  1.00  0.00     0.116 C 
BRANCH   2   3
ATOM      3  N   UNL A   1      33.841  23.593  22.823  1.00  0.00    -0.355 N 
ATOM      4  C   UNL A   1      33.162  24.648  22.289  1.00  0.00     0.239 C 
ATOM      5  O   UNL A   1      33.769  25.505  21.649  1.00  0.00    -0.273 OA
ATOM      6  H   UNL A   1      34.819  23.617  22.710  1.00  0.00     0.163 HD
BRANCH   4   7
ATOM      7  C   UNL A   1      31.679  24.814  22.607  1.00  0.00     0.221 C 
BRANCH   7   8
ATOM      8  N   UNL A   1      31.283  25.639  23.746  1.00  0.00    -0.306 N 
BRANCH   8   9
ATOM      9  C   UNL A   1      30.902  26.946  23.748  1.00  0.00     0.318 C 
ATOM     10  N   UNL A   1      31.746  27.989  23.833  1.00  0.00    -0.333 N 
ATOM     11  H   UNL A   1      31.251  28.839  23.784  1.00  0.00     0.165 HD
ATOM     12  O   UNL A   1      29.713  27.259  23.617  1.00  0.00    -0.249 OA
BRANCH  10  13
ATOM     13  C   UNL A   1      33.194  28.241  23.980  1.00  0.00     0.109 C 
ATOM     14  C   UNL A   1      33.869  28.621  22.650  1.00  0.00     0.034 C 
BRANCH  13  15
ATOM     15  C   UNL A   1      33.460  29.286  25.108  1.00  0.00     0.140 C 
ATOM     16  C   UNL A   1      34.185  28.763  26.347  1.00  0.00     0.036 C 
ATOM     17  O   UNL A   1      32.205  29.841  25.544  1.00  0.00    -0.376 OA
ATOM     18  C   UNL A   1      33.281  29.118  27.507  1.00  0.00     0.031 C 
ATOM     19  C   UNL A   1      31.940  29.403  26.874  1.00  0.00     0.160 C 
ENDBRANCH  13  15
ENDBRANCH  10  13
ENDBRANCH   8   9
BRANCH   8  20
ATOM     20  C   UNL A   1      31.207  24.931  25.052  1.00  0.00     0.237 C 
BRANCH  20  21
ATOM     21  C   UNL A   1      32.343  25.144  26.058  1.00  0.00     0.406 C 
ATOM     22  F   UNL A   1      32.621  24.042  26.782  1.00  0.00    -0.169 F 
ATOM     23  F   UNL A   1      33.479  25.488  25.402  1.00  0.00    -0.169 F 
ATOM     24  F   UNL A   1      32.064  26.149  26.914  1.00  0.00    -0.169 F 
ENDBRANCH  20  21
ENDBRANCH   8  20
ENDBRANCH   7   8
ENDBRANCH   4   7
ENDBRANCH   2   3
ENDBRANCH   1   2
BRANCH   1  25
ATOM     25  C   UNL A   1      35.723  22.493  24.417  1.00  0.00     0.023 C 
BRANCH  25  26
ATOM     26  C   UNL A   1      36.405  22.321  25.766  1.00  0.00     0.116 C 
BRANCH  26  27
ATOM     27  N   UNL A   1      37.456  21.314  25.727  1.00  0.00    -0.352 N 
ATOM     28  C   UNL A   1      38.798  21.473  25.984  1.00  0.00     0.251 C 
ATOM     29  H   UNL A   1      37.169  20.404  25.486  1.00  0.00     0.163 HD
ATOM     30  O   UNL A   1      39.592  20.578  25.742  1.00  0.00    -0.269 OA
BRANCH  28  31
ATOM     31  C   UNL A   1      39.259  22.763  26.536  1.00  0.00     0.039 A 
ATOM     32  C   UNL A   1      40.268  22.767  27.498  1.00  0.00     0.014 A 
ATOM     33  C   UNL A   1      38.733  23.960  26.042  1.00  0.00     0.014 A 
ATOM     34  C   UNL A   1      40.799  23.985  27.924  1.00  0.00     0.010 A 
ATOM     35  C   UNL A   1      39.318  25.165  26.409  1.00  0.00     0.010 A 
ATOM     36  C   UNL A   1      40.353  25.190  27.356  1.00  0.00    -0.014 A 
BRANCH  36  37
ATOM     37  C   UNL A   1      40.978  26.486  27.713  1.00  0.00     0.031 A 
ATOM     38  C   UNL A   1      42.413  26.759  27.361  1.00  0.00     0.074 A 
ATOM     39  C   UNL A   1      40.285  27.370  28.457  1.00  0.00     0.049 A 
ATOM     40  N   UNL A   1      43.142  27.808  27.635  1.00  0.00    -0.248 NA
ATOM     41  C   UNL A   1      43.134  25.699  26.637  1.00  0.00     0.031 C 
ATOM     42  C   UNL A   1      38.925  27.168  28.959  1.00  0.00     0.029 A 
ATOM     43  N   UNL A   1      40.645  28.598  28.955  1.00  0.00    -0.354 N 
ATOM     44  C   UNL A   1      44.414  27.519  27.160  1.00  0.00     0.074 A 
ATOM     45  C   UNL A   1      44.367  26.182  26.611  1.00  0.00     0.031 C 
ATOM     46  C   UNL A   1      38.567  28.230  29.698  1.00  0.00     0.029 A 
ATOM     47  C   UNL A   1      39.678  29.175  29.743  1.00  0.00     0.049 A 
ATOM     48  H   UNL A   1      41.512  29.023  28.766  1.00  0.00     0.167 HD
ATOM     49  C   UNL A   1      45.516  28.306  27.154  1.00  0.00     0.034 A 
ATOM     50  C   UNL A   1      39.687  30.332  30.435  1.00  0.00     0.034 A 
ATOM     51  C   UNL A   1      45.543  29.653  27.659  1.00  0.00     0.049 A 
ATOM     52  C   UNL A   1      40.894  31.223  30.354  1.00  0.00     0.074 A 
ATOM     53  C   UNL A   1      46.562  30.583  27.574  1.00  0.00     0.029 A 
ATOM     54  N   UNL A   1      44.508  30.254  28.358  1.00  0.00    -0.354 N 
ATOM     55  N   UNL A   1      42.023  31.023  29.717  1.00  0.00    -0.248 NA
ATOM     56  C   UNL A   1      40.818  32.513  31.052  1.00  0.00     0.031 C 
ATOM     57  C   UNL A   1      46.154  31.739  28.251  1.00  0.00     0.029 A 
ATOM     58  C   UNL A   1      44.871  31.536  28.736  1.00  0.00     0.049 A 
ATOM     59  H   UNL A   1      43.641  29.832  28.558  1.00  0.00     0.167 HD
ATOM     60  C   UNL A   1      42.786  32.166  29.921  1.00  0.00     0.074 A 
ATOM     61  C   UNL A   1      41.977  33.068  30.718  1.00  0.00     0.031 C 
ATOM     62  C   UNL A   1      44.047  32.436  29.503  1.00  0.00     0.034 A 
BRANCH  49  63
ATOM     63  C   UNL A   1      46.769  27.741  26.537  1.00  0.00     0.023 A 
ATOM     64  C   UNL A   1      47.678  27.020  27.340  1.00  0.00     0.012 A 
ATOM     65  C   UNL A   1      47.037  27.898  25.164  1.00  0.00     0.148 A 
ATOM     66  C   UNL A   1      48.854  26.505  26.796  1.00  0.00     0.002 A 
ATOM     67  C   UNL A   1      48.189  27.341  24.620  1.00  0.00     0.091 A 
ATOM     68  F   UNL A   1      46.177  28.608  24.419  1.00  0.00    -0.205 F 
ATOM     69  C   UNL A   1      49.105  26.658  25.437  1.00  0.00     0.022 A 
BRANCH  67  70
ATOM     70  S   UNL A   1      48.556  27.419  22.864  1.00  0.00     0.127 S 
ATOM     71  O   UNL A   1      49.866  28.069  22.864  1.00  0.00    -0.237 OA
ATOM     72  O   UNL A   1      48.580  26.005  22.487  1.00  0.00    -0.237 OA
ATOM     73  O   UNL A   1      47.472  28.184  22.265  1.00  0.00    -0.744 OA
ENDBRANCH  67  70
ENDBRANCH  49  63
BRANCH  50  74
ATOM     74  C   UNL A   1      38.478  30.725  31.210  1.00  0.00     0.023 A 
ATOM     75  C   UNL A   1      38.438  30.492  32.598  1.00  0.00     0.012 A 
ATOM     76  C   UNL A   1      37.408  31.404  30.594  1.00  0.00     0.148 A 
ATOM     77  C   UNL A   1      37.346  30.915  33.357  1.00  0.00     0.002 A 
ATOM     78  C   UNL A   1      36.350  31.870  31.364  1.00  0.00     0.091 A 
ATOM     79  F   UNL A   1      37.467  31.609  29.271  1.00  0.00    -0.205 F 
ATOM     80  C   UNL A   1      36.310  31.614  32.744  1.00  0.00     0.022 A 
BRANCH  78  81
ATOM     81  S   UNL A   1      35.043  32.901  30.689  1.00  0.00     0.127 S 
ATOM     82  O   UNL A   1      34.626  32.126  29.522  1.00  0.00    -0.237 OA
ATOM     83  O   UNL A   1      34.081  32.924  31.791  1.00  0.00    -0.237 OA
ATOM     84  O   UNL A   1      35.662  34.187  30.402  1.00  0.00    -0.744 OA
ENDBRANCH  78  81
ENDBRANCH  50  74
BRANCH  62  85
ATOM     85  C   UNL A   1      44.642  33.763  29.897  1.00  0.00     0.023 A 
ATOM     86  C   UNL A   1      45.415  33.857  31.073  1.00  0.00     0.012 A 
ATOM     87  C   UNL A   1      44.505  34.894  29.069  1.00  0.00     0.148 A 
ATOM     88  C   UNL A   1      46.016  35.062  31.432  1.00  0.00     0.002 A 
ATOM     89  C   UNL A   1      45.145  36.080  29.409  1.00  0.00     0.091 A 
ATOM     90  F   UNL A   1      43.751  34.790  27.965  1.00  0.00    -0.205 F 
ATOM     91  C   UNL A   1      45.892  36.168  30.595  1.00  0.00     0.022 A 
BRANCH  89  92
ATOM     92  S   UNL A   1      45.120  37.528  28.346  1.00  0.00     0.127 S 
ATOM     93  O   UNL A   1      43.686  37.766  28.201  1.00  0.00    -0.237 OA
ATOM     94  O   UNL A   1      45.825  38.521  29.156  1.00  0.00    -0.237 OA
ATOM     95  O   UNL A   1      45.816  37.141  27.126  1.00  0.00    -0.744 OA
ENDBRANCH  89  92
ENDBRANCH  62  85
ENDBRANCH  36  37
ENDBRANCH  28  31
ENDBRANCH  26  27
ENDBRANCH  25  26
ENDBRANCH   1  25
TORSDOF 20
ENDMDL
