MODEL 1
REMARK VINA RESULT:     -12.1      0.000      0.000
REMARK SMILES C[C@@H](C(=O)NCCCCNC(=O)c1ccc(-c2c3nc(c(-c4cccc(S(=O)(=O)[O-])c4F)c4ccc([nH]4)c(-c4cccc(S(=O)(=O)[O-])c4F)c4nc(c(-c5cccc(S(=O)(=O)[O-])c5F)c5ccc2[nH]5)C=C4)C=C3)cc1)c1ccc(C[C@H]2CCCC2=O)cc1
REMARK SMILES IDX 7 1 6 2 5 3 3 4 4 5 2 7 1 8 76 9 77 10 88 11 78 12 87 13
REMARK SMILES IDX 79 14 80 15 81 16 82 17 85 18 83 19 84 20 86 21 8 22 9 23
REMARK SMILES IDX 10 24 11 25 12 27 13 28 14 29 75 30 15 31 74 32 16 33 17 34
REMARK SMILES IDX 18 35 68 36 19 37 73 38 67 39 69 40 20 41 72 42 66 43 65 44
REMARK SMILES IDX 21 46 53 47 33 48 52 49 34 50 37 51 51 52 70 53 35 54 36 55
REMARK SMILES IDX 50 57 71 58 38 59 22 60 23 61 31 62 24 63 26 64 32 65 25 66
REMARK SMILES IDX 27 67 28 68 29 69 30 70 54 71 55 72 63 73 56 74 58 75 64 76
REMARK SMILES IDX 57 77 59 78 60 79 61 80 62 81 39 82 40 83 48 84 41 85 43 86
REMARK SMILES IDX 49 87 42 88 44 89 45 90 46 91 47 92
REMARK H PARENT 5 6 10 26 69 45 37 56
REMARK Flexibility Score: inf
ROOT
ATOM      1  C   UNL A   1      31.839  27.785  26.699  1.00  0.00     0.023 C 
ENDROOT
BRANCH   1   2
ATOM      2  C   UNL A   1      32.287  26.392  26.254  1.00  0.00     0.116 C 
BRANCH   2   3
ATOM      3  N   UNL A   1      31.431  25.366  26.814  1.00  0.00    -0.356 N 
ATOM      4  C   UNL A   1      30.617  24.465  26.190  1.00  0.00     0.227 C 
ATOM      5  O   UNL A   1      29.891  23.776  26.908  1.00  0.00    -0.274 OA
ATOM      6  H   UNL A   1      31.438  25.309  27.797  1.00  0.00     0.163 HD
BRANCH   4   7
ATOM      7  C   UNL A   1      30.665  24.317  24.660  1.00  0.00     0.105 C 
ATOM      8  C   UNL A   1      31.959  23.647  24.183  1.00  0.00     0.023 C 
BRANCH   7   9
ATOM      9  C   UNL A   1      30.437  25.654  23.959  1.00  0.00    -0.036 A 
ATOM     10  C   UNL A   1      31.391  26.130  23.048  1.00  0.00     0.005 A 
ATOM     11  C   UNL A   1      29.277  26.414  24.169  1.00  0.00     0.005 A 
ATOM     12  C   UNL A   1      31.214  27.360  22.411  1.00  0.00     0.004 A 
ATOM     13  C   UNL A   1      29.114  27.655  23.552  1.00  0.00     0.004 A 
ATOM     14  C   UNL A   1      30.094  28.153  22.688  1.00  0.00    -0.047 A 
BRANCH  14  15
ATOM     15  C   UNL A   1      29.947  29.527  22.084  1.00  0.00     0.047 C 
BRANCH  15  16
ATOM     16  C   UNL A   1      28.656  30.278  22.439  1.00  0.00     0.060 C 
ATOM     17  C   UNL A   1      28.749  31.319  23.561  1.00  0.00     0.012 C 
ATOM     18  C   UNL A   1      28.134  31.106  21.287  1.00  0.00     0.136 C 
ATOM     19  C   UNL A   1      28.926  32.670  22.879  1.00  0.00     0.009 C 
ATOM     20  C   UNL A   1      28.132  32.582  21.584  1.00  0.00     0.076 C 
ATOM     21  O   UNL A   1      27.730  30.629  20.233  1.00  0.00    -0.299 OA
ENDBRANCH  15  16
ENDBRANCH  14  15
ENDBRANCH   7   9
ENDBRANCH   4   7
ENDBRANCH   2   3
ENDBRANCH   1   2
BRANCH   1  22
ATOM     22  C   UNL A   1      32.083  28.893  25.672  1.00  0.00     0.023 C 
BRANCH  22  23
ATOM     23  C   UNL A   1      33.348  29.713  25.891  1.00  0.00     0.116 C 
BRANCH  23  24
ATOM     24  N   UNL A   1      33.083  31.017  26.482  1.00  0.00    -0.352 N 
ATOM     25  C   UNL A   1      33.787  31.675  27.461  1.00  0.00     0.251 C 
ATOM     26  H   UNL A   1      32.293  31.490  26.132  1.00  0.00     0.163 HD
ATOM     27  O   UNL A   1      33.352  32.721  27.935  1.00  0.00    -0.269 OA
BRANCH  25  28
ATOM     28  C   UNL A   1      35.052  31.097  27.960  1.00  0.00     0.039 A 
ATOM     29  C   UNL A   1      36.206  31.884  27.948  1.00  0.00     0.014 A 
ATOM     30  C   UNL A   1      35.090  29.795  28.468  1.00  0.00     0.014 A 
ATOM     31  C   UNL A   1      37.385  31.390  28.510  1.00  0.00     0.010 A 
ATOM     32  C   UNL A   1      36.246  29.331  29.088  1.00  0.00     0.010 A 
ATOM     33  C   UNL A   1      37.404  30.123  29.116  1.00  0.00    -0.014 A 
BRANCH  33  34
ATOM     34  C   UNL A   1      38.617  29.613  29.807  1.00  0.00     0.031 A 
ATOM     35  C   UNL A   1      39.002  30.154  31.156  1.00  0.00     0.074 A 
ATOM     36  C   UNL A   1      39.424  28.741  29.173  1.00  0.00     0.049 A 
ATOM     37  N   UNL A   1      40.060  29.891  31.877  1.00  0.00    -0.248 NA
ATOM     38  C   UNL A   1      38.092  31.140  31.764  1.00  0.00     0.031 C 
ATOM     39  C   UNL A   1      39.201  28.204  27.828  1.00  0.00     0.029 A 
ATOM     40  N   UNL A   1      40.612  28.174  29.563  1.00  0.00    -0.354 N 
ATOM     41  C   UNL A   1      39.966  30.702  33.002  1.00  0.00     0.074 A 
ATOM     42  C   UNL A   1      38.762  31.490  32.854  1.00  0.00     0.031 C 
ATOM     43  C   UNL A   1      40.218  27.390  27.505  1.00  0.00     0.029 A 
ATOM     44  C   UNL A   1      41.178  27.365  28.604  1.00  0.00     0.049 A 
ATOM     45  H   UNL A   1      41.021  28.332  30.445  1.00  0.00     0.167 HD
ATOM     46  C   UNL A   1      40.790  30.764  34.075  1.00  0.00     0.034 A 
ATOM     47  C   UNL A   1      42.341  26.685  28.607  1.00  0.00     0.034 A 
ATOM     48  C   UNL A   1      41.958  29.944  34.241  1.00  0.00     0.049 A 
ATOM     49  C   UNL A   1      43.216  26.739  29.830  1.00  0.00     0.074 A 
ATOM     50  C   UNL A   1      42.804  29.864  35.333  1.00  0.00     0.029 A 
ATOM     51  N   UNL A   1      42.450  29.064  33.290  1.00  0.00    -0.354 N 
ATOM     52  N   UNL A   1      43.024  27.386  30.954  1.00  0.00    -0.248 NA
ATOM     53  C   UNL A   1      44.450  25.940  29.802  1.00  0.00     0.031 C 
ATOM     54  C   UNL A   1      43.818  28.947  35.034  1.00  0.00     0.029 A 
ATOM     55  C   UNL A   1      43.592  28.443  33.764  1.00  0.00     0.049 A 
ATOM     56  H   UNL A   1      42.046  28.906  32.405  1.00  0.00     0.167 HD
ATOM     57  C   UNL A   1      44.091  27.048  31.778  1.00  0.00     0.074 A 
ATOM     58  C   UNL A   1      44.917  26.120  31.031  1.00  0.00     0.031 C 
ATOM     59  C   UNL A   1      44.372  27.478  33.032  1.00  0.00     0.034 A 
BRANCH  46  60
ATOM     60  C   UNL A   1      40.418  31.710  35.187  1.00  0.00     0.023 A 
ATOM     61  C   UNL A   1      41.099  32.939  35.304  1.00  0.00     0.012 A 
ATOM     62  C   UNL A   1      39.368  31.415  36.075  1.00  0.00     0.148 A 
ATOM     63  C   UNL A   1      40.762  33.846  36.308  1.00  0.00     0.002 A 
ATOM     64  C   UNL A   1      39.009  32.342  37.048  1.00  0.00     0.091 A 
ATOM     65  F   UNL A   1      38.747  30.231  35.963  1.00  0.00    -0.205 F 
ATOM     66  C   UNL A   1      39.712  33.551  37.172  1.00  0.00     0.022 A 
BRANCH  64  67
ATOM     67  S   UNL A   1      37.620  32.090  38.160  1.00  0.00     0.127 S 
ATOM     68  O   UNL A   1      37.320  30.677  37.940  1.00  0.00    -0.237 OA
ATOM     69  O   UNL A   1      38.210  32.393  39.465  1.00  0.00    -0.237 OA
ATOM     70  O   UNL A   1      36.589  33.025  37.731  1.00  0.00    -0.744 OA
ENDBRANCH  64  67
ENDBRANCH  46  60
BRANCH  47  71
ATOM     71  C   UNL A   1      42.710  25.836  27.439  1.00  0.00     0.023 A 
ATOM     72  C   UNL A   1      43.550  26.366  26.440  1.00  0.00     0.012 A 
ATOM     73  C   UNL A   1      42.266  24.504  27.327  1.00  0.00     0.148 A 
ATOM     74  C   UNL A   1      43.916  25.597  25.336  1.00  0.00     0.002 A 
ATOM     75  C   UNL A   1      42.678  23.726  26.251  1.00  0.00     0.091 A 
ATOM     76  F   UNL A   1      41.457  24.021  28.281  1.00  0.00    -0.205 F 
ATOM     77  C   UNL A   1      43.489  24.275  25.246  1.00  0.00     0.022 A 
BRANCH  75  78
ATOM     78  S   UNL A   1      42.288  21.977  26.123  1.00  0.00     0.127 S 
ATOM     79  O   UNL A   1      43.109  21.570  24.986  1.00  0.00    -0.237 OA
ATOM     80  O   UNL A   1      42.737  21.470  27.421  1.00  0.00    -0.237 OA
ATOM     81  O   UNL A   1      40.847  21.912  25.922  1.00  0.00    -0.744 OA
ENDBRANCH  75  78
ENDBRANCH  47  71
BRANCH  59  82
ATOM     82  C   UNL A   1      45.606  26.931  33.700  1.00  0.00     0.023 A 
ATOM     83  C   UNL A   1      46.815  27.651  33.629  1.00  0.00     0.012 A 
ATOM     84  C   UNL A   1      45.547  25.751  34.468  1.00  0.00     0.148 A 
ATOM     85  C   UNL A   1      47.953  27.191  34.290  1.00  0.00     0.002 A 
ATOM     86  C   UNL A   1      46.672  25.323  35.160  1.00  0.00     0.091 A 
ATOM     87  F   UNL A   1      44.392  25.071  34.506  1.00  0.00    -0.205 F 
ATOM     88  C   UNL A   1      47.879  26.035  35.064  1.00  0.00     0.022 A 
BRANCH  86  89
ATOM     89  S   UNL A   1      46.644  23.900  36.257  1.00  0.00     0.127 S 
ATOM     90  O   UNL A   1      46.461  22.799  35.313  1.00  0.00    -0.237 OA
ATOM     91  O   UNL A   1      47.969  23.958  36.877  1.00  0.00    -0.237 OA
ATOM     92  O   UNL A   1      45.537  24.125  37.177  1.00  0.00    -0.744 OA
ENDBRANCH  86  89
ENDBRANCH  59  82
ENDBRANCH  33  34
ENDBRANCH  25  28
ENDBRANCH  23  24
ENDBRANCH  22  23
ENDBRANCH   1  22
TORSDOF 17
ENDMDL
MODEL 2
REMARK VINA RESULT:     -11.9      5.553      8.348
REMARK SMILES C[C@@H](C(=O)NCCCCNC(=O)c1ccc(-c2c3nc(c(-c4cccc(S(=O)(=O)[O-])c4F)c4ccc([nH]4)c(-c4cccc(S(=O)(=O)[O-])c4F)c4nc(c(-c5cccc(S(=O)(=O)[O-])c5F)c5ccc2[nH]5)C=C4)C=C3)cc1)c1ccc(C[C@H]2CCCC2=O)cc1
REMARK SMILES IDX 7 1 6 2 5 3 3 4 4 5 2 7 1 8 76 9 77 10 88 11 78 12 87 13
REMARK SMILES IDX 79 14 80 15 81 16 82 17 85 18 83 19 84 20 86 21 8 22 9 23
REMARK SMILES IDX 10 24 11 25 12 27 13 28 14 29 75 30 15 31 74 32 16 33 17 34
REMARK SMILES IDX 18 35 68 36 19 37 73 38 67 39 69 40 20 41 72 42 66 43 65 44
REMARK SMILES IDX 21 46 53 47 33 48 52 49 34 50 37 51 51 52 70 53 35 54 36 55
REMARK SMILES IDX 50 57 71 58 38 59 22 60 23 61 31 62 24 63 26 64 32 65 25 66
REMARK SMILES IDX 27 67 28 68 29 69 30 70 54 71 55 72 63 73 56 74 58 75 64 76
REMARK SMILES IDX 57 77 59 78 60 79 61 80 62 81 39 82 40 83 48 84 41 85 43 86
REMARK SMILES IDX 49 87 42 88 44 89 45 90 46 91 47 92
REMARK H PARENT 5 6 10 26 69 45 37 56
REMARK Flexibility Score: inf
ROOT
ATOM      1  C   UNL A   1      35.182  23.874  23.849  1.00  0.00     0.023 C 
ENDROOT
BRANCH   1   2
ATOM      2  C   UNL A   1      34.063  24.842  24.239  1.00  0.00     0.116 C 
BRANCH   2   3
ATOM      3  N   UNL A   1      33.492  25.477  23.069  1.00  0.00    -0.356 N 
ATOM      4  C   UNL A   1      32.226  25.411  22.564  1.00  0.00     0.227 C 
ATOM      5  O   UNL A   1      32.030  25.950  21.474  1.00  0.00    -0.274 OA
ATOM      6  H   UNL A   1      34.115  26.045  22.559  1.00  0.00     0.163 HD
BRANCH   4   7
ATOM      7  C   UNL A   1      31.112  24.722  23.371  1.00  0.00     0.105 C 
ATOM      8  C   UNL A   1      30.718  25.524  24.617  1.00  0.00     0.023 C 
BRANCH   7   9
ATOM      9  C   UNL A   1      31.483  23.284  23.726  1.00  0.00    -0.036 A 
ATOM     10  C   UNL A   1      31.396  22.856  25.058  1.00  0.00     0.005 A 
ATOM     11  C   UNL A   1      31.876  22.357  22.750  1.00  0.00     0.005 A 
ATOM     12  C   UNL A   1      31.750  21.551  25.410  1.00  0.00     0.004 A 
ATOM     13  C   UNL A   1      32.255  21.062  23.107  1.00  0.00     0.004 A 
ATOM     14  C   UNL A   1      32.222  20.655  24.444  1.00  0.00    -0.047 A 
BRANCH  14  15
ATOM     15  C   UNL A   1      32.705  19.279  24.831  1.00  0.00     0.047 C 
BRANCH  15  16
ATOM     16  C   UNL A   1      33.785  18.671  23.927  1.00  0.00     0.060 C 
ATOM     17  C   UNL A   1      35.020  18.087  24.623  1.00  0.00     0.012 C 
ATOM     18  C   UNL A   1      33.279  17.483  23.141  1.00  0.00     0.136 C 
ATOM     19  C   UNL A   1      34.778  16.587  24.741  1.00  0.00     0.009 C 
ATOM     20  C   UNL A   1      33.985  16.203  23.500  1.00  0.00     0.076 C 
ATOM     21  O   UNL A   1      32.407  17.555  22.282  1.00  0.00    -0.299 OA
ENDBRANCH  15  16
ENDBRANCH  14  15
ENDBRANCH   7   9
ENDBRANCH   4   7
ENDBRANCH   2   3
ENDBRANCH   1   2
BRANCH   1  22
ATOM     22  C   UNL A   1      35.209  22.572  24.654  1.00  0.00     0.023 C 
BRANCH  22  23
ATOM     23  C   UNL A   1      36.212  22.540  25.801  1.00  0.00     0.116 C 
BRANCH  23  24
ATOM     24  N   UNL A   1      37.158  21.438  25.696  1.00  0.00    -0.352 N 
ATOM     25  C   UNL A   1      38.509  21.440  25.946  1.00  0.00     0.251 C 
ATOM     26  H   UNL A   1      36.778  20.577  25.407  1.00  0.00     0.163 HD
ATOM     27  O   UNL A   1      39.184  20.448  25.686  1.00  0.00    -0.269 OA
BRANCH  25  28
ATOM     28  C   UNL A   1      39.145  22.654  26.497  1.00  0.00     0.039 A 
ATOM     29  C   UNL A   1      40.184  22.514  27.420  1.00  0.00     0.014 A 
ATOM     30  C   UNL A   1      38.738  23.925  26.080  1.00  0.00     0.014 A 
ATOM     31  C   UNL A   1      40.865  23.646  27.873  1.00  0.00     0.010 A 
ATOM     32  C   UNL A   1      39.460  25.045  26.480  1.00  0.00     0.010 A 
ATOM     33  C   UNL A   1      40.530  24.917  27.378  1.00  0.00    -0.014 A 
BRANCH  33  34
ATOM     34  C   UNL A   1      41.300  26.127  27.768  1.00  0.00     0.031 A 
ATOM     35  C   UNL A   1      40.636  27.226  28.550  1.00  0.00     0.074 A 
ATOM     36  C   UNL A   1      42.565  26.278  27.328  1.00  0.00     0.049 A 
ATOM     37  N   UNL A   1      41.119  28.386  28.913  1.00  0.00    -0.248 NA
ATOM     38  C   UNL A   1      39.237  27.006  28.954  1.00  0.00     0.031 C 
ATOM     39  C   UNL A   1      43.292  25.319  26.494  1.00  0.00     0.029 A 
ATOM     40  N   UNL A   1      43.453  27.312  27.496  1.00  0.00    -0.354 N 
ATOM     41  C   UNL A   1      40.078  29.048  29.553  1.00  0.00     0.074 A 
ATOM     42  C   UNL A   1      38.927  28.173  29.502  1.00  0.00     0.031 C 
ATOM     43  C   UNL A   1      44.512  25.808  26.222  1.00  0.00     0.029 A 
ATOM     44  C   UNL A   1      44.646  27.125  26.837  1.00  0.00     0.049 A 
ATOM     45  H   UNL A   1      43.255  28.110  28.037  1.00  0.00     0.167 HD
ATOM     46  C   UNL A   1      40.087  30.260  30.156  1.00  0.00     0.034 A 
ATOM     47  C   UNL A   1      45.725  27.926  26.735  1.00  0.00     0.034 A 
ATOM     48  C   UNL A   1      41.246  31.105  30.248  1.00  0.00     0.049 A 
ATOM     49  C   UNL A   1      45.723  29.250  27.450  1.00  0.00     0.074 A 
ATOM     50  C   UNL A   1      41.383  32.308  30.919  1.00  0.00     0.029 A 
ATOM     51  N   UNL A   1      42.468  30.841  29.649  1.00  0.00    -0.354 N 
ATOM     52  N   UNL A   1      44.784  29.785  28.191  1.00  0.00    -0.248 NA
ATOM     53  C   UNL A   1      46.943  30.064  27.347  1.00  0.00     0.031 C 
ATOM     54  C   UNL A   1      42.684  32.778  30.711  1.00  0.00     0.029 A 
ATOM     55  C   UNL A   1      43.362  31.859  29.927  1.00  0.00     0.049 A 
ATOM     56  H   UNL A   1      42.670  30.044  29.106  1.00  0.00     0.167 HD
ATOM     57  C   UNL A   1      45.308  30.980  28.669  1.00  0.00     0.074 A 
ATOM     58  C   UNL A   1      46.658  31.080  28.152  1.00  0.00     0.031 C 
ATOM     59  C   UNL A   1      44.721  31.919  29.453  1.00  0.00     0.034 A 
BRANCH  46  60
ATOM     60  C   UNL A   1      38.816  30.719  30.822  1.00  0.00     0.023 A 
ATOM     61  C   UNL A   1      38.655  30.527  32.209  1.00  0.00     0.012 A 
ATOM     62  C   UNL A   1      37.812  31.387  30.096  1.00  0.00     0.148 A 
ATOM     63  C   UNL A   1      37.500  30.962  32.859  1.00  0.00     0.002 A 
ATOM     64  C   UNL A   1      36.682  31.856  30.757  1.00  0.00     0.091 A 
ATOM     65  F   UNL A   1      37.973  31.540  28.773  1.00  0.00    -0.205 F 
ATOM     66  C   UNL A   1      36.520  31.634  32.134  1.00  0.00     0.022 A 
BRANCH  64  67
ATOM     67  S   UNL A   1      35.398  32.801  29.929  1.00  0.00     0.127 S 
ATOM     68  O   UNL A   1      36.154  33.947  29.426  1.00  0.00    -0.237 OA
ATOM     69  O   UNL A   1      34.946  31.868  28.895  1.00  0.00    -0.237 OA
ATOM     70  O   UNL A   1      34.403  33.103  30.947  1.00  0.00    -0.744 OA
ENDBRANCH  64  67
ENDBRANCH  46  60
BRANCH  47  71
ATOM     71  C   UNL A   1      46.926  27.465  25.982  1.00  0.00     0.023 A 
ATOM     72  C   UNL A   1      47.867  26.639  26.628  1.00  0.00     0.012 A 
ATOM     73  C   UNL A   1      47.125  27.806  24.631  1.00  0.00     0.148 A 
ATOM     74  C   UNL A   1      49.000  26.187  25.951  1.00  0.00     0.002 A 
ATOM     75  C   UNL A   1      48.229  27.308  23.946  1.00  0.00     0.091 A 
ATOM     76  F   UNL A   1      46.225  28.603  24.036  1.00  0.00    -0.205 F 
ATOM     77  C   UNL A   1      49.176  26.513  24.609  1.00  0.00     0.022 A 
BRANCH  75  78
ATOM     78  S   UNL A   1      48.465  27.566  22.184  1.00  0.00     0.127 S 
ATOM     79  O   UNL A   1      49.665  28.397  22.162  1.00  0.00    -0.237 OA
ATOM     80  O   UNL A   1      48.654  26.197  21.700  1.00  0.00    -0.237 OA
ATOM     81  O   UNL A   1      47.242  28.202  21.715  1.00  0.00    -0.744 OA
ENDBRANCH  75  78
ENDBRANCH  47  71
BRANCH  59  82
ATOM     82  C   UNL A   1      45.538  33.126  29.831  1.00  0.00     0.023 A 
ATOM     83  C   UNL A   1      46.353  33.084  30.979  1.00  0.00     0.012 A 
ATOM     84  C   UNL A   1      45.563  34.266  29.004  1.00  0.00     0.148 A 
ATOM     85  C   UNL A   1      47.161  34.171  31.313  1.00  0.00     0.002 A 
ATOM     86  C   UNL A   1      46.405  35.326  29.318  1.00  0.00     0.091 A 
ATOM     87  F   UNL A   1      44.766  34.292  27.926  1.00  0.00    -0.205 F 
ATOM     88  C   UNL A   1      47.197  35.285  30.477  1.00  0.00     0.022 A 
BRANCH  86  89
ATOM     89  S   UNL A   1      46.586  36.759  28.250  1.00  0.00     0.127 S 
ATOM     90  O   UNL A   1      45.321  37.457  28.469  1.00  0.00    -0.237 OA
ATOM     91  O   UNL A   1      47.757  37.428  28.822  1.00  0.00    -0.237 OA
ATOM     92  O   UNL A   1      46.789  36.236  26.906  1.00  0.00    -0.744 OA
ENDBRANCH  86  89
ENDBRANCH  59  82
ENDBRANCH  33  34
ENDBRANCH  25  28
ENDBRANCH  23  24
ENDBRANCH  22  23
ENDBRANCH   1  22
TORSDOF 17
ENDMDL
MODEL 3
REMARK VINA RESULT:     -11.9      2.793      9.187
REMARK SMILES C[C@@H](C(=O)NCCCCNC(=O)c1ccc(-c2c3nc(c(-c4cccc(S(=O)(=O)[O-])c4F)c4ccc([nH]4)c(-c4cccc(S(=O)(=O)[O-])c4F)c4nc(c(-c5cccc(S(=O)(=O)[O-])c5F)c5ccc2[nH]5)C=C4)C=C3)cc1)c1ccc(C[C@H]2CCCC2=O)cc1
REMARK SMILES IDX 7 1 6 2 5 3 3 4 4 5 2 7 1 8 76 9 77 10 88 11 78 12 87 13
REMARK SMILES IDX 79 14 80 15 81 16 82 17 85 18 83 19 84 20 86 21 8 22 9 23
REMARK SMILES IDX 10 24 11 25 12 27 13 28 14 29 75 30 15 31 74 32 16 33 17 34
REMARK SMILES IDX 18 35 68 36 19 37 73 38 67 39 69 40 20 41 72 42 66 43 65 44
REMARK SMILES IDX 21 46 53 47 33 48 52 49 34 50 37 51 51 52 70 53 35 54 36 55
REMARK SMILES IDX 50 57 71 58 38 59 22 60 23 61 31 62 24 63 26 64 32 65 25 66
REMARK SMILES IDX 27 67 28 68 29 69 30 70 54 71 55 72 63 73 56 74 58 75 64 76
REMARK SMILES IDX 57 77 59 78 60 79 61 80 62 81 39 82 40 83 48 84 41 85 43 86
REMARK SMILES IDX 49 87 42 88 44 89 45 90 46 91 47 92
REMARK H PARENT 5 6 10 26 69 45 37 56
REMARK Flexibility Score: inf
ROOT
ATOM      1  C   UNL A   1      33.192  26.750  25.557  1.00  0.00     0.023 C 
ENDROOT
BRANCH   1   2
ATOM      2  C   UNL A   1      32.465  25.477  25.121  1.00  0.00     0.116 C 
BRANCH   2   3
ATOM      3  N   UNL A   1      32.674  25.215  23.711  1.00  0.00    -0.356 N 
ATOM      4  C   UNL A   1      33.606  24.432  23.093  1.00  0.00     0.227 C 
ATOM      5  O   UNL A   1      33.648  24.480  21.863  1.00  0.00    -0.274 OA
ATOM      6  H   UNL A   1      32.046  25.672  23.106  1.00  0.00     0.163 HD
BRANCH   4   7
ATOM      7  C   UNL A   1      34.514  23.515  23.928  1.00  0.00     0.105 C 
ATOM      8  C   UNL A   1      35.900  23.338  23.295  1.00  0.00     0.023 C 
BRANCH   7   9
ATOM      9  C   UNL A   1      33.851  22.167  24.204  1.00  0.00    -0.036 A 
ATOM     10  C   UNL A   1      34.158  21.473  25.382  1.00  0.00     0.005 A 
ATOM     11  C   UNL A   1      32.907  21.612  23.327  1.00  0.00     0.005 A 
ATOM     12  C   UNL A   1      33.580  20.228  25.645  1.00  0.00     0.004 A 
ATOM     13  C   UNL A   1      32.351  20.357  23.578  1.00  0.00     0.004 A 
ATOM     14  C   UNL A   1      32.703  19.640  24.726  1.00  0.00    -0.047 A 
BRANCH  14  15
ATOM     15  C   UNL A   1      32.156  18.253  24.953  1.00  0.00     0.047 C 
BRANCH  15  16
ATOM     16  C   UNL A   1      32.905  17.116  24.245  1.00  0.00     0.060 C 
ATOM     17  C   UNL A   1      34.258  17.467  23.616  1.00  0.00     0.012 C 
ATOM     18  C   UNL A   1      33.279  15.996  25.189  1.00  0.00     0.136 C 
ATOM     19  C   UNL A   1      35.321  17.058  24.629  1.00  0.00     0.009 C 
ATOM     20  C   UNL A   1      34.769  15.823  25.325  1.00  0.00     0.076 C 
ATOM     21  O   UNL A   1      32.462  15.285  25.763  1.00  0.00    -0.299 OA
ENDBRANCH  15  16
ENDBRANCH  14  15
ENDBRANCH   7   9
ENDBRANCH   4   7
ENDBRANCH   2   3
ENDBRANCH   1   2
BRANCH   1  22
ATOM     22  C   UNL A   1      32.378  28.037  25.397  1.00  0.00     0.023 C 
BRANCH  22  23
ATOM     23  C   UNL A   1      33.199  29.298  25.155  1.00  0.00     0.116 C 
BRANCH  23  24
ATOM     24  N   UNL A   1      32.620  30.480  25.777  1.00  0.00    -0.352 N 
ATOM     25  C   UNL A   1      33.090  31.203  26.846  1.00  0.00     0.251 C 
ATOM     26  H   UNL A   1      31.781  30.803  25.378  1.00  0.00     0.163 HD
ATOM     27  O   UNL A   1      32.410  32.106  27.326  1.00  0.00    -0.269 OA
BRANCH  25  28
ATOM     28  C   UNL A   1      34.403  30.864  27.433  1.00  0.00     0.039 A 
ATOM     29  C   UNL A   1      35.337  31.883  27.634  1.00  0.00     0.014 A 
ATOM     30  C   UNL A   1      34.697  29.552  27.815  1.00  0.00     0.014 A 
ATOM     31  C   UNL A   1      36.542  31.599  28.282  1.00  0.00     0.010 A 
ATOM     32  C   UNL A   1      35.867  29.285  28.519  1.00  0.00     0.010 A 
ATOM     33  C   UNL A   1      36.800  30.305  28.760  1.00  0.00    -0.014 A 
BRANCH  33  34
ATOM     34  C   UNL A   1      38.028  29.997  29.537  1.00  0.00     0.031 A 
ATOM     35  C   UNL A   1      39.054  29.046  28.985  1.00  0.00     0.074 A 
ATOM     36  C   UNL A   1      38.168  30.493  30.782  1.00  0.00     0.049 A 
ATOM     37  N   UNL A   1      40.146  28.596  29.545  1.00  0.00    -0.248 NA
ATOM     38  C   UNL A   1      38.807  28.509  27.636  1.00  0.00     0.031 C 
ATOM     39  C   UNL A   1      37.203  31.361  31.461  1.00  0.00     0.029 A 
ATOM     40  N   UNL A   1      39.162  30.313  31.712  1.00  0.00    -0.354 N 
ATOM     41  C   UNL A   1      40.697  27.698  28.639  1.00  0.00     0.074 A 
ATOM     42  C   UNL A   1      39.802  27.642  27.504  1.00  0.00     0.031 C 
ATOM     43  C   UNL A   1      37.650  31.636  32.696  1.00  0.00     0.029 A 
ATOM     44  C   UNL A   1      38.918  30.946  32.909  1.00  0.00     0.049 A 
ATOM     45  H   UNL A   1      39.973  29.783  31.538  1.00  0.00     0.167 HD
ATOM     46  C   UNL A   1      41.857  27.005  28.730  1.00  0.00     0.034 A 
ATOM     47  C   UNL A   1      39.632  30.962  34.052  1.00  0.00     0.034 A 
ATOM     48  C   UNL A   1      42.768  27.101  29.837  1.00  0.00     0.049 A 
ATOM     49  C   UNL A   1      40.938  30.218  34.109  1.00  0.00     0.074 A 
ATOM     50  C   UNL A   1      44.012  26.513  29.981  1.00  0.00     0.029 A 
ATOM     51  N   UNL A   1      42.533  27.826  30.995  1.00  0.00    -0.354 N 
ATOM     52  N   UNL A   1      41.523  29.506  33.177  1.00  0.00    -0.248 NA
ATOM     53  C   UNL A   1      41.702  30.308  35.362  1.00  0.00     0.031 C 
ATOM     54  C   UNL A   1      44.522  26.871  31.233  1.00  0.00     0.029 A 
ATOM     55  C   UNL A   1      43.604  27.697  31.861  1.00  0.00     0.049 A 
ATOM     56  H   UNL A   1      41.722  28.357  31.173  1.00  0.00     0.167 HD
ATOM     57  C   UNL A   1      42.735  29.092  33.716  1.00  0.00     0.074 A 
ATOM     58  C   UNL A   1      42.812  29.652  35.050  1.00  0.00     0.031 C 
ATOM     59  C   UNL A   1      43.692  28.306  33.163  1.00  0.00     0.034 A 
BRANCH  46  60
ATOM     60  C   UNL A   1      42.240  26.129  27.566  1.00  0.00     0.023 A 
ATOM     61  C   UNL A   1      43.003  26.673  26.513  1.00  0.00     0.012 A 
ATOM     62  C   UNL A   1      41.899  24.763  27.538  1.00  0.00     0.148 A 
ATOM     63  C   UNL A   1      43.393  25.881  25.433  1.00  0.00     0.002 A 
ATOM     64  C   UNL A   1      42.327  23.969  26.479  1.00  0.00     0.091 A 
ATOM     65  F   UNL A   1      41.153  24.268  28.537  1.00  0.00    -0.205 F 
ATOM     66  C   UNL A   1      43.063  24.529  25.422  1.00  0.00     0.022 A 
BRANCH  64  67
ATOM     67  S   UNL A   1      42.020  22.201  26.410  1.00  0.00     0.127 S 
ATOM     68  O   UNL A   1      42.898  21.792  25.314  1.00  0.00    -0.237 OA
ATOM     69  O   UNL A   1      42.455  21.759  27.736  1.00  0.00    -0.237 OA
ATOM     70  O   UNL A   1      40.594  22.051  26.160  1.00  0.00    -0.744 OA
ENDBRANCH  64  67
ENDBRANCH  46  60
BRANCH  47  71
ATOM     71  C   UNL A   1      39.160  31.771  35.211  1.00  0.00     0.023 A 
ATOM     72  C   UNL A   1      38.244  31.204  36.119  1.00  0.00     0.012 A 
ATOM     73  C   UNL A   1      39.634  33.077  35.441  1.00  0.00     0.148 A 
ATOM     74  C   UNL A   1      37.786  31.933  37.217  1.00  0.00     0.002 A 
ATOM     75  C   UNL A   1      39.214  33.779  36.566  1.00  0.00     0.091 A 
ATOM     76  F   UNL A   1      40.496  33.605  34.559  1.00  0.00    -0.205 F 
ATOM     77  C   UNL A   1      38.278  33.215  37.445  1.00  0.00     0.022 A 
BRANCH  75  78
ATOM     78  S   UNL A   1      39.896  35.380  37.011  1.00  0.00     0.127 S 
ATOM     79  O   UNL A   1      41.325  35.086  37.082  1.00  0.00    -0.237 OA
ATOM     80  O   UNL A   1      39.492  36.209  35.874  1.00  0.00    -0.237 OA
ATOM     81  O   UNL A   1      39.258  35.740  38.270  1.00  0.00    -0.744 OA
ENDBRANCH  75  78
ENDBRANCH  47  71
BRANCH  59  82
ATOM     82  C   UNL A   1      44.925  28.024  33.981  1.00  0.00     0.023 A 
ATOM     83  C   UNL A   1      46.007  28.926  33.946  1.00  0.00     0.012 A 
ATOM     84  C   UNL A   1      44.976  26.914  34.847  1.00  0.00     0.148 A 
ATOM     85  C   UNL A   1      47.133  28.712  34.740  1.00  0.00     0.002 A 
ATOM     86  C   UNL A   1      46.081  26.733  35.670  1.00  0.00     0.091 A 
ATOM     87  F   UNL A   1      43.944  26.058  34.851  1.00  0.00    -0.205 F 
ATOM     88  C   UNL A   1      47.165  27.624  35.610  1.00  0.00     0.022 A 
BRANCH  86  89
ATOM     89  S   UNL A   1      46.168  25.415  36.887  1.00  0.00     0.127 S 
ATOM     90  O   UNL A   1      47.376  25.772  37.629  1.00  0.00    -0.237 OA
ATOM     91  O   UNL A   1      44.920  25.595  37.631  1.00  0.00    -0.237 OA
ATOM     92  O   UNL A   1      46.243  24.172  36.129  1.00  0.00    -0.744 OA
ENDBRANCH  86  89
ENDBRANCH  59  82
ENDBRANCH  33  34
ENDBRANCH  25  28
ENDBRANCH  23  24
ENDBRANCH  22  23
ENDBRANCH   1  22
TORSDOF 17
ENDMDL
