MODEL 1
REMARK VINA RESULT:     -12.3      0.000      0.000
REMARK SMILES Cc1ccc(-c2ncccc2C(=O)NCCCCNC(=O)c2ccc(-c3c4nc(c(-c5cccc(S(=O)(=O)[O-])c5F)c5ccc([nH]5)c(-c5cccc(S(=O)(=O)[O-])c5F)c5nc(c(-c6cccc(S(=O)(=O)[O-])c6F)c6ccc3[nH]6)C=C5)C=C4)cc2)c(Cl)c1
REMARK SMILES IDX 17 1 16 2 15 3 14 4 12 5 13 6 11 8 6 9 7 10 8 11 10 12 9 13
REMARK SMILES IDX 5 14 1 15 2 16 3 17 87 18 4 19 85 20 86 21 18 22 19 23 20 24
REMARK SMILES IDX 21 26 22 27 23 28 84 29 24 30 83 31 25 32 26 33 27 34 77 35
REMARK SMILES IDX 28 36 82 37 76 38 78 39 29 40 81 41 75 42 74 43 30 45 62 46
REMARK SMILES IDX 42 47 61 48 43 49 46 50 60 51 79 52 44 53 45 54 59 56 80 57
REMARK SMILES IDX 47 58 31 59 32 60 40 61 33 62 35 63 41 64 34 65 36 66 37 67
REMARK SMILES IDX 38 68 39 69 63 70 64 71 72 72 65 73 67 74 73 75 66 76 68 77
REMARK SMILES IDX 69 78 70 79 71 80 48 81 49 82 57 83 50 84 52 85 58 86 51 87
REMARK SMILES IDX 53 88 54 89 55 90 56 91
REMARK H PARENT 14 7 19 25 78 44 46 55
REMARK Flexibility Score: inf
ROOT
ATOM      1  C   UNL A   1      31.723  31.628  26.823  1.00  0.00     0.023 C 
ENDROOT
BRANCH   1   2
ATOM      2  C   UNL A   1      32.077  30.486  25.859  1.00  0.00     0.023 C 
BRANCH   2   3
ATOM      3  C   UNL A   1      32.938  29.385  26.480  1.00  0.00     0.116 C 
BRANCH   3   4
ATOM      4  N   UNL A   1      32.130  28.250  26.871  1.00  0.00    -0.352 N 
ATOM      5  C   UNL A   1      32.009  26.942  26.479  1.00  0.00     0.253 C 
ATOM      6  O   UNL A   1      31.194  26.305  27.145  1.00  0.00    -0.269 OA
ATOM      7  H   UNL A   1      31.511  28.474  27.603  1.00  0.00     0.163 HD
BRANCH   5   8
ATOM      8  C   UNL A   1      32.785  26.274  25.377  1.00  0.00     0.066 A 
ATOM      9  C   UNL A   1      32.378  26.401  24.029  1.00  0.00     0.084 A 
ATOM     10  N   UNL A   1      32.995  25.739  22.999  1.00  0.00    -0.255 NA
ATOM     11  C   UNL A   1      34.035  24.939  23.284  1.00  0.00     0.112 A 
ATOM     12  C   UNL A   1      33.931  25.499  25.597  1.00  0.00     0.018 A 
ATOM     13  C   UNL A   1      34.548  24.806  24.554  1.00  0.00     0.021 A 
BRANCH   9  14
ATOM     14  C   UNL A   1      31.329  27.311  23.538  1.00  0.00     0.020 A 
ATOM     15  C   UNL A   1      28.136  29.813  22.006  1.00  0.00     0.044 C 
ATOM     16  C   UNL A   1      29.232  28.957  22.566  1.00  0.00    -0.050 A 
ATOM     17  C   UNL A   1      28.942  27.756  23.214  1.00  0.00     0.004 A 
ATOM     18  C   UNL A   1      30.569  29.353  22.440  1.00  0.00     0.024 A 
ATOM     19  C   UNL A   1      29.975  26.953  23.705  1.00  0.00     0.012 A 
ATOM     20  C   UNL A   1      31.607  28.538  22.915  1.00  0.00     0.050 A 
ATOM     21  Cl  UNL A   1      33.230  29.097  22.671  1.00  0.00    -0.084 Cl
ENDBRANCH   9  14
ENDBRANCH   5   8
ENDBRANCH   3   4
ENDBRANCH   2   3
ENDBRANCH   1   2
BRANCH   1  22
ATOM     22  C   UNL A   1      32.904  32.451  27.338  1.00  0.00     0.116 C 
BRANCH  22  23
ATOM     23  N   UNL A   1      32.560  33.834  27.627  1.00  0.00    -0.352 N 
ATOM     24  C   UNL A   1      33.122  34.687  28.548  1.00  0.00     0.251 C 
ATOM     25  H   UNL A   1      31.824  34.212  27.092  1.00  0.00     0.163 HD
ATOM     26  O   UNL A   1      32.645  35.798  28.729  1.00  0.00    -0.269 OA
BRANCH  24  27
ATOM     27  C   UNL A   1      34.284  34.232  29.342  1.00  0.00     0.039 A 
ATOM     28  C   UNL A   1      34.051  33.505  30.513  1.00  0.00     0.014 A 
ATOM     29  C   UNL A   1      35.589  34.499  28.923  1.00  0.00     0.014 A 
ATOM     30  C   UNL A   1      35.132  32.987  31.230  1.00  0.00     0.010 A 
ATOM     31  C   UNL A   1      36.661  33.933  29.606  1.00  0.00     0.010 A 
ATOM     32  C   UNL A   1      36.444  33.168  30.763  1.00  0.00    -0.014 A 
BRANCH  32  33
ATOM     33  C   UNL A   1      37.602  32.542  31.451  1.00  0.00     0.031 A 
ATOM     34  C   UNL A   1      38.332  31.392  30.816  1.00  0.00     0.074 A 
ATOM     35  C   UNL A   1      37.927  32.946  32.696  1.00  0.00     0.049 A 
ATOM     36  N   UNL A   1      39.317  30.678  31.295  1.00  0.00    -0.248 NA
ATOM     37  C   UNL A   1      37.877  30.967  29.481  1.00  0.00     0.031 C 
ATOM     38  C   UNL A   1      37.233  33.990  33.455  1.00  0.00     0.029 A 
ATOM     39  N   UNL A   1      38.899  32.501  33.557  1.00  0.00    -0.354 N 
ATOM     40  C   UNL A   1      39.573  29.697  30.343  1.00  0.00     0.074 A 
ATOM     41  C   UNL A   1      38.624  29.893  29.269  1.00  0.00     0.031 C 
ATOM     42  C   UNL A   1      37.798  34.099  34.669  1.00  0.00     0.029 A 
ATOM     43  C   UNL A   1      38.876  33.123  34.784  1.00  0.00     0.049 A 
ATOM     44  H   UNL A   1      39.552  31.804  33.319  1.00  0.00     0.167 HD
ATOM     45  C   UNL A   1      40.531  28.740  30.350  1.00  0.00     0.034 A 
ATOM     46  C   UNL A   1      39.634  32.924  35.881  1.00  0.00     0.034 A 
ATOM     47  C   UNL A   1      41.510  28.588  31.392  1.00  0.00     0.049 A 
ATOM     48  C   UNL A   1      40.737  31.901  35.831  1.00  0.00     0.074 A 
ATOM     49  C   UNL A   1      42.588  27.722  31.439  1.00  0.00     0.029 A 
ATOM     50  N   UNL A   1      41.530  29.315  32.571  1.00  0.00    -0.354 N 
ATOM     51  N   UNL A   1      41.081  31.108  34.845  1.00  0.00    -0.248 NA
ATOM     52  C   UNL A   1      41.582  31.773  37.027  1.00  0.00     0.031 C 
ATOM     53  C   UNL A   1      43.254  27.917  32.653  1.00  0.00     0.029 A 
ATOM     54  C   UNL A   1      42.598  28.915  33.356  1.00  0.00     0.049 A 
ATOM     55  H   UNL A   1      40.881  30.014  32.815  1.00  0.00     0.167 HD
ATOM     56  C   UNL A   1      42.200  30.414  35.289  1.00  0.00     0.074 A 
ATOM     57  C   UNL A   1      42.491  30.896  36.622  1.00  0.00     0.031 C 
ATOM     58  C   UNL A   1      42.912  29.449  34.655  1.00  0.00     0.034 A 
BRANCH  45  59
ATOM     59  C   UNL A   1      40.612  27.819  29.163  1.00  0.00     0.023 A 
ATOM     60  C   UNL A   1      39.730  26.722  29.077  1.00  0.00     0.012 A 
ATOM     61  C   UNL A   1      41.501  28.076  28.101  1.00  0.00     0.148 A 
ATOM     62  C   UNL A   1      39.751  25.880  27.968  1.00  0.00     0.002 A 
ATOM     63  C   UNL A   1      41.487  27.255  26.979  1.00  0.00     0.091 A 
ATOM     64  F   UNL A   1      42.346  29.111  28.211  1.00  0.00    -0.205 F 
ATOM     65  C   UNL A   1      40.619  26.152  26.915  1.00  0.00     0.022 A 
BRANCH  63  66
ATOM     66  S   UNL A   1      42.514  27.564  25.538  1.00  0.00     0.127 S 
ATOM     67  O   UNL A   1      42.219  26.396  24.710  1.00  0.00    -0.237 OA
ATOM     68  O   UNL A   1      41.965  28.823  25.033  1.00  0.00    -0.237 OA
ATOM     69  O   UNL A   1      43.881  27.653  26.030  1.00  0.00    -0.744 OA
ENDBRANCH  63  66
ENDBRANCH  45  59
BRANCH  46  70
ATOM     70  C   UNL A   1      39.423  33.763  37.094  1.00  0.00     0.023 A 
ATOM     71  C   UNL A   1      39.875  35.096  37.097  1.00  0.00     0.012 A 
ATOM     72  C   UNL A   1      38.757  33.261  38.229  1.00  0.00     0.148 A 
ATOM     73  C   UNL A   1      39.700  35.905  38.221  1.00  0.00     0.002 A 
ATOM     74  C   UNL A   1      38.537  34.089  39.325  1.00  0.00     0.091 A 
ATOM     75  F   UNL A   1      38.347  31.986  38.215  1.00  0.00    -0.205 F 
ATOM     76  C   UNL A   1      39.021  35.406  39.329  1.00  0.00     0.022 A 
BRANCH  74  77
ATOM     77  S   UNL A   1      37.555  33.565  40.736  1.00  0.00     0.127 S 
ATOM     78  O   UNL A   1      38.421  32.561  41.347  1.00  0.00    -0.237 OA
ATOM     79  O   UNL A   1      37.420  34.809  41.495  1.00  0.00    -0.237 OA
ATOM     80  O   UNL A   1      36.304  33.074  40.173  1.00  0.00    -0.744 OA
ENDBRANCH  74  77
ENDBRANCH  46  70
BRANCH  58  81
ATOM     81  C   UNL A   1      44.098  28.866  35.377  1.00  0.00     0.023 A 
ATOM     82  C   UNL A   1      45.376  29.428  35.186  1.00  0.00     0.012 A 
ATOM     83  C   UNL A   1      43.933  27.820  36.305  1.00  0.00     0.148 A 
ATOM     84  C   UNL A   1      46.477  28.939  35.888  1.00  0.00     0.002 A 
ATOM     85  C   UNL A   1      45.027  27.369  37.036  1.00  0.00     0.091 A 
ATOM     86  F   UNL A   1      42.713  27.285  36.458  1.00  0.00    -0.205 F 
ATOM     87  C   UNL A   1      46.300  27.919  36.821  1.00  0.00     0.022 A 
BRANCH  85  88
ATOM     88  S   UNL A   1      44.872  26.126  38.324  1.00  0.00     0.127 S 
ATOM     89  O   UNL A   1      44.400  24.969  37.567  1.00  0.00    -0.237 OA
ATOM     90  O   UNL A   1      46.245  26.014  38.818  1.00  0.00    -0.237 OA
ATOM     91  O   UNL A   1      43.928  26.671  39.292  1.00  0.00    -0.744 OA
ENDBRANCH  85  88
ENDBRANCH  58  81
ENDBRANCH  32  33
ENDBRANCH  24  27
ENDBRANCH  22  23
ENDBRANCH   1  22
TORSDOF 15
ENDMDL
MODEL 2
REMARK VINA RESULT:     -12.1      2.584      8.398
REMARK SMILES Cc1ccc(-c2ncccc2C(=O)NCCCCNC(=O)c2ccc(-c3c4nc(c(-c5cccc(S(=O)(=O)[O-])c5F)c5ccc([nH]5)c(-c5cccc(S(=O)(=O)[O-])c5F)c5nc(c(-c6cccc(S(=O)(=O)[O-])c6F)c6ccc3[nH]6)C=C5)C=C4)cc2)c(Cl)c1
REMARK SMILES IDX 17 1 16 2 15 3 14 4 12 5 13 6 11 8 6 9 7 10 8 11 10 12 9 13
REMARK SMILES IDX 5 14 1 15 2 16 3 17 87 18 4 19 85 20 86 21 18 22 19 23 20 24
REMARK SMILES IDX 21 26 22 27 23 28 84 29 24 30 83 31 25 32 26 33 27 34 77 35
REMARK SMILES IDX 28 36 82 37 76 38 78 39 29 40 81 41 75 42 74 43 30 45 62 46
REMARK SMILES IDX 42 47 61 48 43 49 46 50 60 51 79 52 44 53 45 54 59 56 80 57
REMARK SMILES IDX 47 58 31 59 32 60 40 61 33 62 35 63 41 64 34 65 36 66 37 67
REMARK SMILES IDX 38 68 39 69 63 70 64 71 72 72 65 73 67 74 73 75 66 76 68 77
REMARK SMILES IDX 69 78 70 79 71 80 48 81 49 82 57 83 50 84 52 85 58 86 51 87
REMARK SMILES IDX 53 88 54 89 55 90 56 91
REMARK H PARENT 14 7 19 25 78 44 46 55
REMARK Flexibility Score: inf
ROOT
ATOM      1  C   UNL A   1      32.289  29.379  24.852  1.00  0.00     0.023 C 
ENDROOT
BRANCH   1   2
ATOM      2  C   UNL A   1      33.503  28.690  24.211  1.00  0.00     0.023 C 
BRANCH   2   3
ATOM      3  C   UNL A   1      33.656  28.953  22.712  1.00  0.00     0.116 C 
BRANCH   3   4
ATOM      4  N   UNL A   1      33.657  27.715  21.963  1.00  0.00    -0.352 N 
ATOM      5  C   UNL A   1      32.962  26.535  22.005  1.00  0.00     0.253 C 
ATOM      6  O   UNL A   1      33.277  25.749  21.113  1.00  0.00    -0.269 OA
ATOM      7  H   UNL A   1      34.326  27.722  21.241  1.00  0.00     0.163 HD
BRANCH   5   8
ATOM      8  C   UNL A   1      31.885  26.177  22.992  1.00  0.00     0.066 A 
ATOM      9  C   UNL A   1      32.089  25.151  23.943  1.00  0.00     0.084 A 
ATOM     10  N   UNL A   1      31.110  24.726  24.803  1.00  0.00    -0.255 NA
ATOM     11  C   UNL A   1      29.905  25.315  24.742  1.00  0.00     0.112 A 
ATOM     12  C   UNL A   1      30.638  26.813  23.042  1.00  0.00     0.018 A 
ATOM     13  C   UNL A   1      29.630  26.368  23.900  1.00  0.00     0.021 A 
BRANCH   9  14
ATOM     14  C   UNL A   1      33.373  24.479  24.209  1.00  0.00     0.020 A 
ATOM     15  C   UNL A   1      37.250  22.701  24.989  1.00  0.00     0.044 C 
ATOM     16  C   UNL A   1      35.899  23.305  24.749  1.00  0.00    -0.050 A 
ATOM     17  C   UNL A   1      35.499  24.457  25.426  1.00  0.00     0.004 A 
ATOM     18  C   UNL A   1      35.018  22.718  23.831  1.00  0.00     0.024 A 
ATOM     19  C   UNL A   1      34.249  25.027  25.170  1.00  0.00     0.012 A 
ATOM     20  C   UNL A   1      33.772  23.301  23.559  1.00  0.00     0.050 A 
ATOM     21  Cl  UNL A   1      32.773  22.521  22.376  1.00  0.00    -0.084 Cl
ENDBRANCH   9  14
ENDBRANCH   5   8
ENDBRANCH   3   4
ENDBRANCH   2   3
ENDBRANCH   1   2
BRANCH   1  22
ATOM     22  C   UNL A   1      32.453  29.779  26.318  1.00  0.00     0.116 C 
BRANCH  22  23
ATOM     23  N   UNL A   1      32.325  31.211  26.542  1.00  0.00    -0.352 N 
ATOM     24  C   UNL A   1      33.154  32.048  27.251  1.00  0.00     0.251 C 
ATOM     25  H   UNL A   1      31.539  31.639  26.130  1.00  0.00     0.163 HD
ATOM     26  O   UNL A   1      32.845  33.219  27.421  1.00  0.00    -0.269 OA
BRANCH  24  27
ATOM     27  C   UNL A   1      34.399  31.509  27.838  1.00  0.00     0.039 A 
ATOM     28  C   UNL A   1      35.451  32.390  28.104  1.00  0.00     0.014 A 
ATOM     29  C   UNL A   1      34.519  30.152  28.147  1.00  0.00     0.014 A 
ATOM     30  C   UNL A   1      36.601  31.920  28.742  1.00  0.00     0.010 A 
ATOM     31  C   UNL A   1      35.640  29.698  28.834  1.00  0.00     0.010 A 
ATOM     32  C   UNL A   1      36.691  30.577  29.143  1.00  0.00    -0.014 A 
BRANCH  32  33
ATOM     33  C   UNL A   1      37.859  30.077  29.911  1.00  0.00     0.031 A 
ATOM     34  C   UNL A   1      38.116  30.570  31.307  1.00  0.00     0.074 A 
ATOM     35  C   UNL A   1      38.743  29.257  29.309  1.00  0.00     0.049 A 
ATOM     36  N   UNL A   1      39.117  30.300  32.103  1.00  0.00    -0.248 NA
ATOM     37  C   UNL A   1      37.138  31.514  31.874  1.00  0.00     0.031 C 
ATOM     38  C   UNL A   1      38.652  28.783  27.925  1.00  0.00     0.029 A 
ATOM     39  N   UNL A   1      39.913  28.708  29.770  1.00  0.00    -0.354 N 
ATOM     40  C   UNL A   1      38.914  31.068  33.244  1.00  0.00     0.074 A 
ATOM     41  C   UNL A   1      37.706  31.833  33.029  1.00  0.00     0.031 C 
ATOM     42  C   UNL A   1      39.723  28.021  27.650  1.00  0.00     0.029 A 
ATOM     43  C   UNL A   1      40.586  27.968  28.825  1.00  0.00     0.049 A 
ATOM     44  H   UNL A   1      40.240  28.830  30.691  1.00  0.00     0.167 HD
ATOM     45  C   UNL A   1      39.651  31.110  34.380  1.00  0.00     0.034 A 
ATOM     46  C   UNL A   1      41.769  27.325  28.894  1.00  0.00     0.034 A 
ATOM     47  C   UNL A   1      40.817  30.302  34.613  1.00  0.00     0.049 A 
ATOM     48  C   UNL A   1      42.528  27.332  30.194  1.00  0.00     0.074 A 
ATOM     49  C   UNL A   1      41.567  30.189  35.771  1.00  0.00     0.029 A 
ATOM     50  N   UNL A   1      41.406  29.472  33.673  1.00  0.00    -0.354 N 
ATOM     51  N   UNL A   1      42.219  27.917  31.326  1.00  0.00    -0.248 NA
ATOM     52  C   UNL A   1      43.776  26.556  30.241  1.00  0.00     0.031 C 
ATOM     53  C   UNL A   1      42.618  29.299  35.526  1.00  0.00     0.029 A 
ATOM     54  C   UNL A   1      42.513  28.847  34.220  1.00  0.00     0.049 A 
ATOM     55  H   UNL A   1      41.084  29.345  32.751  1.00  0.00     0.167 HD
ATOM     56  C   UNL A   1      43.214  27.554  32.226  1.00  0.00     0.074 A 
ATOM     57  C   UNL A   1      44.122  26.678  31.515  1.00  0.00     0.031 C 
ATOM     58  C   UNL A   1      43.372  27.928  33.520  1.00  0.00     0.034 A 
BRANCH  45  59
ATOM     59  C   UNL A   1      39.182  32.012  35.489  1.00  0.00     0.023 A 
ATOM     60  C   UNL A   1      38.250  31.526  36.429  1.00  0.00     0.012 A 
ATOM     61  C   UNL A   1      39.713  33.306  35.650  1.00  0.00     0.148 A 
ATOM     62  C   UNL A   1      37.834  32.322  37.494  1.00  0.00     0.002 A 
ATOM     63  C   UNL A   1      39.324  34.080  36.737  1.00  0.00     0.091 A 
ATOM     64  F   UNL A   1      40.583  33.759  34.733  1.00  0.00    -0.205 F 
ATOM     65  C   UNL A   1      38.378  33.593  37.654  1.00  0.00     0.022 A 
BRANCH  63  66
ATOM     66  S   UNL A   1      40.023  35.700  37.075  1.00  0.00     0.127 S 
ATOM     67  O   UNL A   1      41.447  35.389  37.185  1.00  0.00    -0.237 OA
ATOM     68  O   UNL A   1      39.653  36.453  35.875  1.00  0.00    -0.237 OA
ATOM     69  O   UNL A   1      39.387  36.163  38.301  1.00  0.00    -0.744 OA
ENDBRANCH  63  66
ENDBRANCH  45  59
BRANCH  46  70
ATOM     70  C   UNL A   1      42.271  26.560  27.719  1.00  0.00     0.023 A 
ATOM     71  C   UNL A   1      43.103  27.204  26.782  1.00  0.00     0.012 A 
ATOM     72  C   UNL A   1      41.955  25.200  27.536  1.00  0.00     0.148 A 
ATOM     73  C   UNL A   1      43.584  26.517  25.666  1.00  0.00     0.002 A 
ATOM     74  C   UNL A   1      42.482  24.507  26.452  1.00  0.00     0.091 A 
ATOM     75  F   UNL A   1      41.150  24.608  28.428  1.00  0.00    -0.205 F 
ATOM     76  C   UNL A   1      43.282  25.167  25.507  1.00  0.00     0.022 A 
BRANCH  74  77
ATOM     77  S   UNL A   1      42.252  22.736  26.248  1.00  0.00     0.127 S 
ATOM     78  O   UNL A   1      42.859  22.213  27.468  1.00  0.00    -0.237 OA
ATOM     79  O   UNL A   1      40.794  22.622  26.185  1.00  0.00    -0.237 OA
ATOM     80  O   UNL A   1      42.928  22.401  25.001  1.00  0.00    -0.744 OA
ENDBRANCH  74  77
ENDBRANCH  46  70
BRANCH  58  81
ATOM     81  C   UNL A   1      44.552  27.371  34.271  1.00  0.00     0.023 A 
ATOM     82  C   UNL A   1      45.777  28.065  34.258  1.00  0.00     0.012 A 
ATOM     83  C   UNL A   1      44.423  26.208  35.055  1.00  0.00     0.148 A 
ATOM     84  C   UNL A   1      46.865  27.596  34.994  1.00  0.00     0.002 A 
ATOM     85  C   UNL A   1      45.497  25.772  35.822  1.00  0.00     0.091 A 
ATOM     86  F   UNL A   1      43.254  25.550  35.038  1.00  0.00    -0.205 F 
ATOM     87  C   UNL A   1      46.721  26.458  35.785  1.00  0.00     0.022 A 
BRANCH  85  88
ATOM     88  S   UNL A   1      45.369  24.371  36.941  1.00  0.00     0.127 S 
ATOM     89  O   UNL A   1      46.726  24.295  37.478  1.00  0.00    -0.237 OA
ATOM     90  O   UNL A   1      44.359  24.827  37.898  1.00  0.00    -0.237 OA
ATOM     91  O   UNL A   1      44.954  23.242  36.120  1.00  0.00    -0.744 OA
ENDBRANCH  85  88
ENDBRANCH  58  81
ENDBRANCH  32  33
ENDBRANCH  24  27
ENDBRANCH  22  23
ENDBRANCH   1  22
TORSDOF 15
ENDMDL
MODEL 3
REMARK VINA RESULT:     -12.1      3.584      9.081
REMARK SMILES Cc1ccc(-c2ncccc2C(=O)NCCCCNC(=O)c2ccc(-c3c4nc(c(-c5cccc(S(=O)(=O)[O-])c5F)c5ccc([nH]5)c(-c5cccc(S(=O)(=O)[O-])c5F)c5nc(c(-c6cccc(S(=O)(=O)[O-])c6F)c6ccc3[nH]6)C=C5)C=C4)cc2)c(Cl)c1
REMARK SMILES IDX 17 1 16 2 15 3 14 4 12 5 13 6 11 8 6 9 7 10 8 11 10 12 9 13
REMARK SMILES IDX 5 14 1 15 2 16 3 17 87 18 4 19 85 20 86 21 18 22 19 23 20 24
REMARK SMILES IDX 21 26 22 27 23 28 84 29 24 30 83 31 25 32 26 33 27 34 77 35
REMARK SMILES IDX 28 36 82 37 76 38 78 39 29 40 81 41 75 42 74 43 30 45 62 46
REMARK SMILES IDX 42 47 61 48 43 49 46 50 60 51 79 52 44 53 45 54 59 56 80 57
REMARK SMILES IDX 47 58 31 59 32 60 40 61 33 62 35 63 41 64 34 65 36 66 37 67
REMARK SMILES IDX 38 68 39 69 63 70 64 71 72 72 65 73 67 74 73 75 66 76 68 77
REMARK SMILES IDX 69 78 70 79 71 80 48 81 49 82 57 83 50 84 52 85 58 86 51 87
REMARK SMILES IDX 53 88 54 89 55 90 56 91
REMARK H PARENT 14 7 19 25 78 44 46 55
REMARK Flexibility Score: inf
ROOT
ATOM      1  C   UNL A   1      33.288  29.149  24.898  1.00  0.00     0.023 C 
ENDROOT
BRANCH   1   2
ATOM      2  C   UNL A   1      34.124  28.361  23.878  1.00  0.00     0.023 C 
BRANCH   2   3
ATOM      3  C   UNL A   1      33.718  28.592  22.422  1.00  0.00     0.116 C 
BRANCH   3   4
ATOM      4  N   UNL A   1      33.534  27.336  21.727  1.00  0.00    -0.352 N 
ATOM      5  C   UNL A   1      32.766  26.214  21.903  1.00  0.00     0.253 C 
ATOM      6  O   UNL A   1      32.905  25.381  21.009  1.00  0.00    -0.269 OA
ATOM      7  H   UNL A   1      34.102  27.272  20.926  1.00  0.00     0.163 HD
BRANCH   5   8
ATOM      8  C   UNL A   1      31.804  25.969  23.033  1.00  0.00     0.066 A 
ATOM      9  C   UNL A   1      32.086  25.001  24.024  1.00  0.00     0.084 A 
ATOM     10  N   UNL A   1      31.203  24.675  25.021  1.00  0.00    -0.255 NA
ATOM     11  C   UNL A   1      30.020  25.309  25.059  1.00  0.00     0.112 A 
ATOM     12  C   UNL A   1      30.593  26.658  23.183  1.00  0.00     0.018 A 
ATOM     13  C   UNL A   1      29.682  26.314  24.183  1.00  0.00     0.021 A 
BRANCH   9  14
ATOM     14  C   UNL A   1      33.369  24.295  24.184  1.00  0.00     0.020 A 
ATOM     15  C   UNL A   1      37.250  22.413  24.630  1.00  0.00     0.044 C 
ATOM     16  C   UNL A   1      35.901  23.055  24.507  1.00  0.00    -0.050 A 
ATOM     17  C   UNL A   1      35.622  24.263  25.147  1.00  0.00     0.004 A 
ATOM     18  C   UNL A   1      34.899  22.448  23.739  1.00  0.00     0.024 A 
ATOM     19  C   UNL A   1      34.370  24.866  24.999  1.00  0.00     0.012 A 
ATOM     20  C   UNL A   1      33.649  23.063  23.574  1.00  0.00     0.050 A 
ATOM     21  Cl  UNL A   1      32.494  22.252  22.568  1.00  0.00    -0.084 Cl
ENDBRANCH   9  14
ENDBRANCH   5   8
ENDBRANCH   3   4
ENDBRANCH   2   3
ENDBRANCH   1   2
BRANCH   1  22
ATOM     22  C   UNL A   1      33.858  29.209  26.315  1.00  0.00     0.116 C 
BRANCH  22  23
ATOM     23  N   UNL A   1      33.759  30.528  26.920  1.00  0.00    -0.352 N 
ATOM     24  C   UNL A   1      34.603  31.124  27.828  1.00  0.00     0.251 C 
ATOM     25  H   UNL A   1      32.983  31.068  26.643  1.00  0.00     0.163 HD
ATOM     26  O   UNL A   1      34.318  32.211  28.311  1.00  0.00    -0.269 OA
BRANCH  24  27
ATOM     27  C   UNL A   1      35.836  30.420  28.243  1.00  0.00     0.039 A 
ATOM     28  C   UNL A   1      36.972  30.527  27.436  1.00  0.00     0.014 A 
ATOM     29  C   UNL A   1      35.877  29.682  29.428  1.00  0.00     0.014 A 
ATOM     30  C   UNL A   1      38.173  29.948  27.854  1.00  0.00     0.010 A 
ATOM     31  C   UNL A   1      37.087  29.156  29.870  1.00  0.00     0.010 A 
ATOM     32  C   UNL A   1      38.247  29.286  29.091  1.00  0.00    -0.014 A 
BRANCH  32  33
ATOM     33  C   UNL A   1      39.534  28.750  29.603  1.00  0.00     0.031 A 
ATOM     34  C   UNL A   1      40.263  29.455  30.712  1.00  0.00     0.074 A 
ATOM     35  C   UNL A   1      40.093  27.685  28.995  1.00  0.00     0.049 A 
ATOM     36  N   UNL A   1      41.425  29.176  31.240  1.00  0.00    -0.248 NA
ATOM     37  C   UNL A   1      39.616  30.650  31.283  1.00  0.00     0.031 C 
ATOM     38  C   UNL A   1      39.527  26.971  27.847  1.00  0.00     0.029 A 
ATOM     39  N   UNL A   1      41.281  27.040  29.233  1.00  0.00    -0.354 N 
ATOM     40  C   UNL A   1      41.670  30.177  32.173  1.00  0.00     0.074 A 
ATOM     41  C   UNL A   1      40.545  31.085  32.123  1.00  0.00     0.031 C 
ATOM     42  C   UNL A   1      40.371  25.993  27.478  1.00  0.00     0.029 A 
ATOM     43  C   UNL A   1      41.544  26.022  28.345  1.00  0.00     0.049 A 
ATOM     44  H   UNL A   1      41.888  27.282  29.969  1.00  0.00     0.167 HD
ATOM     45  C   UNL A   1      42.721  30.312  33.016  1.00  0.00     0.034 A 
ATOM     46  C   UNL A   1      42.613  25.208  28.237  1.00  0.00     0.034 A 
ATOM     47  C   UNL A   1      43.807  29.373  33.104  1.00  0.00     0.049 A 
ATOM     48  C   UNL A   1      43.733  25.336  29.234  1.00  0.00     0.074 A 
ATOM     49  C   UNL A   1      44.862  29.361  34.001  1.00  0.00     0.029 A 
ATOM     50  N   UNL A   1      43.982  28.284  32.266  1.00  0.00    -0.354 N 
ATOM     51  N   UNL A   1      43.855  26.179  30.232  1.00  0.00    -0.248 NA
ATOM     52  C   UNL A   1      44.842  24.378  29.119  1.00  0.00     0.031 C 
ATOM     53  C   UNL A   1      45.681  28.269  33.696  1.00  0.00     0.029 A 
ATOM     54  C   UNL A   1      45.129  27.594  32.619  1.00  0.00     0.049 A 
ATOM     55  H   UNL A   1      43.379  28.036  31.528  1.00  0.00     0.167 HD
ATOM     56  C   UNL A   1      45.034  25.831  30.881  1.00  0.00     0.074 A 
ATOM     57  C   UNL A   1      45.576  24.687  30.180  1.00  0.00     0.031 C 
ATOM     58  C   UNL A   1      45.623  26.419  31.951  1.00  0.00     0.034 A 
BRANCH  45  59
ATOM     59  C   UNL A   1      42.720  31.483  33.961  1.00  0.00     0.023 A 
ATOM     60  C   UNL A   1      43.266  32.712  33.539  1.00  0.00     0.012 A 
ATOM     61  C   UNL A   1      42.115  31.394  35.230  1.00  0.00     0.148 A 
ATOM     62  C   UNL A   1      43.236  33.826  34.375  1.00  0.00     0.002 A 
ATOM     63  C   UNL A   1      42.052  32.521  36.042  1.00  0.00     0.091 A 
ATOM     64  F   UNL A   1      41.619  30.211  35.621  1.00  0.00    -0.205 F 
ATOM     65  C   UNL A   1      42.620  33.734  35.619  1.00  0.00     0.022 A 
BRANCH  63  66
ATOM     66  S   UNL A   1      41.214  32.527  37.631  1.00  0.00     0.127 S 
ATOM     67  O   UNL A   1      41.248  33.947  37.976  1.00  0.00    -0.237 OA
ATOM     68  O   UNL A   1      39.888  32.016  37.282  1.00  0.00    -0.237 OA
ATOM     69  O   UNL A   1      41.992  31.653  38.498  1.00  0.00    -0.744 OA
ENDBRANCH  63  66
ENDBRANCH  45  59
BRANCH  46  70
ATOM     70  C   UNL A   1      42.640  24.150  27.188  1.00  0.00     0.023 A 
ATOM     71  C   UNL A   1      43.322  24.394  25.980  1.00  0.00     0.012 A 
ATOM     72  C   UNL A   1      42.022  22.900  27.387  1.00  0.00     0.148 A 
ATOM     73  C   UNL A   1      43.359  23.426  24.975  1.00  0.00     0.002 A 
ATOM     74  C   UNL A   1      42.111  21.920  26.404  1.00  0.00     0.091 A 
ATOM     75  F   UNL A   1      41.366  22.690  28.536  1.00  0.00    -0.205 F 
ATOM     76  C   UNL A   1      42.764  22.187  25.191  1.00  0.00     0.022 A 
BRANCH  74  77
ATOM     77  S   UNL A   1      41.487  20.254  26.659  1.00  0.00     0.127 S 
ATOM     78  O   UNL A   1      41.884  19.592  25.420  1.00  0.00    -0.237 OA
ATOM     79  O   UNL A   1      42.226  19.829  27.849  1.00  0.00    -0.237 OA
ATOM     80  O   UNL A   1      40.054  20.408  26.873  1.00  0.00    -0.744 OA
ENDBRANCH  74  77
ENDBRANCH  46  70
BRANCH  58  81
ATOM     81  C   UNL A   1      46.909  25.822  32.458  1.00  0.00     0.023 A 
ATOM     82  C   UNL A   1      48.140  26.278  31.944  1.00  0.00     0.012 A 
ATOM     83  C   UNL A   1      46.903  24.873  33.498  1.00  0.00     0.148 A 
ATOM     84  C   UNL A   1      49.343  25.779  32.441  1.00  0.00     0.002 A 
ATOM     85  C   UNL A   1      48.107  24.414  34.020  1.00  0.00     0.091 A 
ATOM     86  F   UNL A   1      45.722  24.436  33.959  1.00  0.00    -0.205 F 
ATOM     87  C   UNL A   1      49.327  24.858  33.486  1.00  0.00     0.022 A 
BRANCH  85  88
ATOM     88  S   UNL A   1      48.179  23.300  35.428  1.00  0.00     0.127 S 
ATOM     89  O   UNL A   1      47.594  22.081  34.875  1.00  0.00    -0.237 OA
ATOM     90  O   UNL A   1      49.617  23.222  35.692  1.00  0.00    -0.237 OA
ATOM     91  O   UNL A   1      47.409  23.944  36.484  1.00  0.00    -0.744 OA
ENDBRANCH  85  88
ENDBRANCH  58  81
ENDBRANCH  32  33
ENDBRANCH  24  27
ENDBRANCH  22  23
ENDBRANCH   1  22
TORSDOF 15
ENDMDL
