MODEL 1
REMARK VINA RESULT:     -12.5      0.000      0.000
REMARK SMILES O=C(NCCCCNC(=O)c1ccc(N2C(=O)/C(=C/C3=c4ccccc4=NC3)SC2=S)cc1O)c1ccc(-c2c3nc(c(-c4cccc(S(=O)(=O)[O-])c4F)c4ccc([nH]4)c(-c4cccc(S(=O)(=O)[O-])c4F)c4nc(c(-c5cccc(S(=O)(=O)[O-])c5F)c5ccc2[nH]5)C=C4)C=C3)cc1
REMARK SMILES IDX 5 1 4 2 3 3 1 4 2 5 35 7 36 8 97 9 37 10 96 11 38 12 39 13
REMARK SMILES IDX 40 14 90 15 41 16 95 17 89 18 91 19 42 20 94 21 88 22 87 23
REMARK SMILES IDX 43 25 75 26 55 27 74 28 56 29 59 30 73 31 92 32 57 33 58 34
REMARK SMILES IDX 72 36 93 37 60 38 44 39 45 40 53 41 46 42 48 43 54 44 47 45
REMARK SMILES IDX 49 46 50 47 51 48 52 49 76 50 77 51 85 52 78 53 80 54 86 55
REMARK SMILES IDX 79 56 81 57 82 58 83 59 84 60 61 61 62 62 70 63 63 64 65 65
REMARK SMILES IDX 71 66 64 67 66 68 67 69 68 70 69 71 6 72 7 73 8 74 9 75
REMARK SMILES IDX 10 77 11 78 12 79 33 80 13 81 32 82 14 83 34 84 15 86 16 87
REMARK SMILES IDX 30 88 17 89 18 90 29 91 31 92 19 93 20 94 21 95 28 96 22 97
REMARK SMILES IDX 26 98 27 99 23 100 25 101 24 102
REMARK H PARENT 3 6 91 24 59 35 8 76 34 85
REMARK Flexibility Score: inf
ROOT
ATOM      1  C   UNL A   1      36.473  20.199  24.930  1.00  0.00     0.023 C 
ENDROOT
BRANCH   1   2
ATOM      2  C   UNL A   1      37.788  20.887  25.279  1.00  0.00     0.116 C 
BRANCH   2   3
ATOM      3  N   UNL A   1      38.842  19.946  25.620  1.00  0.00    -0.352 N 
ATOM      4  O   UNL A   1      40.886  19.230  26.208  1.00  0.00    -0.269 OA
ATOM      5  C   UNL A   1      40.097  20.170  26.130  1.00  0.00     0.251 C 
ATOM      6  H   UNL A   1      38.623  19.000  25.459  1.00  0.00     0.163 HD
BRANCH   5   7
ATOM      7  C   UNL A   1      40.513  21.521  26.574  1.00  0.00     0.039 A 
ATOM      8  C   UNL A   1      40.109  22.626  25.819  1.00  0.00     0.014 A 
ATOM      9  C   UNL A   1      41.339  21.705  27.686  1.00  0.00     0.014 A 
ATOM     10  C   UNL A   1      40.514  23.910  26.190  1.00  0.00     0.010 A 
ATOM     11  C   UNL A   1      41.674  22.992  28.102  1.00  0.00     0.010 A 
ATOM     12  C   UNL A   1      41.296  24.105  27.339  1.00  0.00    -0.014 A 
BRANCH  12  13
ATOM     13  C   UNL A   1      41.798  25.453  27.704  1.00  0.00     0.031 A 
ATOM     14  C   UNL A   1      43.184  25.871  27.286  1.00  0.00     0.074 A 
ATOM     15  C   UNL A   1      41.035  26.287  28.437  1.00  0.00     0.049 A 
ATOM     16  N   UNL A   1      43.804  27.000  27.512  1.00  0.00    -0.248 NA
ATOM     17  C   UNL A   1      43.988  24.888  26.541  1.00  0.00     0.031 C 
ATOM     18  C   UNL A   1      39.703  25.978  28.960  1.00  0.00     0.029 A 
ATOM     19  N   UNL A   1      41.275  27.567  28.871  1.00  0.00    -0.354 N 
ATOM     20  C   UNL A   1      45.080  26.841  26.987  1.00  0.00     0.074 A 
ATOM     21  C   UNL A   1      45.159  25.502  26.451  1.00  0.00     0.031 C 
ATOM     22  C   UNL A   1      39.230  27.051  29.616  1.00  0.00     0.029 A 
ATOM     23  C   UNL A   1      40.227  28.118  29.572  1.00  0.00     0.049 A 
ATOM     24  H   UNL A   1      42.117  28.047  28.696  1.00  0.00     0.167 HD
ATOM     25  C   UNL A   1      46.086  27.742  26.914  1.00  0.00     0.034 A 
ATOM     26  C   UNL A   1      40.078  29.350  30.098  1.00  0.00     0.034 A 
ATOM     27  C   UNL A   1      45.972  29.107  27.338  1.00  0.00     0.049 A 
ATOM     28  C   UNL A   1      41.181  30.361  29.937  1.00  0.00     0.074 A 
ATOM     29  C   UNL A   1      46.886  30.132  27.178  1.00  0.00     0.029 A 
ATOM     30  N   UNL A   1      44.874  29.640  27.992  1.00  0.00    -0.354 N 
ATOM     31  N   UNL A   1      42.323  30.236  29.306  1.00  0.00    -0.248 NA
ATOM     32  C   UNL A   1      40.967  31.688  30.536  1.00  0.00     0.031 C 
ATOM     33  C   UNL A   1      46.336  31.291  27.731  1.00  0.00     0.029 A 
ATOM     34  C   UNL A   1      45.086  30.982  28.244  1.00  0.00     0.049 A 
ATOM     35  H   UNL A   1      44.064  29.138  28.239  1.00  0.00     0.167 HD
ATOM     36  C   UNL A   1      42.953  31.471  29.410  1.00  0.00     0.074 A 
ATOM     37  C   UNL A   1      42.064  32.335  30.158  1.00  0.00     0.031 C 
ATOM     38  C   UNL A   1      44.167  31.845  28.939  1.00  0.00     0.034 A 
BRANCH  25  39
ATOM     39  C   UNL A   1      47.369  27.308  26.266  1.00  0.00     0.023 A 
ATOM     40  C   UNL A   1      48.334  26.636  27.042  1.00  0.00     0.012 A 
ATOM     41  C   UNL A   1      47.593  27.504  24.891  1.00  0.00     0.148 A 
ATOM     42  C   UNL A   1      49.517  26.183  26.462  1.00  0.00     0.002 A 
ATOM     43  C   UNL A   1      48.762  27.024  24.313  1.00  0.00     0.091 A 
ATOM     44  F   UNL A   1      46.668  28.165  24.180  1.00  0.00    -0.205 F 
ATOM     45  C   UNL A   1      49.726  26.368  25.098  1.00  0.00     0.022 A 
BRANCH  43  46
ATOM     46  S   UNL A   1      49.109  27.168  22.557  1.00  0.00     0.127 S 
ATOM     47  O   UNL A   1      50.571  27.150  22.543  1.00  0.00    -0.237 OA
ATOM     48  O   UNL A   1      48.479  25.963  22.018  1.00  0.00    -0.237 OA
ATOM     49  O   UNL A   1      48.497  28.419  22.128  1.00  0.00    -0.744 OA
ENDBRANCH  43  46
ENDBRANCH  25  39
BRANCH  26  50
ATOM     50  C   UNL A   1      38.779  29.724  30.719  1.00  0.00     0.023 A 
ATOM     51  C   UNL A   1      38.517  29.309  32.038  1.00  0.00     0.012 A 
ATOM     52  C   UNL A   1      37.846  30.542  30.053  1.00  0.00     0.148 A 
ATOM     53  C   UNL A   1      37.344  29.694  32.685  1.00  0.00     0.002 A 
ATOM     54  C   UNL A   1      36.693  30.949  30.715  1.00  0.00     0.091 A 
ATOM     55  F   UNL A   1      38.123  30.926  28.799  1.00  0.00    -0.205 F 
ATOM     56  C   UNL A   1      36.436  30.520  32.027  1.00  0.00     0.022 A 
BRANCH  54  57
ATOM     57  S   UNL A   1      35.503  32.086  29.993  1.00  0.00     0.127 S 
ATOM     58  O   UNL A   1      36.338  33.253  29.711  1.00  0.00    -0.237 OA
ATOM     59  O   UNL A   1      35.062  31.344  28.813  1.00  0.00    -0.237 OA
ATOM     60  O   UNL A   1      34.478  32.284  31.007  1.00  0.00    -0.744 OA
ENDBRANCH  54  57
ENDBRANCH  26  50
BRANCH  38  61
ATOM     61  C   UNL A   1      44.637  33.247  29.200  1.00  0.00     0.023 A 
ATOM     62  C   UNL A   1      45.463  33.491  30.313  1.00  0.00     0.012 A 
ATOM     63  C   UNL A   1      44.416  34.268  28.254  1.00  0.00     0.148 A 
ATOM     64  C   UNL A   1      46.072  34.734  30.480  1.00  0.00     0.002 A 
ATOM     65  C   UNL A   1      45.050  35.494  28.411  1.00  0.00     0.091 A 
ATOM     66  F   UNL A   1      43.628  34.002  27.203  1.00  0.00    -0.205 F 
ATOM     67  C   UNL A   1      45.875  35.729  29.524  1.00  0.00     0.022 A 
BRANCH  65  68
ATOM     68  S   UNL A   1      44.930  36.814  27.197  1.00  0.00     0.127 S 
ATOM     69  O   UNL A   1      43.593  36.592  26.647  1.00  0.00    -0.237 OA
ATOM     70  O   UNL A   1      45.058  38.008  28.031  1.00  0.00    -0.237 OA
ATOM     71  O   UNL A   1      46.023  36.601  26.258  1.00  0.00    -0.744 OA
ENDBRANCH  65  68
ENDBRANCH  38  61
ENDBRANCH  12  13
ENDBRANCH   5   7
ENDBRANCH   2   3
ENDBRANCH   1   2
BRANCH   1  72
ATOM     72  C   UNL A   1      36.488  18.673  25.006  1.00  0.00     0.023 C 
BRANCH  72  73
ATOM     73  C   UNL A   1      35.459  17.965  24.131  1.00  0.00     0.116 C 
BRANCH  73  74
ATOM     74  N   UNL A   1      34.434  17.287  24.903  1.00  0.00    -0.352 N 
ATOM     75  C   UNL A   1      33.250  17.801  25.370  1.00  0.00     0.255 C 
ATOM     76  H   UNL A   1      34.610  16.342  25.119  1.00  0.00     0.163 HD
ATOM     77  O   UNL A   1      32.483  17.126  26.049  1.00  0.00    -0.269 OA
BRANCH  75  78
ATOM     78  C   UNL A   1      32.946  19.221  25.130  1.00  0.00     0.081 A 
ATOM     79  C   UNL A   1      33.176  20.111  26.178  1.00  0.00     0.020 A 
ATOM     80  C   UNL A   1      32.495  19.693  23.895  1.00  0.00     0.130 A 
ATOM     81  C   UNL A   1      33.012  21.481  25.971  1.00  0.00     0.028 A 
ATOM     82  C   UNL A   1      32.327  21.065  23.690  1.00  0.00     0.073 A 
ATOM     83  C   UNL A   1      32.594  21.980  24.724  1.00  0.00     0.054 A 
BRANCH  80  84
ATOM     84  O   UNL A   1      32.267  18.821  22.869  1.00  0.00    -0.507 OA
ATOM     85  H   UNL A   1      31.477  18.320  22.845  1.00  0.00     0.293 HD
ENDBRANCH  80  84
BRANCH  83  86
ATOM     86  N   UNL A   1      32.511  23.393  24.509  1.00  0.00    -0.261 N 
ATOM     87  C   UNL A   1      31.312  24.053  24.777  1.00  0.00     0.270 C 
ATOM     88  C   UNL A   1      33.556  24.190  24.057  1.00  0.00     0.152 C 
ATOM     89  O   UNL A   1      30.269  23.576  25.206  1.00  0.00    -0.268 OA
ATOM     90  C   UNL A   1      31.454  25.511  24.519  1.00  0.00     0.081 C 
ATOM     91  S   UNL A   1      33.049  25.880  24.025  1.00  0.00    -0.054 SA
ATOM     92  S   UNL A   1      35.071  23.767  23.483  1.00  0.00    -0.051 S 
ATOM     93  C   UNL A   1      30.437  26.359  24.725  1.00  0.00     0.027 C 
BRANCH  93  94
ATOM     94  C   UNL A   1      30.433  27.785  24.509  1.00  0.00    -0.016 C 
ATOM     95  C   UNL A   1      29.533  28.473  23.811  1.00  0.00     0.005 A 
ATOM     96  C   UNL A   1      31.525  28.692  24.999  1.00  0.00     0.179 C 
ATOM     97  C   UNL A   1      28.325  28.158  23.115  1.00  0.00     0.011 A 
ATOM     98  C   UNL A   1      30.056  29.848  23.872  1.00  0.00     0.065 A 
ATOM     99  N   UNL A   1      31.170  30.049  24.508  1.00  0.00    -0.280 NA
ATOM    100  C   UNL A   1      27.650  29.152  22.517  1.00  0.00     0.001 A 
ATOM    101  C   UNL A   1      29.255  30.887  23.190  1.00  0.00     0.028 A 
ATOM    102  C   UNL A   1      28.123  30.526  22.561  1.00  0.00     0.002 A 
ENDBRANCH  93  94
ENDBRANCH  83  86
ENDBRANCH  75  78
ENDBRANCH  73  74
ENDBRANCH  72  73
ENDBRANCH   1  72
TORSDOF 17
ENDMDL
MODEL 2
REMARK VINA RESULT:     -12.4      2.020      7.652
REMARK SMILES O=C(NCCCCNC(=O)c1ccc(N2C(=O)/C(=C/C3=c4ccccc4=NC3)SC2=S)cc1O)c1ccc(-c2c3nc(c(-c4cccc(S(=O)(=O)[O-])c4F)c4ccc([nH]4)c(-c4cccc(S(=O)(=O)[O-])c4F)c4nc(c(-c5cccc(S(=O)(=O)[O-])c5F)c5ccc2[nH]5)C=C4)C=C3)cc1
REMARK SMILES IDX 5 1 4 2 3 3 1 4 2 5 35 7 36 8 97 9 37 10 96 11 38 12 39 13
REMARK SMILES IDX 40 14 90 15 41 16 95 17 89 18 91 19 42 20 94 21 88 22 87 23
REMARK SMILES IDX 43 25 75 26 55 27 74 28 56 29 59 30 73 31 92 32 57 33 58 34
REMARK SMILES IDX 72 36 93 37 60 38 44 39 45 40 53 41 46 42 48 43 54 44 47 45
REMARK SMILES IDX 49 46 50 47 51 48 52 49 76 50 77 51 85 52 78 53 80 54 86 55
REMARK SMILES IDX 79 56 81 57 82 58 83 59 84 60 61 61 62 62 70 63 63 64 65 65
REMARK SMILES IDX 71 66 64 67 66 68 67 69 68 70 69 71 6 72 7 73 8 74 9 75
REMARK SMILES IDX 10 77 11 78 12 79 33 80 13 81 32 82 14 83 34 84 15 86 16 87
REMARK SMILES IDX 30 88 17 89 18 90 29 91 31 92 19 93 20 94 21 95 28 96 22 97
REMARK SMILES IDX 26 98 27 99 23 100 25 101 24 102
REMARK H PARENT 3 6 91 24 59 35 8 76 34 85
REMARK Flexibility Score: inf
ROOT
ATOM      1  C   UNL A   1      38.719  20.354  25.233  1.00  0.00     0.023 C 
ENDROOT
BRANCH   1   2
ATOM      2  C   UNL A   1      39.634  20.140  26.434  1.00  0.00     0.116 C 
BRANCH   2   3
ATOM      3  N   UNL A   1      40.735  19.234  26.148  1.00  0.00    -0.352 N 
ATOM      4  O   UNL A   1      42.806  18.585  25.579  1.00  0.00    -0.269 OA
ATOM      5  C   UNL A   1      42.068  19.494  25.955  1.00  0.00     0.251 C 
ATOM      6  H   UNL A   1      40.484  18.284  26.081  1.00  0.00     0.163 HD
BRANCH   5   7
ATOM      7  C   UNL A   1      42.624  20.849  26.182  1.00  0.00     0.039 A 
ATOM      8  C   UNL A   1      42.844  21.268  27.497  1.00  0.00     0.014 A 
ATOM      9  C   UNL A   1      42.874  21.726  25.123  1.00  0.00     0.014 A 
ATOM     10  C   UNL A   1      43.334  22.553  27.747  1.00  0.00     0.010 A 
ATOM     11  C   UNL A   1      43.439  22.976  25.369  1.00  0.00     0.010 A 
ATOM     12  C   UNL A   1      43.640  23.416  26.684  1.00  0.00    -0.014 A 
BRANCH  12  13
ATOM     13  C   UNL A   1      44.087  24.809  26.933  1.00  0.00     0.031 A 
ATOM     14  C   UNL A   1      43.123  25.809  27.516  1.00  0.00     0.074 A 
ATOM     15  C   UNL A   1      45.338  25.191  26.607  1.00  0.00     0.049 A 
ATOM     16  N   UNL A   1      43.320  27.070  27.801  1.00  0.00    -0.248 NA
ATOM     17  C   UNL A   1      41.754  25.343  27.792  1.00  0.00     0.031 C 
ATOM     18  C   UNL A   1      46.346  24.338  25.976  1.00  0.00     0.029 A 
ATOM     19  N   UNL A   1      45.972  26.398  26.760  1.00  0.00    -0.354 N 
ATOM     20  C   UNL A   1      42.093  27.555  28.235  1.00  0.00     0.074 A 
ATOM     21  C   UNL A   1      41.149  26.464  28.155  1.00  0.00     0.031 C 
ATOM     22  C   UNL A   1      47.483  25.039  25.827  1.00  0.00     0.029 A 
ATOM     23  C   UNL A   1      47.281  26.393  26.338  1.00  0.00     0.049 A 
ATOM     24  H   UNL A   1      45.531  27.194  27.138  1.00  0.00     0.167 HD
ATOM     25  C   UNL A   1      41.784  28.786  28.702  1.00  0.00     0.034 A 
ATOM     26  C   UNL A   1      48.217  27.361  26.379  1.00  0.00     0.034 A 
ATOM     27  C   UNL A   1      42.743  29.835  28.893  1.00  0.00     0.049 A 
ATOM     28  C   UNL A   1      47.872  28.699  26.974  1.00  0.00     0.074 A 
ATOM     29  C   UNL A   1      42.555  31.068  29.491  1.00  0.00     0.029 A 
ATOM     30  N   UNL A   1      44.070  29.770  28.505  1.00  0.00    -0.354 N 
ATOM     31  N   UNL A   1      46.744  29.090  27.516  1.00  0.00    -0.248 NA
ATOM     32  C   UNL A   1      48.931  29.721  26.989  1.00  0.00     0.031 C 
ATOM     33  C   UNL A   1      43.775  31.748  29.469  1.00  0.00     0.029 A 
ATOM     34  C   UNL A   1      44.716  30.941  28.848  1.00  0.00     0.049 A 
ATOM     35  H   UNL A   1      44.489  29.003  28.053  1.00  0.00     0.167 HD
ATOM     36  C   UNL A   1      46.963  30.390  27.957  1.00  0.00     0.074 A 
ATOM     37  C   UNL A   1      48.334  30.721  27.627  1.00  0.00     0.031 C 
ATOM     38  C   UNL A   1      46.097  31.235  28.565  1.00  0.00     0.034 A 
BRANCH  25  39
ATOM     39  C   UNL A   1      40.367  29.037  29.132  1.00  0.00     0.023 A 
ATOM     40  C   UNL A   1      39.406  29.369  28.157  1.00  0.00     0.012 A 
ATOM     41  C   UNL A   1      39.974  28.883  30.474  1.00  0.00     0.148 A 
ATOM     42  C   UNL A   1      38.074  29.566  28.515  1.00  0.00     0.002 A 
ATOM     43  C   UNL A   1      38.639  29.054  30.820  1.00  0.00     0.091 A 
ATOM     44  F   UNL A   1      40.913  28.587  31.385  1.00  0.00    -0.205 F 
ATOM     45  C   UNL A   1      37.690  29.400  29.843  1.00  0.00     0.022 A 
BRANCH  43  46
ATOM     46  S   UNL A   1      38.030  28.816  32.493  1.00  0.00     0.127 S 
ATOM     47  O   UNL A   1      38.906  29.707  33.253  1.00  0.00    -0.237 OA
ATOM     48  O   UNL A   1      36.644  29.270  32.384  1.00  0.00    -0.237 OA
ATOM     49  O   UNL A   1      38.186  27.396  32.778  1.00  0.00    -0.744 OA
ENDBRANCH  43  46
ENDBRANCH  25  39
BRANCH  26  50
ATOM     50  C   UNL A   1      49.607  27.049  25.949  1.00  0.00     0.023 A 
ATOM     51  C   UNL A   1      50.445  26.346  26.836  1.00  0.00     0.012 A 
ATOM     52  C   UNL A   1      50.076  27.367  24.661  1.00  0.00     0.148 A 
ATOM     53  C   UNL A   1      51.731  25.971  26.452  1.00  0.00     0.002 A 
ATOM     54  C   UNL A   1      51.348  26.962  24.272  1.00  0.00     0.091 A 
ATOM     55  F   UNL A   1      49.256  28.034  23.836  1.00  0.00    -0.205 F 
ATOM     56  C   UNL A   1      52.180  26.270  25.169  1.00  0.00     0.022 A 
BRANCH  54  57
ATOM     57  S   UNL A   1      51.990  27.217  22.614  1.00  0.00     0.127 S 
ATOM     58  O   UNL A   1      53.235  26.452  22.654  1.00  0.00    -0.237 OA
ATOM     59  O   UNL A   1      50.932  26.629  21.792  1.00  0.00    -0.237 OA
ATOM     60  O   UNL A   1      52.148  28.657  22.466  1.00  0.00    -0.744 OA
ENDBRANCH  54  57
ENDBRANCH  26  50
BRANCH  38  61
ATOM     61  C   UNL A   1      46.574  32.611  28.932  1.00  0.00     0.023 A 
ATOM     62  C   UNL A   1      47.291  32.784  30.131  1.00  0.00     0.012 A 
ATOM     63  C   UNL A   1      46.475  33.676  28.016  1.00  0.00     0.148 A 
ATOM     64  C   UNL A   1      47.910  34.001  30.412  1.00  0.00     0.002 A 
ATOM     65  C   UNL A   1      47.120  34.876  28.289  1.00  0.00     0.091 A 
ATOM     66  F   UNL A   1      45.789  33.478  26.882  1.00  0.00    -0.205 F 
ATOM     67  C   UNL A   1      47.836  35.040  29.487  1.00  0.00     0.022 A 
BRANCH  65  68
ATOM     68  S   UNL A   1      47.156  36.248  27.129  1.00  0.00     0.127 S 
ATOM     69  O   UNL A   1      48.040  37.193  27.811  1.00  0.00    -0.237 OA
ATOM     70  O   UNL A   1      47.730  35.626  25.937  1.00  0.00    -0.237 OA
ATOM     71  O   UNL A   1      45.776  36.693  26.985  1.00  0.00    -0.744 OA
ENDBRANCH  65  68
ENDBRANCH  38  61
ENDBRANCH  12  13
ENDBRANCH   5   7
ENDBRANCH   2   3
ENDBRANCH   1   2
BRANCH   1  72
ATOM     72  C   UNL A   1      37.741  19.218  24.940  1.00  0.00     0.023 C 
BRANCH  72  73
ATOM     73  C   UNL A   1      36.286  19.638  24.765  1.00  0.00     0.116 C 
BRANCH  73  74
ATOM     74  N   UNL A   1      35.395  18.511  24.561  1.00  0.00    -0.352 N 
ATOM     75  C   UNL A   1      34.024  18.520  24.487  1.00  0.00     0.255 C 
ATOM     76  H   UNL A   1      35.826  17.630  24.463  1.00  0.00     0.163 HD
ATOM     77  O   UNL A   1      33.383  17.482  24.348  1.00  0.00    -0.269 OA
BRANCH  75  78
ATOM     78  C   UNL A   1      33.309  19.793  24.677  1.00  0.00     0.081 A 
ATOM     79  C   UNL A   1      33.605  20.527  25.825  1.00  0.00     0.020 A 
ATOM     80  C   UNL A   1      32.406  20.293  23.737  1.00  0.00     0.130 A 
ATOM     81  C   UNL A   1      33.041  21.792  26.000  1.00  0.00     0.028 A 
ATOM     82  C   UNL A   1      31.839  21.557  23.917  1.00  0.00     0.073 A 
ATOM     83  C   UNL A   1      32.157  22.329  25.048  1.00  0.00     0.054 A 
BRANCH  80  84
ATOM     84  O   UNL A   1      32.115  19.572  22.614  1.00  0.00    -0.507 OA
ATOM     85  H   UNL A   1      31.709  18.731  22.688  1.00  0.00     0.293 HD
ENDBRANCH  80  84
BRANCH  83  86
ATOM     86  N   UNL A   1      31.655  23.661  25.207  1.00  0.00    -0.261 N 
ATOM     87  C   UNL A   1      32.276  24.709  24.527  1.00  0.00     0.270 C 
ATOM     88  C   UNL A   1      30.564  24.009  25.995  1.00  0.00     0.152 C 
ATOM     89  O   UNL A   1      33.229  24.649  23.759  1.00  0.00    -0.268 OA
ATOM     90  C   UNL A   1      31.580  25.993  24.806  1.00  0.00     0.081 C 
ATOM     91  S   UNL A   1      30.235  25.735  25.831  1.00  0.00    -0.054 SA
ATOM     92  S   UNL A   1      29.669  23.092  27.071  1.00  0.00    -0.051 S 
ATOM     93  C   UNL A   1      31.982  27.142  24.246  1.00  0.00     0.027 C 
BRANCH  93  94
ATOM     94  C   UNL A   1      31.410  28.451  24.435  1.00  0.00    -0.016 C 
ATOM     95  C   UNL A   1      30.344  28.944  23.808  1.00  0.00     0.005 A 
ATOM     96  C   UNL A   1      32.013  29.487  25.340  1.00  0.00     0.179 C 
ATOM     97  C   UNL A   1      29.406  28.447  22.852  1.00  0.00     0.011 A 
ATOM     98  C   UNL A   1      30.260  30.315  24.338  1.00  0.00     0.065 A 
ATOM     99  N   UNL A   1      31.163  30.697  25.189  1.00  0.00    -0.280 NA
ATOM    100  C   UNL A   1      28.416  29.257  22.443  1.00  0.00     0.001 A 
ATOM    101  C   UNL A   1      29.141  31.144  23.840  1.00  0.00     0.028 A 
ATOM    102  C   UNL A   1      28.287  30.615  22.947  1.00  0.00     0.002 A 
ENDBRANCH  93  94
ENDBRANCH  83  86
ENDBRANCH  75  78
ENDBRANCH  73  74
ENDBRANCH  72  73
ENDBRANCH   1  72
TORSDOF 17
ENDMDL
MODEL 3
REMARK VINA RESULT:     -12.3      5.935     12.572
REMARK SMILES O=C(NCCCCNC(=O)c1ccc(N2C(=O)/C(=C/C3=c4ccccc4=NC3)SC2=S)cc1O)c1ccc(-c2c3nc(c(-c4cccc(S(=O)(=O)[O-])c4F)c4ccc([nH]4)c(-c4cccc(S(=O)(=O)[O-])c4F)c4nc(c(-c5cccc(S(=O)(=O)[O-])c5F)c5ccc2[nH]5)C=C4)C=C3)cc1
REMARK SMILES IDX 5 1 4 2 3 3 1 4 2 5 35 7 36 8 97 9 37 10 96 11 38 12 39 13
REMARK SMILES IDX 40 14 90 15 41 16 95 17 89 18 91 19 42 20 94 21 88 22 87 23
REMARK SMILES IDX 43 25 75 26 55 27 74 28 56 29 59 30 73 31 92 32 57 33 58 34
REMARK SMILES IDX 72 36 93 37 60 38 44 39 45 40 53 41 46 42 48 43 54 44 47 45
REMARK SMILES IDX 49 46 50 47 51 48 52 49 76 50 77 51 85 52 78 53 80 54 86 55
REMARK SMILES IDX 79 56 81 57 82 58 83 59 84 60 61 61 62 62 70 63 63 64 65 65
REMARK SMILES IDX 71 66 64 67 66 68 67 69 68 70 69 71 6 72 7 73 8 74 9 75
REMARK SMILES IDX 10 77 11 78 12 79 33 80 13 81 32 82 14 83 34 84 15 86 16 87
REMARK SMILES IDX 30 88 17 89 18 90 29 91 31 92 19 93 20 94 21 95 28 96 22 97
REMARK SMILES IDX 26 98 27 99 23 100 25 101 24 102
REMARK H PARENT 3 6 91 24 59 35 8 76 34 85
REMARK Flexibility Score: inf
ROOT
ATOM      1  C   UNL A   1      35.475  33.079  28.145  1.00  0.00     0.023 C 
ENDROOT
BRANCH   1   2
ATOM      2  C   UNL A   1      34.505  32.293  29.020  1.00  0.00     0.116 C 
BRANCH   2   3
ATOM      3  N   UNL A   1      34.019  31.084  28.376  1.00  0.00    -0.352 N 
ATOM      4  O   UNL A   1      34.107  29.118  27.299  1.00  0.00    -0.269 OA
ATOM      5  C   UNL A   1      34.702  29.970  27.956  1.00  0.00     0.251 C 
ATOM      6  H   UNL A   1      33.049  31.061  28.214  1.00  0.00     0.163 HD
BRANCH   5   7
ATOM      7  C   UNL A   1      36.137  29.786  28.274  1.00  0.00     0.039 A 
ATOM      8  C   UNL A   1      37.076  29.972  27.255  1.00  0.00     0.014 A 
ATOM      9  C   UNL A   1      36.562  29.380  29.542  1.00  0.00     0.014 A 
ATOM     10  C   UNL A   1      38.434  29.773  27.513  1.00  0.00     0.010 A 
ATOM     11  C   UNL A   1      37.922  29.262  29.820  1.00  0.00     0.010 A 
ATOM     12  C   UNL A   1      38.869  29.420  28.800  1.00  0.00    -0.014 A 
BRANCH  12  13
ATOM     13  C   UNL A   1      40.299  29.130  29.072  1.00  0.00     0.031 A 
ATOM     14  C   UNL A   1      41.168  30.186  29.704  1.00  0.00     0.074 A 
ATOM     15  C   UNL A   1      40.831  27.942  28.723  1.00  0.00     0.049 A 
ATOM     16  N   UNL A   1      42.437  30.129  30.015  1.00  0.00    -0.248 NA
ATOM     17  C   UNL A   1      40.540  31.485  30.003  1.00  0.00     0.031 C 
ATOM     18  C   UNL A   1      40.114  26.860  28.046  1.00  0.00     0.029 A 
ATOM     19  N   UNL A   1      42.100  27.448  28.890  1.00  0.00    -0.354 N 
ATOM     20  C   UNL A   1      42.766  31.391  30.492  1.00  0.00     0.074 A 
ATOM     21  C   UNL A   1      41.575  32.204  30.409  1.00  0.00     0.031 C 
ATOM     22  C   UNL A   1      40.946  25.817  27.885  1.00  0.00     0.029 A 
ATOM     23  C   UNL A   1      42.256  26.159  28.435  1.00  0.00     0.049 A 
ATOM     24  H   UNL A   1      42.831  27.966  29.298  1.00  0.00     0.167 HD
ATOM     25  C   UNL A   1      43.943  31.826  30.997  1.00  0.00     0.034 A 
ATOM     26  C   UNL A   1      43.325  25.340  28.475  1.00  0.00     0.034 A 
ATOM     27  C   UNL A   1      45.091  30.990  31.189  1.00  0.00     0.049 A 
ATOM     28  C   UNL A   1      44.600  25.820  29.112  1.00  0.00     0.074 A 
ATOM     29  C   UNL A   1      46.281  31.302  31.821  1.00  0.00     0.029 A 
ATOM     30  N   UNL A   1      45.189  29.676  30.766  1.00  0.00    -0.354 N 
ATOM     31  N   UNL A   1      44.846  26.970  29.692  1.00  0.00    -0.248 NA
ATOM     32  C   UNL A   1      45.737  24.886  29.125  1.00  0.00     0.031 C 
ATOM     33  C   UNL A   1      47.099  30.170  31.785  1.00  0.00     0.029 A 
ATOM     34  C   UNL A   1      46.420  29.160  31.121  1.00  0.00     0.049 A 
ATOM     35  H   UNL A   1      44.486  29.183  30.284  1.00  0.00     0.167 HD
ATOM     36  C   UNL A   1      46.153  26.890  30.159  1.00  0.00     0.074 A 
ATOM     37  C   UNL A   1      46.647  25.577  29.803  1.00  0.00     0.031 C 
ATOM     38  C   UNL A   1      46.878  27.830  30.810  1.00  0.00     0.034 A 
BRANCH  25  39
ATOM     39  C   UNL A   1      44.018  33.250  31.468  1.00  0.00     0.023 A 
ATOM     40  C   UNL A   1      44.431  34.249  30.564  1.00  0.00     0.012 A 
ATOM     41  C   UNL A   1      43.625  33.608  32.771  1.00  0.00     0.148 A 
ATOM     42  C   UNL A   1      44.471  35.585  30.956  1.00  0.00     0.002 A 
ATOM     43  C   UNL A   1      43.641  34.946  33.146  1.00  0.00     0.091 A 
ATOM     44  F   UNL A   1      43.257  32.636  33.617  1.00  0.00    -0.205 F 
ATOM     45  C   UNL A   1      44.068  35.934  32.242  1.00  0.00     0.022 A 
BRANCH  43  46
ATOM     46  S   UNL A   1      43.096  35.508  34.763  1.00  0.00     0.127 S 
ATOM     47  O   UNL A   1      43.986  34.760  35.649  1.00  0.00    -0.237 OA
ATOM     48  O   UNL A   1      43.366  36.944  34.697  1.00  0.00    -0.237 OA
ATOM     49  O   UNL A   1      41.685  35.158  34.855  1.00  0.00    -0.744 OA
ENDBRANCH  43  46
ENDBRANCH  25  39
BRANCH  26  50
ATOM     50  C   UNL A   1      43.185  23.936  28.003  1.00  0.00     0.023 A 
ATOM     51  C   UNL A   1      42.309  23.076  28.693  1.00  0.00     0.012 A 
ATOM     52  C   UNL A   1      43.841  23.472  26.848  1.00  0.00     0.148 A 
ATOM     53  C   UNL A   1      42.093  21.774  28.246  1.00  0.00     0.002 A 
ATOM     54  C   UNL A   1      43.597  22.182  26.389  1.00  0.00     0.091 A 
ATOM     55  F   UNL A   1      44.667  24.312  26.208  1.00  0.00    -0.205 F 
ATOM     56  C   UNL A   1      42.729  21.329  27.091  1.00  0.00     0.022 A 
BRANCH  54  57
ATOM     57  S   UNL A   1      44.295  21.540  24.862  1.00  0.00     0.127 S 
ATOM     58  O   UNL A   1      43.701  20.205  24.801  1.00  0.00    -0.237 OA
ATOM     59  O   UNL A   1      43.779  22.490  23.878  1.00  0.00    -0.237 OA
ATOM     60  O   UNL A   1      45.739  21.571  25.042  1.00  0.00    -0.744 OA
ENDBRANCH  54  57
ENDBRANCH  26  50
BRANCH  38  61
ATOM     61  C   UNL A   1      48.292  27.505  31.198  1.00  0.00     0.023 A 
ATOM     62  C   UNL A   1      49.332  27.820  30.304  1.00  0.00     0.012 A 
ATOM     63  C   UNL A   1      48.598  27.066  32.502  1.00  0.00     0.148 A 
ATOM     64  C   UNL A   1      50.663  27.710  30.704  1.00  0.00     0.002 A 
ATOM     65  C   UNL A   1      49.926  26.988  32.902  1.00  0.00     0.091 A 
ATOM     66  F   UNL A   1      47.585  26.778  33.330  1.00  0.00    -0.205 F 
ATOM     67  C   UNL A   1      50.959  27.306  32.004  1.00  0.00     0.022 A 
BRANCH  65  68
ATOM     68  S   UNL A   1      50.413  26.559  34.578  1.00  0.00     0.127 S 
ATOM     69  O   UNL A   1      49.931  25.181  34.685  1.00  0.00    -0.237 OA
ATOM     70  O   UNL A   1      51.867  26.694  34.518  1.00  0.00    -0.237 OA
ATOM     71  O   UNL A   1      49.743  27.512  35.452  1.00  0.00    -0.744 OA
ENDBRANCH  65  68
ENDBRANCH  38  61
ENDBRANCH  12  13
ENDBRANCH   5   7
ENDBRANCH   2   3
ENDBRANCH   1   2
BRANCH   1  72
ATOM     72  C   UNL A   1      36.802  33.453  28.804  1.00  0.00     0.023 C 
BRANCH  72  73
ATOM     73  C   UNL A   1      36.917  33.102  30.284  1.00  0.00     0.116 C 
BRANCH  73  74
ATOM     74  N   UNL A   1      36.399  34.144  31.152  1.00  0.00    -0.352 N 
ATOM     75  C   UNL A   1      36.750  34.412  32.451  1.00  0.00     0.255 C 
ATOM     76  H   UNL A   1      35.711  34.730  30.760  1.00  0.00     0.163 HD
ATOM     77  O   UNL A   1      36.203  35.306  33.091  1.00  0.00    -0.269 OA
BRANCH  75  78
ATOM     78  C   UNL A   1      37.733  33.542  33.118  1.00  0.00     0.081 A 
ATOM     79  C   UNL A   1      37.242  32.573  33.991  1.00  0.00     0.020 A 
ATOM     80  C   UNL A   1      39.104  33.628  32.864  1.00  0.00     0.130 A 
ATOM     81  C   UNL A   1      38.118  31.650  34.563  1.00  0.00     0.028 A 
ATOM     82  C   UNL A   1      39.980  32.706  33.441  1.00  0.00     0.073 A 
ATOM     83  C   UNL A   1      39.497  31.697  34.292  1.00  0.00     0.054 A 
BRANCH  80  84
ATOM     84  O   UNL A   1      39.585  34.580  32.010  1.00  0.00    -0.507 OA
ATOM     85  H   UNL A   1      39.750  34.366  31.114  1.00  0.00     0.293 HD
ENDBRANCH  80  84
BRANCH  83  86
ATOM     86  N   UNL A   1      40.367  30.691  34.824  1.00  0.00    -0.261 N 
ATOM     87  C   UNL A   1      40.349  29.412  34.267  1.00  0.00     0.270 C 
ATOM     88  C   UNL A   1      41.261  30.886  35.870  1.00  0.00     0.152 C 
ATOM     89  O   UNL A   1      39.674  29.008  33.328  1.00  0.00    -0.268 OA
ATOM     90  C   UNL A   1      41.345  28.538  34.942  1.00  0.00     0.081 C 
ATOM     91  S   UNL A   1      42.196  29.414  36.140  1.00  0.00    -0.054 SA
ATOM     92  S   UNL A   1      41.466  32.198  36.889  1.00  0.00    -0.051 S 
ATOM     93  C   UNL A   1      41.528  27.266  34.566  1.00  0.00     0.027 C 
BRANCH  93  94
ATOM     94  C   UNL A   1      42.444  26.310  35.135  1.00  0.00    -0.016 C 
ATOM     95  C   UNL A   1      43.413  25.665  34.490  1.00  0.00     0.005 A 
ATOM     96  C   UNL A   1      42.368  25.851  36.564  1.00  0.00     0.179 C 
ATOM     97  C   UNL A   1      43.928  25.673  33.157  1.00  0.00     0.011 A 
ATOM     98  C   UNL A   1      43.974  24.790  35.533  1.00  0.00     0.065 A 
ATOM     99  N   UNL A   1      43.436  24.828  36.714  1.00  0.00    -0.280 NA
ATOM    100  C   UNL A   1      44.961  24.867  32.863  1.00  0.00     0.001 A 
ATOM    101  C   UNL A   1      45.109  23.933  35.131  1.00  0.00     0.028 A 
ATOM    102  C   UNL A   1      45.553  23.994  33.864  1.00  0.00     0.002 A 
ENDBRANCH  93  94
ENDBRANCH  83  86
ENDBRANCH  75  78
ENDBRANCH  73  74
ENDBRANCH  72  73
ENDBRANCH   1  72
TORSDOF 17
ENDMDL
