MODEL 1
REMARK VINA RESULT:     -11.8      0.000      0.000
REMARK SMILES O=C(NCCCCNC(=O)[C@H]1[NH2+][C@@H]2CC[C@H]1CC2(F)F)c1ccc(-c2c3nc(c(-c4cccc(S(=O)(=O)[O-])c4F)c4ccc([nH]4)c(-c4cccc(S(=O)(=O)[O-])c4F)c4nc(c(-c5cccc(S(=O)(=O)[O-])c5F)c5ccc2[nH]5)C=C4)C=C3)cc1
REMARK SMILES IDX 4 1 3 2 1 3 2 4 21 6 22 7 83 8 23 9 82 10 24 11 25 12 26 13
REMARK SMILES IDX 76 14 27 15 81 16 75 17 77 18 28 19 80 20 74 21 73 22 29 24
REMARK SMILES IDX 61 25 41 26 60 27 42 28 45 29 59 30 78 31 43 32 44 33 58 35
REMARK SMILES IDX 79 36 46 37 30 38 31 39 39 40 32 41 34 42 40 43 33 44 35 45
REMARK SMILES IDX 36 46 37 47 38 48 62 49 63 50 71 51 64 52 66 53 72 54 65 55
REMARK SMILES IDX 67 56 68 57 69 58 70 59 47 60 48 61 56 62 49 63 51 64 57 65
REMARK SMILES IDX 50 66 52 67 53 68 54 69 55 70 5 71 6 72 7 73 8 74 9 75 10 77
REMARK SMILES IDX 11 78 12 79 16 80 13 81 15 84 17 85 14 86 18 87 19 88 20 89
REMARK H PARENT 3 5 77 23 45 34 8 76 12 82 12 83
REMARK Flexibility Score: inf
ROOT
ATOM      1  C   UNL A   1      33.192  29.252  25.166  1.00  0.00     0.116 C 
ENDROOT
BRANCH   1   2
ATOM      2  N   UNL A   1      32.631  30.461  25.749  1.00  0.00    -0.352 N 
ATOM      3  O   UNL A   1      32.373  32.122  27.252  1.00  0.00    -0.269 OA
ATOM      4  C   UNL A   1      33.078  31.218  26.810  1.00  0.00     0.251 C 
ATOM      5  H   UNL A   1      31.807  30.789  25.321  1.00  0.00     0.163 HD
BRANCH   4   6
ATOM      6  C   UNL A   1      34.386  30.916  27.435  1.00  0.00     0.039 A 
ATOM      7  C   UNL A   1      34.688  29.620  27.850  1.00  0.00     0.014 A 
ATOM      8  C   UNL A   1      35.315  31.943  27.627  1.00  0.00     0.014 A 
ATOM      9  C   UNL A   1      35.817  29.392  28.625  1.00  0.00     0.010 A 
ATOM     10  C   UNL A   1      36.509  31.685  28.310  1.00  0.00     0.010 A 
ATOM     11  C   UNL A   1      36.751  30.417  28.857  1.00  0.00    -0.014 A 
BRANCH  11  12
ATOM     12  C   UNL A   1      37.991  30.092  29.614  1.00  0.00     0.031 A 
ATOM     13  C   UNL A   1      38.220  30.586  31.018  1.00  0.00     0.074 A 
ATOM     14  C   UNL A   1      38.898  29.283  29.029  1.00  0.00     0.049 A 
ATOM     15  N   UNL A   1      39.204  30.302  31.835  1.00  0.00    -0.248 NA
ATOM     16  C   UNL A   1      37.234  31.522  31.580  1.00  0.00     0.031 C 
ATOM     17  C   UNL A   1      38.816  28.791  27.650  1.00  0.00     0.029 A 
ATOM     18  N   UNL A   1      40.047  28.714  29.514  1.00  0.00    -0.354 N 
ATOM     19  C   UNL A   1      38.977  31.044  32.987  1.00  0.00     0.074 A 
ATOM     20  C   UNL A   1      37.764  31.803  32.764  1.00  0.00     0.031 C 
ATOM     21  C   UNL A   1      39.834  27.953  27.420  1.00  0.00     0.029 A 
ATOM     22  C   UNL A   1      40.673  27.888  28.609  1.00  0.00     0.049 A 
ATOM     23  H   UNL A   1      40.391  28.881  30.422  1.00  0.00     0.167 HD
ATOM     24  C   UNL A   1      39.700  31.075  34.133  1.00  0.00     0.034 A 
ATOM     25  C   UNL A   1      41.799  27.158  28.720  1.00  0.00     0.034 A 
ATOM     26  C   UNL A   1      40.883  30.288  34.366  1.00  0.00     0.049 A 
ATOM     27  C   UNL A   1      42.540  27.162  30.023  1.00  0.00     0.074 A 
ATOM     28  C   UNL A   1      41.663  30.223  35.509  1.00  0.00     0.029 A 
ATOM     29  N   UNL A   1      41.457  29.424  33.445  1.00  0.00    -0.354 N 
ATOM     30  N   UNL A   1      42.240  27.784  31.138  1.00  0.00    -0.248 NA
ATOM     31  C   UNL A   1      43.761  26.348  30.095  1.00  0.00     0.031 C 
ATOM     32  C   UNL A   1      42.709  29.323  35.277  1.00  0.00     0.029 A 
ATOM     33  C   UNL A   1      42.577  28.820  33.994  1.00  0.00     0.049 A 
ATOM     34  H   UNL A   1      41.117  29.263  32.536  1.00  0.00     0.167 HD
ATOM     35  C   UNL A   1      43.232  27.434  32.045  1.00  0.00     0.074 A 
ATOM     36  C   UNL A   1      44.112  26.506  31.364  1.00  0.00     0.031 C 
ATOM     37  C   UNL A   1      43.418  27.869  33.315  1.00  0.00     0.034 A 
BRANCH  24  38
ATOM     38  C   UNL A   1      39.205  31.947  35.260  1.00  0.00     0.023 A 
ATOM     39  C   UNL A   1      38.292  31.413  36.191  1.00  0.00     0.012 A 
ATOM     40  C   UNL A   1      39.710  33.248  35.455  1.00  0.00     0.148 A 
ATOM     41  C   UNL A   1      37.875  32.166  37.289  1.00  0.00     0.002 A 
ATOM     42  C   UNL A   1      39.316  33.980  36.570  1.00  0.00     0.091 A 
ATOM     43  F   UNL A   1      40.565  33.744  34.549  1.00  0.00    -0.205 F 
ATOM     44  C   UNL A   1      38.394  33.443  37.484  1.00  0.00     0.022 A 
BRANCH  42  45
ATOM     45  S   UNL A   1      39.980  35.606  36.953  1.00  0.00     0.127 S 
ATOM     46  O   UNL A   1      39.275  35.927  38.194  1.00  0.00    -0.237 OA
ATOM     47  O   UNL A   1      41.406  35.327  37.116  1.00  0.00    -0.237 OA
ATOM     48  O   UNL A   1      39.652  36.451  35.813  1.00  0.00    -0.744 OA
ENDBRANCH  42  45
ENDBRANCH  24  38
BRANCH  25  49
ATOM     49  C   UNL A   1      42.253  26.328  27.568  1.00  0.00     0.023 A 
ATOM     50  C   UNL A   1      43.145  26.871  26.625  1.00  0.00     0.012 A 
ATOM     51  C   UNL A   1      41.854  24.983  27.439  1.00  0.00     0.148 A 
ATOM     52  C   UNL A   1      43.614  26.097  25.562  1.00  0.00     0.002 A 
ATOM     53  C   UNL A   1      42.377  24.199  26.418  1.00  0.00     0.091 A 
ATOM     54  F   UNL A   1      40.984  24.486  28.331  1.00  0.00    -0.205 F 
ATOM     55  C   UNL A   1      43.244  24.757  25.469  1.00  0.00     0.022 A 
BRANCH  53  56
ATOM     56  S   UNL A   1      42.068  22.431  26.355  1.00  0.00     0.127 S 
ATOM     57  O   UNL A   1      40.625  22.383  26.139  1.00  0.00    -0.237 OA
ATOM     58  O   UNL A   1      42.877  22.010  25.209  1.00  0.00    -0.237 OA
ATOM     59  O   UNL A   1      42.548  21.922  27.634  1.00  0.00    -0.744 OA
ENDBRANCH  53  56
ENDBRANCH  25  49
BRANCH  37  60
ATOM     60  C   UNL A   1      44.629  27.350  34.042  1.00  0.00     0.023 A 
ATOM     61  C   UNL A   1      45.841  28.062  33.956  1.00  0.00     0.012 A 
ATOM     62  C   UNL A   1      44.563  26.186  34.832  1.00  0.00     0.148 A 
ATOM     63  C   UNL A   1      46.981  27.604  34.615  1.00  0.00     0.002 A 
ATOM     64  C   UNL A   1      45.693  25.758  35.519  1.00  0.00     0.091 A 
ATOM     65  F   UNL A   1      43.407  25.508  34.882  1.00  0.00    -0.205 F 
ATOM     66  C   UNL A   1      46.905  26.459  35.403  1.00  0.00     0.022 A 
BRANCH  64  67
ATOM     67  S   UNL A   1      45.655  24.337  36.617  1.00  0.00     0.127 S 
ATOM     68  O   UNL A   1      47.058  24.224  37.009  1.00  0.00    -0.237 OA
ATOM     69  O   UNL A   1      44.758  24.785  37.683  1.00  0.00    -0.237 OA
ATOM     70  O   UNL A   1      45.131  23.238  35.817  1.00  0.00    -0.744 OA
ENDBRANCH  64  67
ENDBRANCH  37  60
ENDBRANCH  11  12
ENDBRANCH   4   6
ENDBRANCH   1   2
BRANCH   1  71
ATOM     71  C   UNL A   1      32.577  28.899  23.818  1.00  0.00     0.023 C 
BRANCH  71  72
ATOM     72  C   UNL A   1      31.245  28.155  23.880  1.00  0.00     0.023 C 
BRANCH  72  73
ATOM     73  C   UNL A   1      30.758  27.557  22.563  1.00  0.00     0.116 C 
BRANCH  73  74
ATOM     74  N   UNL A   1      31.831  27.072  21.713  1.00  0.00    -0.351 N 
ATOM     75  C   UNL A   1      32.421  25.838  21.722  1.00  0.00     0.278 C 
ATOM     76  H   UNL A   1      32.176  27.710  21.047  1.00  0.00     0.163 HD
ATOM     77  O   UNL A   1      33.280  25.595  20.873  1.00  0.00    -0.268 OA
BRANCH  75  78
ATOM     78  C   UNL A   1      32.032  24.821  22.819  1.00  0.00     0.276 C 
ATOM     79  N   UNL A   1      32.157  23.411  22.337  1.00  0.00    -0.328 N 
ATOM     80  C   UNL A   1      32.827  25.020  24.138  1.00  0.00     0.064 C 
ATOM     81  C   UNL A   1      32.852  22.578  23.357  1.00  0.00     0.253 C 
ATOM     82  H   UNL A   1      32.693  23.398  21.470  1.00  0.00     0.347 HD
ATOM     83  H   UNL A   1      31.224  23.031  22.177  1.00  0.00     0.347 HD
ATOM     84  C   UNL A   1      32.158  24.134  25.206  1.00  0.00     0.017 C 
ATOM     85  C   UNL A   1      34.292  24.543  23.979  1.00  0.00     0.094 C 
ATOM     86  C   UNL A   1      32.093  22.690  24.690  1.00  0.00     0.072 C 
ATOM     87  C   UNL A   1      34.301  23.077  23.552  1.00  0.00     0.298 C 
ATOM     88  F   UNL A   1      34.942  22.320  24.473  1.00  0.00    -0.200 F 
ATOM     89  F   UNL A   1      34.987  22.942  22.388  1.00  0.00    -0.200 F 
ENDBRANCH  75  78
ENDBRANCH  73  74
ENDBRANCH  72  73
ENDBRANCH  71  72
ENDBRANCH   1  71
TORSDOF 14
ENDMDL
MODEL 2
REMARK VINA RESULT:     -11.8      5.250     10.166
REMARK SMILES O=C(NCCCCNC(=O)[C@H]1[NH2+][C@@H]2CC[C@H]1CC2(F)F)c1ccc(-c2c3nc(c(-c4cccc(S(=O)(=O)[O-])c4F)c4ccc([nH]4)c(-c4cccc(S(=O)(=O)[O-])c4F)c4nc(c(-c5cccc(S(=O)(=O)[O-])c5F)c5ccc2[nH]5)C=C4)C=C3)cc1
REMARK SMILES IDX 4 1 3 2 1 3 2 4 21 6 22 7 83 8 23 9 82 10 24 11 25 12 26 13
REMARK SMILES IDX 76 14 27 15 81 16 75 17 77 18 28 19 80 20 74 21 73 22 29 24
REMARK SMILES IDX 61 25 41 26 60 27 42 28 45 29 59 30 78 31 43 32 44 33 58 35
REMARK SMILES IDX 79 36 46 37 30 38 31 39 39 40 32 41 34 42 40 43 33 44 35 45
REMARK SMILES IDX 36 46 37 47 38 48 62 49 63 50 71 51 64 52 66 53 72 54 65 55
REMARK SMILES IDX 67 56 68 57 69 58 70 59 47 60 48 61 56 62 49 63 51 64 57 65
REMARK SMILES IDX 50 66 52 67 53 68 54 69 55 70 5 71 6 72 7 73 8 74 9 75 10 77
REMARK SMILES IDX 11 78 12 79 16 80 13 81 15 84 17 85 14 86 18 87 19 88 20 89
REMARK H PARENT 3 5 77 23 45 34 8 76 12 82 12 83
REMARK Flexibility Score: inf
ROOT
ATOM      1  C   UNL A   1      36.464  22.319  25.188  1.00  0.00     0.116 C 
ENDROOT
BRANCH   1   2
ATOM      2  N   UNL A   1      37.339  21.169  25.356  1.00  0.00    -0.352 N 
ATOM      3  O   UNL A   1      39.258  20.053  25.750  1.00  0.00    -0.269 OA
ATOM      4  C   UNL A   1      38.630  21.105  25.833  1.00  0.00     0.251 C 
ATOM      5  H   UNL A   1      36.950  20.305  25.088  1.00  0.00     0.163 HD
BRANCH   4   6
ATOM      6  C   UNL A   1      39.265  22.312  26.410  1.00  0.00     0.039 A 
ATOM      7  C   UNL A   1      38.836  23.584  26.036  1.00  0.00     0.014 A 
ATOM      8  C   UNL A   1      40.314  22.172  27.324  1.00  0.00     0.014 A 
ATOM      9  C   UNL A   1      39.576  24.698  26.411  1.00  0.00     0.010 A 
ATOM     10  C   UNL A   1      40.987  23.307  27.793  1.00  0.00     0.010 A 
ATOM     11  C   UNL A   1      40.654  24.578  27.305  1.00  0.00    -0.014 A 
BRANCH  11  12
ATOM     12  C   UNL A   1      41.351  25.817  27.748  1.00  0.00     0.031 A 
ATOM     13  C   UNL A   1      42.771  26.118  27.349  1.00  0.00     0.074 A 
ATOM     14  C   UNL A   1      40.654  26.708  28.482  1.00  0.00     0.049 A 
ATOM     15  N   UNL A   1      43.472  27.201  27.577  1.00  0.00    -0.248 NA
ATOM     16  C   UNL A   1      43.506  25.080  26.610  1.00  0.00     0.031 C 
ATOM     17  C   UNL A   1      39.292  26.499  28.982  1.00  0.00     0.029 A 
ATOM     18  N   UNL A   1      40.975  27.969  28.916  1.00  0.00    -0.354 N 
ATOM     19  C   UNL A   1      44.734  26.964  27.044  1.00  0.00     0.074 A 
ATOM     20  C   UNL A   1      44.709  25.628  26.487  1.00  0.00     0.031 C 
ATOM     21  C   UNL A   1      38.875  27.610  29.603  1.00  0.00     0.029 A 
ATOM     22  C   UNL A   1      39.954  28.590  29.596  1.00  0.00     0.049 A 
ATOM     23  H   UNL A   1      41.852  28.388  28.756  1.00  0.00     0.167 HD
ATOM     24  C   UNL A   1      45.807  27.791  27.004  1.00  0.00     0.034 A 
ATOM     25  C   UNL A   1      39.888  29.813  30.156  1.00  0.00     0.034 A 
ATOM     26  C   UNL A   1      45.815  29.134  27.524  1.00  0.00     0.049 A 
ATOM     27  C   UNL A   1      41.070  30.728  30.038  1.00  0.00     0.074 A 
ATOM     28  C   UNL A   1      46.843  30.062  27.496  1.00  0.00     0.029 A 
ATOM     29  N   UNL A   1      44.745  29.747  28.159  1.00  0.00    -0.354 N 
ATOM     30  N   UNL A   1      42.212  30.522  29.427  1.00  0.00    -0.248 NA
ATOM     31  C   UNL A   1      40.948  32.052  30.662  1.00  0.00     0.031 C 
ATOM     32  C   UNL A   1      46.395  31.233  28.118  1.00  0.00     0.029 A 
ATOM     33  C   UNL A   1      45.086  31.039  28.525  1.00  0.00     0.049 A 
ATOM     34  H   UNL A   1      43.871  29.325  28.324  1.00  0.00     0.167 HD
ATOM     35  C   UNL A   1      42.945  31.691  29.590  1.00  0.00     0.074 A 
ATOM     36  C   UNL A   1      42.097  32.617  30.313  1.00  0.00     0.031 C 
ATOM     37  C   UNL A   1      44.217  31.960  29.209  1.00  0.00     0.034 A 
BRANCH  24  38
ATOM     38  C   UNL A   1      47.058  27.296  26.323  1.00  0.00     0.023 A 
ATOM     39  C   UNL A   1      47.303  27.663  24.985  1.00  0.00     0.012 A 
ATOM     40  C   UNL A   1      48.030  26.556  27.026  1.00  0.00     0.148 A 
ATOM     41  C   UNL A   1      48.487  27.288  24.350  1.00  0.00     0.002 A 
ATOM     42  C   UNL A   1      49.224  26.215  26.396  1.00  0.00     0.091 A 
ATOM     43  F   UNL A   1      47.772  26.201  28.292  1.00  0.00    -0.205 F 
ATOM     44  C   UNL A   1      49.450  26.575  25.058  1.00  0.00     0.022 A 
BRANCH  42  45
ATOM     45  S   UNL A   1      50.559  25.358  27.241  1.00  0.00     0.127 S 
ATOM     46  O   UNL A   1      50.978  26.361  28.220  1.00  0.00    -0.237 OA
ATOM     47  O   UNL A   1      49.872  24.200  27.811  1.00  0.00    -0.237 OA
ATOM     48  O   UNL A   1      51.542  25.038  26.215  1.00  0.00    -0.744 OA
ENDBRANCH  42  45
ENDBRANCH  24  38
BRANCH  25  49
ATOM     49  C   UNL A   1      38.633  30.245  30.834  1.00  0.00     0.023 A 
ATOM     50  C   UNL A   1      38.475  30.028  32.215  1.00  0.00     0.012 A 
ATOM     51  C   UNL A   1      37.623  30.926  30.127  1.00  0.00     0.148 A 
ATOM     52  C   UNL A   1      37.324  30.462  32.876  1.00  0.00     0.002 A 
ATOM     53  C   UNL A   1      36.512  31.415  30.803  1.00  0.00     0.091 A 
ATOM     54  F   UNL A   1      37.776  31.104  28.807  1.00  0.00    -0.205 F 
ATOM     55  C   UNL A   1      36.351  31.170  32.174  1.00  0.00     0.022 A 
BRANCH  53  56
ATOM     56  S   UNL A   1      35.319  32.477  29.983  1.00  0.00     0.127 S 
ATOM     57  O   UNL A   1      34.847  31.621  28.898  1.00  0.00    -0.237 OA
ATOM     58  O   UNL A   1      34.338  32.727  31.041  1.00  0.00    -0.237 OA
ATOM     59  O   UNL A   1      36.078  33.658  29.592  1.00  0.00    -0.744 OA
ENDBRANCH  53  56
ENDBRANCH  25  49
BRANCH  37  60
ATOM     60  C   UNL A   1      44.766  33.311  29.579  1.00  0.00     0.023 A 
ATOM     61  C   UNL A   1      45.450  33.465  30.801  1.00  0.00     0.012 A 
ATOM     62  C   UNL A   1      44.640  34.413  28.712  1.00  0.00     0.148 A 
ATOM     63  C   UNL A   1      45.967  34.704  31.173  1.00  0.00     0.002 A 
ATOM     64  C   UNL A   1      45.195  35.636  29.073  1.00  0.00     0.091 A 
ATOM     65  F   UNL A   1      43.965  34.255  27.565  1.00  0.00    -0.205 F 
ATOM     66  C   UNL A   1      45.848  35.786  30.307  1.00  0.00     0.022 A 
BRANCH  64  67
ATOM     67  S   UNL A   1      45.152  37.058  27.975  1.00  0.00     0.127 S 
ATOM     68  O   UNL A   1      45.715  38.107  28.822  1.00  0.00    -0.237 OA
ATOM     69  O   UNL A   1      46.018  36.634  26.873  1.00  0.00    -0.237 OA
ATOM     70  O   UNL A   1      43.752  37.225  27.605  1.00  0.00    -0.744 OA
ENDBRANCH  64  67
ENDBRANCH  37  60
ENDBRANCH  11  12
ENDBRANCH   4   6
ENDBRANCH   1   2
BRANCH   1  71
ATOM     71  C   UNL A   1      35.966  22.486  23.758  1.00  0.00     0.023 C 
BRANCH  71  72
ATOM     72  C   UNL A   1      34.606  23.165  23.612  1.00  0.00     0.023 C 
BRANCH  72  73
ATOM     73  C   UNL A   1      33.394  22.240  23.668  1.00  0.00     0.116 C 
BRANCH  73  74
ATOM     74  N   UNL A   1      33.181  21.637  24.972  1.00  0.00    -0.351 N 
ATOM     75  C   UNL A   1      33.383  20.336  25.342  1.00  0.00     0.278 C 
ATOM     76  H   UNL A   1      32.850  22.240  25.676  1.00  0.00     0.163 HD
ATOM     77  O   UNL A   1      33.203  20.030  26.522  1.00  0.00    -0.268 OA
BRANCH  75  78
ATOM     78  C   UNL A   1      33.775  19.296  24.268  1.00  0.00     0.276 C 
ATOM     79  N   UNL A   1      34.810  18.341  24.773  1.00  0.00    -0.328 N 
ATOM     80  C   UNL A   1      32.553  18.525  23.698  1.00  0.00     0.064 C 
ATOM     81  C   UNL A   1      34.441  16.945  24.413  1.00  0.00     0.253 C 
ATOM     82  H   UNL A   1      34.876  18.422  25.787  1.00  0.00     0.347 HD
ATOM     83  H   UNL A   1      35.708  18.569  24.345  1.00  0.00     0.347 HD
ATOM     84  C   UNL A   1      33.050  17.734  22.473  1.00  0.00     0.017 C 
ATOM     85  C   UNL A   1      32.011  17.505  24.731  1.00  0.00     0.094 C 
ATOM     86  C   UNL A   1      34.241  16.861  22.890  1.00  0.00     0.072 C 
ATOM     87  C   UNL A   1      33.130  16.543  25.123  1.00  0.00     0.298 C 
ATOM     88  F   UNL A   1      32.792  15.270  24.806  1.00  0.00    -0.200 F 
ATOM     89  F   UNL A   1      33.314  16.576  26.467  1.00  0.00    -0.200 F 
ENDBRANCH  75  78
ENDBRANCH  73  74
ENDBRANCH  72  73
ENDBRANCH  71  72
ENDBRANCH   1  71
TORSDOF 14
ENDMDL
MODEL 3
REMARK VINA RESULT:     -11.8      2.058      2.468
REMARK SMILES O=C(NCCCCNC(=O)[C@H]1[NH2+][C@@H]2CC[C@H]1CC2(F)F)c1ccc(-c2c3nc(c(-c4cccc(S(=O)(=O)[O-])c4F)c4ccc([nH]4)c(-c4cccc(S(=O)(=O)[O-])c4F)c4nc(c(-c5cccc(S(=O)(=O)[O-])c5F)c5ccc2[nH]5)C=C4)C=C3)cc1
REMARK SMILES IDX 4 1 3 2 1 3 2 4 21 6 22 7 83 8 23 9 82 10 24 11 25 12 26 13
REMARK SMILES IDX 76 14 27 15 81 16 75 17 77 18 28 19 80 20 74 21 73 22 29 24
REMARK SMILES IDX 61 25 41 26 60 27 42 28 45 29 59 30 78 31 43 32 44 33 58 35
REMARK SMILES IDX 79 36 46 37 30 38 31 39 39 40 32 41 34 42 40 43 33 44 35 45
REMARK SMILES IDX 36 46 37 47 38 48 62 49 63 50 71 51 64 52 66 53 72 54 65 55
REMARK SMILES IDX 67 56 68 57 69 58 70 59 47 60 48 61 56 62 49 63 51 64 57 65
REMARK SMILES IDX 50 66 52 67 53 68 54 69 55 70 5 71 6 72 7 73 8 74 9 75 10 77
REMARK SMILES IDX 11 78 12 79 16 80 13 81 15 84 17 85 14 86 18 87 19 88 20 89
REMARK H PARENT 3 5 77 23 45 34 8 76 12 82 12 83
REMARK Flexibility Score: inf
ROOT
ATOM      1  C   UNL A   1      32.631  29.802  26.037  1.00  0.00     0.116 C 
ENDROOT
BRANCH   1   2
ATOM      2  N   UNL A   1      32.339  31.185  26.376  1.00  0.00    -0.352 N 
ATOM      3  O   UNL A   1      32.509  33.136  27.494  1.00  0.00    -0.269 OA
ATOM      4  C   UNL A   1      33.007  32.048  27.217  1.00  0.00     0.251 C 
ATOM      5  H   UNL A   1      31.541  31.564  25.939  1.00  0.00     0.163 HD
BRANCH   4   6
ATOM      6  C   UNL A   1      34.303  31.646  27.810  1.00  0.00     0.039 A 
ATOM      7  C   UNL A   1      34.508  30.335  28.239  1.00  0.00     0.014 A 
ATOM      8  C   UNL A   1      35.321  32.593  27.957  1.00  0.00     0.014 A 
ATOM      9  C   UNL A   1      35.636  30.024  28.987  1.00  0.00     0.010 A 
ATOM     10  C   UNL A   1      36.509  32.245  28.611  1.00  0.00     0.010 A 
ATOM     11  C   UNL A   1      36.659  30.970  29.174  1.00  0.00    -0.014 A 
BRANCH  11  12
ATOM     12  C   UNL A   1      37.889  30.553  29.901  1.00  0.00     0.031 A 
ATOM     13  C   UNL A   1      38.138  30.942  31.334  1.00  0.00     0.074 A 
ATOM     14  C   UNL A   1      38.768  29.757  29.258  1.00  0.00     0.049 A 
ATOM     15  N   UNL A   1      39.113  30.570  32.125  1.00  0.00    -0.248 NA
ATOM     16  C   UNL A   1      37.184  31.870  31.964  1.00  0.00     0.031 C 
ATOM     17  C   UNL A   1      38.666  29.364  27.849  1.00  0.00     0.029 A 
ATOM     18  N   UNL A   1      39.898  29.118  29.698  1.00  0.00    -0.354 N 
ATOM     19  C   UNL A   1      38.913  31.240  33.327  1.00  0.00     0.074 A 
ATOM     20  C   UNL A   1      37.726  32.051  33.162  1.00  0.00     0.031 C 
ATOM     21  C   UNL A   1      39.655  28.510  27.557  1.00  0.00     0.029 A 
ATOM     22  C   UNL A   1      40.494  28.336  28.736  1.00  0.00     0.049 A 
ATOM     23  H   UNL A   1      40.249  29.211  30.613  1.00  0.00     0.167 HD
ATOM     24  C   UNL A   1      39.640  31.167  34.469  1.00  0.00     0.034 A 
ATOM     25  C   UNL A   1      41.595  27.562  28.791  1.00  0.00     0.034 A 
ATOM     26  C   UNL A   1      40.797  30.327  34.642  1.00  0.00     0.049 A 
ATOM     27  C   UNL A   1      42.339  27.453  30.089  1.00  0.00     0.074 A 
ATOM     28  C   UNL A   1      41.577  30.159  35.775  1.00  0.00     0.029 A 
ATOM     29  N   UNL A   1      41.339  29.510  33.662  1.00  0.00    -0.354 N 
ATOM     30  N   UNL A   1      42.062  28.007  31.245  1.00  0.00    -0.248 NA
ATOM     31  C   UNL A   1      43.532  26.596  30.099  1.00  0.00     0.031 C 
ATOM     32  C   UNL A   1      42.591  29.242  35.477  1.00  0.00     0.029 A 
ATOM     33  C   UNL A   1      42.440  28.833  34.163  1.00  0.00     0.049 A 
ATOM     34  H   UNL A   1      40.992  29.423  32.745  1.00  0.00     0.167 HD
ATOM     35  C   UNL A   1      43.044  27.563  32.122  1.00  0.00     0.074 A 
ATOM     36  C   UNL A   1      43.891  26.655  31.375  1.00  0.00     0.031 C 
ATOM     37  C   UNL A   1      43.247  27.904  33.417  1.00  0.00     0.034 A 
BRANCH  24  38
ATOM     38  C   UNL A   1      39.177  31.976  35.655  1.00  0.00     0.023 A 
ATOM     39  C   UNL A   1      39.452  33.359  35.693  1.00  0.00     0.012 A 
ATOM     40  C   UNL A   1      38.395  31.399  36.675  1.00  0.00     0.148 A 
ATOM     41  C   UNL A   1      38.971  34.150  36.735  1.00  0.00     0.002 A 
ATOM     42  C   UNL A   1      37.891  32.202  37.694  1.00  0.00     0.091 A 
ATOM     43  F   UNL A   1      38.159  30.080  36.631  1.00  0.00    -0.205 F 
ATOM     44  C   UNL A   1      38.183  33.575  37.728  1.00  0.00     0.022 A 
BRANCH  42  45
ATOM     45  S   UNL A   1      36.806  31.573  38.982  1.00  0.00     0.127 S 
ATOM     46  O   UNL A   1      37.697  31.572  40.141  1.00  0.00    -0.237 OA
ATOM     47  O   UNL A   1      35.754  32.588  39.023  1.00  0.00    -0.237 OA
ATOM     48  O   UNL A   1      36.367  30.260  38.531  1.00  0.00    -0.744 OA
ENDBRANCH  42  45
ENDBRANCH  24  38
BRANCH  25  49
ATOM     49  C   UNL A   1      42.019  26.799  27.584  1.00  0.00     0.023 A 
ATOM     50  C   UNL A   1      42.778  27.437  26.585  1.00  0.00     0.012 A 
ATOM     51  C   UNL A   1      41.726  25.428  27.452  1.00  0.00     0.148 A 
ATOM     52  C   UNL A   1      43.219  26.728  25.466  1.00  0.00     0.002 A 
ATOM     53  C   UNL A   1      42.225  24.712  26.370  1.00  0.00     0.091 A 
ATOM     54  F   UNL A   1      40.981  24.839  28.398  1.00  0.00    -0.205 F 
ATOM     55  C   UNL A   1      42.958  25.363  25.367  1.00  0.00     0.022 A 
BRANCH  53  56
ATOM     56  S   UNL A   1      42.064  22.926  26.284  1.00  0.00     0.127 S 
ATOM     57  O   UNL A   1      42.821  22.497  27.456  1.00  0.00    -0.237 OA
ATOM     58  O   UNL A   1      40.616  22.735  26.382  1.00  0.00    -0.237 OA
ATOM     59  O   UNL A   1      42.620  22.563  24.986  1.00  0.00    -0.744 OA
ENDBRANCH  53  56
ENDBRANCH  25  49
BRANCH  37  60
ATOM     60  C   UNL A   1      44.442  27.296  34.101  1.00  0.00     0.023 A 
ATOM     61  C   UNL A   1      45.693  27.935  33.999  1.00  0.00     0.012 A 
ATOM     62  C   UNL A   1      44.324  26.122  34.869  1.00  0.00     0.148 A 
ATOM     63  C   UNL A   1      46.818  27.394  34.618  1.00  0.00     0.002 A 
ATOM     64  C   UNL A   1      45.443  25.611  35.517  1.00  0.00     0.091 A 
ATOM     65  F   UNL A   1      43.131  25.513  34.935  1.00  0.00    -0.205 F 
ATOM     66  C   UNL A   1      46.692  26.239  35.384  1.00  0.00     0.022 A 
BRANCH  64  67
ATOM     67  S   UNL A   1      45.345  24.171  36.586  1.00  0.00     0.127 S 
ATOM     68  O   UNL A   1      46.739  24.003  36.992  1.00  0.00    -0.237 OA
ATOM     69  O   UNL A   1      44.451  24.628  37.652  1.00  0.00    -0.237 OA
ATOM     70  O   UNL A   1      44.794  23.105  35.759  1.00  0.00    -0.744 OA
ENDBRANCH  64  67
ENDBRANCH  37  60
ENDBRANCH  11  12
ENDBRANCH   4   6
ENDBRANCH   1   2
BRANCH   1  71
ATOM     71  C   UNL A   1      31.695  28.810  26.716  1.00  0.00     0.023 C 
BRANCH  71  72
ATOM     72  C   UNL A   1      32.254  27.400  26.896  1.00  0.00     0.023 C 
BRANCH  72  73
ATOM     73  C   UNL A   1      31.735  26.351  25.916  1.00  0.00     0.116 C 
BRANCH  73  74
ATOM     74  N   UNL A   1      31.324  25.113  26.553  1.00  0.00    -0.351 N 
ATOM     75  C   UNL A   1      32.067  23.981  26.752  1.00  0.00     0.278 C 
ATOM     76  H   UNL A   1      30.397  25.083  26.881  1.00  0.00     0.163 HD
ATOM     77  O   UNL A   1      31.554  23.049  27.373  1.00  0.00    -0.268 OA
BRANCH  75  78
ATOM     78  C   UNL A   1      33.488  23.893  26.152  1.00  0.00     0.276 C 
ATOM     79  N   UNL A   1      34.384  23.023  26.974  1.00  0.00    -0.328 N 
ATOM     80  C   UNL A   1      33.491  23.433  24.668  1.00  0.00     0.064 C 
ATOM     81  C   UNL A   1      35.148  22.095  26.096  1.00  0.00     0.253 C 
ATOM     82  H   UNL A   1      33.820  22.481  27.627  1.00  0.00     0.347 HD
ATOM     83  H   UNL A   1      35.041  23.613  27.486  1.00  0.00     0.347 HD
ATOM     84  C   UNL A   1      34.919  23.648  24.132  1.00  0.00     0.017 C 
ATOM     85  C   UNL A   1      33.167  21.922  24.557  1.00  0.00     0.094 C 
ATOM     86  C   UNL A   1      35.913  22.921  25.047  1.00  0.00     0.072 C 
ATOM     87  C   UNL A   1      34.181  21.128  25.378  1.00  0.00     0.298 C 
ATOM     88  F   UNL A   1      34.870  20.276  24.582  1.00  0.00    -0.200 F 
ATOM     89  F   UNL A   1      33.533  20.369  26.298  1.00  0.00    -0.200 F 
ENDBRANCH  75  78
ENDBRANCH  73  74
ENDBRANCH  72  73
ENDBRANCH  71  72
ENDBRANCH   1  71
TORSDOF 14
ENDMDL
