MODEL 1
REMARK VINA RESULT:     -11.8      0.000      0.000
REMARK SMILES O=C(NCCCCNC(=O)[C@@H](Cc1ccncc1)c1ccc(Cl)cc1)c1ccc(-c2c3nc(c(-c4cccc(S(=O)(=O)[O-])c4F)c4ccc([nH]4)c(-c4cccc(S(=O)(=O)[O-])c4F)c4nc(c(-c5cccc(S(=O)(=O)[O-])c5F)c5ccc2[nH]5)C=C4)C=C3)cc1
REMARK SMILES IDX 5 1 4 2 3 3 1 4 2 5 26 7 27 8 88 9 28 10 87 11 29 12 30 13
REMARK SMILES IDX 31 14 81 15 32 16 86 17 80 18 82 19 33 20 85 21 79 22 78 23
REMARK SMILES IDX 34 25 66 26 46 27 65 28 47 29 50 30 64 31 83 32 48 33 49 34
REMARK SMILES IDX 63 36 84 37 51 38 35 39 36 40 44 41 37 42 39 43 45 44 38 45
REMARK SMILES IDX 40 46 41 47 42 48 43 49 67 50 68 51 76 52 69 53 71 54 77 55
REMARK SMILES IDX 70 56 72 57 73 58 74 59 75 60 52 61 53 62 61 63 54 64 56 65
REMARK SMILES IDX 62 66 55 67 57 68 58 69 59 70 60 71 6 72 7 73 8 74 9 75
REMARK SMILES IDX 10 77 11 78 12 79 13 80 14 81 18 82 15 83 17 84 16 85 19 86
REMARK SMILES IDX 20 87 25 88 21 89 24 90 22 91 23 92
REMARK H PARENT 3 6 82 24 50 35 8 76
REMARK Flexibility Score: inf
ROOT
ATOM      1  C   UNL A   1      31.443  29.024  25.856  1.00  0.00     0.023 C 
ENDROOT
BRANCH   1   2
ATOM      2  C   UNL A   1      32.598  30.011  25.948  1.00  0.00     0.116 C 
BRANCH   2   3
ATOM      3  N   UNL A   1      32.250  31.318  26.497  1.00  0.00    -0.352 N 
ATOM      4  O   UNL A   1      32.623  33.220  27.678  1.00  0.00    -0.269 OA
ATOM      5  C   UNL A   1      33.038  32.139  27.277  1.00  0.00     0.251 C 
ATOM      6  H   UNL A   1      31.349  31.653  26.285  1.00  0.00     0.163 HD
BRANCH   5   7
ATOM      7  C   UNL A   1      34.372  31.645  27.677  1.00  0.00     0.039 A 
ATOM      8  C   UNL A   1      34.538  30.310  28.044  1.00  0.00     0.014 A 
ATOM      9  C   UNL A   1      35.416  32.561  27.828  1.00  0.00     0.014 A 
ATOM     10  C   UNL A   1      35.671  29.940  28.754  1.00  0.00     0.010 A 
ATOM     11  C   UNL A   1      36.600  32.155  28.446  1.00  0.00     0.010 A 
ATOM     12  C   UNL A   1      36.715  30.858  28.969  1.00  0.00    -0.014 A 
BRANCH  12  13
ATOM     13  C   UNL A   1      37.923  30.415  29.710  1.00  0.00     0.031 A 
ATOM     14  C   UNL A   1      38.175  30.842  31.132  1.00  0.00     0.074 A 
ATOM     15  C   UNL A   1      38.785  29.588  29.089  1.00  0.00     0.049 A 
ATOM     16  N   UNL A   1      39.172  30.523  31.919  1.00  0.00    -0.248 NA
ATOM     17  C   UNL A   1      37.195  31.748  31.754  1.00  0.00     0.031 C 
ATOM     18  C   UNL A   1      38.659  29.135  27.700  1.00  0.00     0.029 A 
ATOM     19  N   UNL A   1      39.921  28.967  29.536  1.00  0.00    -0.354 N 
ATOM     20  C   UNL A   1      38.970  31.223  33.102  1.00  0.00     0.074 A 
ATOM     21  C   UNL A   1      37.752  31.985  32.936  1.00  0.00     0.031 C 
ATOM     22  C   UNL A   1      39.645  28.273  27.426  1.00  0.00     0.029 A 
ATOM     23  C   UNL A   1      40.512  28.161  28.593  1.00  0.00     0.049 A 
ATOM     24  H   UNL A   1      40.280  29.088  30.446  1.00  0.00     0.167 HD
ATOM     25  C   UNL A   1      39.724  31.218  34.228  1.00  0.00     0.034 A 
ATOM     26  C   UNL A   1      41.636  27.422  28.649  1.00  0.00     0.034 A 
ATOM     27  C   UNL A   1      40.904  30.413  34.406  1.00  0.00     0.049 A 
ATOM     28  C   UNL A   1      42.425  27.403  29.924  1.00  0.00     0.074 A 
ATOM     29  C   UNL A   1      41.704  30.296  35.530  1.00  0.00     0.029 A 
ATOM     30  N   UNL A   1      41.451  29.582  33.440  1.00  0.00    -0.354 N 
ATOM     31  N   UNL A   1      42.161  27.997  31.063  1.00  0.00    -0.248 NA
ATOM     32  C   UNL A   1      43.655  26.602  29.930  1.00  0.00     0.031 C 
ATOM     33  C   UNL A   1      42.739  29.398  35.240  1.00  0.00     0.029 A 
ATOM     34  C   UNL A   1      42.578  28.950  33.939  1.00  0.00     0.049 A 
ATOM     35  H   UNL A   1      41.090  29.458  32.533  1.00  0.00     0.167 HD
ATOM     36  C   UNL A   1      43.186  27.636  31.925  1.00  0.00     0.074 A 
ATOM     37  C   UNL A   1      44.057  26.741  31.187  1.00  0.00     0.031 C 
ATOM     38  C   UNL A   1      43.404  28.030  33.203  1.00  0.00     0.034 A 
BRANCH  25  39
ATOM     39  C   UNL A   1      39.277  32.076  35.385  1.00  0.00     0.023 A 
ATOM     40  C   UNL A   1      38.424  31.527  36.363  1.00  0.00     0.012 A 
ATOM     41  C   UNL A   1      39.765  33.386  35.552  1.00  0.00     0.148 A 
ATOM     42  C   UNL A   1      38.049  32.275  37.480  1.00  0.00     0.002 A 
ATOM     43  C   UNL A   1      39.415  34.114  36.684  1.00  0.00     0.091 A 
ATOM     44  F   UNL A   1      40.559  33.900  34.600  1.00  0.00    -0.205 F 
ATOM     45  C   UNL A   1      38.552  33.562  37.645  1.00  0.00     0.022 A 
BRANCH  43  46
ATOM     46  S   UNL A   1      40.071  35.754  37.019  1.00  0.00     0.127 S 
ATOM     47  O   UNL A   1      39.385  36.098  38.263  1.00  0.00    -0.237 OA
ATOM     48  O   UNL A   1      41.504  35.493  37.166  1.00  0.00    -0.237 OA
ATOM     49  O   UNL A   1      39.722  36.564  35.860  1.00  0.00    -0.744 OA
ENDBRANCH  43  46
ENDBRANCH  25  39
BRANCH  26  50
ATOM     50  C   UNL A   1      42.032  26.605  27.470  1.00  0.00     0.023 A 
ATOM     51  C   UNL A   1      42.819  27.187  26.459  1.00  0.00     0.012 A 
ATOM     52  C   UNL A   1      41.710  25.237  27.388  1.00  0.00     0.148 A 
ATOM     53  C   UNL A   1      43.271  26.423  25.383  1.00  0.00     0.002 A 
ATOM     54  C   UNL A   1      42.217  24.467  26.349  1.00  0.00     0.091 A 
ATOM     55  F   UNL A   1      40.939  24.704  28.348  1.00  0.00    -0.205 F 
ATOM     56  C   UNL A   1      42.986  25.059  25.337  1.00  0.00     0.022 A 
BRANCH  54  57
ATOM     57  S   UNL A   1      42.030  22.679  26.324  1.00  0.00     0.127 S 
ATOM     58  O   UNL A   1      42.712  22.323  25.084  1.00  0.00    -0.237 OA
ATOM     59  O   UNL A   1      42.725  22.277  27.548  1.00  0.00    -0.237 OA
ATOM     60  O   UNL A   1      40.592  22.448  26.357  1.00  0.00    -0.744 OA
ENDBRANCH  54  57
ENDBRANCH  26  50
BRANCH  38  61
ATOM     61  C   UNL A   1      44.632  27.492  33.885  1.00  0.00     0.023 A 
ATOM     62  C   UNL A   1      45.834  28.225  33.819  1.00  0.00     0.012 A 
ATOM     63  C   UNL A   1      44.585  26.300  34.633  1.00  0.00     0.148 A 
ATOM     64  C   UNL A   1      46.979  27.764  34.465  1.00  0.00     0.002 A 
ATOM     65  C   UNL A   1      45.722  25.867  35.306  1.00  0.00     0.091 A 
ATOM     66  F   UNL A   1      43.439  25.605  34.661  1.00  0.00    -0.205 F 
ATOM     67  C   UNL A   1      46.921  26.592  35.216  1.00  0.00     0.022 A 
BRANCH  65  68
ATOM     68  S   UNL A   1      45.707  24.412  36.359  1.00  0.00     0.127 S 
ATOM     69  O   UNL A   1      47.108  24.327  36.769  1.00  0.00    -0.237 OA
ATOM     70  O   UNL A   1      44.782  24.801  37.424  1.00  0.00    -0.237 OA
ATOM     71  O   UNL A   1      45.229  23.322  35.518  1.00  0.00    -0.744 OA
ENDBRANCH  65  68
ENDBRANCH  38  61
ENDBRANCH  12  13
ENDBRANCH   5   7
ENDBRANCH   2   3
ENDBRANCH   1   2
BRANCH   1  72
ATOM     72  C   UNL A   1      31.495  27.903  26.882  1.00  0.00     0.023 C 
BRANCH  72  73
ATOM     73  C   UNL A   1      31.969  26.552  26.351  1.00  0.00     0.116 C 
BRANCH  73  74
ATOM     74  N   UNL A   1      31.185  25.474  26.915  1.00  0.00    -0.356 N 
ATOM     75  C   UNL A   1      30.949  24.218  26.458  1.00  0.00     0.227 C 
ATOM     76  H   UNL A   1      30.752  25.688  27.773  1.00  0.00     0.163 HD
ATOM     77  O   UNL A   1      30.216  23.507  27.157  1.00  0.00    -0.274 OA
BRANCH  75  78
ATOM     78  C   UNL A   1      31.537  23.659  25.152  1.00  0.00     0.113 C 
BRANCH  78  79
ATOM     79  C   UNL A   1      30.702  24.047  23.899  1.00  0.00     0.054 C 
BRANCH  79  80
ATOM     80  C   UNL A   1      30.376  25.466  23.476  1.00  0.00    -0.044 A 
ATOM     81  C   UNL A   1      31.324  26.156  22.698  1.00  0.00     0.024 A 
ATOM     82  C   UNL A   1      29.238  26.183  23.859  1.00  0.00     0.024 A 
ATOM     83  C   UNL A   1      31.075  27.465  22.312  1.00  0.00     0.111 A 
ATOM     84  C   UNL A   1      29.078  27.496  23.431  1.00  0.00     0.111 A 
ATOM     85  N   UNL A   1      29.969  28.148  22.661  1.00  0.00    -0.265 NA
ENDBRANCH  79  80
ENDBRANCH  78  79
BRANCH  78  86
ATOM     86  C   UNL A   1      33.058  23.575  25.056  1.00  0.00    -0.035 A 
ATOM     87  C   UNL A   1      33.679  23.497  23.794  1.00  0.00     0.006 A 
ATOM     88  C   UNL A   1      33.879  23.483  26.193  1.00  0.00     0.006 A 
ATOM     89  C   UNL A   1      35.070  23.441  23.673  1.00  0.00     0.021 A 
ATOM     90  C   UNL A   1      35.271  23.408  26.074  1.00  0.00     0.021 A 
ATOM     91  C   UNL A   1      35.861  23.406  24.814  1.00  0.00     0.041 A 
ATOM     92  Cl  UNL A   1      37.573  23.347  24.667  1.00  0.00    -0.084 Cl
ENDBRANCH  78  86
ENDBRANCH  75  78
ENDBRANCH  73  74
ENDBRANCH  72  73
ENDBRANCH   1  72
TORSDOF 17
ENDMDL
MODEL 2
REMARK VINA RESULT:     -11.7      1.332      2.545
REMARK SMILES O=C(NCCCCNC(=O)[C@@H](Cc1ccncc1)c1ccc(Cl)cc1)c1ccc(-c2c3nc(c(-c4cccc(S(=O)(=O)[O-])c4F)c4ccc([nH]4)c(-c4cccc(S(=O)(=O)[O-])c4F)c4nc(c(-c5cccc(S(=O)(=O)[O-])c5F)c5ccc2[nH]5)C=C4)C=C3)cc1
REMARK SMILES IDX 5 1 4 2 3 3 1 4 2 5 26 7 27 8 88 9 28 10 87 11 29 12 30 13
REMARK SMILES IDX 31 14 81 15 32 16 86 17 80 18 82 19 33 20 85 21 79 22 78 23
REMARK SMILES IDX 34 25 66 26 46 27 65 28 47 29 50 30 64 31 83 32 48 33 49 34
REMARK SMILES IDX 63 36 84 37 51 38 35 39 36 40 44 41 37 42 39 43 45 44 38 45
REMARK SMILES IDX 40 46 41 47 42 48 43 49 67 50 68 51 76 52 69 53 71 54 77 55
REMARK SMILES IDX 70 56 72 57 73 58 74 59 75 60 52 61 53 62 61 63 54 64 56 65
REMARK SMILES IDX 62 66 55 67 57 68 58 69 59 70 60 71 6 72 7 73 8 74 9 75
REMARK SMILES IDX 10 77 11 78 12 79 13 80 14 81 18 82 15 83 17 84 16 85 19 86
REMARK SMILES IDX 20 87 25 88 21 89 24 90 22 91 23 92
REMARK H PARENT 3 6 82 24 50 35 8 76
REMARK Flexibility Score: inf
ROOT
ATOM      1  C   UNL A   1      31.635  28.714  25.671  1.00  0.00     0.023 C 
ENDROOT
BRANCH   1   2
ATOM      2  C   UNL A   1      32.808  29.597  26.075  1.00  0.00     0.116 C 
BRANCH   2   3
ATOM      3  N   UNL A   1      32.444  30.934  26.532  1.00  0.00    -0.352 N 
ATOM      4  O   UNL A   1      32.790  32.916  27.583  1.00  0.00    -0.269 OA
ATOM      5  C   UNL A   1      33.219  31.814  27.259  1.00  0.00     0.251 C 
ATOM      6  H   UNL A   1      31.541  31.245  26.293  1.00  0.00     0.163 HD
BRANCH   5   7
ATOM      7  C   UNL A   1      34.556  31.364  27.698  1.00  0.00     0.039 A 
ATOM      8  C   UNL A   1      34.771  30.019  27.997  1.00  0.00     0.014 A 
ATOM      9  C   UNL A   1      35.542  32.318  27.953  1.00  0.00     0.014 A 
ATOM     10  C   UNL A   1      35.886  29.663  28.742  1.00  0.00     0.010 A 
ATOM     11  C   UNL A   1      36.715  31.934  28.607  1.00  0.00     0.010 A 
ATOM     12  C   UNL A   1      36.870  30.615  29.061  1.00  0.00    -0.014 A 
BRANCH  12  13
ATOM     13  C   UNL A   1      38.063  30.189  29.837  1.00  0.00     0.031 A 
ATOM     14  C   UNL A   1      38.282  30.641  31.256  1.00  0.00     0.074 A 
ATOM     15  C   UNL A   1      38.940  29.353  29.249  1.00  0.00     0.049 A 
ATOM     16  N   UNL A   1      39.262  30.338  32.070  1.00  0.00    -0.248 NA
ATOM     17  C   UNL A   1      37.286  31.555  31.840  1.00  0.00     0.031 C 
ATOM     18  C   UNL A   1      38.846  28.876  27.867  1.00  0.00     0.029 A 
ATOM     19  N   UNL A   1      40.067  28.743  29.733  1.00  0.00    -0.354 N 
ATOM     20  C   UNL A   1      39.031  31.058  33.237  1.00  0.00     0.074 A 
ATOM     21  C   UNL A   1      37.815  31.814  33.030  1.00  0.00     0.031 C 
ATOM     22  C   UNL A   1      39.840  28.011  27.629  1.00  0.00     0.029 A 
ATOM     23  C   UNL A   1      40.681  27.922  28.817  1.00  0.00     0.049 A 
ATOM     24  H   UNL A   1      40.405  28.880  30.648  1.00  0.00     0.167 HD
ATOM     25  C   UNL A   1      39.760  31.075  34.379  1.00  0.00     0.034 A 
ATOM     26  C   UNL A   1      41.805  27.187  28.911  1.00  0.00     0.034 A 
ATOM     27  C   UNL A   1      40.937  30.275  34.597  1.00  0.00     0.049 A 
ATOM     28  C   UNL A   1      42.565  27.192  30.204  1.00  0.00     0.074 A 
ATOM     29  C   UNL A   1      41.713  30.180  35.741  1.00  0.00     0.029 A 
ATOM     30  N   UNL A   1      41.507  29.429  33.658  1.00  0.00    -0.354 N 
ATOM     31  N   UNL A   1      42.275  27.806  31.326  1.00  0.00    -0.248 NA
ATOM     32  C   UNL A   1      43.797  26.395  30.251  1.00  0.00     0.031 C 
ATOM     33  C   UNL A   1      42.755  29.280  35.490  1.00  0.00     0.029 A 
ATOM     34  C   UNL A   1      42.625  28.809  34.194  1.00  0.00     0.049 A 
ATOM     35  H   UNL A   1      41.167  29.289  32.746  1.00  0.00     0.167 HD
ATOM     36  C   UNL A   1      43.281  27.462  32.217  1.00  0.00     0.074 A 
ATOM     37  C   UNL A   1      44.170  26.556  31.514  1.00  0.00     0.031 C 
ATOM     38  C   UNL A   1      43.469  27.878  33.493  1.00  0.00     0.034 A 
BRANCH  25  39
ATOM     39  C   UNL A   1      39.286  31.951  35.511  1.00  0.00     0.023 A 
ATOM     40  C   UNL A   1      38.433  31.409  36.493  1.00  0.00     0.012 A 
ATOM     41  C   UNL A   1      39.747  33.274  35.651  1.00  0.00     0.148 A 
ATOM     42  C   UNL A   1      38.032  32.177  37.588  1.00  0.00     0.002 A 
ATOM     43  C   UNL A   1      39.372  34.022  36.762  1.00  0.00     0.091 A 
ATOM     44  F   UNL A   1      40.540  33.780  34.694  1.00  0.00    -0.205 F 
ATOM     45  C   UNL A   1      38.510  33.477  37.727  1.00  0.00     0.022 A 
BRANCH  43  46
ATOM     46  S   UNL A   1      39.994  35.682  37.063  1.00  0.00     0.127 S 
ATOM     47  O   UNL A   1      39.278  36.048  38.284  1.00  0.00    -0.237 OA
ATOM     48  O   UNL A   1      41.427  35.449  37.244  1.00  0.00    -0.237 OA
ATOM     49  O   UNL A   1      39.653  36.453  35.876  1.00  0.00    -0.744 OA
ENDBRANCH  43  46
ENDBRANCH  25  39
BRANCH  26  50
ATOM     50  C   UNL A   1      42.229  26.351  27.755  1.00  0.00     0.023 A 
ATOM     51  C   UNL A   1      43.160  26.866  26.835  1.00  0.00     0.012 A 
ATOM     52  C   UNL A   1      41.785  25.022  27.613  1.00  0.00     0.148 A 
ATOM     53  C   UNL A   1      43.635  26.075  25.789  1.00  0.00     0.002 A 
ATOM     54  C   UNL A   1      42.310  24.220  26.609  1.00  0.00     0.091 A 
ATOM     55  F   UNL A   1      40.879  24.555  28.486  1.00  0.00    -0.205 F 
ATOM     56  C   UNL A   1      43.225  24.747  25.686  1.00  0.00     0.022 A 
BRANCH  54  57
ATOM     57  S   UNL A   1      41.954  22.460  26.526  1.00  0.00     0.127 S 
ATOM     58  O   UNL A   1      40.511  22.455  26.313  1.00  0.00    -0.237 OA
ATOM     59  O   UNL A   1      42.750  22.035  25.374  1.00  0.00    -0.237 OA
ATOM     60  O   UNL A   1      42.419  21.920  27.797  1.00  0.00    -0.744 OA
ENDBRANCH  54  57
ENDBRANCH  26  50
BRANCH  38  61
ATOM     61  C   UNL A   1      44.682  27.356  34.211  1.00  0.00     0.023 A 
ATOM     62  C   UNL A   1      45.870  28.115  34.201  1.00  0.00     0.012 A 
ATOM     63  C   UNL A   1      44.634  26.151  34.938  1.00  0.00     0.148 A 
ATOM     64  C   UNL A   1      47.000  27.667  34.882  1.00  0.00     0.002 A 
ATOM     65  C   UNL A   1      45.754  25.731  35.646  1.00  0.00     0.091 A 
ATOM     66  F   UNL A   1      43.503  25.432  34.914  1.00  0.00    -0.205 F 
ATOM     67  C   UNL A   1      46.940  26.483  35.612  1.00  0.00     0.022 A 
BRANCH  65  68
ATOM     68  S   UNL A   1      45.733  24.259  36.675  1.00  0.00     0.127 S 
ATOM     69  O   UNL A   1      47.160  24.023  36.888  1.00  0.00    -0.237 OA
ATOM     70  O   UNL A   1      45.005  24.713  37.862  1.00  0.00    -0.237 OA
ATOM     71  O   UNL A   1      45.035  23.244  35.896  1.00  0.00    -0.744 OA
ENDBRANCH  65  68
ENDBRANCH  38  61
ENDBRANCH  12  13
ENDBRANCH   5   7
ENDBRANCH   2   3
ENDBRANCH   1   2
BRANCH   1  72
ATOM     72  C   UNL A   1      31.423  27.508  26.571  1.00  0.00     0.023 C 
BRANCH  72  73
ATOM     73  C   UNL A   1      30.620  26.365  25.953  1.00  0.00     0.116 C 
BRANCH  73  74
ATOM     74  N   UNL A   1      30.738  25.163  26.750  1.00  0.00    -0.356 N 
ATOM     75  C   UNL A   1      31.758  24.274  26.866  1.00  0.00     0.227 C 
ATOM     76  H   UNL A   1      29.948  24.955  27.300  1.00  0.00     0.163 HD
ATOM     77  O   UNL A   1      31.570  23.316  27.626  1.00  0.00    -0.274 OA
BRANCH  75  78
ATOM     78  C   UNL A   1      33.095  24.406  26.118  1.00  0.00     0.113 C 
BRANCH  78  79
ATOM     79  C   UNL A   1      34.228  23.548  26.751  1.00  0.00     0.054 C 
BRANCH  79  80
ATOM     80  C   UNL A   1      35.277  22.781  25.971  1.00  0.00    -0.044 A 
ATOM     81  C   UNL A   1      36.285  23.517  25.323  1.00  0.00     0.024 A 
ATOM     82  C   UNL A   1      35.287  21.396  25.774  1.00  0.00     0.024 A 
ATOM     83  C   UNL A   1      37.249  22.854  24.576  1.00  0.00     0.111 A 
ATOM     84  C   UNL A   1      36.289  20.820  25.001  1.00  0.00     0.111 A 
ATOM     85  N   UNL A   1      37.273  21.519  24.406  1.00  0.00    -0.265 NA
ENDBRANCH  79  80
ENDBRANCH  78  79
BRANCH  78  86
ATOM     86  C   UNL A   1      33.029  24.579  24.603  1.00  0.00    -0.035 A 
ATOM     87  C   UNL A   1      33.567  25.735  24.004  1.00  0.00     0.006 A 
ATOM     88  C   UNL A   1      32.367  23.661  23.771  1.00  0.00     0.006 A 
ATOM     89  C   UNL A   1      33.541  25.912  22.618  1.00  0.00     0.021 A 
ATOM     90  C   UNL A   1      32.323  23.845  22.385  1.00  0.00     0.021 A 
ATOM     91  C   UNL A   1      32.926  24.961  21.813  1.00  0.00     0.041 A 
ATOM     92  Cl  UNL A   1      32.902  25.172  20.107  1.00  0.00    -0.084 Cl
ENDBRANCH  78  86
ENDBRANCH  75  78
ENDBRANCH  73  74
ENDBRANCH  72  73
ENDBRANCH   1  72
TORSDOF 17
ENDMDL
MODEL 3
REMARK VINA RESULT:     -11.6      1.939      2.940
REMARK SMILES O=C(NCCCCNC(=O)[C@@H](Cc1ccncc1)c1ccc(Cl)cc1)c1ccc(-c2c3nc(c(-c4cccc(S(=O)(=O)[O-])c4F)c4ccc([nH]4)c(-c4cccc(S(=O)(=O)[O-])c4F)c4nc(c(-c5cccc(S(=O)(=O)[O-])c5F)c5ccc2[nH]5)C=C4)C=C3)cc1
REMARK SMILES IDX 5 1 4 2 3 3 1 4 2 5 26 7 27 8 88 9 28 10 87 11 29 12 30 13
REMARK SMILES IDX 31 14 81 15 32 16 86 17 80 18 82 19 33 20 85 21 79 22 78 23
REMARK SMILES IDX 34 25 66 26 46 27 65 28 47 29 50 30 64 31 83 32 48 33 49 34
REMARK SMILES IDX 63 36 84 37 51 38 35 39 36 40 44 41 37 42 39 43 45 44 38 45
REMARK SMILES IDX 40 46 41 47 42 48 43 49 67 50 68 51 76 52 69 53 71 54 77 55
REMARK SMILES IDX 70 56 72 57 73 58 74 59 75 60 52 61 53 62 61 63 54 64 56 65
REMARK SMILES IDX 62 66 55 67 57 68 58 69 59 70 60 71 6 72 7 73 8 74 9 75
REMARK SMILES IDX 10 77 11 78 12 79 13 80 14 81 18 82 15 83 17 84 16 85 19 86
REMARK SMILES IDX 20 87 25 88 21 89 24 90 22 91 23 92
REMARK H PARENT 3 6 82 24 50 35 8 76
REMARK Flexibility Score: inf
ROOT
ATOM      1  C   UNL A   1      31.791  28.590  25.315  1.00  0.00     0.023 C 
ENDROOT
BRANCH   1   2
ATOM      2  C   UNL A   1      32.904  29.521  25.774  1.00  0.00     0.116 C 
BRANCH   2   3
ATOM      3  N   UNL A   1      32.453  30.781  26.357  1.00  0.00    -0.352 N 
ATOM      4  O   UNL A   1      32.658  32.652  27.626  1.00  0.00    -0.269 OA
ATOM      5  C   UNL A   1      33.156  31.615  27.201  1.00  0.00     0.251 C 
ATOM      6  H   UNL A   1      31.542  31.069  26.120  1.00  0.00     0.163 HD
BRANCH   5   7
ATOM      7  C   UNL A   1      34.502  31.189  27.638  1.00  0.00     0.039 A 
ATOM      8  C   UNL A   1      34.734  29.854  27.970  1.00  0.00     0.014 A 
ATOM      9  C   UNL A   1      35.481  32.159  27.859  1.00  0.00     0.014 A 
ATOM     10  C   UNL A   1      35.859  29.528  28.712  1.00  0.00     0.010 A 
ATOM     11  C   UNL A   1      36.664  31.804  28.510  1.00  0.00     0.010 A 
ATOM     12  C   UNL A   1      36.838  30.498  28.996  1.00  0.00    -0.014 A 
BRANCH  12  13
ATOM     13  C   UNL A   1      38.042  30.103  29.770  1.00  0.00     0.031 A 
ATOM     14  C   UNL A   1      38.257  30.573  31.184  1.00  0.00     0.074 A 
ATOM     15  C   UNL A   1      38.933  29.281  29.187  1.00  0.00     0.049 A 
ATOM     16  N   UNL A   1      39.247  30.298  31.997  1.00  0.00    -0.248 NA
ATOM     17  C   UNL A   1      37.246  31.471  31.765  1.00  0.00     0.031 C 
ATOM     18  C   UNL A   1      38.843  28.789  27.808  1.00  0.00     0.029 A 
ATOM     19  N   UNL A   1      40.075  28.698  29.671  1.00  0.00    -0.354 N 
ATOM     20  C   UNL A   1      39.007  31.023  33.158  1.00  0.00     0.074 A 
ATOM     21  C   UNL A   1      37.775  31.752  32.950  1.00  0.00     0.031 C 
ATOM     22  C   UNL A   1      39.854  27.943  27.574  1.00  0.00     0.029 A 
ATOM     23  C   UNL A   1      40.702  27.882  28.759  1.00  0.00     0.049 A 
ATOM     24  H   UNL A   1      40.414  28.851  30.583  1.00  0.00     0.167 HD
ATOM     25  C   UNL A   1      39.740  31.065  34.297  1.00  0.00     0.034 A 
ATOM     26  C   UNL A   1      41.841  27.171  28.855  1.00  0.00     0.034 A 
ATOM     27  C   UNL A   1      40.934  30.292  34.517  1.00  0.00     0.049 A 
ATOM     28  C   UNL A   1      42.606  27.204  30.144  1.00  0.00     0.074 A 
ATOM     29  C   UNL A   1      41.716  30.223  35.658  1.00  0.00     0.029 A 
ATOM     30  N   UNL A   1      41.517  29.449  33.583  1.00  0.00    -0.354 N 
ATOM     31  N   UNL A   1      42.308  27.821  31.262  1.00  0.00    -0.248 NA
ATOM     32  C   UNL A   1      43.855  26.432  30.193  1.00  0.00     0.031 C 
ATOM     33  C   UNL A   1      42.776  29.343  35.410  1.00  0.00     0.029 A 
ATOM     34  C   UNL A   1      42.650  28.857  34.119  1.00  0.00     0.049 A 
ATOM     35  H   UNL A   1      41.176  29.294  32.673  1.00  0.00     0.167 HD
ATOM     36  C   UNL A   1      43.325  27.506  32.151  1.00  0.00     0.074 A 
ATOM     37  C   UNL A   1      44.229  26.612  31.453  1.00  0.00     0.031 C 
ATOM     38  C   UNL A   1      43.510  27.937  33.423  1.00  0.00     0.034 A 
BRANCH  25  39
ATOM     39  C   UNL A   1      39.252  31.941  35.423  1.00  0.00     0.023 A 
ATOM     40  C   UNL A   1      39.429  33.336  35.339  1.00  0.00     0.012 A 
ATOM     41  C   UNL A   1      38.547  31.399  36.515  1.00  0.00     0.148 A 
ATOM     42  C   UNL A   1      38.929  34.178  36.334  1.00  0.00     0.002 A 
ATOM     43  C   UNL A   1      38.020  32.246  37.485  1.00  0.00     0.091 A 
ATOM     44  F   UNL A   1      38.407  30.068  36.589  1.00  0.00    -0.205 F 
ATOM     45  C   UNL A   1      38.216  33.634  37.399  1.00  0.00     0.022 A 
BRANCH  43  46
ATOM     46  S   UNL A   1      37.026  31.643  38.857  1.00  0.00     0.127 S 
ATOM     47  O   UNL A   1      36.798  30.254  38.466  1.00  0.00    -0.237 OA
ATOM     48  O   UNL A   1      37.930  31.815  39.995  1.00  0.00    -0.237 OA
ATOM     49  O   UNL A   1      35.844  32.492  38.892  1.00  0.00    -0.744 OA
ENDBRANCH  43  46
ENDBRANCH  25  39
BRANCH  26  50
ATOM     50  C   UNL A   1      42.277  26.334  27.705  1.00  0.00     0.023 A 
ATOM     51  C   UNL A   1      43.182  26.864  26.767  1.00  0.00     0.012 A 
ATOM     52  C   UNL A   1      41.871  24.991  27.584  1.00  0.00     0.148 A 
ATOM     53  C   UNL A   1      43.669  26.075  25.726  1.00  0.00     0.002 A 
ATOM     54  C   UNL A   1      42.410  24.191  26.583  1.00  0.00     0.091 A 
ATOM     55  F   UNL A   1      40.990  24.508  28.473  1.00  0.00    -0.205 F 
ATOM     56  C   UNL A   1      43.298  24.734  25.644  1.00  0.00     0.022 A 
BRANCH  54  57
ATOM     57  S   UNL A   1      42.106  22.421  26.527  1.00  0.00     0.127 S 
ATOM     58  O   UNL A   1      42.593  21.990  27.833  1.00  0.00    -0.237 OA
ATOM     59  O   UNL A   1      40.653  22.360  26.358  1.00  0.00    -0.237 OA
ATOM     60  O   UNL A   1      42.855  21.945  25.372  1.00  0.00    -0.744 OA
ENDBRANCH  54  57
ENDBRANCH  26  50
BRANCH  38  61
ATOM     61  C   UNL A   1      44.737  27.447  34.140  1.00  0.00     0.023 A 
ATOM     62  C   UNL A   1      45.921  28.209  34.082  1.00  0.00     0.012 A 
ATOM     63  C   UNL A   1      44.705  26.270  34.913  1.00  0.00     0.148 A 
ATOM     64  C   UNL A   1      47.064  27.791  34.760  1.00  0.00     0.002 A 
ATOM     65  C   UNL A   1      45.838  25.882  35.619  1.00  0.00     0.091 A 
ATOM     66  F   UNL A   1      43.576  25.547  34.935  1.00  0.00    -0.205 F 
ATOM     67  C   UNL A   1      47.021  26.635  35.536  1.00  0.00     0.022 A 
BRANCH  65  68
ATOM     68  S   UNL A   1      45.839  24.450  36.703  1.00  0.00     0.127 S 
ATOM     69  O   UNL A   1      44.971  24.898  37.790  1.00  0.00    -0.237 OA
ATOM     70  O   UNL A   1      45.263  23.408  35.851  1.00  0.00    -0.237 OA
ATOM     71  O   UNL A   1      47.235  24.228  37.060  1.00  0.00    -0.744 OA
ENDBRANCH  65  68
ENDBRANCH  38  61
ENDBRANCH  12  13
ENDBRANCH   5   7
ENDBRANCH   2   3
ENDBRANCH   1   2
BRANCH   1  72
ATOM     72  C   UNL A   1      31.608  27.358  26.188  1.00  0.00     0.023 C 
BRANCH  72  73
ATOM     73  C   UNL A   1      30.595  26.338  25.674  1.00  0.00     0.116 C 
BRANCH  73  74
ATOM     74  N   UNL A   1      30.598  25.149  26.499  1.00  0.00    -0.356 N 
ATOM     75  C   UNL A   1      31.314  24.000  26.392  1.00  0.00     0.227 C 
ATOM     76  H   UNL A   1      29.979  25.178  27.263  1.00  0.00     0.163 HD
ATOM     77  O   UNL A   1      31.095  23.134  27.249  1.00  0.00    -0.274 OA
BRANCH  75  78
ATOM     78  C   UNL A   1      32.354  23.740  25.290  1.00  0.00     0.113 C 
BRANCH  78  79
ATOM     79  C   UNL A   1      33.720  24.426  25.574  1.00  0.00     0.054 C 
BRANCH  79  80
ATOM     80  C   UNL A   1      35.077  23.831  25.250  1.00  0.00    -0.044 A 
ATOM     81  C   UNL A   1      35.429  23.694  23.895  1.00  0.00     0.024 A 
ATOM     82  C   UNL A   1      35.986  23.332  26.188  1.00  0.00     0.024 A 
ATOM     83  C   UNL A   1      36.650  23.130  23.556  1.00  0.00     0.111 A 
ATOM     84  C   UNL A   1      37.184  22.775  25.754  1.00  0.00     0.111 A 
ATOM     85  N   UNL A   1      37.536  22.671  24.459  1.00  0.00    -0.265 NA
ENDBRANCH  79  80
ENDBRANCH  78  79
BRANCH  78  86
ATOM     86  C   UNL A   1      32.317  22.375  24.609  1.00  0.00    -0.035 A 
ATOM     87  C   UNL A   1      32.574  21.209  25.357  1.00  0.00     0.006 A 
ATOM     88  C   UNL A   1      32.120  22.231  23.225  1.00  0.00     0.006 A 
ATOM     89  C   UNL A   1      32.526  19.944  24.766  1.00  0.00     0.021 A 
ATOM     90  C   UNL A   1      32.090  20.967  22.628  1.00  0.00     0.021 A 
ATOM     91  C   UNL A   1      32.275  19.827  23.404  1.00  0.00     0.041 A 
ATOM     92  Cl  UNL A   1      32.206  18.271  22.678  1.00  0.00    -0.084 Cl
ENDBRANCH  78  86
ENDBRANCH  75  78
ENDBRANCH  73  74
ENDBRANCH  72  73
ENDBRANCH   1  72
TORSDOF 17
ENDMDL
