MODEL 1
REMARK VINA RESULT:     -10.9      0.000      0.000
REMARK SMILES CC(C)COc1ccc(CC(=O)NCCCCNC(=O)c2ccc(-c3c4nc(c(-c5cccc(S(=O)(=O)[O-])c5F)c5ccc([nH]5)c(-c5cccc(S(=O)(=O)[O-])c5F)c5nc(c(-c6cccc(S(=O)(=O)[O-])c6F)c6ccc3[nH]6)C=C5)C=C4)cc2)cc1
REMARK SMILES IDX 15 1 14 2 13 3 11 4 12 5 10 7 9 8 6 9 7 10 85 11 8 12 84 13
REMARK SMILES IDX 5 14 4 15 2 16 1 17 3 18 16 19 17 20 18 21 19 22 20 24 21 25
REMARK SMILES IDX 22 26 83 27 23 28 82 29 24 30 25 31 26 32 76 33 27 34 81 35
REMARK SMILES IDX 75 36 77 37 28 38 80 39 74 40 73 41 29 43 61 44 41 45 60 46
REMARK SMILES IDX 42 47 45 48 59 49 78 50 43 51 44 52 58 54 79 55 46 56 30 57
REMARK SMILES IDX 31 58 39 59 32 60 34 61 40 62 33 63 35 64 36 65 37 66 38 67
REMARK SMILES IDX 62 68 63 69 71 70 64 71 66 72 72 73 65 74 67 75 68 76 69 77
REMARK SMILES IDX 70 78 47 79 48 80 56 81 49 82 51 83 57 84 50 85 52 86 53 87
REMARK SMILES IDX 54 88 55 89
REMARK H PARENT 13 6 18 23 77 42 45 53
REMARK Flexibility Score: inf
ROOT
ATOM      1  C   UNL A   1      36.704  21.518  25.163  1.00  0.00     0.023 C 
ENDROOT
BRANCH   1   2
ATOM      2  C   UNL A   1      36.736  22.786  24.307  1.00  0.00     0.116 C 
BRANCH   2   3
ATOM      3  N   UNL A   1      36.089  23.913  24.956  1.00  0.00    -0.356 N 
ATOM      4  C   UNL A   1      34.867  24.476  24.721  1.00  0.00     0.224 C 
ATOM      5  O   UNL A   1      34.530  25.449  25.397  1.00  0.00    -0.275 OA
ATOM      6  H   UNL A   1      36.611  24.336  25.675  1.00  0.00     0.163 HD
BRANCH   4   7
ATOM      7  C   UNL A   1      33.917  23.874  23.699  1.00  0.00     0.135 C 
BRANCH   7   8
ATOM      8  C   UNL A   1      33.312  22.543  24.073  1.00  0.00    -0.038 A 
ATOM      9  C   UNL A   1      32.472  19.965  24.827  1.00  0.00     0.119 A 
ATOM     10  C   UNL A   1      32.451  20.357  23.486  1.00  0.00     0.047 A 
ATOM     11  C   UNL A   1      32.793  20.909  25.796  1.00  0.00     0.047 A 
ATOM     12  C   UNL A   1      32.841  21.645  23.109  1.00  0.00     0.008 A 
ATOM     13  C   UNL A   1      33.223  22.185  25.423  1.00  0.00     0.008 A 
BRANCH   9  14
ATOM     14  O   UNL A   1      32.220  18.642  25.039  1.00  0.00    -0.493 OA
BRANCH  14  15
ATOM     15  C   UNL A   1      32.221  17.725  23.945  1.00  0.00     0.232 C 
BRANCH  15  16
ATOM     16  C   UNL A   1      33.334  16.663  24.046  1.00  0.00     0.020 C 
ATOM     17  C   UNL A   1      34.713  17.249  24.353  1.00  0.00     0.011 C 
ATOM     18  C   UNL A   1      32.975  15.647  25.133  1.00  0.00     0.011 C 
ENDBRANCH  15  16
ENDBRANCH  14  15
ENDBRANCH   9  14
ENDBRANCH   7   8
ENDBRANCH   4   7
ENDBRANCH   2   3
ENDBRANCH   1   2
BRANCH   1  19
ATOM     19  C   UNL A   1      37.860  20.540  24.932  1.00  0.00     0.023 C 
BRANCH  19  20
ATOM     20  C   UNL A   1      39.088  20.751  25.812  1.00  0.00     0.116 C 
BRANCH  20  21
ATOM     21  N   UNL A   1      39.971  19.593  25.844  1.00  0.00    -0.352 N 
ATOM     22  C   UNL A   1      41.329  19.544  26.053  1.00  0.00     0.251 C 
ATOM     23  H   UNL A   1      39.535  18.723  25.695  1.00  0.00     0.163 HD
ATOM     24  O   UNL A   1      41.931  18.481  25.928  1.00  0.00    -0.269 OA
BRANCH  22  25
ATOM     25  C   UNL A   1      42.072  20.780  26.392  1.00  0.00     0.039 A 
ATOM     26  C   UNL A   1      42.500  21.616  25.356  1.00  0.00     0.014 A 
ATOM     27  C   UNL A   1      42.330  21.123  27.722  1.00  0.00     0.014 A 
ATOM     28  C   UNL A   1      43.112  22.837  25.656  1.00  0.00     0.010 A 
ATOM     29  C   UNL A   1      42.885  22.366  28.020  1.00  0.00     0.010 A 
ATOM     30  C   UNL A   1      43.270  23.241  26.992  1.00  0.00    -0.014 A 
BRANCH  30  31
ATOM     31  C   UNL A   1      43.779  24.592  27.342  1.00  0.00     0.031 A 
ATOM     32  C   UNL A   1      42.840  25.662  27.826  1.00  0.00     0.074 A 
ATOM     33  C   UNL A   1      45.074  24.890  27.107  1.00  0.00     0.049 A 
ATOM     34  N   UNL A   1      43.085  26.923  28.071  1.00  0.00    -0.248 NA
ATOM     35  C   UNL A   1      41.438  25.270  28.037  1.00  0.00     0.031 C 
ATOM     36  C   UNL A   1      46.071  23.963  26.569  1.00  0.00     0.029 A 
ATOM     37  N   UNL A   1      45.762  26.069  27.252  1.00  0.00    -0.354 N 
ATOM     38  C   UNL A   1      41.866  27.484  28.429  1.00  0.00     0.074 A 
ATOM     39  C   UNL A   1      40.877  26.430  28.349  1.00  0.00     0.031 C 
ATOM     40  C   UNL A   1      47.237  24.608  26.418  1.00  0.00     0.029 A 
ATOM     41  C   UNL A   1      47.066  26.002  26.816  1.00  0.00     0.049 A 
ATOM     42  H   UNL A   1      45.363  26.885  27.632  1.00  0.00     0.167 HD
ATOM     43  C   UNL A   1      41.597  28.754  28.816  1.00  0.00     0.034 A 
ATOM     44  C   UNL A   1      48.012  26.957  26.726  1.00  0.00     0.034 A 
ATOM     45  C   UNL A   1      42.589  29.788  28.943  1.00  0.00     0.049 A 
ATOM     46  C   UNL A   1      47.692  28.356  27.178  1.00  0.00     0.074 A 
ATOM     47  C   UNL A   1      42.434  31.072  29.437  1.00  0.00     0.029 A 
ATOM     48  N   UNL A   1      43.916  29.664  28.564  1.00  0.00    -0.354 N 
ATOM     49  N   UNL A   1      46.576  28.823  27.683  1.00  0.00    -0.248 NA
ATOM     50  C   UNL A   1      48.767  29.353  27.072  1.00  0.00     0.031 C 
ATOM     51  C   UNL A   1      43.664  31.731  29.336  1.00  0.00     0.029 A 
ATOM     52  C   UNL A   1      44.586  30.854  28.791  1.00  0.00     0.049 A 
ATOM     53  H   UNL A   1      44.322  28.850  28.188  1.00  0.00     0.167 HD
ATOM     54  C   UNL A   1      46.820  30.161  27.973  1.00  0.00     0.074 A 
ATOM     55  C   UNL A   1      48.198  30.422  27.616  1.00  0.00     0.031 C 
ATOM     56  C   UNL A   1      45.971  31.092  28.472  1.00  0.00     0.034 A 
BRANCH  43  57
ATOM     57  C   UNL A   1      40.178  29.085  29.193  1.00  0.00     0.023 A 
ATOM     58  C   UNL A   1      39.241  29.364  28.178  1.00  0.00     0.012 A 
ATOM     59  C   UNL A   1      39.754  29.058  30.536  1.00  0.00     0.148 A 
ATOM     60  C   UNL A   1      37.911  29.638  28.494  1.00  0.00     0.002 A 
ATOM     61  C   UNL A   1      38.419  29.296  30.841  1.00  0.00     0.091 A 
ATOM     62  F   UNL A   1      40.664  28.813  31.490  1.00  0.00    -0.205 F 
ATOM     63  C   UNL A   1      37.499  29.594  29.822  1.00  0.00     0.022 A 
BRANCH  61  64
ATOM     64  S   UNL A   1      37.775  29.193  32.515  1.00  0.00     0.127 S 
ATOM     65  O   UNL A   1      37.930  27.768  32.802  1.00  0.00    -0.237 OA
ATOM     66  O   UNL A   1      38.689  30.065  33.254  1.00  0.00    -0.237 OA
ATOM     67  O   UNL A   1      36.402  29.674  32.445  1.00  0.00    -0.744 OA
ENDBRANCH  61  64
ENDBRANCH  43  57
BRANCH  44  68
ATOM     68  C   UNL A   1      49.373  26.608  26.229  1.00  0.00     0.023 A 
ATOM     69  C   UNL A   1      50.190  25.760  27.002  1.00  0.00     0.012 A 
ATOM     70  C   UNL A   1      49.847  27.075  24.988  1.00  0.00     0.148 A 
ATOM     71  C   UNL A   1      51.464  25.403  26.559  1.00  0.00     0.002 A 
ATOM     72  C   UNL A   1      51.096  26.672  24.529  1.00  0.00     0.091 A 
ATOM     73  F   UNL A   1      49.063  27.896  24.276  1.00  0.00    -0.205 F 
ATOM     74  C   UNL A   1      51.912  25.849  25.319  1.00  0.00     0.022 A 
BRANCH  72  75
ATOM     75  S   UNL A   1      51.695  27.092  22.887  1.00  0.00     0.127 S 
ATOM     76  O   UNL A   1      52.885  26.253  22.779  1.00  0.00    -0.237 OA
ATOM     77  O   UNL A   1      50.573  26.682  22.040  1.00  0.00    -0.237 OA
ATOM     78  O   UNL A   1      51.928  28.529  22.915  1.00  0.00    -0.744 OA
ENDBRANCH  72  75
ENDBRANCH  44  68
BRANCH  56  79
ATOM     79  C   UNL A   1      46.501  32.490  28.664  1.00  0.00     0.023 A 
ATOM     80  C   UNL A   1      47.001  32.871  29.924  1.00  0.00     0.012 A 
ATOM     81  C   UNL A   1      46.581  33.392  27.585  1.00  0.00     0.148 A 
ATOM     82  C   UNL A   1      47.551  34.138  30.115  1.00  0.00     0.002 A 
ATOM     83  C   UNL A   1      47.170  34.637  27.771  1.00  0.00     0.091 A 
ATOM     84  F   UNL A   1      46.083  33.014  26.398  1.00  0.00    -0.205 F 
ATOM     85  C   UNL A   1      47.646  35.015  29.037  1.00  0.00     0.022 A 
BRANCH  83  86
ATOM     86  S   UNL A   1      47.416  35.801  26.425  1.00  0.00     0.127 S 
ATOM     87  O   UNL A   1      46.064  36.322  26.229  1.00  0.00    -0.237 OA
ATOM     88  O   UNL A   1      48.359  36.756  27.009  1.00  0.00    -0.237 OA
ATOM     89  O   UNL A   1      47.952  35.024  25.316  1.00  0.00    -0.744 OA
ENDBRANCH  83  86
ENDBRANCH  56  79
ENDBRANCH  30  31
ENDBRANCH  22  25
ENDBRANCH  20  21
ENDBRANCH  19  20
ENDBRANCH   1  19
TORSDOF 18
ENDMDL
MODEL 2
REMARK VINA RESULT:     -10.8      6.474     11.257
REMARK SMILES CC(C)COc1ccc(CC(=O)NCCCCNC(=O)c2ccc(-c3c4nc(c(-c5cccc(S(=O)(=O)[O-])c5F)c5ccc([nH]5)c(-c5cccc(S(=O)(=O)[O-])c5F)c5nc(c(-c6cccc(S(=O)(=O)[O-])c6F)c6ccc3[nH]6)C=C5)C=C4)cc2)cc1
REMARK SMILES IDX 15 1 14 2 13 3 11 4 12 5 10 7 9 8 6 9 7 10 85 11 8 12 84 13
REMARK SMILES IDX 5 14 4 15 2 16 1 17 3 18 16 19 17 20 18 21 19 22 20 24 21 25
REMARK SMILES IDX 22 26 83 27 23 28 82 29 24 30 25 31 26 32 76 33 27 34 81 35
REMARK SMILES IDX 75 36 77 37 28 38 80 39 74 40 73 41 29 43 61 44 41 45 60 46
REMARK SMILES IDX 42 47 45 48 59 49 78 50 43 51 44 52 58 54 79 55 46 56 30 57
REMARK SMILES IDX 31 58 39 59 32 60 34 61 40 62 33 63 35 64 36 65 37 66 38 67
REMARK SMILES IDX 62 68 63 69 71 70 64 71 66 72 72 73 65 74 67 75 68 76 69 77
REMARK SMILES IDX 70 78 47 79 48 80 56 81 49 82 51 83 57 84 50 85 52 86 53 87
REMARK SMILES IDX 54 88 55 89
REMARK H PARENT 13 6 18 23 77 42 45 53
REMARK Flexibility Score: inf
ROOT
ATOM      1  C   UNL A   1      34.020  34.644  31.502  1.00  0.00     0.023 C 
ENDROOT
BRANCH   1   2
ATOM      2  C   UNL A   1      34.245  34.596  33.015  1.00  0.00     0.116 C 
BRANCH   2   3
ATOM      3  N   UNL A   1      34.906  33.375  33.441  1.00  0.00    -0.356 N 
ATOM      4  C   UNL A   1      36.158  33.191  33.956  1.00  0.00     0.224 C 
ATOM      5  O   UNL A   1      36.513  32.045  34.237  1.00  0.00    -0.275 OA
ATOM      6  H   UNL A   1      34.370  32.555  33.345  1.00  0.00     0.163 HD
BRANCH   4   7
ATOM      7  C   UNL A   1      37.065  34.376  34.239  1.00  0.00     0.135 C 
BRANCH   7   8
ATOM      8  C   UNL A   1      38.269  34.508  33.338  1.00  0.00    -0.038 A 
ATOM      9  C   UNL A   1      40.487  34.450  31.608  1.00  0.00     0.119 A 
ATOM     10  C   UNL A   1      40.663  34.598  32.986  1.00  0.00     0.047 A 
ATOM     11  C   UNL A   1      39.196  34.457  31.092  1.00  0.00     0.047 A 
ATOM     12  C   UNL A   1      39.563  34.656  33.847  1.00  0.00     0.008 A 
ATOM     13  C   UNL A   1      38.094  34.473  31.950  1.00  0.00     0.008 A 
BRANCH   9  14
ATOM     14  O   UNL A   1      41.639  34.250  30.904  1.00  0.00    -0.493 OA
BRANCH  14  15
ATOM     15  C   UNL A   1      41.745  33.157  29.993  1.00  0.00     0.232 C 
BRANCH  15  16
ATOM     16  C   UNL A   1      43.028  32.326  30.191  1.00  0.00     0.020 C 
ATOM     17  C   UNL A   1      43.514  32.287  31.641  1.00  0.00     0.011 C 
ATOM     18  C   UNL A   1      42.787  30.892  29.711  1.00  0.00     0.011 C 
ENDBRANCH  15  16
ENDBRANCH  14  15
ENDBRANCH   9  14
ENDBRANCH   7   8
ENDBRANCH   4   7
ENDBRANCH   2   3
ENDBRANCH   1   2
BRANCH   1  19
ATOM     19  C   UNL A   1      34.704  33.532  30.700  1.00  0.00     0.023 C 
BRANCH  19  20
ATOM     20  C   UNL A   1      34.918  33.824  29.219  1.00  0.00     0.116 C 
BRANCH  20  21
ATOM     21  N   UNL A   1      34.094  32.996  28.350  1.00  0.00    -0.352 N 
ATOM     22  C   UNL A   1      34.347  31.739  27.854  1.00  0.00     0.251 C 
ATOM     23  H   UNL A   1      33.234  33.392  28.078  1.00  0.00     0.163 HD
ATOM     24  O   UNL A   1      33.582  31.237  27.034  1.00  0.00    -0.269 OA
BRANCH  22  25
ATOM     25  C   UNL A   1      35.559  31.004  28.281  1.00  0.00     0.039 A 
ATOM     26  C   UNL A   1      36.814  31.571  28.034  1.00  0.00     0.014 A 
ATOM     27  C   UNL A   1      35.463  29.774  28.937  1.00  0.00     0.014 A 
ATOM     28  C   UNL A   1      37.966  30.945  28.519  1.00  0.00     0.010 A 
ATOM     29  C   UNL A   1      36.606  29.183  29.470  1.00  0.00     0.010 A 
ATOM     30  C   UNL A   1      37.868  29.768  29.279  1.00  0.00    -0.014 A 
BRANCH  30  31
ATOM     31  C   UNL A   1      39.057  29.161  29.932  1.00  0.00     0.031 A 
ATOM     32  C   UNL A   1      39.586  29.717  31.224  1.00  0.00     0.074 A 
ATOM     33  C   UNL A   1      39.730  28.181  29.294  1.00  0.00     0.049 A 
ATOM     34  N   UNL A   1      40.671  29.388  31.878  1.00  0.00    -0.248 NA
ATOM     35  C   UNL A   1      38.812  30.799  31.850  1.00  0.00     0.031 C 
ATOM     36  C   UNL A   1      39.362  27.606  28.000  1.00  0.00     0.029 A 
ATOM     37  N   UNL A   1      40.890  27.527  29.630  1.00  0.00    -0.354 N 
ATOM     38  C   UNL A   1      40.729  30.245  32.970  1.00  0.00     0.074 A 
ATOM     39  C   UNL A   1      39.582  31.123  32.879  1.00  0.00     0.031 C 
ATOM     40  C   UNL A   1      40.281  26.694  27.645  1.00  0.00     0.029 A 
ATOM     41  C   UNL A   1      41.321  26.643  28.667  1.00  0.00     0.049 A 
ATOM     42  H   UNL A   1      41.368  27.675  30.478  1.00  0.00     0.167 HD
ATOM     43  C   UNL A   1      41.640  30.281  33.972  1.00  0.00     0.034 A 
ATOM     44  C   UNL A   1      42.436  25.890  28.603  1.00  0.00     0.034 A 
ATOM     45  C   UNL A   1      42.752  29.377  34.087  1.00  0.00     0.049 A 
ATOM     46  C   UNL A   1      43.423  25.936  29.737  1.00  0.00     0.074 A 
ATOM     47  C   UNL A   1      43.662  29.260  35.124  1.00  0.00     0.029 A 
ATOM     48  N   UNL A   1      43.117  28.442  33.131  1.00  0.00    -0.354 N 
ATOM     49  N   UNL A   1      43.367  26.628  30.850  1.00  0.00    -0.248 NA
ATOM     50  C   UNL A   1      44.614  25.082  29.621  1.00  0.00     0.031 C 
ATOM     51  C   UNL A   1      44.589  28.268  34.785  1.00  0.00     0.029 A 
ATOM     52  C   UNL A   1      44.249  27.760  33.542  1.00  0.00     0.049 A 
ATOM     53  H   UNL A   1      42.640  28.286  32.284  1.00  0.00     0.167 HD
ATOM     54  C   UNL A   1      44.501  26.278  31.574  1.00  0.00     0.074 A 
ATOM     55  C   UNL A   1      45.211  25.291  30.788  1.00  0.00     0.031 C 
ATOM     56  C   UNL A   1      44.926  26.748  32.772  1.00  0.00     0.034 A 
BRANCH  43  57
ATOM     57  C   UNL A   1      41.438  31.297  35.064  1.00  0.00     0.023 A 
ATOM     58  C   UNL A   1      42.383  32.329  35.230  1.00  0.00     0.012 A 
ATOM     59  C   UNL A   1      40.291  31.273  35.881  1.00  0.00     0.148 A 
ATOM     60  C   UNL A   1      42.205  33.305  36.210  1.00  0.00     0.002 A 
ATOM     61  C   UNL A   1      40.101  32.270  36.831  1.00  0.00     0.091 A 
ATOM     62  F   UNL A   1      39.414  30.270  35.723  1.00  0.00    -0.205 F 
ATOM     63  C   UNL A   1      41.060  33.282  37.001  1.00  0.00     0.022 A 
BRANCH  61  64
ATOM     64  S   UNL A   1      38.625  32.367  37.851  1.00  0.00     0.127 S 
ATOM     65  O   UNL A   1      38.099  33.681  37.482  1.00  0.00    -0.237 OA
ATOM     66  O   UNL A   1      37.835  31.236  37.362  1.00  0.00    -0.237 OA
ATOM     67  O   UNL A   1      39.082  32.238  39.227  1.00  0.00    -0.744 OA
ENDBRANCH  61  64
ENDBRANCH  43  57
BRANCH  44  68
ATOM     68  C   UNL A   1      42.654  24.985  27.438  1.00  0.00     0.023 A 
ATOM     69  C   UNL A   1      43.407  25.447  26.341  1.00  0.00     0.012 A 
ATOM     70  C   UNL A   1      42.157  23.668  27.425  1.00  0.00     0.148 A 
ATOM     71  C   UNL A   1      43.641  24.621  25.241  1.00  0.00     0.002 A 
ATOM     72  C   UNL A   1      42.440  22.833  26.349  1.00  0.00     0.091 A 
ATOM     73  F   UNL A   1      41.428  23.253  28.470  1.00  0.00    -0.205 F 
ATOM     74  C   UNL A   1      43.168  23.312  25.250  1.00  0.00     0.022 A 
BRANCH  72  75
ATOM     75  S   UNL A   1      41.983  21.095  26.339  1.00  0.00     0.127 S 
ATOM     76  O   UNL A   1      40.559  21.162  26.020  1.00  0.00    -0.237 OA
ATOM     77  O   UNL A   1      42.831  20.565  25.269  1.00  0.00    -0.237 OA
ATOM     78  O   UNL A   1      42.317  20.597  27.666  1.00  0.00    -0.744 OA
ENDBRANCH  72  75
ENDBRANCH  44  68
BRANCH  56  79
ATOM     79  C   UNL A   1      46.222  26.206  33.316  1.00  0.00     0.023 A 
ATOM     80  C   UNL A   1      47.410  26.936  33.121  1.00  0.00     0.012 A 
ATOM     81  C   UNL A   1      46.251  25.026  34.085  1.00  0.00     0.148 A 
ATOM     82  C   UNL A   1      48.614  26.487  33.664  1.00  0.00     0.002 A 
ATOM     83  C   UNL A   1      47.446  24.608  34.660  1.00  0.00     0.091 A 
ATOM     84  F   UNL A   1      45.111  24.337  34.243  1.00  0.00    -0.205 F 
ATOM     85  C   UNL A   1      48.630  25.332  34.442  1.00  0.00     0.022 A 
BRANCH  83  86
ATOM     86  S   UNL A   1      47.549  23.182  35.747  1.00  0.00     0.127 S 
ATOM     87  O   UNL A   1      48.946  23.233  36.176  1.00  0.00    -0.237 OA
ATOM     88  O   UNL A   1      46.577  23.516  36.790  1.00  0.00    -0.237 OA
ATOM     89  O   UNL A   1      47.187  22.030  34.933  1.00  0.00    -0.744 OA
ENDBRANCH  83  86
ENDBRANCH  56  79
ENDBRANCH  30  31
ENDBRANCH  22  25
ENDBRANCH  20  21
ENDBRANCH  19  20
ENDBRANCH   1  19
TORSDOF 18
ENDMDL
MODEL 3
REMARK VINA RESULT:     -10.6      3.148      4.787
REMARK SMILES CC(C)COc1ccc(CC(=O)NCCCCNC(=O)c2ccc(-c3c4nc(c(-c5cccc(S(=O)(=O)[O-])c5F)c5ccc([nH]5)c(-c5cccc(S(=O)(=O)[O-])c5F)c5nc(c(-c6cccc(S(=O)(=O)[O-])c6F)c6ccc3[nH]6)C=C5)C=C4)cc2)cc1
REMARK SMILES IDX 15 1 14 2 13 3 11 4 12 5 10 7 9 8 6 9 7 10 85 11 8 12 84 13
REMARK SMILES IDX 5 14 4 15 2 16 1 17 3 18 16 19 17 20 18 21 19 22 20 24 21 25
REMARK SMILES IDX 22 26 83 27 23 28 82 29 24 30 25 31 26 32 76 33 27 34 81 35
REMARK SMILES IDX 75 36 77 37 28 38 80 39 74 40 73 41 29 43 61 44 41 45 60 46
REMARK SMILES IDX 42 47 45 48 59 49 78 50 43 51 44 52 58 54 79 55 46 56 30 57
REMARK SMILES IDX 31 58 39 59 32 60 34 61 40 62 33 63 35 64 36 65 37 66 38 67
REMARK SMILES IDX 62 68 63 69 71 70 64 71 66 72 72 73 65 74 67 75 68 76 69 77
REMARK SMILES IDX 70 78 47 79 48 80 56 81 49 82 51 83 57 84 50 85 52 86 53 87
REMARK SMILES IDX 54 88 55 89
REMARK H PARENT 13 6 18 23 77 42 45 53
REMARK Flexibility Score: inf
ROOT
ATOM      1  C   UNL A   1      34.876  22.935  23.720  1.00  0.00     0.023 C 
ENDROOT
BRANCH   1   2
ATOM      2  C   UNL A   1      33.447  22.440  23.491  1.00  0.00     0.116 C 
BRANCH   2   3
ATOM      3  N   UNL A   1      32.624  22.540  24.684  1.00  0.00    -0.356 N 
ATOM      4  C   UNL A   1      31.396  23.114  24.855  1.00  0.00     0.224 C 
ATOM      5  O   UNL A   1      30.890  23.089  25.978  1.00  0.00    -0.275 OA
ATOM      6  H   UNL A   1      33.010  22.133  25.492  1.00  0.00     0.163 HD
BRANCH   4   7
ATOM      7  C   UNL A   1      30.642  23.705  23.676  1.00  0.00     0.135 C 
BRANCH   7   8
ATOM      8  C   UNL A   1      30.628  25.212  23.599  1.00  0.00    -0.038 A 
ATOM      9  C   UNL A   1      30.456  27.991  23.184  1.00  0.00     0.119 A 
ATOM     10  C   UNL A   1      31.677  27.325  23.050  1.00  0.00     0.047 A 
ATOM     11  C   UNL A   1      29.354  27.282  23.649  1.00  0.00     0.047 A 
ATOM     12  C   UNL A   1      31.773  25.950  23.282  1.00  0.00     0.008 A 
ATOM     13  C   UNL A   1      29.434  25.901  23.843  1.00  0.00     0.008 A 
BRANCH   9  14
ATOM     14  O   UNL A   1      30.468  29.292  22.778  1.00  0.00    -0.493 OA
BRANCH  14  15
ATOM     15  C   UNL A   1      29.730  30.278  23.498  1.00  0.00     0.232 C 
BRANCH  15  16
ATOM     16  C   UNL A   1      28.720  31.042  22.617  1.00  0.00     0.020 C 
ATOM     17  C   UNL A   1      28.033  30.162  21.571  1.00  0.00     0.011 C 
ATOM     18  C   UNL A   1      27.650  31.684  23.504  1.00  0.00     0.011 C 
ENDBRANCH  15  16
ENDBRANCH  14  15
ENDBRANCH   9  14
ENDBRANCH   7   8
ENDBRANCH   4   7
ENDBRANCH   2   3
ENDBRANCH   1   2
BRANCH   1  19
ATOM     19  C   UNL A   1      35.915  21.841  23.989  1.00  0.00     0.023 C 
BRANCH  19  20
ATOM     20  C   UNL A   1      37.054  22.230  24.926  1.00  0.00     0.116 C 
BRANCH  20  21
ATOM     21  N   UNL A   1      37.880  21.097  25.320  1.00  0.00    -0.352 N 
ATOM     22  C   UNL A   1      39.061  21.088  26.022  1.00  0.00     0.251 C 
ATOM     23  H   UNL A   1      37.544  20.213  25.045  1.00  0.00     0.163 HD
ATOM     24  O   UNL A   1      39.682  20.038  26.164  1.00  0.00    -0.269 OA
BRANCH  22  25
ATOM     25  C   UNL A   1      39.604  22.349  26.577  1.00  0.00     0.039 A 
ATOM     26  C   UNL A   1      40.630  22.283  27.525  1.00  0.00     0.014 A 
ATOM     27  C   UNL A   1      39.120  23.589  26.154  1.00  0.00     0.014 A 
ATOM     28  C   UNL A   1      41.228  23.460  27.985  1.00  0.00     0.010 A 
ATOM     29  C   UNL A   1      39.756  24.758  26.568  1.00  0.00     0.010 A 
ATOM     30  C   UNL A   1      40.825  24.705  27.477  1.00  0.00    -0.014 A 
BRANCH  30  31
ATOM     31  C   UNL A   1      41.537  25.960  27.833  1.00  0.00     0.031 A 
ATOM     32  C   UNL A   1      40.821  27.066  28.556  1.00  0.00     0.074 A 
ATOM     33  C   UNL A   1      42.799  26.149  27.396  1.00  0.00     0.049 A 
ATOM     34  N   UNL A   1      41.246  28.268  28.849  1.00  0.00    -0.248 NA
ATOM     35  C   UNL A   1      39.439  26.797  28.982  1.00  0.00     0.031 C 
ATOM     36  C   UNL A   1      43.579  25.183  26.620  1.00  0.00     0.029 A 
ATOM     37  N   UNL A   1      43.632  27.235  27.505  1.00  0.00    -0.354 N 
ATOM     38  C   UNL A   1      40.176  28.911  29.460  1.00  0.00     0.074 A 
ATOM     39  C   UNL A   1      39.074  27.973  29.476  1.00  0.00     0.031 C 
ATOM     40  C   UNL A   1      44.769  25.721  26.314  1.00  0.00     0.029 A 
ATOM     41  C   UNL A   1      44.827  27.081  26.840  1.00  0.00     0.049 A 
ATOM     42  H   UNL A   1      43.398  28.046  28.011  1.00  0.00     0.167 HD
ATOM     43  C   UNL A   1      40.123  30.159  29.984  1.00  0.00     0.034 A 
ATOM     44  C   UNL A   1      45.847  27.941  26.657  1.00  0.00     0.034 A 
ATOM     45  C   UNL A   1      41.234  31.072  30.011  1.00  0.00     0.049 A 
ATOM     46  C   UNL A   1      45.770  29.316  27.264  1.00  0.00     0.074 A 
ATOM     47  C   UNL A   1      41.311  32.313  30.621  1.00  0.00     0.029 A 
ATOM     48  N   UNL A   1      42.455  30.855  29.394  1.00  0.00    -0.354 N 
ATOM     49  N   UNL A   1      44.815  29.842  27.993  1.00  0.00    -0.248 NA
ATOM     50  C   UNL A   1      46.919  30.208  27.045  1.00  0.00     0.031 C 
ATOM     51  C   UNL A   1      42.574  32.854  30.354  1.00  0.00     0.029 A 
ATOM     52  C   UNL A   1      43.285  31.945  29.588  1.00  0.00     0.049 A 
ATOM     53  H   UNL A   1      42.696  30.044  28.891  1.00  0.00     0.167 HD
ATOM     54  C   UNL A   1      45.255  31.115  28.337  1.00  0.00     0.074 A 
ATOM     55  C   UNL A   1      46.575  31.271  27.761  1.00  0.00     0.031 C 
ATOM     56  C   UNL A   1      44.615  32.074  29.048  1.00  0.00     0.034 A 
BRANCH  43  57
ATOM     57  C   UNL A   1      38.835  30.592  30.631  1.00  0.00     0.023 A 
ATOM     58  C   UNL A   1      38.669  30.422  32.020  1.00  0.00     0.012 A 
ATOM     59  C   UNL A   1      37.819  31.221  29.885  1.00  0.00     0.148 A 
ATOM     60  C   UNL A   1      37.502  30.846  32.654  1.00  0.00     0.002 A 
ATOM     61  C   UNL A   1      36.673  31.675  30.530  1.00  0.00     0.091 A 
ATOM     62  F   UNL A   1      37.985  31.353  28.562  1.00  0.00    -0.205 F 
ATOM     63  C   UNL A   1      36.511  31.481  31.911  1.00  0.00     0.022 A 
BRANCH  61  64
ATOM     64  S   UNL A   1      35.370  32.567  29.674  1.00  0.00     0.127 S 
ATOM     65  O   UNL A   1      34.947  31.584  28.678  1.00  0.00    -0.237 OA
ATOM     66  O   UNL A   1      34.401  32.805  30.745  1.00  0.00    -0.237 OA
ATOM     67  O   UNL A   1      35.993  33.771  29.142  1.00  0.00    -0.744 OA
ENDBRANCH  61  64
ENDBRANCH  43  57
BRANCH  44  68
ATOM     68  C   UNL A   1      47.057  27.508  25.901  1.00  0.00     0.023 A 
ATOM     69  C   UNL A   1      48.037  26.737  26.556  1.00  0.00     0.012 A 
ATOM     70  C   UNL A   1      47.225  27.819  24.538  1.00  0.00     0.148 A 
ATOM     71  C   UNL A   1      49.174  26.303  25.874  1.00  0.00     0.002 A 
ATOM     72  C   UNL A   1      48.334  27.338  23.851  1.00  0.00     0.091 A 
ATOM     73  F   UNL A   1      46.291  28.569  23.938  1.00  0.00    -0.205 F 
ATOM     74  C   UNL A   1      49.317  26.594  24.521  1.00  0.00     0.022 A 
BRANCH  72  75
ATOM     75  S   UNL A   1      48.530  27.553  22.078  1.00  0.00     0.127 S 
ATOM     76  O   UNL A   1      47.281  28.216  21.716  1.00  0.00    -0.237 OA
ATOM     77  O   UNL A   1      49.723  28.401  22.005  1.00  0.00    -0.237 OA
ATOM     78  O   UNL A   1      48.719  26.212  21.542  1.00  0.00    -0.744 OA
ENDBRANCH  72  75
ENDBRANCH  44  68
BRANCH  56  79
ATOM     79  C   UNL A   1      45.325  33.388  29.248  1.00  0.00     0.023 A 
ATOM     80  C   UNL A   1      46.198  33.539  30.343  1.00  0.00     0.012 A 
ATOM     81  C   UNL A   1      45.195  34.435  28.315  1.00  0.00     0.148 A 
ATOM     82  C   UNL A   1      46.913  34.724  30.521  1.00  0.00     0.002 A 
ATOM     83  C   UNL A   1      45.944  35.595  28.474  1.00  0.00     0.091 A 
ATOM     84  F   UNL A   1      44.345  34.276  27.290  1.00  0.00    -0.205 F 
ATOM     85  C   UNL A   1      46.795  35.745  29.581  1.00  0.00     0.022 A 
BRANCH  83  86
ATOM     86  S   UNL A   1      45.925  36.930  27.271  1.00  0.00     0.127 S 
ATOM     87  O   UNL A   1      44.513  37.308  27.267  1.00  0.00    -0.237 OA
ATOM     88  O   UNL A   1      46.819  37.913  27.886  1.00  0.00    -0.237 OA
ATOM     89  O   UNL A   1      46.422  36.357  26.028  1.00  0.00    -0.744 OA
ENDBRANCH  83  86
ENDBRANCH  56  79
ENDBRANCH  30  31
ENDBRANCH  22  25
ENDBRANCH  20  21
ENDBRANCH  19  20
ENDBRANCH   1  19
TORSDOF 18
ENDMDL
