MODEL 1
REMARK VINA RESULT:      -9.7      0.000      0.000
REMARK SMILES CCCN(CC(=O)OC)C(=O)N1CC[C@H](C(=O)NCCCCNC(=O)c2ccc(-c3c4nc(c(-c5cccc(S(=O)(=O)[O-])c5F)c5ccc([nH]5)c(-c5cccc(S(=O)(=O)[O-])c5F)c5nc(c(-c6cccc(S(=O)(=O)[O-])c6F)c6ccc3[nH]6)C=C5)C=C4)cc2)[C@H]1C
REMARK SMILES IDX 19 1 18 2 16 3 17 4 15 6 12 7 13 8 89 9 14 10 90 11 10 12
REMARK SMILES IDX 11 13 4 14 3 15 2 16 1 17 5 18 6 19 7 20 8 21 9 22 20 23
REMARK SMILES IDX 21 24 22 25 23 26 24 27 25 29 26 30 27 31 88 32 28 33 87 34
REMARK SMILES IDX 29 35 30 36 31 37 81 38 32 39 86 40 80 41 82 42 33 43 85 44
REMARK SMILES IDX 79 45 78 46 34 48 66 49 46 50 65 51 47 52 50 53 64 54 83 55
REMARK SMILES IDX 48 56 49 57 63 59 84 60 51 61 35 62 36 63 44 64 37 65 39 66
REMARK SMILES IDX 45 67 38 68 40 69 41 70 42 71 43 72 67 73 68 74 76 75 69 76
REMARK SMILES IDX 71 77 77 78 70 79 72 80 73 81 74 82 75 83 52 84 53 85 61 86
REMARK SMILES IDX 54 87 56 88 62 89 55 90 57 91 58 92 59 93 60 94
REMARK H PARENT 18 5 23 28 82 47 50 58
REMARK Flexibility Score: inf
ROOT
ATOM      1  C   UNL A   1      37.272  34.665  29.538  1.00  0.00     0.116 C 
ENDROOT
BRANCH   1   2
ATOM      2  N   UNL A   1      38.277  34.540  30.572  1.00  0.00    -0.356 N 
ATOM      3  C   UNL A   1      38.291  33.946  31.784  1.00  0.00     0.225 C 
ATOM      4  O   UNL A   1      39.378  33.979  32.379  1.00  0.00    -0.275 OA
ATOM      5  H   UNL A   1      39.127  34.981  30.343  1.00  0.00     0.163 HD
BRANCH   3   6
ATOM      6  C   UNL A   1      37.100  33.326  32.511  1.00  0.00     0.102 C 
ATOM      7  N   UNL A   1      35.140  34.611  32.963  1.00  0.00    -0.321 N 
ATOM      8  C   UNL A   1      36.000  34.701  34.142  1.00  0.00     0.122 C 
ATOM      9  C   UNL A   1      35.653  33.569  32.048  1.00  0.00     0.096 C 
ATOM     10  C   UNL A   1      37.077  33.647  34.001  1.00  0.00     0.037 C 
ATOM     11  C   UNL A   1      34.890  32.241  32.186  1.00  0.00     0.032 C 
BRANCH   7  12
ATOM     12  C   UNL A   1      34.365  35.729  32.725  1.00  0.00     0.320 C 
ATOM     13  O   UNL A   1      34.481  36.696  33.483  1.00  0.00    -0.248 OA
BRANCH  12  14
ATOM     14  N   UNL A   1      33.522  35.825  31.647  1.00  0.00    -0.314 N 
BRANCH  14  15
ATOM     15  C   UNL A   1      34.073  35.529  30.314  1.00  0.00     0.122 C 
BRANCH  15  16
ATOM     16  C   UNL A   1      33.207  36.014  29.138  1.00  0.00     0.018 C 
ATOM     17  C   UNL A   1      33.870  37.097  28.290  1.00  0.00     0.006 C 
ENDBRANCH  15  16
ENDBRANCH  14  15
BRANCH  14  18
ATOM     18  C   UNL A   1      32.179  36.398  31.662  1.00  0.00     0.243 C 
BRANCH  18  19
ATOM     19  C   UNL A   1      31.263  35.980  32.812  1.00  0.00     0.325 C 
ATOM     20  O   UNL A   1      30.938  34.813  33.009  1.00  0.00    -0.250 OA
BRANCH  19  21
ATOM     21  O   UNL A   1      30.880  37.037  33.579  1.00  0.00    -0.468 OA
ATOM     22  C   UNL A   1      29.523  37.057  34.035  1.00  0.00     0.282 C 
ENDBRANCH  19  21
ENDBRANCH  18  19
ENDBRANCH  14  18
ENDBRANCH  12  14
ENDBRANCH   7  12
ENDBRANCH   3   6
ENDBRANCH   1   2
BRANCH   1  23
ATOM     23  C   UNL A   1      37.104  33.380  28.731  1.00  0.00     0.023 C 
BRANCH  23  24
ATOM     24  C   UNL A   1      35.838  33.312  27.876  1.00  0.00     0.023 C 
BRANCH  24  25
ATOM     25  C   UNL A   1      34.630  32.648  28.531  1.00  0.00     0.116 C 
BRANCH  25  26
ATOM     26  N   UNL A   1      34.068  31.531  27.780  1.00  0.00    -0.352 N 
ATOM     27  C   UNL A   1      34.637  30.301  27.543  1.00  0.00     0.251 C 
ATOM     28  H   UNL A   1      33.174  31.675  27.396  1.00  0.00     0.163 HD
ATOM     29  O   UNL A   1      34.052  29.465  26.858  1.00  0.00    -0.269 OA
BRANCH  27  30
ATOM     30  C   UNL A   1      35.986  30.015  28.081  1.00  0.00     0.039 A 
ATOM     31  C   UNL A   1      36.113  29.620  29.416  1.00  0.00     0.014 A 
ATOM     32  C   UNL A   1      37.110  30.068  27.253  1.00  0.00     0.014 A 
ATOM     33  C   UNL A   1      37.358  29.206  29.898  1.00  0.00     0.010 A 
ATOM     34  C   UNL A   1      38.328  29.580  27.712  1.00  0.00     0.010 A 
ATOM     35  C   UNL A   1      38.468  29.146  29.039  1.00  0.00    -0.014 A 
BRANCH  35  36
ATOM     36  C   UNL A   1      39.783  28.630  29.503  1.00  0.00     0.031 A 
ATOM     37  C   UNL A   1      40.517  29.326  30.617  1.00  0.00     0.074 A 
ATOM     38  C   UNL A   1      40.366  27.602  28.853  1.00  0.00     0.049 A 
ATOM     39  N   UNL A   1      41.699  29.069  31.113  1.00  0.00    -0.248 NA
ATOM     40  C   UNL A   1      39.852  30.489  31.229  1.00  0.00     0.031 C 
ATOM     41  C   UNL A   1      39.809  26.909  27.689  1.00  0.00     0.029 A 
ATOM     42  N   UNL A   1      41.570  26.978  29.063  1.00  0.00    -0.354 N 
ATOM     43  C   UNL A   1      41.939  30.061  32.057  1.00  0.00     0.074 A 
ATOM     44  C   UNL A   1      40.796  30.948  32.038  1.00  0.00     0.031 C 
ATOM     45  C   UNL A   1      40.665  25.951  27.295  1.00  0.00     0.029 A 
ATOM     46  C   UNL A   1      41.836  25.969  28.166  1.00  0.00     0.049 A 
ATOM     47  H   UNL A   1      42.186  27.228  29.789  1.00  0.00     0.167 HD
ATOM     48  C   UNL A   1      42.995  30.204  32.892  1.00  0.00     0.034 A 
ATOM     49  C   UNL A   1      42.898  25.146  28.064  1.00  0.00     0.034 A 
ATOM     50  C   UNL A   1      44.090  29.277  32.966  1.00  0.00     0.049 A 
ATOM     51  C   UNL A   1      44.004  25.254  29.079  1.00  0.00     0.074 A 
ATOM     52  C   UNL A   1      45.157  29.272  33.847  1.00  0.00     0.029 A 
ATOM     53  N   UNL A   1      44.253  28.180  32.134  1.00  0.00    -0.354 N 
ATOM     54  N   UNL A   1      44.129  26.094  30.077  1.00  0.00    -0.248 NA
ATOM     55  C   UNL A   1      45.092  24.268  28.985  1.00  0.00     0.031 C 
ATOM     56  C   UNL A   1      45.963  28.167  33.549  1.00  0.00     0.029 A 
ATOM     57  C   UNL A   1      45.395  27.484  32.486  1.00  0.00     0.049 A 
ATOM     58  H   UNL A   1      43.645  27.933  31.400  1.00  0.00     0.167 HD
ATOM     59  C   UNL A   1      45.285  25.717  30.752  1.00  0.00     0.074 A 
ATOM     60  C   UNL A   1      45.813  24.559  30.060  1.00  0.00     0.031 C 
ATOM     61  C   UNL A   1      45.867  26.290  31.834  1.00  0.00     0.034 A 
BRANCH  48  62
ATOM     62  C   UNL A   1      42.971  31.362  33.853  1.00  0.00     0.023 A 
ATOM     63  C   UNL A   1      43.528  32.596  33.459  1.00  0.00     0.012 A 
ATOM     64  C   UNL A   1      42.366  31.251  35.120  1.00  0.00     0.148 A 
ATOM     65  C   UNL A   1      43.519  33.689  34.324  1.00  0.00     0.002 A 
ATOM     66  C   UNL A   1      42.324  32.358  35.961  1.00  0.00     0.091 A 
ATOM     67  F   UNL A   1      41.862  30.063  35.488  1.00  0.00    -0.205 F 
ATOM     68  C   UNL A   1      42.910  33.573  35.569  1.00  0.00     0.022 A 
BRANCH  66  69
ATOM     69  S   UNL A   1      41.496  32.327  37.555  1.00  0.00     0.127 S 
ATOM     70  O   UNL A   1      42.310  31.362  38.292  1.00  0.00    -0.237 OA
ATOM     71  O   UNL A   1      41.637  33.713  38.005  1.00  0.00    -0.237 OA
ATOM     72  O   UNL A   1      40.126  31.917  37.283  1.00  0.00    -0.744 OA
ENDBRANCH  66  69
ENDBRANCH  48  62
BRANCH  49  73
ATOM     73  C   UNL A   1      42.910  24.073  27.030  1.00  0.00     0.023 A 
ATOM     74  C   UNL A   1      43.603  24.295  25.823  1.00  0.00     0.012 A 
ATOM     75  C   UNL A   1      42.277  22.834  27.239  1.00  0.00     0.148 A 
ATOM     76  C   UNL A   1      43.639  23.315  24.831  1.00  0.00     0.002 A 
ATOM     77  C   UNL A   1      42.358  21.843  26.265  1.00  0.00     0.091 A 
ATOM     78  F   UNL A   1      41.611  22.645  28.387  1.00  0.00    -0.205 F 
ATOM     79  C   UNL A   1      43.025  22.086  25.055  1.00  0.00     0.022 A 
BRANCH  77  80
ATOM     80  S   UNL A   1      41.705  20.189  26.527  1.00  0.00     0.127 S 
ATOM     81  O   UNL A   1      40.265  20.427  26.494  1.00  0.00    -0.237 OA
ATOM     82  O   UNL A   1      42.235  19.463  25.373  1.00  0.00    -0.237 OA
ATOM     83  O   UNL A   1      42.251  19.756  27.806  1.00  0.00    -0.744 OA
ENDBRANCH  77  80
ENDBRANCH  49  73
BRANCH  61  84
ATOM     84  C   UNL A   1      47.122  25.656  32.370  1.00  0.00     0.023 A 
ATOM     85  C   UNL A   1      48.367  25.981  31.796  1.00  0.00     0.012 A 
ATOM     86  C   UNL A   1      47.078  24.806  33.492  1.00  0.00     0.148 A 
ATOM     87  C   UNL A   1      49.546  25.447  32.314  1.00  0.00     0.002 A 
ATOM     88  C   UNL A   1      48.262  24.311  34.028  1.00  0.00     0.091 A 
ATOM     89  F   UNL A   1      45.882  24.488  34.010  1.00  0.00    -0.205 F 
ATOM     90  C   UNL A   1      49.495  24.623  33.435  1.00  0.00     0.022 A 
BRANCH  88  91
ATOM     91  S   UNL A   1      48.281  23.321  35.527  1.00  0.00     0.127 S 
ATOM     92  O   UNL A   1      47.563  22.120  35.103  1.00  0.00    -0.237 OA
ATOM     93  O   UNL A   1      49.713  23.125  35.759  1.00  0.00    -0.237 OA
ATOM     94  O   UNL A   1      47.617  24.131  36.541  1.00  0.00    -0.744 OA
ENDBRANCH  88  91
ENDBRANCH  61  84
ENDBRANCH  35  36
ENDBRANCH  27  30
ENDBRANCH  25  26
ENDBRANCH  24  25
ENDBRANCH  23  24
ENDBRANCH   1  23
TORSDOF 21
ENDMDL
MODEL 2
REMARK VINA RESULT:      -9.6      5.586     10.962
REMARK SMILES CCCN(CC(=O)OC)C(=O)N1CC[C@H](C(=O)NCCCCNC(=O)c2ccc(-c3c4nc(c(-c5cccc(S(=O)(=O)[O-])c5F)c5ccc([nH]5)c(-c5cccc(S(=O)(=O)[O-])c5F)c5nc(c(-c6cccc(S(=O)(=O)[O-])c6F)c6ccc3[nH]6)C=C5)C=C4)cc2)[C@H]1C
REMARK SMILES IDX 19 1 18 2 16 3 17 4 15 6 12 7 13 8 89 9 14 10 90 11 10 12
REMARK SMILES IDX 11 13 4 14 3 15 2 16 1 17 5 18 6 19 7 20 8 21 9 22 20 23
REMARK SMILES IDX 21 24 22 25 23 26 24 27 25 29 26 30 27 31 88 32 28 33 87 34
REMARK SMILES IDX 29 35 30 36 31 37 81 38 32 39 86 40 80 41 82 42 33 43 85 44
REMARK SMILES IDX 79 45 78 46 34 48 66 49 46 50 65 51 47 52 50 53 64 54 83 55
REMARK SMILES IDX 48 56 49 57 63 59 84 60 51 61 35 62 36 63 44 64 37 65 39 66
REMARK SMILES IDX 45 67 38 68 40 69 41 70 42 71 43 72 67 73 68 74 76 75 69 76
REMARK SMILES IDX 71 77 77 78 70 79 72 80 73 81 74 82 75 83 52 84 53 85 61 86
REMARK SMILES IDX 54 87 56 88 62 89 55 90 57 91 58 92 59 93 60 94
REMARK H PARENT 18 5 23 28 82 47 50 58
REMARK Flexibility Score: inf
ROOT
ATOM      1  C   UNL A   1      38.016  23.617  26.017  1.00  0.00     0.116 C 
ENDROOT
BRANCH   1   2
ATOM      2  N   UNL A   1      37.699  23.302  24.641  1.00  0.00    -0.356 N 
ATOM      3  C   UNL A   1      36.538  23.156  23.967  1.00  0.00     0.225 C 
ATOM      4  O   UNL A   1      36.653  22.953  22.749  1.00  0.00    -0.275 OA
ATOM      5  H   UNL A   1      38.496  23.165  24.079  1.00  0.00     0.163 HD
BRANCH   3   6
ATOM      6  C   UNL A   1      35.132  23.134  24.563  1.00  0.00     0.102 C 
ATOM      7  N   UNL A   1      33.513  24.773  23.937  1.00  0.00    -0.321 N 
ATOM      8  C   UNL A   1      34.177  25.257  25.146  1.00  0.00     0.122 C 
ATOM      9  C   UNL A   1      33.882  23.361  23.695  1.00  0.00     0.096 C 
ATOM     10  C   UNL A   1      34.962  24.101  25.728  1.00  0.00     0.037 C 
ATOM     11  C   UNL A   1      32.797  22.382  24.175  1.00  0.00     0.032 C 
BRANCH   7  12
ATOM     12  C   UNL A   1      33.090  25.763  23.072  1.00  0.00     0.320 C 
ATOM     13  O   UNL A   1      33.729  25.945  22.031  1.00  0.00    -0.248 OA
BRANCH  12  14
ATOM     14  N   UNL A   1      31.959  26.503  23.297  1.00  0.00    -0.314 N 
BRANCH  14  15
ATOM     15  C   UNL A   1      30.665  25.800  23.303  1.00  0.00     0.122 C 
BRANCH  15  16
ATOM     16  C   UNL A   1      29.855  25.953  24.602  1.00  0.00     0.018 C 
ATOM     17  C   UNL A   1      30.364  25.087  25.751  1.00  0.00     0.006 C 
ENDBRANCH  15  16
ENDBRANCH  14  15
BRANCH  14  18
ATOM     18  C   UNL A   1      31.883  27.962  23.323  1.00  0.00     0.243 C 
BRANCH  18  19
ATOM     19  C   UNL A   1      32.506  28.663  24.530  1.00  0.00     0.325 C 
ATOM     20  O   UNL A   1      33.241  29.640  24.421  1.00  0.00    -0.250 OA
BRANCH  19  21
ATOM     21  O   UNL A   1      32.138  28.092  25.708  1.00  0.00    -0.468 OA
ATOM     22  C   UNL A   1      32.036  28.951  26.849  1.00  0.00     0.282 C 
ENDBRANCH  19  21
ENDBRANCH  18  19
ENDBRANCH  14  18
ENDBRANCH  12  14
ENDBRANCH   7  12
ENDBRANCH   3   6
ENDBRANCH   1   2
BRANCH   1  23
ATOM     23  C   UNL A   1      39.275  22.904  26.503  1.00  0.00     0.023 C 
BRANCH  23  24
ATOM     24  C   UNL A   1      39.418  21.453  26.044  1.00  0.00     0.023 C 
BRANCH  24  25
ATOM     25  C   UNL A   1      40.353  20.581  26.879  1.00  0.00     0.116 C 
BRANCH  25  26
ATOM     26  N   UNL A   1      41.393  19.902  26.117  1.00  0.00    -0.352 N 
ATOM     27  C   UNL A   1      42.627  20.390  25.750  1.00  0.00     0.251 C 
ATOM     28  H   UNL A   1      41.189  18.984  25.829  1.00  0.00     0.163 HD
ATOM     29  O   UNL A   1      43.391  19.705  25.073  1.00  0.00    -0.269 OA
BRANCH  27  30
ATOM     30  C   UNL A   1      43.002  21.768  26.139  1.00  0.00     0.039 A 
ATOM     31  C   UNL A   1      42.919  22.786  25.185  1.00  0.00     0.014 A 
ATOM     32  C   UNL A   1      43.364  22.063  27.455  1.00  0.00     0.014 A 
ATOM     33  C   UNL A   1      43.127  24.113  25.572  1.00  0.00     0.010 A 
ATOM     34  C   UNL A   1      43.491  23.390  27.854  1.00  0.00     0.010 A 
ATOM     35  C   UNL A   1      43.377  24.429  26.918  1.00  0.00    -0.014 A 
BRANCH  35  36
ATOM     36  C   UNL A   1      43.518  25.837  27.373  1.00  0.00     0.031 A 
ATOM     37  C   UNL A   1      44.874  26.490  27.398  1.00  0.00     0.074 A 
ATOM     38  C   UNL A   1      42.447  26.493  27.864  1.00  0.00     0.049 A 
ATOM     39  N   UNL A   1      45.208  27.681  27.822  1.00  0.00    -0.248 NA
ATOM     40  C   UNL A   1      46.010  25.686  26.918  1.00  0.00     0.031 C 
ATOM     41  C   UNL A   1      41.098  25.937  27.996  1.00  0.00     0.029 A 
ATOM     42  N   UNL A   1      42.329  27.765  28.369  1.00  0.00    -0.354 N 
ATOM     43  C   UNL A   1      46.592  27.750  27.707  1.00  0.00     0.074 A 
ATOM     44  C   UNL A   1      47.039  26.469  27.207  1.00  0.00     0.031 C 
ATOM     45  C   UNL A   1      40.290  26.864  28.535  1.00  0.00     0.029 A 
ATOM     46  C   UNL A   1      41.060  28.074  28.802  1.00  0.00     0.049 A 
ATOM     47  H   UNL A   1      43.083  28.396  28.416  1.00  0.00     0.167 HD
ATOM     48  C   UNL A   1      47.414  28.796  27.956  1.00  0.00     0.034 A 
ATOM     49  C   UNL A   1      40.574  29.208  29.343  1.00  0.00     0.034 A 
ATOM     50  C   UNL A   1      46.960  30.093  28.374  1.00  0.00     0.049 A 
ATOM     51  C   UNL A   1      41.488  30.393  29.501  1.00  0.00     0.074 A 
ATOM     52  C   UNL A   1      47.699  31.249  28.554  1.00  0.00     0.029 A 
ATOM     53  N   UNL A   1      45.643  30.411  28.666  1.00  0.00    -0.354 N 
ATOM     54  N   UNL A   1      42.765  30.492  29.222  1.00  0.00    -0.248 NA
ATOM     55  C   UNL A   1      40.885  31.637  30.002  1.00  0.00     0.031 C 
ATOM     56  C   UNL A   1      46.826  32.268  28.951  1.00  0.00     0.029 A 
ATOM     57  C   UNL A   1      45.544  31.746  29.014  1.00  0.00     0.049 A 
ATOM     58  H   UNL A   1      44.889  29.779  28.631  1.00  0.00     0.167 HD
ATOM     59  C   UNL A   1      43.110  31.815  29.475  1.00  0.00     0.074 A 
ATOM     60  C   UNL A   1      41.902  32.485  29.912  1.00  0.00     0.031 C 
ATOM     61  C   UNL A   1      44.321  32.416  29.374  1.00  0.00     0.034 A 
BRANCH  48  62
ATOM     62  C   UNL A   1      48.885  28.601  27.699  1.00  0.00     0.023 A 
ATOM     63  C   UNL A   1      49.415  28.945  26.438  1.00  0.00     0.012 A 
ATOM     64  C   UNL A   1      49.747  28.121  28.703  1.00  0.00     0.148 A 
ATOM     65  C   UNL A   1      50.772  28.779  26.168  1.00  0.00     0.002 A 
ATOM     66  C   UNL A   1      51.108  27.997  28.439  1.00  0.00     0.091 A 
ATOM     67  F   UNL A   1      49.223  27.775  29.888  1.00  0.00    -0.205 F 
ATOM     68  C   UNL A   1      51.619  28.315  27.170  1.00  0.00     0.022 A 
BRANCH  66  69
ATOM     69  S   UNL A   1      52.289  27.479  29.690  1.00  0.00     0.127 S 
ATOM     70  O   UNL A   1      53.023  26.429  28.985  1.00  0.00    -0.237 OA
ATOM     71  O   UNL A   1      53.054  28.706  29.922  1.00  0.00    -0.237 OA
ATOM     72  O   UNL A   1      51.495  27.038  30.828  1.00  0.00    -0.744 OA
ENDBRANCH  66  69
ENDBRANCH  48  62
BRANCH  49  73
ATOM     73  C   UNL A   1      39.123  29.313  29.667  1.00  0.00     0.023 A 
ATOM     74  C   UNL A   1      38.685  28.975  30.962  1.00  0.00     0.012 A 
ATOM     75  C   UNL A   1      38.184  29.772  28.724  1.00  0.00     0.148 A 
ATOM     76  C   UNL A   1      37.335  29.061  31.304  1.00  0.00     0.002 A 
ATOM     77  C   UNL A   1      36.846  29.903  29.087  1.00  0.00     0.091 A 
ATOM     78  F   UNL A   1      38.615  30.077  27.492  1.00  0.00    -0.205 F 
ATOM     79  C   UNL A   1      36.418  29.534  30.371  1.00  0.00     0.022 A 
BRANCH  77  80
ATOM     80  S   UNL A   1      35.622  30.624  27.986  1.00  0.00     0.127 S 
ATOM     81  O   UNL A   1      34.460  30.734  28.863  1.00  0.00    -0.237 OA
ATOM     82  O   UNL A   1      36.245  31.898  27.626  1.00  0.00    -0.237 OA
ATOM     83  O   UNL A   1      35.499  29.686  26.878  1.00  0.00    -0.744 OA
ENDBRANCH  77  80
ENDBRANCH  49  73
BRANCH  61  84
ATOM     84  C   UNL A   1      44.403  33.882  29.703  1.00  0.00     0.023 A 
ATOM     85  C   UNL A   1      44.746  34.285  31.009  1.00  0.00     0.012 A 
ATOM     86  C   UNL A   1      44.223  34.856  28.702  1.00  0.00     0.148 A 
ATOM     87  C   UNL A   1      44.882  35.638  31.319  1.00  0.00     0.002 A 
ATOM     88  C   UNL A   1      44.401  36.201  29.010  1.00  0.00     0.091 A 
ATOM     89  F   UNL A   1      43.873  34.456  27.471  1.00  0.00    -0.205 F 
ATOM     90  C   UNL A   1      44.722  36.594  30.319  1.00  0.00     0.022 A 
BRANCH  88  91
ATOM     91  S   UNL A   1      44.304  37.481  27.753  1.00  0.00     0.127 S 
ATOM     92  O   UNL A   1      44.478  38.695  28.548  1.00  0.00    -0.237 OA
ATOM     93  O   UNL A   1      45.435  37.157  26.882  1.00  0.00    -0.237 OA
ATOM     94  O   UNL A   1      43.000  37.316  27.125  1.00  0.00    -0.744 OA
ENDBRANCH  88  91
ENDBRANCH  61  84
ENDBRANCH  35  36
ENDBRANCH  27  30
ENDBRANCH  25  26
ENDBRANCH  24  25
ENDBRANCH  23  24
ENDBRANCH   1  23
TORSDOF 21
ENDMDL
MODEL 3
REMARK VINA RESULT:      -9.2      6.194     11.807
REMARK SMILES CCCN(CC(=O)OC)C(=O)N1CC[C@H](C(=O)NCCCCNC(=O)c2ccc(-c3c4nc(c(-c5cccc(S(=O)(=O)[O-])c5F)c5ccc([nH]5)c(-c5cccc(S(=O)(=O)[O-])c5F)c5nc(c(-c6cccc(S(=O)(=O)[O-])c6F)c6ccc3[nH]6)C=C5)C=C4)cc2)[C@H]1C
REMARK SMILES IDX 19 1 18 2 16 3 17 4 15 6 12 7 13 8 89 9 14 10 90 11 10 12
REMARK SMILES IDX 11 13 4 14 3 15 2 16 1 17 5 18 6 19 7 20 8 21 9 22 20 23
REMARK SMILES IDX 21 24 22 25 23 26 24 27 25 29 26 30 27 31 88 32 28 33 87 34
REMARK SMILES IDX 29 35 30 36 31 37 81 38 32 39 86 40 80 41 82 42 33 43 85 44
REMARK SMILES IDX 79 45 78 46 34 48 66 49 46 50 65 51 47 52 50 53 64 54 83 55
REMARK SMILES IDX 48 56 49 57 63 59 84 60 51 61 35 62 36 63 44 64 37 65 39 66
REMARK SMILES IDX 45 67 38 68 40 69 41 70 42 71 43 72 67 73 68 74 76 75 69 76
REMARK SMILES IDX 71 77 77 78 70 79 72 80 73 81 74 82 75 83 52 84 53 85 61 86
REMARK SMILES IDX 54 87 56 88 62 89 55 90 57 91 58 92 59 93 60 94
REMARK H PARENT 18 5 23 28 82 47 50 58
REMARK Flexibility Score: inf
ROOT
ATOM      1  C   UNL A   1      38.883  22.348  26.397  1.00  0.00     0.116 C 
ENDROOT
BRANCH   1   2
ATOM      2  N   UNL A   1      38.348  22.660  25.089  1.00  0.00    -0.356 N 
ATOM      3  C   UNL A   1      37.095  22.748  24.596  1.00  0.00     0.225 C 
ATOM      4  O   UNL A   1      37.012  23.120  23.417  1.00  0.00    -0.275 OA
ATOM      5  H   UNL A   1      39.045  22.849  24.419  1.00  0.00     0.163 HD
BRANCH   3   6
ATOM      6  C   UNL A   1      35.803  22.357  25.311  1.00  0.00     0.102 C 
ATOM      7  N   UNL A   1      33.676  22.957  24.408  1.00  0.00    -0.321 N 
ATOM      8  C   UNL A   1      34.057  24.003  25.356  1.00  0.00     0.122 C 
ATOM      9  C   UNL A   1      34.589  21.803  24.544  1.00  0.00     0.096 C 
ATOM     10  C   UNL A   1      35.227  23.482  26.162  1.00  0.00     0.037 C 
ATOM     11  C   UNL A   1      33.980  20.671  25.390  1.00  0.00     0.032 C 
BRANCH   7  12
ATOM     12  C   UNL A   1      32.911  23.391  23.343  1.00  0.00     0.320 C 
ATOM     13  O   UNL A   1      33.048  22.827  22.254  1.00  0.00    -0.248 OA
BRANCH  12  14
ATOM     14  N   UNL A   1      31.969  24.379  23.468  1.00  0.00    -0.314 N 
BRANCH  14  15
ATOM     15  C   UNL A   1      30.821  24.127  24.355  1.00  0.00     0.122 C 
BRANCH  15  16
ATOM     16  C   UNL A   1      30.014  25.381  24.734  1.00  0.00     0.018 C 
ATOM     17  C   UNL A   1      29.723  25.499  26.229  1.00  0.00     0.006 C 
ENDBRANCH  15  16
ENDBRANCH  14  15
BRANCH  14  18
ATOM     18  C   UNL A   1      31.875  25.580  22.642  1.00  0.00     0.243 C 
BRANCH  18  19
ATOM     19  C   UNL A   1      33.193  26.232  22.222  1.00  0.00     0.325 C 
ATOM     20  O   UNL A   1      33.689  26.067  21.112  1.00  0.00    -0.250 OA
BRANCH  19  21
ATOM     21  O   UNL A   1      33.720  27.012  23.204  1.00  0.00    -0.468 OA
ATOM     22  C   UNL A   1      32.802  27.723  24.041  1.00  0.00     0.282 C 
ENDBRANCH  19  21
ENDBRANCH  18  19
ENDBRANCH  14  18
ENDBRANCH  12  14
ENDBRANCH   7  12
ENDBRANCH   3   6
ENDBRANCH   1   2
BRANCH   1  23
ATOM     23  C   UNL A   1      40.341  21.902  26.339  1.00  0.00     0.023 C 
BRANCH  23  24
ATOM     24  C   UNL A   1      40.555  20.390  26.255  1.00  0.00     0.023 C 
BRANCH  24  25
ATOM     25  C   UNL A   1      41.952  19.896  26.623  1.00  0.00     0.116 C 
BRANCH  25  26
ATOM     26  N   UNL A   1      42.730  19.382  25.504  1.00  0.00    -0.352 N 
ATOM     27  C   UNL A   1      43.756  20.004  24.830  1.00  0.00     0.251 C 
ATOM     28  H   UNL A   1      42.492  18.480  25.191  1.00  0.00     0.163 HD
ATOM     29  O   UNL A   1      44.299  19.453  23.876  1.00  0.00    -0.269 OA
BRANCH  27  30
ATOM     30  C   UNL A   1      44.162  21.367  25.238  1.00  0.00     0.039 A 
ATOM     31  C   UNL A   1      44.013  22.419  24.329  1.00  0.00     0.014 A 
ATOM     32  C   UNL A   1      44.622  21.616  26.533  1.00  0.00     0.014 A 
ATOM     33  C   UNL A   1      44.253  23.731  24.747  1.00  0.00     0.010 A 
ATOM     34  C   UNL A   1      44.782  22.928  26.968  1.00  0.00     0.010 A 
ATOM     35  C   UNL A   1      44.602  24.000  26.080  1.00  0.00    -0.014 A 
BRANCH  35  36
ATOM     36  C   UNL A   1      44.781  25.391  26.573  1.00  0.00     0.031 A 
ATOM     37  C   UNL A   1      46.144  26.027  26.558  1.00  0.00     0.074 A 
ATOM     38  C   UNL A   1      43.740  26.043  27.130  1.00  0.00     0.049 A 
ATOM     39  N   UNL A   1      46.512  27.200  27.005  1.00  0.00    -0.248 NA
ATOM     40  C   UNL A   1      47.249  25.226  26.004  1.00  0.00     0.031 C 
ATOM     41  C   UNL A   1      42.392  25.498  27.304  1.00  0.00     0.029 A 
ATOM     42  N   UNL A   1      43.661  27.299  27.679  1.00  0.00    -0.354 N 
ATOM     43  C   UNL A   1      47.890  27.257  26.832  1.00  0.00     0.074 A 
ATOM     44  C   UNL A   1      48.299  25.987  26.272  1.00  0.00     0.031 C 
ATOM     45  C   UNL A   1      41.620  26.417  27.907  1.00  0.00     0.029 A 
ATOM     46  C   UNL A   1      42.416  27.608  28.178  1.00  0.00     0.049 A 
ATOM     47  H   UNL A   1      44.424  27.920  27.713  1.00  0.00     0.167 HD
ATOM     48  C   UNL A   1      48.736  28.285  27.078  1.00  0.00     0.034 A 
ATOM     49  C   UNL A   1      41.968  28.730  28.774  1.00  0.00     0.034 A 
ATOM     50  C   UNL A   1      48.317  29.573  27.556  1.00  0.00     0.049 A 
ATOM     51  C   UNL A   1      42.904  29.899  28.930  1.00  0.00     0.074 A 
ATOM     52  C   UNL A   1      49.078  30.715  27.739  1.00  0.00     0.029 A 
ATOM     53  N   UNL A   1      47.018  29.897  27.915  1.00  0.00    -0.354 N 
ATOM     54  N   UNL A   1      44.168  29.993  28.598  1.00  0.00    -0.248 NA
ATOM     55  C   UNL A   1      42.339  31.133  29.496  1.00  0.00     0.031 C 
ATOM     56  C   UNL A   1      48.236  31.730  28.205  1.00  0.00     0.029 A 
ATOM     57  C   UNL A   1      46.951  31.221  28.308  1.00  0.00     0.049 A 
ATOM     58  H   UNL A   1      46.255  29.275  27.893  1.00  0.00     0.167 HD
ATOM     59  C   UNL A   1      44.541  31.303  28.877  1.00  0.00     0.074 A 
ATOM     60  C   UNL A   1      43.362  31.972  29.388  1.00  0.00     0.031 C 
ATOM     61  C   UNL A   1      45.754  31.893  28.743  1.00  0.00     0.034 A 
BRANCH  48  62
ATOM     62  C   UNL A   1      50.192  28.081  26.750  1.00  0.00     0.023 A 
ATOM     63  C   UNL A   1      51.094  27.768  27.787  1.00  0.00     0.012 A 
ATOM     64  C   UNL A   1      50.662  28.157  25.425  1.00  0.00     0.148 A 
ATOM     65  C   UNL A   1      52.447  27.571  27.517  1.00  0.00     0.002 A 
ATOM     66  C   UNL A   1      52.006  27.918  25.157  1.00  0.00     0.091 A 
ATOM     67  F   UNL A   1      49.795  28.481  24.453  1.00  0.00    -0.205 F 
ATOM     68  C   UNL A   1      52.901  27.636  26.203  1.00  0.00     0.022 A 
BRANCH  66  69
ATOM     69  S   UNL A   1      52.670  27.907  23.488  1.00  0.00     0.127 S 
ATOM     70  O   UNL A   1      52.548  29.314  23.112  1.00  0.00    -0.237 OA
ATOM     71  O   UNL A   1      54.045  27.451  23.704  1.00  0.00    -0.237 OA
ATOM     72  O   UNL A   1      51.838  26.979  22.735  1.00  0.00    -0.744 OA
ENDBRANCH  66  69
ENDBRANCH  48  62
BRANCH  49  73
ATOM     73  C   UNL A   1      40.534  28.841  29.165  1.00  0.00     0.023 A 
ATOM     74  C   UNL A   1      39.561  28.995  28.158  1.00  0.00     0.012 A 
ATOM     75  C   UNL A   1      40.123  28.764  30.509  1.00  0.00     0.148 A 
ATOM     76  C   UNL A   1      38.209  29.102  28.483  1.00  0.00     0.002 A 
ATOM     77  C   UNL A   1      38.768  28.822  30.822  1.00  0.00     0.091 A 
ATOM     78  F   UNL A   1      41.063  28.631  31.455  1.00  0.00    -0.205 F 
ATOM     79  C   UNL A   1      37.811  29.005  29.813  1.00  0.00     0.022 A 
BRANCH  77  80
ATOM     80  S   UNL A   1      38.163  28.577  32.496  1.00  0.00     0.127 S 
ATOM     81  O   UNL A   1      36.785  29.051  32.388  1.00  0.00    -0.237 OA
ATOM     82  O   UNL A   1      38.304  27.131  32.667  1.00  0.00    -0.237 OA
ATOM     83  O   UNL A   1      39.044  29.367  33.345  1.00  0.00    -0.744 OA
ENDBRANCH  77  80
ENDBRANCH  49  73
BRANCH  61  84
ATOM     84  C   UNL A   1      45.869  33.347  29.113  1.00  0.00     0.023 A 
ATOM     85  C   UNL A   1      46.344  33.704  30.390  1.00  0.00     0.012 A 
ATOM     86  C   UNL A   1      45.587  34.355  28.172  1.00  0.00     0.148 A 
ATOM     87  C   UNL A   1      46.510  35.046  30.733  1.00  0.00     0.002 A 
ATOM     88  C   UNL A   1      45.795  35.689  28.507  1.00  0.00     0.091 A 
ATOM     89  F   UNL A   1      45.112  33.997  26.969  1.00  0.00    -0.205 F 
ATOM     90  C   UNL A   1      46.249  36.036  29.790  1.00  0.00     0.022 A 
BRANCH  88  91
ATOM     91  S   UNL A   1      45.569  37.012  27.314  1.00  0.00     0.127 S 
ATOM     92  O   UNL A   1      46.418  36.568  26.210  1.00  0.00    -0.237 OA
ATOM     93  O   UNL A   1      44.133  36.950  27.040  1.00  0.00    -0.237 OA
ATOM     94  O   UNL A   1      45.997  38.229  27.992  1.00  0.00    -0.744 OA
ENDBRANCH  88  91
ENDBRANCH  61  84
ENDBRANCH  35  36
ENDBRANCH  27  30
ENDBRANCH  25  26
ENDBRANCH  24  25
ENDBRANCH  23  24
ENDBRANCH   1  23
TORSDOF 21
ENDMDL
