MODEL 1
REMARK VINA RESULT:     -10.9      0.000      0.000
REMARK SMILES C[NH2+]C[C@H](C)C(=O)N[C@H](Cc1ccccc1)C(=O)NCCCCNC(=O)c1ccc(-c2c3nc(c(-c4cccc(S(=O)(=O)[O-])c4F)c4ccc([nH]4)c(-c4cccc(S(=O)(=O)[O-])c4F)c4nc(c(-c5cccc(S(=O)(=O)[O-])c5F)c5ccc2[nH]5)C=C4)C=C3)cc1
REMARK SMILES IDX 21 1 20 2 19 3 17 4 18 5 9 7 8 8 6 9 7 10 4 12 5 13 3 14
REMARK SMILES IDX 2 15 1 16 10 19 11 20 12 21 16 22 13 23 15 24 14 25 22 26
REMARK SMILES IDX 23 27 24 28 25 29 26 31 27 32 28 33 89 34 29 35 88 36 30 37
REMARK SMILES IDX 31 38 32 39 82 40 33 41 87 42 81 43 83 44 34 45 86 46 80 47
REMARK SMILES IDX 79 48 35 50 67 51 47 52 66 53 48 54 51 55 65 56 84 57 49 58
REMARK SMILES IDX 50 59 64 61 85 62 52 63 36 64 37 65 45 66 38 67 40 68 46 69
REMARK SMILES IDX 39 70 41 71 42 72 43 73 44 74 68 75 69 76 77 77 70 78 72 79
REMARK SMILES IDX 78 80 71 81 73 82 74 83 75 84 76 85 53 86 54 87 62 88 55 89
REMARK SMILES IDX 57 90 63 91 56 92 58 93 59 94 60 95 61 96
REMARK H PARENT 19 6 8 11 2 17 2 18 24 30 83 49 51 60
REMARK Flexibility Score: inf
ROOT
ATOM      1  C   UNL A   1      34.463  22.431  23.892  1.00  0.00     0.023 C 
ENDROOT
BRANCH   1   2
ATOM      2  C   UNL A   1      33.791  23.786  24.109  1.00  0.00     0.116 C 
BRANCH   2   3
ATOM      3  N   UNL A   1      32.641  23.724  25.017  1.00  0.00    -0.354 N 
ATOM      4  C   UNL A   1      31.705  24.656  25.417  1.00  0.00     0.242 C 
ATOM      5  O   UNL A   1      30.894  24.317  26.282  1.00  0.00    -0.273 OA
ATOM      6  H   UNL A   1      32.509  22.837  25.424  1.00  0.00     0.163 HD
BRANCH   4   7
ATOM      7  C   UNL A   1      31.742  26.138  24.890  1.00  0.00     0.175 C 
BRANCH   7   8
ATOM      8  N   UNL A   1      31.560  26.861  26.178  1.00  0.00    -0.344 N 
ATOM      9  C   UNL A   1      31.797  28.022  26.808  1.00  0.00     0.229 C 
ATOM     10  O   UNL A   1      31.440  28.079  27.990  1.00  0.00    -0.275 OA
ATOM     11  H   UNL A   1      31.088  26.264  26.802  1.00  0.00     0.164 HD
BRANCH   9  12
ATOM     12  C   UNL A   1      32.441  29.214  26.176  1.00  0.00     0.130 C 
ATOM     13  C   UNL A   1      31.322  30.025  25.523  1.00  0.00     0.024 C 
BRANCH  12  14
ATOM     14  C   UNL A   1      33.408  29.927  27.135  1.00  0.00     0.273 C 
BRANCH  14  15
ATOM     15  N   UNL A   1      34.836  29.910  26.793  1.00  0.00    -0.348 N 
ATOM     16  C   UNL A   1      35.672  29.232  27.765  1.00  0.00     0.330 C 
ATOM     17  H   UNL A   1      34.944  29.441  25.894  1.00  0.00     0.346 HD
ATOM     18  H   UNL A   1      35.143  30.883  26.771  1.00  0.00     0.346 HD
ENDBRANCH  14  15
ENDBRANCH  12  14
ENDBRANCH   9  12
ENDBRANCH   7   8
BRANCH   7  19
ATOM     19  C   UNL A   1      30.727  26.134  23.705  1.00  0.00     0.070 C 
BRANCH  19  20
ATOM     20  C   UNL A   1      30.006  27.333  23.067  1.00  0.00    -0.045 A 
ATOM     21  C   UNL A   1      28.638  27.503  23.366  1.00  0.00     0.004 A 
ATOM     22  C   UNL A   1      30.613  28.397  22.396  1.00  0.00     0.004 A 
ATOM     23  C   UNL A   1      27.959  28.701  23.096  1.00  0.00     0.000 A 
ATOM     24  C   UNL A   1      29.961  29.618  22.172  1.00  0.00     0.000 A 
ATOM     25  C   UNL A   1      28.634  29.777  22.536  1.00  0.00     0.000 A 
ENDBRANCH  19  20
ENDBRANCH   7  19
ENDBRANCH   4   7
ENDBRANCH   2   3
ENDBRANCH   1   2
BRANCH   1  26
ATOM     26  C   UNL A   1      35.990  22.474  23.963  1.00  0.00     0.023 C 
BRANCH  26  27
ATOM     27  C   UNL A   1      36.586  22.317  25.363  1.00  0.00     0.116 C 
BRANCH  27  28
ATOM     28  N   UNL A   1      37.557  21.241  25.473  1.00  0.00    -0.352 N 
ATOM     29  C   UNL A   1      38.851  21.291  25.952  1.00  0.00     0.251 C 
ATOM     30  H   UNL A   1      37.251  20.356  25.165  1.00  0.00     0.163 HD
ATOM     31  O   UNL A   1      39.564  20.304  25.890  1.00  0.00    -0.269 OA
BRANCH  29  32
ATOM     32  C   UNL A   1      39.383  22.563  26.502  1.00  0.00     0.039 A 
ATOM     33  C   UNL A   1      40.424  22.505  27.432  1.00  0.00     0.014 A 
ATOM     34  C   UNL A   1      38.880  23.801  26.095  1.00  0.00     0.014 A 
ATOM     35  C   UNL A   1      40.998  23.688  27.903  1.00  0.00     0.010 A 
ATOM     36  C   UNL A   1      39.508  24.978  26.503  1.00  0.00     0.010 A 
ATOM     37  C   UNL A   1      40.571  24.936  27.416  1.00  0.00    -0.014 A 
BRANCH  37  38
ATOM     38  C   UNL A   1      41.255  26.186  27.844  1.00  0.00     0.031 A 
ATOM     39  C   UNL A   1      42.682  26.463  27.448  1.00  0.00     0.074 A 
ATOM     40  C   UNL A   1      40.598  27.060  28.634  1.00  0.00     0.049 A 
ATOM     41  N   UNL A   1      43.403  27.534  27.671  1.00  0.00    -0.248 NA
ATOM     42  C   UNL A   1      43.406  25.399  26.734  1.00  0.00     0.031 C 
ATOM     43  C   UNL A   1      39.249  26.864  29.174  1.00  0.00     0.029 A 
ATOM     44  N   UNL A   1      40.973  28.286  29.125  1.00  0.00    -0.354 N 
ATOM     45  C   UNL A   1      44.665  27.261  27.156  1.00  0.00     0.074 A 
ATOM     46  C   UNL A   1      44.624  25.910  26.639  1.00  0.00     0.031 C 
ATOM     47  C   UNL A   1      38.900  27.944  29.890  1.00  0.00     0.029 A 
ATOM     48  C   UNL A   1      40.001  28.900  29.882  1.00  0.00     0.049 A 
ATOM     49  H   UNL A   1      41.854  28.688  28.951  1.00  0.00     0.167 HD
ATOM     50  C   UNL A   1      45.750  28.068  27.090  1.00  0.00     0.034 A 
ATOM     51  C   UNL A   1      39.994  30.102  30.490  1.00  0.00     0.034 A 
ATOM     52  C   UNL A   1      45.773  29.427  27.565  1.00  0.00     0.049 A 
ATOM     53  C   UNL A   1      41.191  31.003  30.341  1.00  0.00     0.074 A 
ATOM     54  C   UNL A   1      46.787  30.362  27.444  1.00  0.00     0.029 A 
ATOM     55  N   UNL A   1      44.746  30.041  28.261  1.00  0.00    -0.354 N 
ATOM     56  N   UNL A   1      42.302  30.799  29.676  1.00  0.00    -0.248 NA
ATOM     57  C   UNL A   1      41.113  32.319  30.991  1.00  0.00     0.031 C 
ATOM     58  C   UNL A   1      46.385  31.530  28.100  1.00  0.00     0.029 A 
ATOM     59  C   UNL A   1      45.106  31.336  28.595  1.00  0.00     0.049 A 
ATOM     60  H   UNL A   1      43.886  29.619  28.487  1.00  0.00     0.167 HD
ATOM     61  C   UNL A   1      43.037  31.973  29.796  1.00  0.00     0.074 A 
ATOM     62  C   UNL A   1      42.229  32.893  30.568  1.00  0.00     0.031 C 
ATOM     63  C   UNL A   1      44.277  32.259  29.326  1.00  0.00     0.034 A 
BRANCH  50  64
ATOM     64  C   UNL A   1      46.997  27.526  26.440  1.00  0.00     0.023 A 
ATOM     65  C   UNL A   1      47.271  27.828  25.090  1.00  0.00     0.012 A 
ATOM     66  C   UNL A   1      47.938  26.788  27.186  1.00  0.00     0.148 A 
ATOM     67  C   UNL A   1      48.445  27.380  24.485  1.00  0.00     0.002 A 
ATOM     68  C   UNL A   1      49.126  26.385  26.590  1.00  0.00     0.091 A 
ATOM     69  F   UNL A   1      47.650  26.493  28.462  1.00  0.00    -0.205 F 
ATOM     70  C   UNL A   1      49.377  26.670  25.237  1.00  0.00     0.022 A 
BRANCH  68  71
ATOM     71  S   UNL A   1      50.429  25.540  27.493  1.00  0.00     0.127 S 
ATOM     72  O   UNL A   1      50.568  26.391  28.673  1.00  0.00    -0.237 OA
ATOM     73  O   UNL A   1      49.825  24.233  27.752  1.00  0.00    -0.237 OA
ATOM     74  O   UNL A   1      51.584  25.514  26.606  1.00  0.00    -0.744 OA
ENDBRANCH  68  71
ENDBRANCH  50  64
BRANCH  51  75
ATOM     75  C   UNL A   1      38.784  30.568  31.229  1.00  0.00     0.023 A 
ATOM     76  C   UNL A   1      38.665  30.293  32.607  1.00  0.00     0.012 A 
ATOM     77  C   UNL A   1      37.752  31.270  30.580  1.00  0.00     0.148 A 
ATOM     78  C   UNL A   1      37.521  30.665  33.312  1.00  0.00     0.002 A 
ATOM     79  C   UNL A   1      36.641  31.692  31.302  1.00  0.00     0.091 A 
ATOM     80  F   UNL A   1      37.876  31.513  29.267  1.00  0.00    -0.205 F 
ATOM     81  C   UNL A   1      36.513  31.373  32.662  1.00  0.00     0.022 A 
BRANCH  79  82
ATOM     82  S   UNL A   1      35.361  32.722  30.577  1.00  0.00     0.127 S 
ATOM     83  O   UNL A   1      34.906  31.893  29.463  1.00  0.00    -0.237 OA
ATOM     84  O   UNL A   1      34.410  32.847  31.681  1.00  0.00    -0.237 OA
ATOM     85  O   UNL A   1      36.021  33.969  30.213  1.00  0.00    -0.744 OA
ENDBRANCH  79  82
ENDBRANCH  51  75
BRANCH  63  86
ATOM     86  C   UNL A   1      44.822  33.637  29.606  1.00  0.00     0.023 A 
ATOM     87  C   UNL A   1      45.496  33.895  30.817  1.00  0.00     0.012 A 
ATOM     88  C   UNL A   1      44.692  34.669  28.656  1.00  0.00     0.148 A 
ATOM     89  C   UNL A   1      45.979  35.171  31.102  1.00  0.00     0.002 A 
ATOM     90  C   UNL A   1      45.227  35.923  28.923  1.00  0.00     0.091 A 
ATOM     91  F   UNL A   1      44.035  34.413  27.516  1.00  0.00    -0.205 F 
ATOM     92  C   UNL A   1      45.854  36.182  30.152  1.00  0.00     0.022 A 
BRANCH  90  93
ATOM     93  S   UNL A   1      45.201  37.252  27.715  1.00  0.00     0.127 S 
ATOM     94  O   UNL A   1      45.747  36.591  26.531  1.00  0.00    -0.237 OA
ATOM     95  O   UNL A   1      43.774  37.571  27.632  1.00  0.00    -0.237 OA
ATOM     96  O   UNL A   1      46.022  38.316  28.277  1.00  0.00    -0.744 OA
ENDBRANCH  90  93
ENDBRANCH  63  86
ENDBRANCH  37  38
ENDBRANCH  29  32
ENDBRANCH  27  28
ENDBRANCH  26  27
ENDBRANCH   1  26
TORSDOF 20
ENDMDL
MODEL 2
REMARK VINA RESULT:     -10.7      5.182     11.123
REMARK SMILES C[NH2+]C[C@H](C)C(=O)N[C@H](Cc1ccccc1)C(=O)NCCCCNC(=O)c1ccc(-c2c3nc(c(-c4cccc(S(=O)(=O)[O-])c4F)c4ccc([nH]4)c(-c4cccc(S(=O)(=O)[O-])c4F)c4nc(c(-c5cccc(S(=O)(=O)[O-])c5F)c5ccc2[nH]5)C=C4)C=C3)cc1
REMARK SMILES IDX 21 1 20 2 19 3 17 4 18 5 9 7 8 8 6 9 7 10 4 12 5 13 3 14
REMARK SMILES IDX 2 15 1 16 10 19 11 20 12 21 16 22 13 23 15 24 14 25 22 26
REMARK SMILES IDX 23 27 24 28 25 29 26 31 27 32 28 33 89 34 29 35 88 36 30 37
REMARK SMILES IDX 31 38 32 39 82 40 33 41 87 42 81 43 83 44 34 45 86 46 80 47
REMARK SMILES IDX 79 48 35 50 67 51 47 52 66 53 48 54 51 55 65 56 84 57 49 58
REMARK SMILES IDX 50 59 64 61 85 62 52 63 36 64 37 65 45 66 38 67 40 68 46 69
REMARK SMILES IDX 39 70 41 71 42 72 43 73 44 74 68 75 69 76 77 77 70 78 72 79
REMARK SMILES IDX 78 80 71 81 73 82 74 83 75 84 76 85 53 86 54 87 62 88 55 89
REMARK SMILES IDX 57 90 63 91 56 92 58 93 59 94 60 95 61 96
REMARK H PARENT 19 6 8 11 2 17 2 18 24 30 83 49 51 60
REMARK Flexibility Score: inf
ROOT
ATOM      1  C   UNL A   1      33.116  34.763  28.846  1.00  0.00     0.023 C 
ENDROOT
BRANCH   1   2
ATOM      2  C   UNL A   1      33.646  35.233  30.200  1.00  0.00     0.116 C 
BRANCH   2   3
ATOM      3  N   UNL A   1      33.597  34.195  31.235  1.00  0.00    -0.354 N 
ATOM      4  C   UNL A   1      34.493  33.785  32.201  1.00  0.00     0.242 C 
ATOM      5  O   UNL A   1      34.190  32.802  32.880  1.00  0.00    -0.273 OA
ATOM      6  H   UNL A   1      32.753  33.687  31.241  1.00  0.00     0.163 HD
BRANCH   4   7
ATOM      7  C   UNL A   1      35.905  34.461  32.354  1.00  0.00     0.175 C 
BRANCH   7   8
ATOM      8  N   UNL A   1      36.645  33.725  31.293  1.00  0.00    -0.344 N 
ATOM      9  C   UNL A   1      37.792  33.698  30.598  1.00  0.00     0.229 C 
ATOM     10  O   UNL A   1      37.878  32.822  29.730  1.00  0.00    -0.275 OA
ATOM     11  H   UNL A   1      36.082  32.979  30.987  1.00  0.00     0.164 HD
BRANCH   9  12
ATOM     12  C   UNL A   1      38.938  34.634  30.813  1.00  0.00     0.130 C 
ATOM     13  C   UNL A   1      39.573  34.253  32.150  1.00  0.00     0.024 C 
BRANCH  12  14
ATOM     14  C   UNL A   1      39.837  34.745  29.572  1.00  0.00     0.273 C 
BRANCH  14  15
ATOM     15  N   UNL A   1      41.252  35.076  29.787  1.00  0.00    -0.348 N 
ATOM     16  C   UNL A   1      42.029  35.184  28.568  1.00  0.00     0.330 C 
ATOM     17  H   UNL A   1      41.300  35.968  30.278  1.00  0.00     0.346 HD
ATOM     18  H   UNL A   1      41.654  34.307  30.324  1.00  0.00     0.346 HD
ENDBRANCH  14  15
ENDBRANCH  12  14
ENDBRANCH   9  12
ENDBRANCH   7   8
BRANCH   7  19
ATOM     19  C   UNL A   1      36.194  34.370  33.885  1.00  0.00     0.070 C 
BRANCH  19  20
ATOM     20  C   UNL A   1      37.076  33.353  34.627  1.00  0.00    -0.045 A 
ATOM     21  C   UNL A   1      37.347  33.599  35.990  1.00  0.00     0.004 A 
ATOM     22  C   UNL A   1      37.460  32.097  34.153  1.00  0.00     0.004 A 
ATOM     23  C   UNL A   1      37.875  32.611  36.834  1.00  0.00     0.000 A 
ATOM     24  C   UNL A   1      37.935  31.084  34.999  1.00  0.00     0.000 A 
ATOM     25  C   UNL A   1      38.130  31.336  36.348  1.00  0.00     0.000 A 
ENDBRANCH  19  20
ENDBRANCH   7  19
ENDBRANCH   4   7
ENDBRANCH   2   3
ENDBRANCH   1   2
BRANCH   1  26
ATOM     26  C   UNL A   1      34.206  34.326  27.867  1.00  0.00     0.023 C 
BRANCH  26  27
ATOM     27  C   UNL A   1      34.881  32.992  28.191  1.00  0.00     0.116 C 
BRANCH  27  28
ATOM     28  N   UNL A   1      34.202  31.836  27.627  1.00  0.00    -0.352 N 
ATOM     29  C   UNL A   1      34.649  30.533  27.532  1.00  0.00     0.251 C 
ATOM     30  H   UNL A   1      33.301  32.005  27.264  1.00  0.00     0.163 HD
ATOM     31  O   UNL A   1      33.981  29.700  26.945  1.00  0.00    -0.269 OA
BRANCH  29  32
ATOM     32  C   UNL A   1      35.965  30.163  28.110  1.00  0.00     0.039 A 
ATOM     33  C   UNL A   1      36.008  29.694  29.425  1.00  0.00     0.014 A 
ATOM     34  C   UNL A   1      37.142  30.257  27.363  1.00  0.00     0.014 A 
ATOM     35  C   UNL A   1      37.221  29.262  29.966  1.00  0.00     0.010 A 
ATOM     36  C   UNL A   1      38.335  29.748  27.876  1.00  0.00     0.010 A 
ATOM     37  C   UNL A   1      38.391  29.249  29.186  1.00  0.00    -0.014 A 
BRANCH  37  38
ATOM     38  C   UNL A   1      39.657  28.692  29.734  1.00  0.00     0.031 A 
ATOM     39  C   UNL A   1      40.282  29.265  30.979  1.00  0.00     0.074 A 
ATOM     40  C   UNL A   1      40.273  27.687  29.078  1.00  0.00     0.049 A 
ATOM     41  N   UNL A   1      41.339  28.852  31.632  1.00  0.00    -0.248 NA
ATOM     42  C   UNL A   1      39.662  30.470  31.555  1.00  0.00     0.031 C 
ATOM     43  C   UNL A   1      39.829  27.110  27.805  1.00  0.00     0.029 A 
ATOM     44  N   UNL A   1      41.406  26.974  29.384  1.00  0.00    -0.354 N 
ATOM     45  C   UNL A   1      41.527  29.757  32.670  1.00  0.00     0.074 A 
ATOM     46  C   UNL A   1      40.496  30.764  32.541  1.00  0.00     0.031 C 
ATOM     47  C   UNL A   1      40.659  26.113  27.460  1.00  0.00     0.029 A 
ATOM     48  C   UNL A   1      41.706  25.991  28.468  1.00  0.00     0.049 A 
ATOM     49  H   UNL A   1      41.952  27.150  30.183  1.00  0.00     0.167 HD
ATOM     50  C   UNL A   1      42.454  29.739  33.658  1.00  0.00     0.034 A 
ATOM     51  C   UNL A   1      42.703  25.085  28.451  1.00  0.00     0.034 A 
ATOM     52  C   UNL A   1      43.450  28.711  33.809  1.00  0.00     0.049 A 
ATOM     53  C   UNL A   1      43.675  25.049  29.599  1.00  0.00     0.074 A 
ATOM     54  C   UNL A   1      44.361  28.543  34.837  1.00  0.00     0.029 A 
ATOM     55  N   UNL A   1      43.678  27.689  32.904  1.00  0.00    -0.354 N 
ATOM     56  N   UNL A   1      43.712  25.794  30.677  1.00  0.00    -0.248 NA
ATOM     57  C   UNL A   1      44.719  24.015  29.549  1.00  0.00     0.031 C 
ATOM     58  C   UNL A   1      45.163  27.438  34.535  1.00  0.00     0.029 A 
ATOM     59  C   UNL A   1      44.726  26.895  33.338  1.00  0.00     0.049 A 
ATOM     60  H   UNL A   1      43.169  27.547  32.073  1.00  0.00     0.167 HD
ATOM     61  C   UNL A   1      44.756  25.296  31.448  1.00  0.00     0.074 A 
ATOM     62  C   UNL A   1      45.301  24.164  30.729  1.00  0.00     0.031 C 
ATOM     63  C   UNL A   1      45.234  25.745  32.636  1.00  0.00     0.034 A 
BRANCH  50  64
ATOM     64  C   UNL A   1      42.410  30.838  34.689  1.00  0.00     0.023 A 
ATOM     65  C   UNL A   1      41.734  30.628  35.908  1.00  0.00     0.012 A 
ATOM     66  C   UNL A   1      43.108  32.046  34.485  1.00  0.00     0.148 A 
ATOM     67  C   UNL A   1      41.726  31.612  36.896  1.00  0.00     0.002 A 
ATOM     68  C   UNL A   1      43.135  33.003  35.493  1.00  0.00     0.091 A 
ATOM     69  F   UNL A   1      43.728  32.235  33.312  1.00  0.00    -0.205 F 
ATOM     70  C   UNL A   1      42.436  32.792  36.694  1.00  0.00     0.022 A 
BRANCH  68  71
ATOM     71  S   UNL A   1      44.089  34.519  35.367  1.00  0.00     0.127 S 
ATOM     72  O   UNL A   1      43.836  35.135  36.669  1.00  0.00    -0.237 OA
ATOM     73  O   UNL A   1      45.449  34.011  35.187  1.00  0.00    -0.237 OA
ATOM     74  O   UNL A   1      43.551  35.241  34.222  1.00  0.00    -0.744 OA
ENDBRANCH  68  71
ENDBRANCH  50  64
BRANCH  51  75
ATOM     75  C   UNL A   1      42.790  24.079  27.353  1.00  0.00     0.023 A 
ATOM     76  C   UNL A   1      43.539  24.379  26.196  1.00  0.00     0.012 A 
ATOM     77  C   UNL A   1      42.135  22.837  27.440  1.00  0.00     0.148 A 
ATOM     78  C   UNL A   1      43.593  23.482  25.130  1.00  0.00     0.002 A 
ATOM     79  C   UNL A   1      42.242  21.922  26.398  1.00  0.00     0.091 A 
ATOM     80  F   UNL A   1      41.417  22.573  28.542  1.00  0.00    -0.205 F 
ATOM     81  C   UNL A   1      42.952  22.250  25.234  1.00  0.00     0.022 A 
BRANCH  79  82
ATOM     82  S   UNL A   1      41.561  20.264  26.505  1.00  0.00     0.127 S 
ATOM     83  O   UNL A   1      42.040  19.827  27.814  1.00  0.00    -0.237 OA
ATOM     84  O   UNL A   1      40.123  20.521  26.428  1.00  0.00    -0.237 OA
ATOM     85  O   UNL A   1      42.101  19.544  25.359  1.00  0.00    -0.744 OA
ENDBRANCH  79  82
ENDBRANCH  51  75
BRANCH  63  86
ATOM     86  C   UNL A   1      46.384  24.987  33.249  1.00  0.00     0.023 A 
ATOM     87  C   UNL A   1      47.709  25.406  33.012  1.00  0.00     0.012 A 
ATOM     88  C   UNL A   1      46.151  23.877  34.085  1.00  0.00     0.148 A 
ATOM     89  C   UNL A   1      48.784  24.699  33.549  1.00  0.00     0.002 A 
ATOM     90  C   UNL A   1      47.226  23.212  34.662  1.00  0.00     0.091 A 
ATOM     91  F   UNL A   1      44.887  23.480  34.288  1.00  0.00    -0.205 F 
ATOM     92  C   UNL A   1      48.543  23.609  34.381  1.00  0.00     0.022 A 
BRANCH  90  93
ATOM     93  S   UNL A   1      47.002  21.862  35.827  1.00  0.00     0.127 S 
ATOM     94  O   UNL A   1      46.983  22.571  37.105  1.00  0.00    -0.237 OA
ATOM     95  O   UNL A   1      45.711  21.307  35.417  1.00  0.00    -0.237 OA
ATOM     96  O   UNL A   1      48.133  20.968  35.619  1.00  0.00    -0.744 OA
ENDBRANCH  90  93
ENDBRANCH  63  86
ENDBRANCH  37  38
ENDBRANCH  29  32
ENDBRANCH  27  28
ENDBRANCH  26  27
ENDBRANCH   1  26
TORSDOF 20
ENDMDL
MODEL 3
REMARK VINA RESULT:     -10.7      2.494      8.271
REMARK SMILES C[NH2+]C[C@H](C)C(=O)N[C@H](Cc1ccccc1)C(=O)NCCCCNC(=O)c1ccc(-c2c3nc(c(-c4cccc(S(=O)(=O)[O-])c4F)c4ccc([nH]4)c(-c4cccc(S(=O)(=O)[O-])c4F)c4nc(c(-c5cccc(S(=O)(=O)[O-])c5F)c5ccc2[nH]5)C=C4)C=C3)cc1
REMARK SMILES IDX 21 1 20 2 19 3 17 4 18 5 9 7 8 8 6 9 7 10 4 12 5 13 3 14
REMARK SMILES IDX 2 15 1 16 10 19 11 20 12 21 16 22 13 23 15 24 14 25 22 26
REMARK SMILES IDX 23 27 24 28 25 29 26 31 27 32 28 33 89 34 29 35 88 36 30 37
REMARK SMILES IDX 31 38 32 39 82 40 33 41 87 42 81 43 83 44 34 45 86 46 80 47
REMARK SMILES IDX 79 48 35 50 67 51 47 52 66 53 48 54 51 55 65 56 84 57 49 58
REMARK SMILES IDX 50 59 64 61 85 62 52 63 36 64 37 65 45 66 38 67 40 68 46 69
REMARK SMILES IDX 39 70 41 71 42 72 43 73 44 74 68 75 69 76 77 77 70 78 72 79
REMARK SMILES IDX 78 80 71 81 73 82 74 83 75 84 76 85 53 86 54 87 62 88 55 89
REMARK SMILES IDX 57 90 63 91 56 92 58 93 59 94 60 95 61 96
REMARK H PARENT 19 6 8 11 2 17 2 18 24 30 83 49 51 60
REMARK Flexibility Score: inf
ROOT
ATOM      1  C   UNL A   1      36.378  20.542  25.120  1.00  0.00     0.023 C 
ENDROOT
BRANCH   1   2
ATOM      2  C   UNL A   1      36.730  22.027  25.166  1.00  0.00     0.116 C 
BRANCH   2   3
ATOM      3  N   UNL A   1      36.226  22.779  24.012  1.00  0.00    -0.354 N 
ATOM      4  C   UNL A   1      35.181  23.665  23.848  1.00  0.00     0.242 C 
ATOM      5  O   UNL A   1      34.950  24.071  22.707  1.00  0.00    -0.273 OA
ATOM      6  H   UNL A   1      36.737  22.619  23.186  1.00  0.00     0.163 HD
BRANCH   4   7
ATOM      7  C   UNL A   1      34.234  24.051  25.044  1.00  0.00     0.175 C 
BRANCH   7   8
ATOM      8  N   UNL A   1      32.935  23.586  24.487  1.00  0.00    -0.344 N 
ATOM      9  C   UNL A   1      31.605  23.637  24.661  1.00  0.00     0.229 C 
ATOM     10  O   UNL A   1      30.929  22.977  23.864  1.00  0.00    -0.275 OA
ATOM     11  H   UNL A   1      33.120  23.035  23.693  1.00  0.00     0.164 HD
BRANCH   9  12
ATOM     12  C   UNL A   1      30.919  24.430  25.726  1.00  0.00     0.130 C 
ATOM     13  C   UNL A   1      29.916  25.342  25.021  1.00  0.00     0.024 C 
BRANCH  12  14
ATOM     14  C   UNL A   1      30.426  23.544  26.881  1.00  0.00     0.273 C 
BRANCH  14  15
ATOM     15  N   UNL A   1      29.540  22.421  26.545  1.00  0.00    -0.348 N 
ATOM     16  C   UNL A   1      28.509  22.161  27.531  1.00  0.00     0.330 C 
ATOM     17  H   UNL A   1      29.088  22.627  25.654  1.00  0.00     0.346 HD
ATOM     18  H   UNL A   1      30.126  21.587  26.507  1.00  0.00     0.346 HD
ENDBRANCH  14  15
ENDBRANCH  12  14
ENDBRANCH   9  12
ENDBRANCH   7   8
BRANCH   7  19
ATOM     19  C   UNL A   1      34.607  25.536  25.347  1.00  0.00     0.070 C 
BRANCH  19  20
ATOM     20  C   UNL A   1      33.716  26.783  25.229  1.00  0.00    -0.045 A 
ATOM     21  C   UNL A   1      33.029  27.202  26.387  1.00  0.00     0.004 A 
ATOM     22  C   UNL A   1      33.684  27.672  24.153  1.00  0.00     0.004 A 
ATOM     23  C   UNL A   1      32.438  28.471  26.484  1.00  0.00     0.000 A 
ATOM     24  C   UNL A   1      33.146  28.964  24.257  1.00  0.00     0.000 A 
ATOM     25  C   UNL A   1      32.533  29.371  25.431  1.00  0.00     0.000 A 
ENDBRANCH  19  20
ENDBRANCH   7  19
ENDBRANCH   4   7
ENDBRANCH   2   3
ENDBRANCH   1   2
BRANCH   1  26
ATOM     26  C   UNL A   1      37.590  19.618  24.993  1.00  0.00     0.023 C 
BRANCH  26  27
ATOM     27  C   UNL A   1      38.872  20.124  25.656  1.00  0.00     0.116 C 
BRANCH  27  28
ATOM     28  N   UNL A   1      39.895  19.102  25.817  1.00  0.00    -0.352 N 
ATOM     29  C   UNL A   1      41.230  19.259  26.132  1.00  0.00     0.251 C 
ATOM     30  H   UNL A   1      39.595  18.173  25.684  1.00  0.00     0.163 HD
ATOM     31  O   UNL A   1      41.973  18.293  26.140  1.00  0.00    -0.269 OA
BRANCH  29  32
ATOM     32  C   UNL A   1      41.764  20.614  26.418  1.00  0.00     0.039 A 
ATOM     33  C   UNL A   1      42.317  21.349  25.366  1.00  0.00     0.014 A 
ATOM     34  C   UNL A   1      41.704  21.167  27.699  1.00  0.00     0.014 A 
ATOM     35  C   UNL A   1      42.752  22.658  25.590  1.00  0.00     0.010 A 
ATOM     36  C   UNL A   1      42.062  22.499  27.901  1.00  0.00     0.010 A 
ATOM     37  C   UNL A   1      42.595  23.260  26.851  1.00  0.00    -0.014 A 
BRANCH  37  38
ATOM     38  C   UNL A   1      42.964  24.686  27.056  1.00  0.00     0.031 A 
ATOM     39  C   UNL A   1      41.986  25.661  27.659  1.00  0.00     0.074 A 
ATOM     40  C   UNL A   1      44.177  25.118  26.654  1.00  0.00     0.049 A 
ATOM     41  N   UNL A   1      42.170  26.918  27.977  1.00  0.00    -0.248 NA
ATOM     42  C   UNL A   1      40.620  25.177  27.918  1.00  0.00     0.031 C 
ATOM     43  C   UNL A   1      45.179  24.302  25.962  1.00  0.00     0.029 A 
ATOM     44  N   UNL A   1      44.776  26.349  26.764  1.00  0.00    -0.354 N 
ATOM     45  C   UNL A   1      40.943  27.380  28.440  1.00  0.00     0.074 A 
ATOM     46  C   UNL A   1      40.012  26.279  28.331  1.00  0.00     0.031 C 
ATOM     47  C   UNL A   1      46.276  25.044  25.741  1.00  0.00     0.029 A 
ATOM     48  C   UNL A   1      46.053  26.391  26.252  1.00  0.00     0.049 A 
ATOM     49  H   UNL A   1      44.332  27.128  27.171  1.00  0.00     0.167 HD
ATOM     50  C   UNL A   1      40.626  28.599  28.939  1.00  0.00     0.034 A 
ATOM     51  C   UNL A   1      46.947  27.398  26.213  1.00  0.00     0.034 A 
ATOM     52  C   UNL A   1      41.567  29.678  29.089  1.00  0.00     0.049 A 
ATOM     53  C   UNL A   1      46.587  28.719  26.837  1.00  0.00     0.074 A 
ATOM     54  C   UNL A   1      41.371  30.912  29.684  1.00  0.00     0.029 A 
ATOM     55  N   UNL A   1      42.872  29.661  28.627  1.00  0.00    -0.354 N 
ATOM     56  N   UNL A   1      45.484  29.071  27.451  1.00  0.00    -0.248 NA
ATOM     57  C   UNL A   1      47.615  29.770  26.800  1.00  0.00     0.031 C 
ATOM     58  C   UNL A   1      42.549  31.654  29.551  1.00  0.00     0.029 A 
ATOM     59  C   UNL A   1      43.490  30.868  28.907  1.00  0.00     0.049 A 
ATOM     60  H   UNL A   1      43.299  28.902  28.167  1.00  0.00     0.167 HD
ATOM     61  C   UNL A   1      45.699  30.368  27.906  1.00  0.00     0.074 A 
ATOM     62  C   UNL A   1      47.050  30.723  27.526  1.00  0.00     0.031 C 
ATOM     63  C   UNL A   1      44.850  31.197  28.563  1.00  0.00     0.034 A 
BRANCH  50  64
ATOM     64  C   UNL A   1      39.212  28.825  29.409  1.00  0.00     0.023 A 
ATOM     65  C   UNL A   1      38.851  28.489  30.730  1.00  0.00     0.012 A 
ATOM     66  C   UNL A   1      38.264  29.445  28.571  1.00  0.00     0.148 A 
ATOM     67  C   UNL A   1      37.562  28.738  31.201  1.00  0.00     0.002 A 
ATOM     68  C   UNL A   1      36.995  29.733  29.062  1.00  0.00     0.091 A 
ATOM     69  F   UNL A   1      38.619  29.738  27.312  1.00  0.00    -0.205 F 
ATOM     70  C   UNL A   1      36.640  29.370  30.372  1.00  0.00     0.022 A 
BRANCH  68  71
ATOM     71  S   UNL A   1      35.762  30.621  28.105  1.00  0.00     0.127 S 
ATOM     72  O   UNL A   1      35.606  29.747  26.943  1.00  0.00    -0.237 OA
ATOM     73  O   UNL A   1      34.618  30.634  29.015  1.00  0.00    -0.237 OA
ATOM     74  O   UNL A   1      36.334  31.931  27.825  1.00  0.00    -0.744 OA
ENDBRANCH  68  71
ENDBRANCH  50  64
BRANCH  51  75
ATOM     75  C   UNL A   1      48.305  27.179  25.634  1.00  0.00     0.023 A 
ATOM     76  C   UNL A   1      49.353  26.743  26.471  1.00  0.00     0.012 A 
ATOM     77  C   UNL A   1      48.568  27.405  24.270  1.00  0.00     0.148 A 
ATOM     78  C   UNL A   1      50.645  26.584  25.971  1.00  0.00     0.002 A 
ATOM     79  C   UNL A   1      49.845  27.186  23.765  1.00  0.00     0.091 A 
ATOM     80  F   UNL A   1      47.563  27.830  23.491  1.00  0.00    -0.205 F 
ATOM     81  C   UNL A   1      50.889  26.797  24.617  1.00  0.00     0.022 A 
BRANCH  79  82
ATOM     82  S   UNL A   1      50.216  27.307  22.013  1.00  0.00     0.127 S 
ATOM     83  O   UNL A   1      51.625  26.922  21.977  1.00  0.00    -0.237 OA
ATOM     84  O   UNL A   1      49.294  26.327  21.439  1.00  0.00    -0.237 OA
ATOM     85  O   UNL A   1      49.925  28.687  21.645  1.00  0.00    -0.744 OA
ENDBRANCH  79  82
ENDBRANCH  51  75
BRANCH  63  86
ATOM     86  C   UNL A   1      45.370  32.560  28.943  1.00  0.00     0.023 A 
ATOM     87  C   UNL A   1      46.043  32.741  30.168  1.00  0.00     0.012 A 
ATOM     88  C   UNL A   1      45.218  33.657  28.072  1.00  0.00     0.148 A 
ATOM     89  C   UNL A   1      46.503  34.001  30.546  1.00  0.00     0.002 A 
ATOM     90  C   UNL A   1      45.731  34.897  28.430  1.00  0.00     0.091 A 
ATOM     91  F   UNL A   1      44.562  33.474  26.918  1.00  0.00    -0.205 F 
ATOM     92  C   UNL A   1      46.357  35.076  29.674  1.00  0.00     0.022 A 
BRANCH  90  93
ATOM     93  S   UNL A   1      45.676  36.312  27.324  1.00  0.00     0.127 S 
ATOM     94  O   UNL A   1      46.335  37.342  28.124  1.00  0.00    -0.237 OA
ATOM     95  O   UNL A   1      46.452  35.841  26.176  1.00  0.00    -0.237 OA
ATOM     96  O   UNL A   1      44.265  36.540  27.042  1.00  0.00    -0.744 OA
ENDBRANCH  90  93
ENDBRANCH  63  86
ENDBRANCH  37  38
ENDBRANCH  29  32
ENDBRANCH  27  28
ENDBRANCH  26  27
ENDBRANCH   1  26
TORSDOF 20
ENDMDL
