MODEL 1
REMARK VINA RESULT:     -13.7      0.000      0.000
REMARK SMILES Cc1ccc(CCC(=O)N2CCC3(CC2)[C@H](C(=O)NCCCCNC(=O)c2ccc(-c4c5nc(c(-c6cccc(S(=O)(=O)[O-])c6F)c6ccc([nH]6)c(-c6cccc(S(=O)(=O)[O-])c6F)c6nc(c(-c7cccc(S(=O)(=O)[O-])c7F)c7ccc4[nH]7)C=C6)C=C5)cc2)CC(=O)N3C)cc1
REMARK SMILES IDX 21 1 20 2 19 3 17 4 18 5 16 7 8 8 9 9 10 10 11 11 15 12
REMARK SMILES IDX 12 13 14 14 13 15 93 16 90 17 91 18 94 19 92 20 7 21 6 22
REMARK SMILES IDX 5 23 1 24 2 25 3 26 96 27 4 28 95 29 22 30 23 31 24 32 25 33
REMARK SMILES IDX 26 35 27 36 28 37 89 38 29 39 88 40 30 41 31 42 32 43 82 44
REMARK SMILES IDX 33 45 87 46 81 47 83 48 34 49 86 50 80 51 79 52 35 54 67 55
REMARK SMILES IDX 47 56 66 57 48 58 51 59 65 60 84 61 49 62 50 63 64 65 85 66
REMARK SMILES IDX 52 67 36 68 37 69 45 70 38 71 40 72 46 73 39 74 41 75 42 76
REMARK SMILES IDX 43 77 44 78 68 79 69 80 77 81 70 82 72 83 78 84 71 85 73 86
REMARK SMILES IDX 74 87 75 88 76 89 53 90 54 91 62 92 55 93 57 94 63 95 56 96
REMARK SMILES IDX 58 97 59 98 60 99 61 100
REMARK H PARENT 19 6 24 34 83 53 51 64
REMARK Flexibility Score: inf
ROOT
ATOM      1  C   UNL A   1      32.163  29.754  25.455  1.00  0.00     0.023 C 
ENDROOT
BRANCH   1   2
ATOM      2  C   UNL A   1      31.800  29.275  24.033  1.00  0.00     0.116 C 
BRANCH   2   3
ATOM      3  N   UNL A   1      32.857  28.632  23.258  1.00  0.00    -0.356 N 
ATOM      4  C   UNL A   1      33.010  27.428  22.647  1.00  0.00     0.226 C 
ATOM      5  O   UNL A   1      34.047  27.270  21.991  1.00  0.00    -0.275 OA
ATOM      6  H   UNL A   1      33.648  29.209  23.152  1.00  0.00     0.163 HD
BRANCH   4   7
ATOM      7  C   UNL A   1      32.018  26.259  22.723  1.00  0.00     0.113 C 
ATOM      8  C   UNL A   1      34.166  22.440  25.834  1.00  0.00     0.222 C 
ATOM      9  O   UNL A   1      35.011  22.460  26.733  1.00  0.00    -0.275 OA
ATOM     10  N   UNL A   1      33.222  23.439  25.720  1.00  0.00    -0.343 N 
ATOM     11  C   UNL A   1      33.516  24.813  26.056  1.00  0.00     0.122 C 
ATOM     12  C   UNL A   1      31.878  23.260  25.262  1.00  0.00     0.122 C 
ATOM     13  C   UNL A   1      33.277  25.624  24.791  1.00  0.00     0.051 C 
ATOM     14  C   UNL A   1      31.619  24.011  23.949  1.00  0.00     0.051 C 
ATOM     15  C   UNL A   1      31.881  25.529  24.095  1.00  0.00     0.058 C 
ATOM     16  N   UNL A   1      30.625  26.156  24.594  1.00  0.00    -0.339 N 
ATOM     17  C   UNL A   1      30.639  26.717  22.292  1.00  0.00     0.116 C 
ATOM     18  C   UNL A   1      29.857  26.721  23.562  1.00  0.00     0.223 C 
ATOM     19  C   UNL A   1      29.945  25.915  25.858  1.00  0.00     0.147 C 
ATOM     20  O   UNL A   1      28.710  27.132  23.648  1.00  0.00    -0.275 OA
BRANCH   8  21
ATOM     21  C   UNL A   1      34.310  21.444  24.672  1.00  0.00     0.105 C 
BRANCH  21  22
ATOM     22  C   UNL A   1      35.117  20.140  24.830  1.00  0.00     0.045 C 
BRANCH  22  23
ATOM     23  C   UNL A   1      34.321  18.857  24.631  1.00  0.00    -0.047 A 
ATOM     24  C   UNL A   1      32.538  15.061  25.517  1.00  0.00     0.044 C 
ATOM     25  C   UNL A   1      33.079  16.358  24.982  1.00  0.00    -0.051 A 
ATOM     26  C   UNL A   1      34.372  16.433  24.454  1.00  0.00     0.004 A 
ATOM     27  C   UNL A   1      32.350  17.540  25.156  1.00  0.00     0.004 A 
ATOM     28  C   UNL A   1      34.970  17.678  24.231  1.00  0.00     0.004 A 
ATOM     29  C   UNL A   1      32.969  18.784  24.988  1.00  0.00     0.004 A 
ENDBRANCH  22  23
ENDBRANCH  21  22
ENDBRANCH   8  21
ENDBRANCH   4   7
ENDBRANCH   2   3
ENDBRANCH   1   2
BRANCH   1  30
ATOM     30  C   UNL A   1      33.415  29.176  26.153  1.00  0.00     0.023 C 
BRANCH  30  31
ATOM     31  C   UNL A   1      33.621  29.519  27.617  1.00  0.00     0.116 C 
BRANCH  31  32
ATOM     32  N   UNL A   1      34.335  30.781  27.771  1.00  0.00    -0.352 N 
ATOM     33  C   UNL A   1      35.458  31.134  28.502  1.00  0.00     0.251 C 
ATOM     34  H   UNL A   1      33.945  31.524  27.256  1.00  0.00     0.163 HD
ATOM     35  O   UNL A   1      35.531  32.271  28.920  1.00  0.00    -0.269 OA
BRANCH  33  36
ATOM     36  C   UNL A   1      36.544  30.148  28.710  1.00  0.00     0.039 A 
ATOM     37  C   UNL A   1      36.691  29.408  29.885  1.00  0.00     0.014 A 
ATOM     38  C   UNL A   1      37.547  30.086  27.763  1.00  0.00     0.014 A 
ATOM     39  C   UNL A   1      37.909  28.762  30.112  1.00  0.00     0.010 A 
ATOM     40  C   UNL A   1      38.532  29.170  27.807  1.00  0.00     0.010 A 
ATOM     41  C   UNL A   1      38.835  28.725  29.072  1.00  0.00    -0.014 A 
BRANCH  41  42
ATOM     42  C   UNL A   1      40.216  28.319  29.120  1.00  0.00     0.031 A 
ATOM     43  C   UNL A   1      40.511  26.926  28.834  1.00  0.00     0.074 A 
ATOM     44  C   UNL A   1      41.140  29.310  29.097  1.00  0.00     0.049 A 
ATOM     45  N   UNL A   1      41.606  26.349  29.156  1.00  0.00    -0.248 NA
ATOM     46  C   UNL A   1      39.541  26.054  28.182  1.00  0.00     0.031 C 
ATOM     47  C   UNL A   1      42.512  29.270  28.617  1.00  0.00     0.029 A 
ATOM     48  N   UNL A   1      41.010  30.634  29.480  1.00  0.00    -0.354 N 
ATOM     49  C   UNL A   1      41.622  25.149  28.484  1.00  0.00     0.074 A 
ATOM     50  C   UNL A   1      40.261  24.938  28.060  1.00  0.00     0.031 C 
ATOM     51  C   UNL A   1      43.143  30.399  29.001  1.00  0.00     0.029 A 
ATOM     52  C   UNL A   1      42.244  31.128  29.882  1.00  0.00     0.049 A 
ATOM     53  H   UNL A   1      40.170  31.147  29.471  1.00  0.00     0.167 HD
ATOM     54  C   UNL A   1      42.832  24.599  28.195  1.00  0.00     0.034 A 
ATOM     55  C   UNL A   1      42.483  31.395  31.207  1.00  0.00     0.034 A 
ATOM     56  C   UNL A   1      43.911  25.467  28.719  1.00  0.00     0.049 A 
ATOM     57  C   UNL A   1      43.428  30.377  31.833  1.00  0.00     0.074 A 
ATOM     58  C   UNL A   1      44.705  26.435  28.120  1.00  0.00     0.029 A 
ATOM     59  N   UNL A   1      44.021  25.675  30.092  1.00  0.00    -0.354 N 
ATOM     60  N   UNL A   1      43.844  29.298  31.227  1.00  0.00    -0.248 NA
ATOM     61  C   UNL A   1      43.991  30.493  33.177  1.00  0.00     0.031 C 
ATOM     62  C   UNL A   1      45.209  27.288  29.145  1.00  0.00     0.029 A 
ATOM     63  C   UNL A   1      44.755  26.823  30.368  1.00  0.00     0.049 A 
ATOM     64  H   UNL A   1      43.631  25.086  30.777  1.00  0.00     0.167 HD
ATOM     65  C   UNL A   1      44.577  28.523  32.078  1.00  0.00     0.074 A 
ATOM     66  C   UNL A   1      44.710  29.357  33.264  1.00  0.00     0.031 C 
ATOM     67  C   UNL A   1      44.963  27.247  31.756  1.00  0.00     0.034 A 
BRANCH  54  68
ATOM     68  C   UNL A   1      43.076  23.494  27.181  1.00  0.00     0.023 A 
ATOM     69  C   UNL A   1      43.795  23.847  26.019  1.00  0.00     0.012 A 
ATOM     70  C   UNL A   1      42.643  22.146  27.246  1.00  0.00     0.148 A 
ATOM     71  C   UNL A   1      44.004  22.957  24.960  1.00  0.00     0.002 A 
ATOM     72  C   UNL A   1      42.812  21.265  26.174  1.00  0.00     0.091 A 
ATOM     73  F   UNL A   1      42.123  21.659  28.370  1.00  0.00    -0.205 F 
ATOM     74  C   UNL A   1      43.491  21.670  25.025  1.00  0.00     0.022 A 
BRANCH  72  75
ATOM     75  S   UNL A   1      42.153  19.584  26.182  1.00  0.00     0.127 S 
ATOM     76  O   UNL A   1      40.713  19.818  26.060  1.00  0.00    -0.237 OA
ATOM     77  O   UNL A   1      42.776  19.000  24.996  1.00  0.00    -0.237 OA
ATOM     78  O   UNL A   1      42.553  18.988  27.451  1.00  0.00    -0.744 OA
ENDBRANCH  72  75
ENDBRANCH  54  68
BRANCH  55  79
ATOM     79  C   UNL A   1      41.286  32.012  31.872  1.00  0.00     0.023 A 
ATOM     80  C   UNL A   1      40.777  33.193  31.269  1.00  0.00     0.012 A 
ATOM     81  C   UNL A   1      40.429  31.252  32.688  1.00  0.00     0.148 A 
ATOM     82  C   UNL A   1      39.411  33.477  31.292  1.00  0.00     0.002 A 
ATOM     83  C   UNL A   1      39.067  31.553  32.718  1.00  0.00     0.091 A 
ATOM     84  F   UNL A   1      40.936  30.216  33.369  1.00  0.00    -0.205 F 
ATOM     85  C   UNL A   1      38.549  32.625  31.972  1.00  0.00     0.022 A 
BRANCH  83  86
ATOM     86  S   UNL A   1      37.903  30.511  33.611  1.00  0.00     0.127 S 
ATOM     87  O   UNL A   1      38.043  31.018  34.974  1.00  0.00    -0.237 OA
ATOM     88  O   UNL A   1      36.629  30.835  32.974  1.00  0.00    -0.237 OA
ATOM     89  O   UNL A   1      38.361  29.149  33.379  1.00  0.00    -0.744 OA
ENDBRANCH  83  86
ENDBRANCH  55  79
BRANCH  67  90
ATOM     90  C   UNL A   1      45.573  26.254  32.725  1.00  0.00     0.023 A 
ATOM     91  C   UNL A   1      46.962  26.135  32.911  1.00  0.00     0.012 A 
ATOM     92  C   UNL A   1      44.745  25.510  33.606  1.00  0.00     0.148 A 
ATOM     93  C   UNL A   1      47.506  25.272  33.868  1.00  0.00     0.002 A 
ATOM     94  C   UNL A   1      45.288  24.765  34.645  1.00  0.00     0.091 A 
ATOM     95  F   UNL A   1      43.415  25.500  33.430  1.00  0.00    -0.205 F 
ATOM     96  C   UNL A   1      46.669  24.608  34.755  1.00  0.00     0.022 A 
BRANCH  94  97
ATOM     97  S   UNL A   1      44.251  24.133  35.971  1.00  0.00     0.127 S 
ATOM     98  O   UNL A   1      43.394  23.189  35.260  1.00  0.00    -0.237 OA
ATOM     99  O   UNL A   1      45.231  23.515  36.865  1.00  0.00    -0.237 OA
ATOM    100  O   UNL A   1      43.591  25.305  36.531  1.00  0.00    -0.744 OA
ENDBRANCH  94  97
ENDBRANCH  67  90
ENDBRANCH  41  42
ENDBRANCH  33  36
ENDBRANCH  31  32
ENDBRANCH  30  31
ENDBRANCH   1  30
TORSDOF 17
ENDMDL
MODEL 2
REMARK VINA RESULT:     -13.7      1.110      1.803
REMARK SMILES Cc1ccc(CCC(=O)N2CCC3(CC2)[C@H](C(=O)NCCCCNC(=O)c2ccc(-c4c5nc(c(-c6cccc(S(=O)(=O)[O-])c6F)c6ccc([nH]6)c(-c6cccc(S(=O)(=O)[O-])c6F)c6nc(c(-c7cccc(S(=O)(=O)[O-])c7F)c7ccc4[nH]7)C=C6)C=C5)cc2)CC(=O)N3C)cc1
REMARK SMILES IDX 21 1 20 2 19 3 17 4 18 5 16 7 8 8 9 9 10 10 11 11 15 12
REMARK SMILES IDX 12 13 14 14 13 15 93 16 90 17 91 18 94 19 92 20 7 21 6 22
REMARK SMILES IDX 5 23 1 24 2 25 3 26 96 27 4 28 95 29 22 30 23 31 24 32 25 33
REMARK SMILES IDX 26 35 27 36 28 37 89 38 29 39 88 40 30 41 31 42 32 43 82 44
REMARK SMILES IDX 33 45 87 46 81 47 83 48 34 49 86 50 80 51 79 52 35 54 67 55
REMARK SMILES IDX 47 56 66 57 48 58 51 59 65 60 84 61 49 62 50 63 64 65 85 66
REMARK SMILES IDX 52 67 36 68 37 69 45 70 38 71 40 72 46 73 39 74 41 75 42 76
REMARK SMILES IDX 43 77 44 78 68 79 69 80 77 81 70 82 72 83 78 84 71 85 73 86
REMARK SMILES IDX 74 87 75 88 76 89 53 90 54 91 62 92 55 93 57 94 63 95 56 96
REMARK SMILES IDX 58 97 59 98 60 99 61 100
REMARK H PARENT 19 6 24 34 83 53 51 64
REMARK Flexibility Score: inf
ROOT
ATOM      1  C   UNL A   1      33.004  28.079  25.747  1.00  0.00     0.023 C 
ENDROOT
BRANCH   1   2
ATOM      2  C   UNL A   1      32.621  28.068  24.251  1.00  0.00     0.116 C 
BRANCH   2   3
ATOM      3  N   UNL A   1      33.400  27.201  23.371  1.00  0.00    -0.356 N 
ATOM      4  C   UNL A   1      33.207  25.985  22.798  1.00  0.00     0.226 C 
ATOM      5  O   UNL A   1      34.086  25.597  22.018  1.00  0.00    -0.275 OA
ATOM      6  H   UNL A   1      34.273  27.591  23.139  1.00  0.00     0.163 HD
BRANCH   4   7
ATOM      7  C   UNL A   1      32.009  25.060  23.053  1.00  0.00     0.113 C 
ATOM      8  C   UNL A   1      33.399  21.529  26.858  1.00  0.00     0.222 C 
ATOM      9  O   UNL A   1      34.238  21.550  27.762  1.00  0.00    -0.275 OA
ATOM     10  N   UNL A   1      32.665  22.652  26.539  1.00  0.00    -0.343 N 
ATOM     11  C   UNL A   1      33.220  23.983  26.632  1.00  0.00     0.122 C 
ATOM     12  C   UNL A   1      31.309  22.653  26.082  1.00  0.00     0.122 C 
ATOM     13  C   UNL A   1      33.134  24.582  25.236  1.00  0.00     0.051 C 
ATOM     14  C   UNL A   1      31.191  23.190  24.649  1.00  0.00     0.051 C 
ATOM     15  C   UNL A   1      31.742  24.630  24.529  1.00  0.00     0.058 C 
ATOM     16  N   UNL A   1      30.633  25.566  24.870  1.00  0.00    -0.339 N 
ATOM     17  C   UNL A   1      30.742  25.687  22.507  1.00  0.00     0.116 C 
ATOM     18  C   UNL A   1      29.982  26.070  23.733  1.00  0.00     0.223 C 
ATOM     19  C   UNL A   1      29.928  25.691  26.137  1.00  0.00     0.147 C 
ATOM     20  O   UNL A   1      28.937  26.701  23.710  1.00  0.00    -0.275 OA
BRANCH   8  21
ATOM     21  C   UNL A   1      33.341  20.331  25.897  1.00  0.00     0.105 C 
BRANCH  21  22
ATOM     22  C   UNL A   1      34.071  20.357  24.539  1.00  0.00     0.045 C 
BRANCH  22  23
ATOM     23  C   UNL A   1      35.524  20.809  24.591  1.00  0.00    -0.047 A 
ATOM     24  C   UNL A   1      39.264  22.117  26.224  1.00  0.00     0.044 C 
ATOM     25  C   UNL A   1      38.058  21.689  25.435  1.00  0.00    -0.051 A 
ATOM     26  C   UNL A   1      37.082  22.615  25.057  1.00  0.00     0.004 A 
ATOM     27  C   UNL A   1      37.821  20.327  25.212  1.00  0.00     0.004 A 
ATOM     28  C   UNL A   1      35.839  22.177  24.588  1.00  0.00     0.004 A 
ATOM     29  C   UNL A   1      36.559  19.888  24.798  1.00  0.00     0.004 A 
ENDBRANCH  22  23
ENDBRANCH  21  22
ENDBRANCH   8  21
ENDBRANCH   4   7
ENDBRANCH   2   3
ENDBRANCH   1   2
BRANCH   1  30
ATOM     30  C   UNL A   1      33.919  29.201  26.288  1.00  0.00     0.023 C 
BRANCH  30  31
ATOM     31  C   UNL A   1      33.656  29.702  27.695  1.00  0.00     0.116 C 
BRANCH  31  32
ATOM     32  N   UNL A   1      34.373  30.944  27.959  1.00  0.00    -0.352 N 
ATOM     33  C   UNL A   1      35.491  31.231  28.727  1.00  0.00     0.251 C 
ATOM     34  H   UNL A   1      33.990  31.729  27.505  1.00  0.00     0.163 HD
ATOM     35  O   UNL A   1      35.563  32.329  29.238  1.00  0.00    -0.269 OA
BRANCH  33  36
ATOM     36  C   UNL A   1      36.571  30.226  28.862  1.00  0.00     0.039 A 
ATOM     37  C   UNL A   1      36.709  29.395  29.976  1.00  0.00     0.014 A 
ATOM     38  C   UNL A   1      37.579  30.234  27.918  1.00  0.00     0.014 A 
ATOM     39  C   UNL A   1      37.923  28.728  30.157  1.00  0.00     0.010 A 
ATOM     40  C   UNL A   1      38.559  29.314  27.894  1.00  0.00     0.010 A 
ATOM     41  C   UNL A   1      38.854  28.769  29.122  1.00  0.00    -0.014 A 
BRANCH  41  42
ATOM     42  C   UNL A   1      40.233  28.354  29.144  1.00  0.00     0.031 A 
ATOM     43  C   UNL A   1      40.516  26.965  28.827  1.00  0.00     0.074 A 
ATOM     44  C   UNL A   1      41.163  29.340  29.130  1.00  0.00     0.049 A 
ATOM     45  N   UNL A   1      41.612  26.376  29.124  1.00  0.00    -0.248 NA
ATOM     46  C   UNL A   1      39.533  26.112  28.171  1.00  0.00     0.031 C 
ATOM     47  C   UNL A   1      42.529  29.302  28.631  1.00  0.00     0.029 A 
ATOM     48  N   UNL A   1      41.045  30.657  29.540  1.00  0.00    -0.354 N 
ATOM     49  C   UNL A   1      41.612  25.190  28.429  1.00  0.00     0.074 A 
ATOM     50  C   UNL A   1      40.244  24.994  28.018  1.00  0.00     0.031 C 
ATOM     51  C   UNL A   1      43.171  30.419  29.030  1.00  0.00     0.029 A 
ATOM     52  C   UNL A   1      42.287  31.135  29.936  1.00  0.00     0.049 A 
ATOM     53  H   UNL A   1      40.209  31.175  29.551  1.00  0.00     0.167 HD
ATOM     54  C   UNL A   1      42.815  24.638  28.113  1.00  0.00     0.034 A 
ATOM     55  C   UNL A   1      42.545  31.375  31.263  1.00  0.00     0.034 A 
ATOM     56  C   UNL A   1      43.906  25.489  28.640  1.00  0.00     0.049 A 
ATOM     57  C   UNL A   1      43.491  30.339  31.857  1.00  0.00     0.074 A 
ATOM     58  C   UNL A   1      44.698  26.465  28.051  1.00  0.00     0.029 A 
ATOM     59  N   UNL A   1      44.035  25.670  30.016  1.00  0.00    -0.354 N 
ATOM     60  N   UNL A   1      43.893  29.270  31.224  1.00  0.00    -0.248 NA
ATOM     61  C   UNL A   1      44.072  30.425  33.195  1.00  0.00     0.031 C 
ATOM     62  C   UNL A   1      45.220  27.294  29.086  1.00  0.00     0.029 A 
ATOM     63  C   UNL A   1      44.778  26.808  30.305  1.00  0.00     0.049 A 
ATOM     64  H   UNL A   1      43.649  25.070  30.694  1.00  0.00     0.167 HD
ATOM     65  C   UNL A   1      44.633  28.474  32.051  1.00  0.00     0.074 A 
ATOM     66  C   UNL A   1      44.785  29.284  33.250  1.00  0.00     0.031 C 
ATOM     67  C   UNL A   1      45.006  27.203  31.698  1.00  0.00     0.034 A 
BRANCH  54  68
ATOM     68  C   UNL A   1      43.040  23.552  27.075  1.00  0.00     0.023 A 
ATOM     69  C   UNL A   1      43.496  23.971  25.806  1.00  0.00     0.012 A 
ATOM     70  C   UNL A   1      42.819  22.158  27.214  1.00  0.00     0.148 A 
ATOM     71  C   UNL A   1      43.648  23.092  24.729  1.00  0.00     0.002 A 
ATOM     72  C   UNL A   1      42.929  21.282  26.131  1.00  0.00     0.091 A 
ATOM     73  F   UNL A   1      42.570  21.633  28.412  1.00  0.00    -0.205 F 
ATOM     74  C   UNL A   1      43.342  21.748  24.883  1.00  0.00     0.022 A 
BRANCH  72  75
ATOM     75  S   UNL A   1      42.526  19.527  26.254  1.00  0.00     0.127 S 
ATOM     76  O   UNL A   1      41.326  19.428  25.422  1.00  0.00    -0.237 OA
ATOM     77  O   UNL A   1      43.714  18.895  25.684  1.00  0.00    -0.237 OA
ATOM     78  O   UNL A   1      42.294  19.252  27.667  1.00  0.00    -0.744 OA
ENDBRANCH  72  75
ENDBRANCH  54  68
BRANCH  55  79
ATOM     79  C   UNL A   1      41.360  31.986  31.955  1.00  0.00     0.023 A 
ATOM     80  C   UNL A   1      40.853  33.183  31.383  1.00  0.00     0.012 A 
ATOM     81  C   UNL A   1      40.508  31.214  32.765  1.00  0.00     0.148 A 
ATOM     82  C   UNL A   1      39.489  33.475  31.428  1.00  0.00     0.002 A 
ATOM     83  C   UNL A   1      39.148  31.523  32.817  1.00  0.00     0.091 A 
ATOM     84  F   UNL A   1      41.015  30.160  33.417  1.00  0.00    -0.205 F 
ATOM     85  C   UNL A   1      38.629  32.615  32.101  1.00  0.00     0.022 A 
BRANCH  83  86
ATOM     86  S   UNL A   1      37.987  30.470  33.702  1.00  0.00     0.127 S 
ATOM     87  O   UNL A   1      38.168  30.927  35.077  1.00  0.00    -0.237 OA
ATOM     88  O   UNL A   1      36.704  30.837  33.107  1.00  0.00    -0.237 OA
ATOM     89  O   UNL A   1      38.416  29.110  33.412  1.00  0.00    -0.744 OA
ENDBRANCH  83  86
ENDBRANCH  55  79
BRANCH  67  90
ATOM     90  C   UNL A   1      45.623  26.187  32.640  1.00  0.00     0.023 A 
ATOM     91  C   UNL A   1      47.013  26.029  32.776  1.00  0.00     0.012 A 
ATOM     92  C   UNL A   1      44.806  25.460  33.545  1.00  0.00     0.148 A 
ATOM     93  C   UNL A   1      47.567  25.145  33.708  1.00  0.00     0.002 A 
ATOM     94  C   UNL A   1      45.365  24.694  34.560  1.00  0.00     0.091 A 
ATOM     95  F   UNL A   1      43.471  25.488  33.417  1.00  0.00    -0.205 F 
ATOM     96  C   UNL A   1      46.744  24.499  34.621  1.00  0.00     0.022 A 
BRANCH  94  97
ATOM     97  S   UNL A   1      44.358  24.083  35.919  1.00  0.00     0.127 S 
ATOM     98  O   UNL A   1      43.510  23.101  35.248  1.00  0.00    -0.237 OA
ATOM     99  O   UNL A   1      45.362  23.510  36.817  1.00  0.00    -0.237 OA
ATOM    100  O   UNL A   1      43.683  25.258  36.453  1.00  0.00    -0.744 OA
ENDBRANCH  94  97
ENDBRANCH  67  90
ENDBRANCH  41  42
ENDBRANCH  33  36
ENDBRANCH  31  32
ENDBRANCH  30  31
ENDBRANCH   1  30
TORSDOF 17
ENDMDL
MODEL 3
REMARK VINA RESULT:     -13.4      3.324      4.815
REMARK SMILES Cc1ccc(CCC(=O)N2CCC3(CC2)[C@H](C(=O)NCCCCNC(=O)c2ccc(-c4c5nc(c(-c6cccc(S(=O)(=O)[O-])c6F)c6ccc([nH]6)c(-c6cccc(S(=O)(=O)[O-])c6F)c6nc(c(-c7cccc(S(=O)(=O)[O-])c7F)c7ccc4[nH]7)C=C6)C=C5)cc2)CC(=O)N3C)cc1
REMARK SMILES IDX 21 1 20 2 19 3 17 4 18 5 16 7 8 8 9 9 10 10 11 11 15 12
REMARK SMILES IDX 12 13 14 14 13 15 93 16 90 17 91 18 94 19 92 20 7 21 6 22
REMARK SMILES IDX 5 23 1 24 2 25 3 26 96 27 4 28 95 29 22 30 23 31 24 32 25 33
REMARK SMILES IDX 26 35 27 36 28 37 89 38 29 39 88 40 30 41 31 42 32 43 82 44
REMARK SMILES IDX 33 45 87 46 81 47 83 48 34 49 86 50 80 51 79 52 35 54 67 55
REMARK SMILES IDX 47 56 66 57 48 58 51 59 65 60 84 61 49 62 50 63 64 65 85 66
REMARK SMILES IDX 52 67 36 68 37 69 45 70 38 71 40 72 46 73 39 74 41 75 42 76
REMARK SMILES IDX 43 77 44 78 68 79 69 80 77 81 70 82 72 83 78 84 71 85 73 86
REMARK SMILES IDX 74 87 75 88 76 89 53 90 54 91 62 92 55 93 57 94 63 95 56 96
REMARK SMILES IDX 58 97 59 98 60 99 61 100
REMARK H PARENT 19 6 24 34 83 53 51 64
REMARK Flexibility Score: inf
ROOT
ATOM      1  C   UNL A   1      35.235  30.813  28.026  1.00  0.00     0.023 C 
ENDROOT
BRANCH   1   2
ATOM      2  C   UNL A   1      34.982  29.330  27.677  1.00  0.00     0.116 C 
BRANCH   2   3
ATOM      3  N   UNL A   1      33.624  28.827  27.859  1.00  0.00    -0.356 N 
ATOM      4  C   UNL A   1      32.660  28.329  27.040  1.00  0.00     0.226 C 
ATOM      5  O   UNL A   1      31.633  27.911  27.588  1.00  0.00    -0.275 OA
ATOM      6  H   UNL A   1      33.337  28.855  28.800  1.00  0.00     0.163 HD
BRANCH   4   7
ATOM      7  C   UNL A   1      32.740  28.264  25.508  1.00  0.00     0.113 C 
ATOM      8  C   UNL A   1      33.926  23.214  24.104  1.00  0.00     0.222 C 
ATOM      9  O   UNL A   1      33.766  22.125  24.660  1.00  0.00    -0.275 OA
ATOM     10  N   UNL A   1      32.960  24.198  24.170  1.00  0.00    -0.343 N 
ATOM     11  C   UNL A   1      32.136  24.386  25.341  1.00  0.00     0.122 C 
ATOM     12  C   UNL A   1      32.661  25.134  23.130  1.00  0.00     0.122 C 
ATOM     13  C   UNL A   1      32.392  25.806  25.822  1.00  0.00     0.051 C 
ATOM     14  C   UNL A   1      32.970  26.576  23.556  1.00  0.00     0.051 C 
ATOM     15  C   UNL A   1      32.175  26.984  24.819  1.00  0.00     0.058 C 
ATOM     16  N   UNL A   1      30.851  27.501  24.369  1.00  0.00    -0.339 N 
ATOM     17  C   UNL A   1      32.054  29.471  24.900  1.00  0.00     0.116 C 
ATOM     18  C   UNL A   1      30.816  28.903  24.292  1.00  0.00     0.223 C 
ATOM     19  C   UNL A   1      29.805  26.781  23.657  1.00  0.00     0.147 C 
ATOM     20  O   UNL A   1      29.938  29.584  23.785  1.00  0.00    -0.275 OA
BRANCH   8  21
ATOM     21  C   UNL A   1      35.309  23.595  23.551  1.00  0.00     0.105 C 
BRANCH  21  22
ATOM     22  C   UNL A   1      36.486  22.600  23.585  1.00  0.00     0.045 C 
BRANCH  22  23
ATOM     23  C   UNL A   1      37.305  22.605  24.868  1.00  0.00    -0.047 A 
ATOM     24  C   UNL A   1      40.669  23.076  27.481  1.00  0.00     0.044 C 
ATOM     25  C   UNL A   1      39.373  22.828  26.761  1.00  0.00    -0.051 A 
ATOM     26  C   UNL A   1      39.126  21.605  26.130  1.00  0.00     0.004 A 
ATOM     27  C   UNL A   1      38.468  23.880  26.577  1.00  0.00     0.004 A 
ATOM     28  C   UNL A   1      38.064  21.481  25.227  1.00  0.00     0.004 A 
ATOM     29  C   UNL A   1      37.442  23.772  25.631  1.00  0.00     0.004 A 
ENDBRANCH  22  23
ENDBRANCH  21  22
ENDBRANCH   8  21
ENDBRANCH   4   7
ENDBRANCH   2   3
ENDBRANCH   1   2
BRANCH   1  30
ATOM     30  C   UNL A   1      34.063  31.818  27.961  1.00  0.00     0.023 C 
BRANCH  30  31
ATOM     31  C   UNL A   1      34.408  33.295  27.936  1.00  0.00     0.116 C 
BRANCH  31  32
ATOM     32  N   UNL A   1      34.009  33.954  29.174  1.00  0.00    -0.352 N 
ATOM     33  C   UNL A   1      34.475  33.855  30.476  1.00  0.00     0.251 C 
ATOM     34  H   UNL A   1      33.267  34.592  29.064  1.00  0.00     0.163 HD
ATOM     35  O   UNL A   1      33.684  34.034  31.378  1.00  0.00    -0.269 OA
BRANCH  33  36
ATOM     36  C   UNL A   1      35.910  33.587  30.728  1.00  0.00     0.039 A 
ATOM     37  C   UNL A   1      36.939  34.158  29.976  1.00  0.00     0.014 A 
ATOM     38  C   UNL A   1      36.230  32.598  31.636  1.00  0.00     0.014 A 
ATOM     39  C   UNL A   1      38.216  33.600  30.070  1.00  0.00     0.010 A 
ATOM     40  C   UNL A   1      37.496  32.332  32.005  1.00  0.00     0.010 A 
ATOM     41  C   UNL A   1      38.439  32.636  31.052  1.00  0.00    -0.014 A 
BRANCH  41  42
ATOM     42  C   UNL A   1      39.580  31.772  31.212  1.00  0.00     0.031 A 
ATOM     43  C   UNL A   1      39.636  30.581  30.384  1.00  0.00     0.074 A 
ATOM     44  C   UNL A   1      40.648  32.296  31.861  1.00  0.00     0.049 A 
ATOM     45  N   UNL A   1      40.382  29.573  30.635  1.00  0.00    -0.248 NA
ATOM     46  C   UNL A   1      38.796  30.427  29.203  1.00  0.00     0.031 C 
ATOM     47  C   UNL A   1      42.055  31.945  31.738  1.00  0.00     0.029 A 
ATOM     48  N   UNL A   1      40.692  33.333  32.777  1.00  0.00    -0.354 N 
ATOM     49  C   UNL A   1      40.367  28.791  29.504  1.00  0.00     0.074 A 
ATOM     50  C   UNL A   1      39.239  29.258  28.739  1.00  0.00     0.031 C 
ATOM     51  C   UNL A   1      42.743  32.540  32.734  1.00  0.00     0.029 A 
ATOM     52  C   UNL A   1      41.776  33.161  33.627  1.00  0.00     0.049 A 
ATOM     53  H   UNL A   1      40.051  34.079  32.820  1.00  0.00     0.167 HD
ATOM     54  C   UNL A   1      41.443  27.991  29.271  1.00  0.00     0.034 A 
ATOM     55  C   UNL A   1      41.578  32.811  34.939  1.00  0.00     0.034 A 
ATOM     56  C   UNL A   1      42.428  28.150  30.365  1.00  0.00     0.049 A 
ATOM     57  C   UNL A   1      41.979  31.366  35.212  1.00  0.00     0.074 A 
ATOM     58  C   UNL A   1      43.580  28.914  30.481  1.00  0.00     0.029 A 
ATOM     59  N   UNL A   1      42.081  27.778  31.662  1.00  0.00    -0.354 N 
ATOM     60  N   UNL A   1      42.330  30.519  34.282  1.00  0.00    -0.248 NA
ATOM     61  C   UNL A   1      42.032  30.763  36.541  1.00  0.00     0.031 C 
ATOM     62  C   UNL A   1      43.860  29.081  31.868  1.00  0.00     0.029 A 
ATOM     63  C   UNL A   1      42.905  28.393  32.597  1.00  0.00     0.049 A 
ATOM     64  H   UNL A   1      41.349  27.160  31.886  1.00  0.00     0.167 HD
ATOM     65  C   UNL A   1      42.513  29.275  34.814  1.00  0.00     0.074 A 
ATOM     66  C   UNL A   1      42.396  29.500  36.247  1.00  0.00     0.031 C 
ATOM     67  C   UNL A   1      42.691  28.165  34.029  1.00  0.00     0.034 A 
BRANCH  54  68
ATOM     68  C   UNL A   1      41.779  27.335  27.942  1.00  0.00     0.023 A 
ATOM     69  C   UNL A   1      40.689  26.953  27.129  1.00  0.00     0.012 A 
ATOM     70  C   UNL A   1      43.063  27.028  27.425  1.00  0.00     0.148 A 
ATOM     71  C   UNL A   1      40.850  26.250  25.930  1.00  0.00     0.002 A 
ATOM     72  C   UNL A   1      43.227  26.289  26.250  1.00  0.00     0.091 A 
ATOM     73  F   UNL A   1      44.157  27.505  28.015  1.00  0.00    -0.205 F 
ATOM     74  C   UNL A   1      42.119  25.896  25.500  1.00  0.00     0.022 A 
BRANCH  72  75
ATOM     75  S   UNL A   1      44.848  25.775  25.642  1.00  0.00     0.127 S 
ATOM     76  O   UNL A   1      44.492  24.843  24.571  1.00  0.00    -0.237 OA
ATOM     77  O   UNL A   1      45.423  27.038  25.185  1.00  0.00    -0.237 OA
ATOM     78  O   UNL A   1      45.534  25.152  26.768  1.00  0.00    -0.744 OA
ENDBRANCH  72  75
ENDBRANCH  54  68
BRANCH  55  79
ATOM     79  C   UNL A   1      40.393  33.523  35.529  1.00  0.00     0.023 A 
ATOM     80  C   UNL A   1      39.159  32.822  35.482  1.00  0.00     0.012 A 
ATOM     81  C   UNL A   1      40.554  34.540  36.487  1.00  0.00     0.148 A 
ATOM     82  C   UNL A   1      38.212  32.972  36.496  1.00  0.00     0.002 A 
ATOM     83  C   UNL A   1      39.594  34.693  37.489  1.00  0.00     0.091 A 
ATOM     84  F   UNL A   1      41.658  35.295  36.450  1.00  0.00    -0.205 F 
ATOM     85  C   UNL A   1      38.456  33.870  37.529  1.00  0.00     0.022 A 
BRANCH  83  86
ATOM     86  S   UNL A   1      39.832  35.864  38.834  1.00  0.00     0.127 S 
ATOM     87  O   UNL A   1      38.702  35.546  39.702  1.00  0.00    -0.237 OA
ATOM     88  O   UNL A   1      41.134  35.476  39.370  1.00  0.00    -0.237 OA
ATOM     89  O   UNL A   1      39.810  37.175  38.201  1.00  0.00    -0.744 OA
ENDBRANCH  83  86
ENDBRANCH  55  79
BRANCH  67  90
ATOM     90  C   UNL A   1      42.671  26.734  34.532  1.00  0.00     0.023 A 
ATOM     91  C   UNL A   1      41.563  26.184  35.201  1.00  0.00     0.012 A 
ATOM     92  C   UNL A   1      43.724  25.842  34.200  1.00  0.00     0.148 A 
ATOM     93  C   UNL A   1      41.528  24.839  35.586  1.00  0.00     0.002 A 
ATOM     94  C   UNL A   1      43.621  24.481  34.459  1.00  0.00     0.091 A 
ATOM     95  F   UNL A   1      44.852  26.311  33.645  1.00  0.00    -0.205 F 
ATOM     96  C   UNL A   1      42.545  23.981  35.190  1.00  0.00     0.022 A 
BRANCH  94  97
ATOM     97  S   UNL A   1      44.766  23.310  33.717  1.00  0.00     0.127 S 
ATOM     98  O   UNL A   1      46.053  23.791  34.210  1.00  0.00    -0.237 OA
ATOM     99  O   UNL A   1      44.326  22.038  34.294  1.00  0.00    -0.237 OA
ATOM    100  O   UNL A   1      44.546  23.419  32.281  1.00  0.00    -0.744 OA
ENDBRANCH  94  97
ENDBRANCH  67  90
ENDBRANCH  41  42
ENDBRANCH  33  36
ENDBRANCH  31  32
ENDBRANCH  30  31
ENDBRANCH   1  30
TORSDOF 17
ENDMDL
