MODEL 1
REMARK VINA RESULT:     -12.4      0.000      0.000
REMARK SMILES O=C(CN(c1ccccc1)[C@@H]1CCO[C@]2(CCSC2)C1)NCCCCNC(=O)c1ccc(-c2c3nc(c(-c4cccc(S(=O)(=O)[O-])c4F)c4ccc([nH]4)c(-c4cccc(S(=O)(=O)[O-])c4F)c4nc(c(-c5cccc(S(=O)(=O)[O-])c5F)c5ccc2[nH]5)C=C4)C=C3)cc1
REMARK SMILES IDX 24 1 23 2 22 3 21 4 1 5 2 6 3 8 4 9 5 10 6 11 10 12 7 13
REMARK SMILES IDX 9 14 8 15 11 16 12 17 20 18 13 19 15 20 14 21 16 22 19 23
REMARK SMILES IDX 17 24 18 25 25 26 26 27 27 28 28 30 29 31 30 32 91 33 31 34
REMARK SMILES IDX 90 35 32 36 33 37 34 38 84 39 35 40 89 41 83 42 85 43 36 44
REMARK SMILES IDX 88 45 82 46 81 47 37 49 69 50 49 51 68 52 50 53 53 54 67 55
REMARK SMILES IDX 86 56 51 57 52 58 66 60 87 61 54 62 38 63 39 64 47 65 40 66
REMARK SMILES IDX 42 67 48 68 41 69 43 70 44 71 45 72 46 73 70 74 71 75 79 76
REMARK SMILES IDX 72 77 74 78 80 79 73 80 75 81 76 82 77 83 78 84 55 85 56 86
REMARK SMILES IDX 64 87 57 88 59 89 65 90 58 91 60 92 61 93 62 94 63 95
REMARK H PARENT 21 7 26 29 85 48 53 59
REMARK Flexibility Score: inf
ROOT
ATOM      1  C   UNL A   1      31.540  32.120  26.890  1.00  0.00     0.023 C 
ENDROOT
BRANCH   1   2
ATOM      2  C   UNL A   1      31.892  30.827  26.153  1.00  0.00     0.023 C 
BRANCH   2   3
ATOM      3  C   UNL A   1      32.769  29.866  26.958  1.00  0.00     0.116 C 
BRANCH   3   4
ATOM      4  N   UNL A   1      32.800  28.536  26.393  1.00  0.00    -0.355 N 
ATOM      5  O   UNL A   1      31.188  27.745  27.789  1.00  0.00    -0.273 OA
ATOM      6  C   UNL A   1      31.961  27.551  26.850  1.00  0.00     0.239 C 
ATOM      7  H   UNL A   1      33.434  28.333  25.669  1.00  0.00     0.163 HD
BRANCH   6   8
ATOM      8  C   UNL A   1      32.154  26.174  26.225  1.00  0.00     0.216 C 
BRANCH   8   9
ATOM      9  N   UNL A   1      32.066  25.994  24.737  1.00  0.00    -0.359 N 
BRANCH   9  10
ATOM     10  C   UNL A   1      30.892  26.558  24.195  1.00  0.00     0.037 A 
ATOM     11  C   UNL A   1      29.645  25.983  24.466  1.00  0.00     0.026 A 
ATOM     12  C   UNL A   1      30.907  27.749  23.448  1.00  0.00     0.026 A 
ATOM     13  C   UNL A   1      28.460  26.579  24.017  1.00  0.00     0.002 A 
ATOM     14  C   UNL A   1      29.728  28.341  22.985  1.00  0.00     0.002 A 
ATOM     15  C   UNL A   1      28.502  27.756  23.274  1.00  0.00     0.000 A 
ENDBRANCH   9  10
BRANCH   9  16
ATOM     16  C   UNL A   1      33.172  25.719  23.759  1.00  0.00     0.088 C 
ATOM     17  C   UNL A   1      32.700  25.018  22.500  1.00  0.00     0.053 C 
ATOM     18  C   UNL A   1      34.408  24.909  24.229  1.00  0.00     0.061 C 
ATOM     19  C   UNL A   1      32.676  23.504  22.722  1.00  0.00     0.163 C 
ATOM     20  C   UNL A   1      34.014  23.515  24.743  1.00  0.00     0.080 C 
ATOM     21  O   UNL A   1      32.757  23.161  24.129  1.00  0.00    -0.374 OA
ATOM     22  C   UNL A   1      33.991  23.656  26.287  1.00  0.00     0.047 C 
ATOM     23  C   UNL A   1      34.942  22.312  24.450  1.00  0.00     0.105 C 
ATOM     24  C   UNL A   1      34.090  22.314  26.960  1.00  0.00     0.072 C 
ATOM     25  S   UNL A   1      35.428  21.549  26.031  1.00  0.00    -0.159 SA
ENDBRANCH   9  16
ENDBRANCH   8   9
ENDBRANCH   6   8
ENDBRANCH   3   4
ENDBRANCH   2   3
ENDBRANCH   1   2
BRANCH   1  26
ATOM     26  C   UNL A   1      32.723  32.809  27.551  1.00  0.00     0.116 C 
BRANCH  26  27
ATOM     27  N   UNL A   1      32.487  34.229  27.753  1.00  0.00    -0.352 N 
ATOM     28  C   UNL A   1      33.081  35.068  28.667  1.00  0.00     0.251 C 
ATOM     29  H   UNL A   1      31.818  34.644  27.161  1.00  0.00     0.163 HD
ATOM     30  O   UNL A   1      32.660  36.197  28.846  1.00  0.00    -0.269 OA
BRANCH  28  31
ATOM     31  C   UNL A   1      34.230  34.555  29.443  1.00  0.00     0.039 A 
ATOM     32  C   UNL A   1      33.995  33.959  30.682  1.00  0.00     0.014 A 
ATOM     33  C   UNL A   1      35.522  34.617  28.911  1.00  0.00     0.014 A 
ATOM     34  C   UNL A   1      35.060  33.382  31.374  1.00  0.00     0.010 A 
ATOM     35  C   UNL A   1      36.563  33.968  29.563  1.00  0.00     0.010 A 
ATOM     36  C   UNL A   1      36.347  33.357  30.807  1.00  0.00    -0.014 A 
BRANCH  36  37
ATOM     37  C   UNL A   1      37.479  32.701  31.508  1.00  0.00     0.031 A 
ATOM     38  C   UNL A   1      38.201  31.552  30.859  1.00  0.00     0.074 A 
ATOM     39  C   UNL A   1      37.809  33.092  32.754  1.00  0.00     0.049 A 
ATOM     40  N   UNL A   1      39.188  30.833  31.324  1.00  0.00    -0.248 NA
ATOM     41  C   UNL A   1      37.737  31.139  29.523  1.00  0.00     0.031 C 
ATOM     42  C   UNL A   1      37.132  34.142  33.520  1.00  0.00     0.029 A 
ATOM     43  N   UNL A   1      38.783  32.638  33.607  1.00  0.00    -0.354 N 
ATOM     44  C   UNL A   1      39.439  29.863  30.360  1.00  0.00     0.074 A 
ATOM     45  C   UNL A   1      38.477  30.062  29.299  1.00  0.00     0.031 C 
ATOM     46  C   UNL A   1      37.719  34.259  34.722  1.00  0.00     0.029 A 
ATOM     47  C   UNL A   1      38.789  33.272  34.827  1.00  0.00     0.049 A 
ATOM     48  H   UNL A   1      39.418  31.924  33.367  1.00  0.00     0.167 HD
ATOM     49  C   UNL A   1      40.402  28.912  30.343  1.00  0.00     0.034 A 
ATOM     50  C   UNL A   1      39.564  33.075  35.912  1.00  0.00     0.034 A 
ATOM     51  C   UNL A   1      41.381  28.744  31.382  1.00  0.00     0.049 A 
ATOM     52  C   UNL A   1      40.646  32.031  35.855  1.00  0.00     0.074 A 
ATOM     53  C   UNL A   1      42.452  27.870  31.419  1.00  0.00     0.029 A 
ATOM     54  N   UNL A   1      41.401  29.453  32.573  1.00  0.00    -0.354 N 
ATOM     55  N   UNL A   1      40.969  31.229  34.869  1.00  0.00    -0.248 NA
ATOM     56  C   UNL A   1      41.495  31.887  37.047  1.00  0.00     0.031 C 
ATOM     57  C   UNL A   1      43.099  28.026  32.649  1.00  0.00     0.029 A 
ATOM     58  C   UNL A   1      42.456  29.027  33.360  1.00  0.00     0.049 A 
ATOM     59  H   UNL A   1      40.759  30.157  32.822  1.00  0.00     0.167 HD
ATOM     60  C   UNL A   1      42.080  30.516  35.305  1.00  0.00     0.074 A 
ATOM     61  C   UNL A   1      42.386  30.994  36.637  1.00  0.00     0.031 C 
ATOM     62  C   UNL A   1      42.778  29.546  34.665  1.00  0.00     0.034 A 
BRANCH  49  63
ATOM     63  C   UNL A   1      40.470  28.003  29.143  1.00  0.00     0.023 A 
ATOM     64  C   UNL A   1      39.563  26.930  29.026  1.00  0.00     0.012 A 
ATOM     65  C   UNL A   1      41.391  28.244  28.106  1.00  0.00     0.148 A 
ATOM     66  C   UNL A   1      39.596  26.088  27.915  1.00  0.00     0.002 A 
ATOM     67  C   UNL A   1      41.386  27.431  26.979  1.00  0.00     0.091 A 
ATOM     68  F   UNL A   1      42.260  29.256  28.244  1.00  0.00    -0.205 F 
ATOM     69  C   UNL A   1      40.500  26.346  26.887  1.00  0.00     0.022 A 
BRANCH  67  70
ATOM     70  S   UNL A   1      42.453  27.728  25.565  1.00  0.00     0.127 S 
ATOM     71  O   UNL A   1      42.216  26.529  24.761  1.00  0.00    -0.237 OA
ATOM     72  O   UNL A   1      41.890  28.957  25.008  1.00  0.00    -0.237 OA
ATOM     73  O   UNL A   1      43.802  27.862  26.099  1.00  0.00    -0.744 OA
ENDBRANCH  67  70
ENDBRANCH  49  63
BRANCH  50  74
ATOM     74  C   UNL A   1      39.384  33.925  37.123  1.00  0.00     0.023 A 
ATOM     75  C   UNL A   1      39.827  35.262  37.105  1.00  0.00     0.012 A 
ATOM     76  C   UNL A   1      38.762  33.423  38.283  1.00  0.00     0.148 A 
ATOM     77  C   UNL A   1      39.686  36.073  38.231  1.00  0.00     0.002 A 
ATOM     78  C   UNL A   1      38.574  34.253  39.382  1.00  0.00     0.091 A 
ATOM     79  F   UNL A   1      38.357  32.145  38.283  1.00  0.00    -0.205 F 
ATOM     80  C   UNL A   1      39.052  35.574  39.365  1.00  0.00     0.022 A 
BRANCH  78  81
ATOM     81  S   UNL A   1      37.658  33.735  40.836  1.00  0.00     0.127 S 
ATOM     82  O   UNL A   1      38.570  32.763  41.434  1.00  0.00    -0.237 OA
ATOM     83  O   UNL A   1      37.528  34.994  41.572  1.00  0.00    -0.237 OA
ATOM     84  O   UNL A   1      36.399  33.197  40.339  1.00  0.00    -0.744 OA
ENDBRANCH  78  81
ENDBRANCH  50  74
BRANCH  62  85
ATOM     85  C   UNL A   1      43.971  28.958  35.373  1.00  0.00     0.023 A 
ATOM     86  C   UNL A   1      45.236  29.564  35.247  1.00  0.00     0.012 A 
ATOM     87  C   UNL A   1      43.819  27.845  36.224  1.00  0.00     0.148 A 
ATOM     88  C   UNL A   1      46.339  29.051  35.929  1.00  0.00     0.002 A 
ATOM     89  C   UNL A   1      44.910  27.372  36.942  1.00  0.00     0.091 A 
ATOM     90  F   UNL A   1      42.610  27.273  36.318  1.00  0.00    -0.205 F 
ATOM     91  C   UNL A   1      46.173  27.964  36.784  1.00  0.00     0.022 A 
BRANCH  89  92
ATOM     92  S   UNL A   1      44.771  26.045  38.143  1.00  0.00     0.127 S 
ATOM     93  O   UNL A   1      46.118  26.016  38.712  1.00  0.00    -0.237 OA
ATOM     94  O   UNL A   1      43.737  26.551  39.046  1.00  0.00    -0.237 OA
ATOM     95  O   UNL A   1      44.388  24.857  37.390  1.00  0.00    -0.744 OA
ENDBRANCH  89  92
ENDBRANCH  62  85
ENDBRANCH  36  37
ENDBRANCH  28  31
ENDBRANCH  26  27
ENDBRANCH   1  26
TORSDOF 17
ENDMDL
MODEL 2
REMARK VINA RESULT:     -12.1      1.300      2.727
REMARK SMILES O=C(CN(c1ccccc1)[C@@H]1CCO[C@]2(CCSC2)C1)NCCCCNC(=O)c1ccc(-c2c3nc(c(-c4cccc(S(=O)(=O)[O-])c4F)c4ccc([nH]4)c(-c4cccc(S(=O)(=O)[O-])c4F)c4nc(c(-c5cccc(S(=O)(=O)[O-])c5F)c5ccc2[nH]5)C=C4)C=C3)cc1
REMARK SMILES IDX 24 1 23 2 22 3 21 4 1 5 2 6 3 8 4 9 5 10 6 11 10 12 7 13
REMARK SMILES IDX 9 14 8 15 11 16 12 17 20 18 13 19 15 20 14 21 16 22 19 23
REMARK SMILES IDX 17 24 18 25 25 26 26 27 27 28 28 30 29 31 30 32 91 33 31 34
REMARK SMILES IDX 90 35 32 36 33 37 34 38 84 39 35 40 89 41 83 42 85 43 36 44
REMARK SMILES IDX 88 45 82 46 81 47 37 49 69 50 49 51 68 52 50 53 53 54 67 55
REMARK SMILES IDX 86 56 51 57 52 58 66 60 87 61 54 62 38 63 39 64 47 65 40 66
REMARK SMILES IDX 42 67 48 68 41 69 43 70 44 71 45 72 46 73 70 74 71 75 79 76
REMARK SMILES IDX 72 77 74 78 80 79 73 80 75 81 76 82 77 83 78 84 55 85 56 86
REMARK SMILES IDX 64 87 57 88 59 89 65 90 58 91 60 92 61 93 62 94 63 95
REMARK H PARENT 21 7 26 29 85 48 53 59
REMARK Flexibility Score: inf
ROOT
ATOM      1  C   UNL A   1      31.577  32.185  26.945  1.00  0.00     0.023 C 
ENDROOT
BRANCH   1   2
ATOM      2  C   UNL A   1      31.847  30.748  26.495  1.00  0.00     0.023 C 
BRANCH   2   3
ATOM      3  C   UNL A   1      33.328  30.424  26.293  1.00  0.00     0.116 C 
BRANCH   3   4
ATOM      4  N   UNL A   1      33.538  29.344  25.355  1.00  0.00    -0.355 N 
ATOM      5  O   UNL A   1      33.471  27.736  26.962  1.00  0.00    -0.273 OA
ATOM      6  C   UNL A   1      33.569  28.037  25.772  1.00  0.00     0.239 C 
ATOM      7  H   UNL A   1      33.662  29.551  24.401  1.00  0.00     0.163 HD
BRANCH   6   8
ATOM      8  C   UNL A   1      33.879  27.006  24.693  1.00  0.00     0.216 C 
BRANCH   8   9
ATOM      9  N   UNL A   1      33.336  25.610  24.793  1.00  0.00    -0.359 N 
BRANCH   9  10
ATOM     10  C   UNL A   1      34.320  24.631  24.539  1.00  0.00     0.037 A 
ATOM     11  C   UNL A   1      35.122  24.151  25.581  1.00  0.00     0.026 A 
ATOM     12  C   UNL A   1      34.480  24.039  23.273  1.00  0.00     0.026 A 
ATOM     13  C   UNL A   1      36.039  23.115  25.371  1.00  0.00     0.002 A 
ATOM     14  C   UNL A   1      35.405  23.014  23.054  1.00  0.00     0.002 A 
ATOM     15  C   UNL A   1      36.182  22.548  24.106  1.00  0.00     0.000 A 
ENDBRANCH   9  10
BRANCH   9  16
ATOM     16  C   UNL A   1      32.105  25.132  25.508  1.00  0.00     0.088 C 
ATOM     17  C   UNL A   1      31.623  23.776  25.032  1.00  0.00     0.053 C 
ATOM     18  C   UNL A   1      30.840  26.029  25.510  1.00  0.00     0.061 C 
ATOM     19  C   UNL A   1      30.710  23.943  23.814  1.00  0.00     0.163 C 
ATOM     20  C   UNL A   1      30.348  26.324  24.083  1.00  0.00     0.080 C 
ATOM     21  O   UNL A   1      30.824  25.265  23.228  1.00  0.00    -0.374 OA
ATOM     22  C   UNL A   1      30.891  27.741  23.764  1.00  0.00     0.047 C 
ATOM     23  C   UNL A   1      28.827  26.391  23.808  1.00  0.00     0.105 C 
ATOM     24  C   UNL A   1      30.133  28.374  22.630  1.00  0.00     0.072 C 
ATOM     25  S   UNL A   1      28.432  28.023  23.101  1.00  0.00    -0.159 SA
ENDBRANCH   9  16
ENDBRANCH   8   9
ENDBRANCH   6   8
ENDBRANCH   3   4
ENDBRANCH   2   3
ENDBRANCH   1   2
BRANCH   1  26
ATOM     26  C   UNL A   1      32.789  32.903  27.518  1.00  0.00     0.116 C 
BRANCH  26  27
ATOM     27  N   UNL A   1      32.519  34.307  27.784  1.00  0.00    -0.352 N 
ATOM     28  C   UNL A   1      33.085  35.114  28.742  1.00  0.00     0.251 C 
ATOM     29  H   UNL A   1      31.848  34.734  27.204  1.00  0.00     0.163 HD
ATOM     30  O   UNL A   1      32.637  36.224  28.969  1.00  0.00    -0.269 OA
BRANCH  28  31
ATOM     31  C   UNL A   1      34.236  34.590  29.506  1.00  0.00     0.039 A 
ATOM     32  C   UNL A   1      34.015  34.043  30.771  1.00  0.00     0.014 A 
ATOM     33  C   UNL A   1      35.516  34.593  28.942  1.00  0.00     0.014 A 
ATOM     34  C   UNL A   1      35.079  33.454  31.455  1.00  0.00     0.010 A 
ATOM     35  C   UNL A   1      36.552  33.932  29.589  1.00  0.00     0.010 A 
ATOM     36  C   UNL A   1      36.349  33.370  30.858  1.00  0.00    -0.014 A 
BRANCH  36  37
ATOM     37  C   UNL A   1      37.478  32.701  31.552  1.00  0.00     0.031 A 
ATOM     38  C   UNL A   1      38.190  31.551  30.894  1.00  0.00     0.074 A 
ATOM     39  C   UNL A   1      37.814  33.083  32.800  1.00  0.00     0.049 A 
ATOM     40  N   UNL A   1      39.173  30.821  31.353  1.00  0.00    -0.248 NA
ATOM     41  C   UNL A   1      37.719  31.149  29.557  1.00  0.00     0.031 C 
ATOM     42  C   UNL A   1      37.147  34.133  33.573  1.00  0.00     0.029 A 
ATOM     43  N   UNL A   1      38.786  32.616  33.647  1.00  0.00    -0.354 N 
ATOM     44  C   UNL A   1      39.414  29.856  30.382  1.00  0.00     0.074 A 
ATOM     45  C   UNL A   1      38.450  30.068  29.326  1.00  0.00     0.031 C 
ATOM     46  C   UNL A   1      37.738  34.239  34.774  1.00  0.00     0.029 A 
ATOM     47  C   UNL A   1      38.800  33.243  34.872  1.00  0.00     0.049 A 
ATOM     48  H   UNL A   1      39.415  31.899  33.402  1.00  0.00     0.167 HD
ATOM     49  C   UNL A   1      40.369  28.897  30.358  1.00  0.00     0.034 A 
ATOM     50  C   UNL A   1      39.577  33.034  35.953  1.00  0.00     0.034 A 
ATOM     51  C   UNL A   1      41.349  28.715  31.394  1.00  0.00     0.049 A 
ATOM     52  C   UNL A   1      40.651  31.982  35.888  1.00  0.00     0.074 A 
ATOM     53  C   UNL A   1      42.414  27.833  31.423  1.00  0.00     0.029 A 
ATOM     54  N   UNL A   1      41.377  29.417  32.588  1.00  0.00    -0.354 N 
ATOM     55  N   UNL A   1      40.965  31.183  34.896  1.00  0.00    -0.248 NA
ATOM     56  C   UNL A   1      41.500  31.825  37.076  1.00  0.00     0.031 C 
ATOM     57  C   UNL A   1      43.065  27.977  32.652  1.00  0.00     0.029 A 
ATOM     58  C   UNL A   1      42.432  28.978  33.371  1.00  0.00     0.049 A 
ATOM     59  H   UNL A   1      40.742  30.125  32.844  1.00  0.00     0.167 HD
ATOM     60  C   UNL A   1      42.071  30.459  35.325  1.00  0.00     0.074 A 
ATOM     61  C   UNL A   1      42.384  30.927  36.660  1.00  0.00     0.031 C 
ATOM     62  C   UNL A   1      42.760  29.487  34.678  1.00  0.00     0.034 A 
BRANCH  49  63
ATOM     63  C   UNL A   1      40.427  27.995  29.153  1.00  0.00     0.023 A 
ATOM     64  C   UNL A   1      39.504  26.936  29.026  1.00  0.00     0.012 A 
ATOM     65  C   UNL A   1      41.356  28.227  28.121  1.00  0.00     0.148 A 
ATOM     66  C   UNL A   1      39.529  26.101  27.910  1.00  0.00     0.002 A 
ATOM     67  C   UNL A   1      41.342  27.422  26.988  1.00  0.00     0.091 A 
ATOM     68  F   UNL A   1      42.240  29.225  28.268  1.00  0.00    -0.205 F 
ATOM     69  C   UNL A   1      40.440  26.351  26.887  1.00  0.00     0.022 A 
BRANCH  67  70
ATOM     70  S   UNL A   1      42.419  27.710  25.580  1.00  0.00     0.127 S 
ATOM     71  O   UNL A   1      41.894  28.974  25.062  1.00  0.00    -0.237 OA
ATOM     72  O   UNL A   1      43.734  27.810  26.214  1.00  0.00    -0.237 OA
ATOM     73  O   UNL A   1      42.251  26.560  24.702  1.00  0.00    -0.744 OA
ENDBRANCH  67  70
ENDBRANCH  49  63
BRANCH  50  74
ATOM     74  C   UNL A   1      39.406  33.878  37.170  1.00  0.00     0.023 A 
ATOM     75  C   UNL A   1      39.880  35.204  37.167  1.00  0.00     0.012 A 
ATOM     76  C   UNL A   1      38.762  33.381  38.319  1.00  0.00     0.148 A 
ATOM     77  C   UNL A   1      39.750  36.009  38.298  1.00  0.00     0.002 A 
ATOM     78  C   UNL A   1      38.583  34.207  39.423  1.00  0.00     0.091 A 
ATOM     79  F   UNL A   1      38.325  32.114  38.306  1.00  0.00    -0.205 F 
ATOM     80  C   UNL A   1      39.093  35.516  39.422  1.00  0.00     0.022 A 
BRANCH  78  81
ATOM     81  S   UNL A   1      37.641  33.699  40.865  1.00  0.00     0.127 S 
ATOM     82  O   UNL A   1      37.457  34.968  41.564  1.00  0.00    -0.237 OA
ATOM     83  O   UNL A   1      36.431  33.149  40.254  1.00  0.00    -0.237 OA
ATOM     84  O   UNL A   1      38.469  32.715  41.550  1.00  0.00    -0.744 OA
ENDBRANCH  78  81
ENDBRANCH  50  74
BRANCH  62  85
ATOM     85  C   UNL A   1      43.950  28.887  35.380  1.00  0.00     0.023 A 
ATOM     86  C   UNL A   1      45.232  29.442  35.197  1.00  0.00     0.012 A 
ATOM     87  C   UNL A   1      43.782  27.815  36.279  1.00  0.00     0.148 A 
ATOM     88  C   UNL A   1      46.333  28.917  35.872  1.00  0.00     0.002 A 
ATOM     89  C   UNL A   1      44.875  27.332  36.988  1.00  0.00     0.091 A 
ATOM     90  F   UNL A   1      42.557  27.289  36.426  1.00  0.00    -0.205 F 
ATOM     91  C   UNL A   1      46.153  27.872  36.775  1.00  0.00     0.022 A 
BRANCH  89  92
ATOM     92  S   UNL A   1      44.721  26.059  38.246  1.00  0.00     0.127 S 
ATOM     93  O   UNL A   1      46.090  25.978  38.755  1.00  0.00    -0.237 OA
ATOM     94  O   UNL A   1      43.759  26.655  39.173  1.00  0.00    -0.237 OA
ATOM     95  O   UNL A   1      44.241  24.868  37.558  1.00  0.00    -0.744 OA
ENDBRANCH  89  92
ENDBRANCH  62  85
ENDBRANCH  36  37
ENDBRANCH  28  31
ENDBRANCH  26  27
ENDBRANCH   1  26
TORSDOF 17
ENDMDL
MODEL 3
REMARK VINA RESULT:     -12.1      6.430     11.609
REMARK SMILES O=C(CN(c1ccccc1)[C@@H]1CCO[C@]2(CCSC2)C1)NCCCCNC(=O)c1ccc(-c2c3nc(c(-c4cccc(S(=O)(=O)[O-])c4F)c4ccc([nH]4)c(-c4cccc(S(=O)(=O)[O-])c4F)c4nc(c(-c5cccc(S(=O)(=O)[O-])c5F)c5ccc2[nH]5)C=C4)C=C3)cc1
REMARK SMILES IDX 24 1 23 2 22 3 21 4 1 5 2 6 3 8 4 9 5 10 6 11 10 12 7 13
REMARK SMILES IDX 9 14 8 15 11 16 12 17 20 18 13 19 15 20 14 21 16 22 19 23
REMARK SMILES IDX 17 24 18 25 25 26 26 27 27 28 28 30 29 31 30 32 91 33 31 34
REMARK SMILES IDX 90 35 32 36 33 37 34 38 84 39 35 40 89 41 83 42 85 43 36 44
REMARK SMILES IDX 88 45 82 46 81 47 37 49 69 50 49 51 68 52 50 53 53 54 67 55
REMARK SMILES IDX 86 56 51 57 52 58 66 60 87 61 54 62 38 63 39 64 47 65 40 66
REMARK SMILES IDX 42 67 48 68 41 69 43 70 44 71 45 72 46 73 70 74 71 75 79 76
REMARK SMILES IDX 72 77 74 78 80 79 73 80 75 81 76 82 77 83 78 84 55 85 56 86
REMARK SMILES IDX 64 87 57 88 59 89 65 90 58 91 60 92 61 93 62 94 63 95
REMARK H PARENT 21 7 26 29 85 48 53 59
REMARK Flexibility Score: inf
ROOT
ATOM      1  C   UNL A   1      38.252  19.598  24.889  1.00  0.00     0.023 C 
ENDROOT
BRANCH   1   2
ATOM      2  C   UNL A   1      37.304  20.757  24.576  1.00  0.00     0.023 C 
BRANCH   2   3
ATOM      3  C   UNL A   1      37.531  22.000  25.438  1.00  0.00     0.116 C 
BRANCH   3   4
ATOM      4  N   UNL A   1      36.332  22.429  26.122  1.00  0.00    -0.355 N 
ATOM      5  O   UNL A   1      35.877  24.067  24.612  1.00  0.00    -0.273 OA
ATOM      6  C   UNL A   1      35.557  23.447  25.626  1.00  0.00     0.239 C 
ATOM      7  H   UNL A   1      36.068  21.983  26.959  1.00  0.00     0.163 HD
BRANCH   6   8
ATOM      8  C   UNL A   1      34.367  23.853  26.488  1.00  0.00     0.216 C 
BRANCH   8   9
ATOM      9  N   UNL A   1      32.969  23.765  25.948  1.00  0.00    -0.359 N 
BRANCH   9  10
ATOM     10  C   UNL A   1      32.752  22.585  25.206  1.00  0.00     0.037 A 
ATOM     11  C   UNL A   1      32.765  22.620  23.807  1.00  0.00     0.026 A 
ATOM     12  C   UNL A   1      32.605  21.329  25.821  1.00  0.00     0.026 A 
ATOM     13  C   UNL A   1      32.646  21.447  23.052  1.00  0.00     0.002 A 
ATOM     14  C   UNL A   1      32.471  20.156  25.072  1.00  0.00     0.002 A 
ATOM     15  C   UNL A   1      32.496  20.216  23.685  1.00  0.00     0.000 A 
ENDBRANCH   9  10
BRANCH   9  16
ATOM     16  C   UNL A   1      31.735  24.477  26.422  1.00  0.00     0.088 C 
ATOM     17  C   UNL A   1      30.520  24.214  25.554  1.00  0.00     0.053 C 
ATOM     18  C   UNL A   1      31.775  26.017  26.598  1.00  0.00     0.061 C 
ATOM     19  C   UNL A   1      30.494  25.194  24.379  1.00  0.00     0.163 C 
ATOM     20  C   UNL A   1      32.133  26.732  25.285  1.00  0.00     0.080 C 
ATOM     21  O   UNL A   1      31.771  25.857  24.197  1.00  0.00    -0.374 OA
ATOM     22  C   UNL A   1      33.644  27.057  25.412  1.00  0.00     0.047 C 
ATOM     23  C   UNL A   1      31.447  28.077  24.946  1.00  0.00     0.105 C 
ATOM     24  C   UNL A   1      34.051  28.145  24.457  1.00  0.00     0.072 C 
ATOM     25  S   UNL A   1      32.732  29.345  24.704  1.00  0.00    -0.159 SA
ENDBRANCH   9  16
ENDBRANCH   8   9
ENDBRANCH   6   8
ENDBRANCH   3   4
ENDBRANCH   2   3
ENDBRANCH   1   2
BRANCH   1  26
ATOM     26  C   UNL A   1      39.124  19.811  26.115  1.00  0.00     0.116 C 
BRANCH  26  27
ATOM     27  N   UNL A   1      40.331  19.001  26.077  1.00  0.00    -0.352 N 
ATOM     28  C   UNL A   1      41.639  19.422  26.132  1.00  0.00     0.251 C 
ATOM     29  H   UNL A   1      40.195  18.029  26.003  1.00  0.00     0.163 HD
ATOM     30  O   UNL A   1      42.555  18.649  25.911  1.00  0.00    -0.269 OA
BRANCH  28  31
ATOM     31  C   UNL A   1      41.904  20.842  26.443  1.00  0.00     0.039 A 
ATOM     32  C   UNL A   1      42.251  21.194  27.748  1.00  0.00     0.014 A 
ATOM     33  C   UNL A   1      41.861  21.805  25.429  1.00  0.00     0.014 A 
ATOM     34  C   UNL A   1      42.601  22.515  28.027  1.00  0.00     0.010 A 
ATOM     35  C   UNL A   1      42.291  23.099  25.694  1.00  0.00     0.010 A 
ATOM     36  C   UNL A   1      42.651  23.472  26.997  1.00  0.00    -0.014 A 
BRANCH  36  37
ATOM     37  C   UNL A   1      43.071  24.869  27.270  1.00  0.00     0.031 A 
ATOM     38  C   UNL A   1      42.110  25.830  27.914  1.00  0.00     0.074 A 
ATOM     39  C   UNL A   1      44.289  25.289  26.874  1.00  0.00     0.049 A 
ATOM     40  N   UNL A   1      42.280  27.094  28.202  1.00  0.00    -0.248 NA
ATOM     41  C   UNL A   1      40.774  25.313  28.255  1.00  0.00     0.031 C 
ATOM     42  C   UNL A   1      45.280  24.471  26.171  1.00  0.00     0.029 A 
ATOM     43  N   UNL A   1      44.893  26.516  26.988  1.00  0.00    -0.354 N 
ATOM     44  C   UNL A   1      41.067  27.531  28.722  1.00  0.00     0.074 A 
ATOM     45  C   UNL A   1      40.158  26.409  28.676  1.00  0.00     0.031 C 
ATOM     46  C   UNL A   1      46.371  25.215  25.927  1.00  0.00     0.029 A 
ATOM     47  C   UNL A   1      46.146  26.569  26.424  1.00  0.00     0.049 A 
ATOM     48  H   UNL A   1      44.468  27.286  27.431  1.00  0.00     0.167 HD
ATOM     49  C   UNL A   1      40.747  28.749  29.220  1.00  0.00     0.034 A 
ATOM     50  C   UNL A   1      47.013  27.594  26.313  1.00  0.00     0.034 A 
ATOM     51  C   UNL A   1      41.667  29.850  29.299  1.00  0.00     0.049 A 
ATOM     52  C   UNL A   1      46.644  28.928  26.903  1.00  0.00     0.074 A 
ATOM     53  C   UNL A   1      41.469  31.095  29.867  1.00  0.00     0.029 A 
ATOM     54  N   UNL A   1      42.954  29.845  28.782  1.00  0.00    -0.354 N 
ATOM     55  N   UNL A   1      45.548  29.278  27.534  1.00  0.00    -0.248 NA
ATOM     56  C   UNL A   1      47.643  30.002  26.797  1.00  0.00     0.031 C 
ATOM     57  C   UNL A   1      42.625  31.856  29.662  1.00  0.00     0.029 A 
ATOM     58  C   UNL A   1      43.558  31.071  29.003  1.00  0.00     0.049 A 
ATOM     59  H   UNL A   1      43.377  29.082  28.325  1.00  0.00     0.167 HD
ATOM     60  C   UNL A   1      45.742  30.595  27.934  1.00  0.00     0.074 A 
ATOM     61  C   UNL A   1      47.067  30.975  27.491  1.00  0.00     0.031 C 
ATOM     62  C   UNL A   1      44.896  31.419  28.599  1.00  0.00     0.034 A 
BRANCH  49  63
ATOM     63  C   UNL A   1      39.353  28.942  29.758  1.00  0.00     0.023 A 
ATOM     64  C   UNL A   1      39.042  28.519  31.066  1.00  0.00     0.012 A 
ATOM     65  C   UNL A   1      38.368  29.594  28.991  1.00  0.00     0.148 A 
ATOM     66  C   UNL A   1      37.764  28.705  31.590  1.00  0.00     0.002 A 
ATOM     67  C   UNL A   1      37.110  29.821  29.537  1.00  0.00     0.091 A 
ATOM     68  F   UNL A   1      38.675  29.970  27.742  1.00  0.00    -0.205 F 
ATOM     69  C   UNL A   1      36.802  29.366  30.830  1.00  0.00     0.022 A 
BRANCH  67  70
ATOM     70  S   UNL A   1      35.828  30.735  28.672  1.00  0.00     0.127 S 
ATOM     71  O   UNL A   1      35.157  29.668  27.930  1.00  0.00    -0.237 OA
ATOM     72  O   UNL A   1      35.050  31.292  29.778  1.00  0.00    -0.237 OA
ATOM     73  O   UNL A   1      36.520  31.722  27.854  1.00  0.00    -0.744 OA
ENDBRANCH  67  70
ENDBRANCH  49  63
BRANCH  50  74
ATOM     74  C   UNL A   1      48.341  27.384  25.669  1.00  0.00     0.023 A 
ATOM     75  C   UNL A   1      49.445  27.012  26.459  1.00  0.00     0.012 A 
ATOM     76  C   UNL A   1      48.510  27.533  24.278  1.00  0.00     0.148 A 
ATOM     77  C   UNL A   1      50.702  26.826  25.884  1.00  0.00     0.002 A 
ATOM     78  C   UNL A   1      49.752  27.291  23.703  1.00  0.00     0.091 A 
ATOM     79  F   UNL A   1      47.449  27.897  23.545  1.00  0.00    -0.205 F 
ATOM     80  C   UNL A   1      50.854  26.956  24.506  1.00  0.00     0.022 A 
BRANCH  78  81
ATOM     81  S   UNL A   1      50.012  27.311  21.926  1.00  0.00     0.127 S 
ATOM     82  O   UNL A   1      48.992  26.374  21.464  1.00  0.00    -0.237 OA
ATOM     83  O   UNL A   1      49.754  28.715  21.602  1.00  0.00    -0.237 OA
ATOM     84  O   UNL A   1      51.393  26.892  21.725  1.00  0.00    -0.744 OA
ENDBRANCH  78  81
ENDBRANCH  50  74
BRANCH  62  85
ATOM     85  C   UNL A   1      45.385  32.805  28.932  1.00  0.00     0.023 A 
ATOM     86  C   UNL A   1      46.104  33.033  30.120  1.00  0.00     0.012 A 
ATOM     87  C   UNL A   1      45.192  33.866  28.025  1.00  0.00     0.148 A 
ATOM     88  C   UNL A   1      46.594  34.305  30.418  1.00  0.00     0.002 A 
ATOM     89  C   UNL A   1      45.729  35.117  28.302  1.00  0.00     0.091 A 
ATOM     90  F   UNL A   1      44.490  33.632  26.906  1.00  0.00    -0.205 F 
ATOM     91  C   UNL A   1      46.418  35.341  29.505  1.00  0.00     0.022 A 
BRANCH  89  92
ATOM     92  S   UNL A   1      45.640  36.483  27.140  1.00  0.00     0.127 S 
ATOM     93  O   UNL A   1      46.390  37.522  27.846  1.00  0.00    -0.237 OA
ATOM     94  O   UNL A   1      46.317  35.934  25.965  1.00  0.00    -0.237 OA
ATOM     95  O   UNL A   1      44.223  36.759  26.949  1.00  0.00    -0.744 OA
ENDBRANCH  89  92
ENDBRANCH  62  85
ENDBRANCH  36  37
ENDBRANCH  28  31
ENDBRANCH  26  27
ENDBRANCH   1  26
TORSDOF 17
ENDMDL
