MODEL 1
REMARK VINA RESULT:     -11.3      0.000      0.000
REMARK SMILES CCCCCCNC(=O)Oc1cccc(-c2ccc([C@@H](C)C(=O)NCCCCNC(=O)c3ccc(-c4c5nc(c(-c6cccc(S(=O)(=O)[O-])c6F)c6ccc([nH]6)c(-c6cccc(S(=O)(=O)[O-])c6F)c6nc(c(-c7cccc(S(=O)(=O)[O-])c7F)c7ccc4[nH]7)C=C6)C=C5)cc3)cc2C)c1
REMARK SMILES IDX 20 1 21 2 19 3 16 4 17 5 96 6 18 7 95 8 97 9 15 10 11 11
REMARK SMILES IDX 12 12 98 13 13 14 14 15 10 16 8 17 7 18 9 20 6 21 5 22 4 23
REMARK SMILES IDX 3 24 2 25 1 26 22 27 23 28 24 29 25 31 26 32 27 33 28 34
REMARK SMILES IDX 29 35 30 36 31 38 32 39 33 40 94 41 34 42 93 43 35 44 36 45
REMARK SMILES IDX 37 46 87 47 38 48 92 49 86 50 88 51 39 52 91 53 85 54 84 55
REMARK SMILES IDX 40 57 72 58 52 59 71 60 53 61 56 62 70 63 89 64 54 65 55 66
REMARK SMILES IDX 69 68 90 69 57 70 41 71 42 72 50 73 43 74 45 75 51 76 44 77
REMARK SMILES IDX 46 78 47 79 48 80 49 81 73 82 74 83 82 84 75 85 77 86 83 87
REMARK SMILES IDX 76 88 78 89 79 90 80 91 81 92 58 93 59 94 67 95 60 96 62 97
REMARK SMILES IDX 68 98 61 99 63 100 64 101 65 102 66 103
REMARK H PARENT 7 19 24 30 29 37 88 56 56 67
REMARK Flexibility Score: inf
ROOT
ATOM      1  C   UNL A   1      29.263  28.122  22.835  1.00  0.00     0.105 C 
ATOM      2  C   UNL A   1      27.911  28.263  23.535  1.00  0.00     0.023 C 
ENDROOT
BRANCH   1   3
ATOM      3  C   UNL A   1      30.158  27.015  23.368  1.00  0.00    -0.036 A 
ATOM      4  C   UNL A   1      32.002  25.057  24.365  1.00  0.00    -0.015 A 
ATOM      5  C   UNL A   1      30.935  25.550  25.139  1.00  0.00     0.009 A 
ATOM      6  C   UNL A   1      32.083  25.508  23.028  1.00  0.00    -0.043 A 
ATOM      7  C   UNL A   1      30.000  26.454  24.631  1.00  0.00     0.005 A 
ATOM      8  C   UNL A   1      31.202  26.518  22.573  1.00  0.00     0.008 A 
ATOM      9  C   UNL A   1      33.034  24.952  22.001  1.00  0.00     0.045 C 
BRANCH   4  10
ATOM     10  C   UNL A   1      32.944  24.096  24.991  1.00  0.00    -0.014 A 
ATOM     11  C   UNL A   1      35.185  23.397  25.627  1.00  0.00     0.133 A 
ATOM     12  C   UNL A   1      34.700  22.207  26.165  1.00  0.00     0.047 A 
ATOM     13  C   UNL A   1      34.324  24.348  25.073  1.00  0.00     0.056 A 
ATOM     14  C   UNL A   1      33.333  21.963  26.144  1.00  0.00     0.004 A 
ATOM     15  C   UNL A   1      32.471  22.888  25.548  1.00  0.00     0.009 A 
BRANCH  11  16
ATOM     16  O   UNL A   1      36.582  23.498  25.507  1.00  0.00    -0.410 OA
BRANCH  16  17
ATOM     17  C   UNL A   1      37.287  22.578  24.748  1.00  0.00     0.412 C 
ATOM     18  N   UNL A   1      38.476  22.220  25.324  1.00  0.00    -0.321 N 
ATOM     19  H   UNL A   1      39.047  21.604  24.811  1.00  0.00     0.167 HD
ATOM     20  O   UNL A   1      36.934  22.112  23.673  1.00  0.00    -0.224 OA
BRANCH  18  21
ATOM     21  C   UNL A   1      38.979  22.654  26.611  1.00  0.00     0.119 C 
BRANCH  21  22
ATOM     22  C   UNL A   1      40.397  22.146  26.874  1.00  0.00     0.021 C 
BRANCH  22  23
ATOM     23  C   UNL A   1      40.594  20.642  26.649  1.00  0.00     0.002 C 
BRANCH  23  24
ATOM     24  C   UNL A   1      41.943  20.079  27.108  1.00  0.00    -0.000 C 
BRANCH  24  25
ATOM     25  C   UNL A   1      42.880  19.625  25.987  1.00  0.00    -0.003 C 
ATOM     26  C   UNL A   1      43.092  18.120  25.952  1.00  0.00     0.004 C 
ENDBRANCH  24  25
ENDBRANCH  23  24
ENDBRANCH  22  23
ENDBRANCH  21  22
ENDBRANCH  18  21
ENDBRANCH  16  17
ENDBRANCH  11  16
ENDBRANCH   4  10
ENDBRANCH   1   3
BRANCH   1  27
ATOM     27  C   UNL A   1      29.982  29.457  22.583  1.00  0.00     0.227 C 
ATOM     28  O   UNL A   1      29.892  29.996  21.472  1.00  0.00    -0.274 OA
ATOM     29  N   UNL A   1      30.704  30.125  23.523  1.00  0.00    -0.356 N 
ATOM     30  H   UNL A   1      31.035  31.004  23.228  1.00  0.00     0.163 HD
BRANCH  29  31
ATOM     31  C   UNL A   1      31.072  29.781  24.881  1.00  0.00     0.116 C 
BRANCH  31  32
ATOM     32  C   UNL A   1      31.309  31.022  25.743  1.00  0.00     0.023 C 
BRANCH  32  33
ATOM     33  C   UNL A   1      32.184  30.798  26.972  1.00  0.00     0.023 C 
BRANCH  33  34
ATOM     34  C   UNL A   1      33.255  31.855  27.202  1.00  0.00     0.116 C 
BRANCH  34  35
ATOM     35  N   UNL A   1      32.731  33.198  27.422  1.00  0.00    -0.352 N 
ATOM     36  C   UNL A   1      33.162  34.131  28.338  1.00  0.00     0.251 C 
ATOM     37  H   UNL A   1      31.979  33.471  26.848  1.00  0.00     0.163 HD
ATOM     38  O   UNL A   1      32.577  35.202  28.467  1.00  0.00    -0.269 OA
BRANCH  36  39
ATOM     39  C   UNL A   1      34.318  33.797  29.195  1.00  0.00     0.039 A 
ATOM     40  C   UNL A   1      34.104  33.081  30.375  1.00  0.00     0.014 A 
ATOM     41  C   UNL A   1      35.614  34.107  28.776  1.00  0.00     0.014 A 
ATOM     42  C   UNL A   1      35.201  32.607  31.097  1.00  0.00     0.010 A 
ATOM     43  C   UNL A   1      36.700  33.557  29.446  1.00  0.00     0.010 A 
ATOM     44  C   UNL A   1      36.506  32.805  30.615  1.00  0.00    -0.014 A 
BRANCH  44  45
ATOM     45  C   UNL A   1      37.684  32.225  31.307  1.00  0.00     0.031 A 
ATOM     46  C   UNL A   1      38.469  31.117  30.660  1.00  0.00     0.074 A 
ATOM     47  C   UNL A   1      37.978  32.613  32.564  1.00  0.00     0.049 A 
ATOM     48  N   UNL A   1      39.482  30.438  31.133  1.00  0.00    -0.248 NA
ATOM     49  C   UNL A   1      38.035  30.687  29.319  1.00  0.00     0.031 C 
ATOM     50  C   UNL A   1      37.227  33.600  33.343  1.00  0.00     0.029 A 
ATOM     51  N   UNL A   1      38.967  32.198  33.422  1.00  0.00    -0.354 N 
ATOM     52  C   UNL A   1      39.772  29.474  30.176  1.00  0.00     0.074 A 
ATOM     53  C   UNL A   1      38.806  29.631  29.111  1.00  0.00     0.031 C 
ATOM     54  C   UNL A   1      37.779  33.713  34.562  1.00  0.00     0.029 A 
ATOM     55  C   UNL A   1      38.906  32.791  34.662  1.00  0.00     0.049 A 
ATOM     56  H   UNL A   1      39.655  31.540  33.172  1.00  0.00     0.167 HD
ATOM     57  C   UNL A   1      40.769  28.560  30.167  1.00  0.00     0.034 A 
ATOM     58  C   UNL A   1      39.668  32.607  35.759  1.00  0.00     0.034 A 
ATOM     59  C   UNL A   1      41.761  28.447  31.201  1.00  0.00     0.049 A 
ATOM     60  C   UNL A   1      40.822  31.645  35.695  1.00  0.00     0.074 A 
ATOM     61  C   UNL A   1      42.888  27.644  31.229  1.00  0.00     0.029 A 
ATOM     62  N   UNL A   1      41.741  29.149  32.397  1.00  0.00    -0.354 N 
ATOM     63  N   UNL A   1      41.200  30.878  34.702  1.00  0.00    -0.248 NA
ATOM     64  C   UNL A   1      41.680  31.553  36.886  1.00  0.00     0.031 C 
ATOM     65  C   UNL A   1      43.534  27.841  32.454  1.00  0.00     0.029 A 
ATOM     66  C   UNL A   1      42.826  28.789  33.177  1.00  0.00     0.049 A 
ATOM     67  H   UNL A   1      41.055  29.808  32.652  1.00  0.00     0.167 HD
ATOM     68  C   UNL A   1      42.354  30.234  35.134  1.00  0.00     0.074 A 
ATOM     69  C   UNL A   1      42.625  30.720  36.472  1.00  0.00     0.031 C 
ATOM     70  C   UNL A   1      43.112  29.315  34.488  1.00  0.00     0.034 A 
BRANCH  57  71
ATOM     71  C   UNL A   1      40.867  27.642  28.976  1.00  0.00     0.023 A 
ATOM     72  C   UNL A   1      40.002  26.533  28.876  1.00  0.00     0.012 A 
ATOM     73  C   UNL A   1      41.784  27.898  27.940  1.00  0.00     0.148 A 
ATOM     74  C   UNL A   1      40.076  25.668  27.785  1.00  0.00     0.002 A 
ATOM     75  C   UNL A   1      41.819  27.058  26.831  1.00  0.00     0.091 A 
ATOM     76  F   UNL A   1      42.616  28.942  28.062  1.00  0.00    -0.205 F 
ATOM     77  C   UNL A   1      40.977  25.937  26.759  1.00  0.00     0.022 A 
BRANCH  75  78
ATOM     78  S   UNL A   1      42.888  27.368  25.421  1.00  0.00     0.127 S 
ATOM     79  O   UNL A   1      42.845  26.081  24.730  1.00  0.00    -0.237 OA
ATOM     80  O   UNL A   1      42.184  28.452  24.733  1.00  0.00    -0.237 OA
ATOM     81  O   UNL A   1      44.181  27.743  25.973  1.00  0.00    -0.744 OA
ENDBRANCH  75  78
ENDBRANCH  57  71
BRANCH  58  82
ATOM     82  C   UNL A   1      39.396  33.407  36.987  1.00  0.00     0.023 A 
ATOM     83  C   UNL A   1      39.860  34.734  37.068  1.00  0.00     0.012 A 
ATOM     84  C   UNL A   1      38.638  32.877  38.050  1.00  0.00     0.148 A 
ATOM     85  C   UNL A   1      39.596  35.512  38.196  1.00  0.00     0.002 A 
ATOM     86  C   UNL A   1      38.333  33.675  39.146  1.00  0.00     0.091 A 
ATOM     87  F   UNL A   1      38.215  31.609  37.956  1.00  0.00    -0.205 F 
ATOM     88  C   UNL A   1      38.825  34.987  39.229  1.00  0.00     0.022 A 
BRANCH  86  89
ATOM     89  S   UNL A   1      37.237  33.130  40.461  1.00  0.00     0.127 S 
ATOM     90  O   UNL A   1      38.040  32.098  41.111  1.00  0.00    -0.237 OA
ATOM     91  O   UNL A   1      37.065  34.359  41.237  1.00  0.00    -0.237 OA
ATOM     92  O   UNL A   1      36.027  32.665  39.797  1.00  0.00    -0.744 OA
ENDBRANCH  86  89
ENDBRANCH  58  82
BRANCH  70  93
ATOM     93  C   UNL A   1      44.330  28.785  35.197  1.00  0.00     0.023 A 
ATOM     94  C   UNL A   1      45.583  29.393  34.986  1.00  0.00     0.012 A 
ATOM     95  C   UNL A   1      44.217  27.740  36.135  1.00  0.00     0.148 A 
ATOM     96  C   UNL A   1      46.710  28.950  35.677  1.00  0.00     0.002 A 
ATOM     97  C   UNL A   1      45.333  27.337  36.857  1.00  0.00     0.091 A 
ATOM     98  F   UNL A   1      43.019  27.163  36.307  1.00  0.00    -0.205 F 
ATOM     99  C   UNL A   1      46.583  27.932  36.620  1.00  0.00     0.022 A 
BRANCH  97 100
ATOM    100  S   UNL A   1      45.242  26.105  38.160  1.00  0.00     0.127 S 
ATOM    101  O   UNL A   1      46.568  26.212  38.765  1.00  0.00    -0.237 OA
ATOM    102  O   UNL A   1      44.149  26.613  38.992  1.00  0.00    -0.237 OA
ATOM    103  O   UNL A   1      44.956  24.840  37.497  1.00  0.00    -0.744 OA
ENDBRANCH  97 100
ENDBRANCH  70  93
ENDBRANCH  44  45
ENDBRANCH  36  39
ENDBRANCH  34  35
ENDBRANCH  33  34
ENDBRANCH  32  33
ENDBRANCH  31  32
ENDBRANCH  29  31
ENDBRANCH   1  27
TORSDOF 23
ENDMDL
MODEL 2
REMARK VINA RESULT:     -11.2      5.250     12.341
REMARK SMILES CCCCCCNC(=O)Oc1cccc(-c2ccc([C@@H](C)C(=O)NCCCCNC(=O)c3ccc(-c4c5nc(c(-c6cccc(S(=O)(=O)[O-])c6F)c6ccc([nH]6)c(-c6cccc(S(=O)(=O)[O-])c6F)c6nc(c(-c7cccc(S(=O)(=O)[O-])c7F)c7ccc4[nH]7)C=C6)C=C5)cc3)cc2C)c1
REMARK SMILES IDX 20 1 21 2 19 3 16 4 17 5 96 6 18 7 95 8 97 9 15 10 11 11
REMARK SMILES IDX 12 12 98 13 13 14 14 15 10 16 8 17 7 18 9 20 6 21 5 22 4 23
REMARK SMILES IDX 3 24 2 25 1 26 22 27 23 28 24 29 25 31 26 32 27 33 28 34
REMARK SMILES IDX 29 35 30 36 31 38 32 39 33 40 94 41 34 42 93 43 35 44 36 45
REMARK SMILES IDX 37 46 87 47 38 48 92 49 86 50 88 51 39 52 91 53 85 54 84 55
REMARK SMILES IDX 40 57 72 58 52 59 71 60 53 61 56 62 70 63 89 64 54 65 55 66
REMARK SMILES IDX 69 68 90 69 57 70 41 71 42 72 50 73 43 74 45 75 51 76 44 77
REMARK SMILES IDX 46 78 47 79 48 80 49 81 73 82 74 83 82 84 75 85 77 86 83 87
REMARK SMILES IDX 76 88 78 89 79 90 80 91 81 92 58 93 59 94 67 95 60 96 62 97
REMARK SMILES IDX 68 98 61 99 63 100 64 101 65 102 66 103
REMARK H PARENT 7 19 24 30 29 37 88 56 56 67
REMARK Flexibility Score: inf
ROOT
ATOM      1  C   UNL A   1      33.354  23.123  24.667  1.00  0.00     0.105 C 
ATOM      2  C   UNL A   1      32.031  22.378  24.492  1.00  0.00     0.023 C 
ENDROOT
BRANCH   1   3
ATOM      3  C   UNL A   1      33.228  24.593  25.033  1.00  0.00    -0.036 A 
ATOM      4  C   UNL A   1      32.999  27.312  25.919  1.00  0.00    -0.015 A 
ATOM      5  C   UNL A   1      34.113  26.847  25.195  1.00  0.00     0.009 A 
ATOM      6  C   UNL A   1      31.944  26.396  26.124  1.00  0.00    -0.043 A 
ATOM      7  C   UNL A   1      34.194  25.540  24.708  1.00  0.00     0.005 A 
ATOM      8  C   UNL A   1      32.100  25.045  25.734  1.00  0.00     0.008 A 
ATOM      9  C   UNL A   1      30.603  26.763  26.706  1.00  0.00     0.045 C 
BRANCH   4  10
ATOM     10  C   UNL A   1      33.002  28.718  26.393  1.00  0.00    -0.014 A 
ATOM     11  C   UNL A   1      34.023  30.576  27.585  1.00  0.00     0.133 A 
ATOM     12  C   UNL A   1      32.937  31.401  27.304  1.00  0.00     0.047 A 
ATOM     13  C   UNL A   1      34.079  29.261  27.114  1.00  0.00     0.056 A 
ATOM     14  C   UNL A   1      31.888  30.901  26.544  1.00  0.00     0.004 A 
ATOM     15  C   UNL A   1      31.914  29.572  26.111  1.00  0.00     0.009 A 
BRANCH  11  16
ATOM     16  O   UNL A   1      34.956  31.075  28.510  1.00  0.00    -0.410 OA
BRANCH  16  17
ATOM     17  C   UNL A   1      35.343  32.405  28.466  1.00  0.00     0.412 C 
ATOM     18  N   UNL A   1      35.231  33.027  29.680  1.00  0.00    -0.321 N 
ATOM     19  H   UNL A   1      35.446  33.987  29.705  1.00  0.00     0.167 HD
ATOM     20  O   UNL A   1      35.740  33.005  27.477  1.00  0.00    -0.224 OA
BRANCH  18  21
ATOM     21  C   UNL A   1      34.831  32.418  30.931  1.00  0.00     0.119 C 
BRANCH  21  22
ATOM     22  C   UNL A   1      34.398  33.458  31.965  1.00  0.00     0.021 C 
BRANCH  22  23
ATOM     23  C   UNL A   1      34.334  34.897  31.441  1.00  0.00     0.002 C 
BRANCH  23  24
ATOM     24  C   UNL A   1      32.970  35.584  31.569  1.00  0.00    -0.000 C 
BRANCH  24  25
ATOM     25  C   UNL A   1      32.939  36.816  32.476  1.00  0.00    -0.003 C 
ATOM     26  C   UNL A   1      33.946  36.751  33.613  1.00  0.00     0.004 C 
ENDBRANCH  24  25
ENDBRANCH  23  24
ENDBRANCH  22  23
ENDBRANCH  21  22
ENDBRANCH  18  21
ENDBRANCH  16  17
ENDBRANCH  11  16
ENDBRANCH   4  10
ENDBRANCH   1   3
BRANCH   1  27
ATOM     27  C   UNL A   1      34.393  22.825  23.574  1.00  0.00     0.227 C 
ATOM     28  O   UNL A   1      34.143  23.123  22.399  1.00  0.00    -0.274 OA
ATOM     29  N   UNL A   1      35.614  22.272  23.812  1.00  0.00    -0.356 N 
ATOM     30  H   UNL A   1      36.194  22.219  23.018  1.00  0.00     0.163 HD
BRANCH  29  31
ATOM     31  C   UNL A   1      36.217  21.749  25.020  1.00  0.00     0.116 C 
BRANCH  31  32
ATOM     32  C   UNL A   1      37.744  21.829  24.980  1.00  0.00     0.023 C 
BRANCH  32  33
ATOM     33  C   UNL A   1      38.465  20.496  25.150  1.00  0.00     0.023 C 
BRANCH  33  34
ATOM     34  C   UNL A   1      39.626  20.513  26.135  1.00  0.00     0.116 C 
BRANCH  34  35
ATOM     35  N   UNL A   1      40.508  19.355  26.039  1.00  0.00    -0.352 N 
ATOM     36  C   UNL A   1      41.881  19.331  26.145  1.00  0.00     0.251 C 
ATOM     37  H   UNL A   1      40.071  18.488  25.878  1.00  0.00     0.163 HD
ATOM     38  O   UNL A   1      42.506  18.291  25.968  1.00  0.00    -0.269 OA
BRANCH  36  39
ATOM     39  C   UNL A   1      42.589  20.595  26.434  1.00  0.00     0.039 A 
ATOM     40  C   UNL A   1      43.105  21.342  25.373  1.00  0.00     0.014 A 
ATOM     41  C   UNL A   1      42.649  21.082  27.741  1.00  0.00     0.014 A 
ATOM     42  C   UNL A   1      43.615  22.618  25.617  1.00  0.00     0.010 A 
ATOM     43  C   UNL A   1      43.073  22.386  27.967  1.00  0.00     0.010 A 
ATOM     44  C   UNL A   1      43.564  23.166  26.909  1.00  0.00    -0.014 A 
BRANCH  44  45
ATOM     45  C   UNL A   1      44.004  24.558  27.179  1.00  0.00     0.031 A 
ATOM     46  C   UNL A   1      43.026  25.569  27.711  1.00  0.00     0.074 A 
ATOM     47  C   UNL A   1      45.250  24.943  26.837  1.00  0.00     0.049 A 
ATOM     48  N   UNL A   1      43.201  26.844  27.945  1.00  0.00    -0.248 NA
ATOM     49  C   UNL A   1      41.657  25.095  27.981  1.00  0.00     0.031 C 
ATOM     50  C   UNL A   1      46.259  24.084  26.211  1.00  0.00     0.029 A 
ATOM     51  N   UNL A   1      45.870  26.163  26.935  1.00  0.00    -0.354 N 
ATOM     52  C   UNL A   1      41.962  27.332  28.338  1.00  0.00     0.074 A 
ATOM     53  C   UNL A   1      41.033  26.225  28.277  1.00  0.00     0.031 C 
ATOM     54  C   UNL A   1      47.368  24.805  25.979  1.00  0.00     0.029 A 
ATOM     55  C   UNL A   1      47.144  26.179  26.416  1.00  0.00     0.049 A 
ATOM     56  H   UNL A   1      45.443  26.953  27.340  1.00  0.00     0.167 HD
ATOM     57  C   UNL A   1      41.630  28.580  28.741  1.00  0.00     0.034 A 
ATOM     58  C   UNL A   1      48.030  27.189  26.298  1.00  0.00     0.034 A 
ATOM     59  C   UNL A   1      42.570  29.661  28.855  1.00  0.00     0.049 A 
ATOM     60  C   UNL A   1      47.666  28.547  26.831  1.00  0.00     0.074 A 
ATOM     61  C   UNL A   1      42.366  30.926  29.376  1.00  0.00     0.029 A 
ATOM     62  N   UNL A   1      43.889  29.610  28.432  1.00  0.00    -0.354 N 
ATOM     63  N   UNL A   1      46.544  28.941  27.383  1.00  0.00    -0.248 NA
ATOM     64  C   UNL A   1      48.701  29.589  26.765  1.00  0.00     0.031 C 
ATOM     65  C   UNL A   1      43.556  31.650  29.242  1.00  0.00     0.029 A 
ATOM     66  C   UNL A   1      44.509  30.825  28.665  1.00  0.00     0.049 A 
ATOM     67  H   UNL A   1      44.321  28.824  28.025  1.00  0.00     0.167 HD
ATOM     68  C   UNL A   1      46.745  30.265  27.756  1.00  0.00     0.074 A 
ATOM     69  C   UNL A   1      48.108  30.598  27.388  1.00  0.00     0.031 C 
ATOM     70  C   UNL A   1      45.879  31.130  28.338  1.00  0.00     0.034 A 
BRANCH  57  71
ATOM     71  C   UNL A   1      40.198  28.828  29.140  1.00  0.00     0.023 A 
ATOM     72  C   UNL A   1      39.221  29.032  28.143  1.00  0.00     0.012 A 
ATOM     73  C   UNL A   1      39.813  28.821  30.494  1.00  0.00     0.148 A 
ATOM     74  C   UNL A   1      37.891  29.268  28.489  1.00  0.00     0.002 A 
ATOM     75  C   UNL A   1      38.476  29.009  30.828  1.00  0.00     0.091 A 
ATOM     76  F   UNL A   1      40.758  28.651  31.429  1.00  0.00    -0.205 F 
ATOM     77  C   UNL A   1      37.518  29.246  29.829  1.00  0.00     0.022 A 
BRANCH  75  78
ATOM     78  S   UNL A   1      37.883  28.915  32.521  1.00  0.00     0.127 S 
ATOM     79  O   UNL A   1      38.815  29.807  33.209  1.00  0.00    -0.237 OA
ATOM     80  O   UNL A   1      36.520  29.434  32.400  1.00  0.00    -0.237 OA
ATOM     81  O   UNL A   1      37.964  27.511  32.896  1.00  0.00    -0.744 OA
ENDBRANCH  75  78
ENDBRANCH  57  71
BRANCH  58  82
ATOM     82  C   UNL A   1      49.372  26.926  25.706  1.00  0.00     0.023 A 
ATOM     83  C   UNL A   1      50.363  26.297  26.485  1.00  0.00     0.012 A 
ATOM     84  C   UNL A   1      49.654  27.247  24.364  1.00  0.00     0.148 A 
ATOM     85  C   UNL A   1      51.619  26.016  25.945  1.00  0.00     0.002 A 
ATOM     86  C   UNL A   1      50.887  26.917  23.817  1.00  0.00     0.091 A 
ATOM     87  F   UNL A   1      48.699  27.853  23.644  1.00  0.00    -0.205 F 
ATOM     88  C   UNL A   1      51.878  26.316  24.610  1.00  0.00     0.022 A 
BRANCH  86  89
ATOM     89  S   UNL A   1      51.263  27.141  22.075  1.00  0.00     0.127 S 
ATOM     90  O   UNL A   1      52.551  26.463  21.957  1.00  0.00    -0.237 OA
ATOM     91  O   UNL A   1      50.142  26.451  21.435  1.00  0.00    -0.237 OA
ATOM     92  O   UNL A   1      51.284  28.581  21.859  1.00  0.00    -0.744 OA
ENDBRANCH  86  89
ENDBRANCH  58  82
BRANCH  70  93
ATOM     93  C   UNL A   1      46.374  32.518  28.647  1.00  0.00     0.023 A 
ATOM     94  C   UNL A   1      46.878  32.814  29.929  1.00  0.00     0.012 A 
ATOM     95  C   UNL A   1      46.418  33.504  27.642  1.00  0.00     0.148 A 
ATOM     96  C   UNL A   1      47.390  34.079  30.213  1.00  0.00     0.002 A 
ATOM     97  C   UNL A   1      46.975  34.746  27.917  1.00  0.00     0.091 A 
ATOM     98  F   UNL A   1      45.916  33.209  26.434  1.00  0.00    -0.205 F 
ATOM     99  C   UNL A   1      47.450  35.040  29.206  1.00  0.00     0.022 A 
BRANCH  97 100
ATOM    100  S   UNL A   1      47.185  36.008  26.656  1.00  0.00     0.127 S 
ATOM    101  O   UNL A   1      47.330  35.199  25.447  1.00  0.00    -0.237 OA
ATOM    102  O   UNL A   1      45.926  36.750  26.746  1.00  0.00    -0.237 OA
ATOM    103  O   UNL A   1      48.363  36.771  27.044  1.00  0.00    -0.744 OA
ENDBRANCH  97 100
ENDBRANCH  70  93
ENDBRANCH  44  45
ENDBRANCH  36  39
ENDBRANCH  34  35
ENDBRANCH  33  34
ENDBRANCH  32  33
ENDBRANCH  31  32
ENDBRANCH  29  31
ENDBRANCH   1  27
TORSDOF 23
ENDMDL
MODEL 3
REMARK VINA RESULT:     -11.1      5.003      9.527
REMARK SMILES CCCCCCNC(=O)Oc1cccc(-c2ccc([C@@H](C)C(=O)NCCCCNC(=O)c3ccc(-c4c5nc(c(-c6cccc(S(=O)(=O)[O-])c6F)c6ccc([nH]6)c(-c6cccc(S(=O)(=O)[O-])c6F)c6nc(c(-c7cccc(S(=O)(=O)[O-])c7F)c7ccc4[nH]7)C=C6)C=C5)cc3)cc2C)c1
REMARK SMILES IDX 20 1 21 2 19 3 16 4 17 5 96 6 18 7 95 8 97 9 15 10 11 11
REMARK SMILES IDX 12 12 98 13 13 14 14 15 10 16 8 17 7 18 9 20 6 21 5 22 4 23
REMARK SMILES IDX 3 24 2 25 1 26 22 27 23 28 24 29 25 31 26 32 27 33 28 34
REMARK SMILES IDX 29 35 30 36 31 38 32 39 33 40 94 41 34 42 93 43 35 44 36 45
REMARK SMILES IDX 37 46 87 47 38 48 92 49 86 50 88 51 39 52 91 53 85 54 84 55
REMARK SMILES IDX 40 57 72 58 52 59 71 60 53 61 56 62 70 63 89 64 54 65 55 66
REMARK SMILES IDX 69 68 90 69 57 70 41 71 42 72 50 73 43 74 45 75 51 76 44 77
REMARK SMILES IDX 46 78 47 79 48 80 49 81 73 82 74 83 82 84 75 85 77 86 83 87
REMARK SMILES IDX 76 88 78 89 79 90 80 91 81 92 58 93 59 94 67 95 60 96 62 97
REMARK SMILES IDX 68 98 61 99 63 100 64 101 65 102 66 103
REMARK H PARENT 7 19 24 30 29 37 88 56 56 67
REMARK Flexibility Score: inf
ROOT
ATOM      1  C   UNL A   1      34.987  34.447  29.116  1.00  0.00     0.105 C 
ATOM      2  C   UNL A   1      34.804  34.959  27.688  1.00  0.00     0.023 C 
ENDROOT
BRANCH   1   3
ATOM      3  C   UNL A   1      35.758  33.143  29.244  1.00  0.00    -0.036 A 
ATOM      4  C   UNL A   1      37.260  30.700  29.289  1.00  0.00    -0.015 A 
ATOM      5  C   UNL A   1      37.648  31.836  30.023  1.00  0.00     0.009 A 
ATOM      6  C   UNL A   1      36.038  30.781  28.585  1.00  0.00    -0.043 A 
ATOM      7  C   UNL A   1      36.882  33.004  30.051  1.00  0.00     0.005 A 
ATOM      8  C   UNL A   1      35.343  32.012  28.525  1.00  0.00     0.008 A 
ATOM      9  C   UNL A   1      35.372  29.614  27.904  1.00  0.00     0.045 C 
BRANCH   4  10
ATOM     10  C   UNL A   1      38.138  29.504  29.322  1.00  0.00    -0.014 A 
ATOM     11  C   UNL A   1      39.928  28.133  28.410  1.00  0.00     0.133 A 
ATOM     12  C   UNL A   1      39.761  27.183  29.415  1.00  0.00     0.047 A 
ATOM     13  C   UNL A   1      39.153  29.295  28.373  1.00  0.00     0.056 A 
ATOM     14  C   UNL A   1      38.802  27.397  30.395  1.00  0.00     0.004 A 
ATOM     15  C   UNL A   1      37.991  28.533  30.337  1.00  0.00     0.009 A 
BRANCH  11  16
ATOM     16  O   UNL A   1      40.776  27.770  27.349  1.00  0.00    -0.410 OA
BRANCH  16  17
ATOM     17  C   UNL A   1      42.023  28.359  27.218  1.00  0.00     0.412 C 
ATOM     18  N   UNL A   1      43.046  27.489  27.482  1.00  0.00    -0.321 N 
ATOM     19  H   UNL A   1      43.959  27.858  27.453  1.00  0.00     0.167 HD
ATOM     20  O   UNL A   1      42.240  29.522  26.911  1.00  0.00    -0.224 OA
BRANCH  18  21
ATOM     21  C   UNL A   1      42.925  26.080  27.800  1.00  0.00     0.119 C 
BRANCH  21  22
ATOM     22  C   UNL A   1      43.048  25.199  26.557  1.00  0.00     0.021 C 
BRANCH  22  23
ATOM     23  C   UNL A   1      44.433  25.205  25.897  1.00  0.00     0.002 C 
BRANCH  23  24
ATOM     24  C   UNL A   1      44.728  24.018  24.975  1.00  0.00    -0.000 C 
BRANCH  24  25
ATOM     25  C   UNL A   1      46.135  23.428  25.095  1.00  0.00    -0.003 C 
ATOM     26  C   UNL A   1      46.251  22.027  24.515  1.00  0.00     0.004 C 
ENDBRANCH  24  25
ENDBRANCH  23  24
ENDBRANCH  22  23
ENDBRANCH  21  22
ENDBRANCH  18  21
ENDBRANCH  16  17
ENDBRANCH  11  16
ENDBRANCH   4  10
ENDBRANCH   1   3
BRANCH   1  27
ATOM     27  C   UNL A   1      33.717  34.524  29.979  1.00  0.00     0.227 C 
ATOM     28  O   UNL A   1      32.607  34.428  29.439  1.00  0.00    -0.274 OA
ATOM     29  N   UNL A   1      33.722  34.662  31.333  1.00  0.00    -0.356 N 
ATOM     30  H   UNL A   1      32.830  34.615  31.746  1.00  0.00     0.163 HD
BRANCH  29  31
ATOM     31  C   UNL A   1      34.800  34.864  32.278  1.00  0.00     0.116 C 
BRANCH  31  32
ATOM     32  C   UNL A   1      34.725  33.885  33.451  1.00  0.00     0.023 C 
BRANCH  32  33
ATOM     33  C   UNL A   1      35.916  32.941  33.582  1.00  0.00     0.023 C 
BRANCH  33  34
ATOM     34  C   UNL A   1      36.992  33.393  34.560  1.00  0.00     0.116 C 
BRANCH  34  35
ATOM     35  N   UNL A   1      37.190  32.491  35.689  1.00  0.00    -0.352 N 
ATOM     36  C   UNL A   1      38.119  31.480  35.806  1.00  0.00     0.251 C 
ATOM     37  H   UNL A   1      36.590  32.619  36.458  1.00  0.00     0.163 HD
ATOM     38  O   UNL A   1      38.125  30.745  36.788  1.00  0.00    -0.269 OA
BRANCH  36  39
ATOM     39  C   UNL A   1      39.079  31.272  34.703  1.00  0.00     0.039 A 
ATOM     40  C   UNL A   1      40.393  31.721  34.853  1.00  0.00     0.014 A 
ATOM     41  C   UNL A   1      38.700  30.546  33.572  1.00  0.00     0.014 A 
ATOM     42  C   UNL A   1      41.349  31.373  33.898  1.00  0.00     0.010 A 
ATOM     43  C   UNL A   1      39.672  30.125  32.672  1.00  0.00     0.010 A 
ATOM     44  C   UNL A   1      41.005  30.536  32.823  1.00  0.00    -0.014 A 
BRANCH  44  45
ATOM     45  C   UNL A   1      42.022  30.066  31.849  1.00  0.00     0.031 A 
ATOM     46  C   UNL A   1      42.708  28.744  32.055  1.00  0.00     0.074 A 
ATOM     47  C   UNL A   1      42.413  30.879  30.847  1.00  0.00     0.049 A 
ATOM     48  N   UNL A   1      43.668  28.195  31.356  1.00  0.00    -0.248 NA
ATOM     49  C   UNL A   1      42.289  27.949  33.222  1.00  0.00     0.031 C 
ATOM     50  C   UNL A   1      41.902  32.231  30.605  1.00  0.00     0.029 A 
ATOM     51  N   UNL A   1      43.354  30.700  29.864  1.00  0.00    -0.354 N 
ATOM     52  C   UNL A   1      43.999  27.022  32.023  1.00  0.00     0.074 A 
ATOM     53  C   UNL A   1      43.164  26.956  33.202  1.00  0.00     0.031 C 
ATOM     54  C   UNL A   1      42.538  32.759  29.546  1.00  0.00     0.029 A 
ATOM     55  C   UNL A   1      43.516  31.797  29.048  1.00  0.00     0.049 A 
ATOM     56  H   UNL A   1      43.865  29.866  29.753  1.00  0.00     0.167 HD
ATOM     57  C   UNL A   1      44.895  26.071  31.672  1.00  0.00     0.034 A 
ATOM     58  C   UNL A   1      44.362  32.007  28.020  1.00  0.00     0.034 A 
ATOM     59  C   UNL A   1      45.680  26.114  30.469  1.00  0.00     0.049 A 
ATOM     60  C   UNL A   1      45.290  30.901  27.599  1.00  0.00     0.074 A 
ATOM     61  C   UNL A   1      46.520  25.143  29.955  1.00  0.00     0.029 A 
ATOM     62  N   UNL A   1      45.732  27.190  29.597  1.00  0.00    -0.354 N 
ATOM     63  N   UNL A   1      45.450  29.714  28.130  1.00  0.00    -0.248 NA
ATOM     64  C   UNL A   1      46.123  31.145  26.412  1.00  0.00     0.031 C 
ATOM     65  C   UNL A   1      47.101  25.644  28.785  1.00  0.00     0.029 A 
ATOM     66  C   UNL A   1      46.600  26.915  28.555  1.00  0.00     0.049 A 
ATOM     67  H   UNL A   1      45.224  28.028  29.704  1.00  0.00     0.167 HD
ATOM     68  C   UNL A   1      46.378  29.057  27.330  1.00  0.00     0.074 A 
ATOM     69  C   UNL A   1      46.727  29.974  26.262  1.00  0.00     0.031 C 
ATOM     70  C   UNL A   1      46.903  27.816  27.472  1.00  0.00     0.034 A 
BRANCH  57  71
ATOM     71  C   UNL A   1      45.036  24.875  32.579  1.00  0.00     0.023 A 
ATOM     72  C   UNL A   1      44.122  23.806  32.472  1.00  0.00     0.012 A 
ATOM     73  C   UNL A   1      46.092  24.791  33.505  1.00  0.00     0.148 A 
ATOM     74  C   UNL A   1      44.231  22.691  33.302  1.00  0.00     0.002 A 
ATOM     75  C   UNL A   1      46.222  23.654  34.297  1.00  0.00     0.091 A 
ATOM     76  F   UNL A   1      46.937  25.826  33.611  1.00  0.00    -0.205 F 
ATOM     77  C   UNL A   1      45.286  22.612  34.206  1.00  0.00     0.022 A 
BRANCH  75  78
ATOM     78  S   UNL A   1      47.595  23.422  35.432  1.00  0.00     0.127 S 
ATOM     79  O   UNL A   1      47.359  24.490  36.402  1.00  0.00    -0.237 OA
ATOM     80  O   UNL A   1      47.350  22.071  35.940  1.00  0.00    -0.237 OA
ATOM     81  O   UNL A   1      48.804  23.556  34.631  1.00  0.00    -0.744 OA
ENDBRANCH  75  78
ENDBRANCH  57  71
BRANCH  58  82
ATOM     82  C   UNL A   1      44.314  33.299  27.279  1.00  0.00     0.023 A 
ATOM     83  C   UNL A   1      43.562  33.392  26.093  1.00  0.00     0.012 A 
ATOM     84  C   UNL A   1      44.968  34.446  27.771  1.00  0.00     0.148 A 
ATOM     85  C   UNL A   1      43.480  34.599  25.395  1.00  0.00     0.002 A 
ATOM     86  C   UNL A   1      44.839  35.656  27.101  1.00  0.00     0.091 A 
ATOM     87  F   UNL A   1      45.686  34.333  28.897  1.00  0.00    -0.205 F 
ATOM     88  C   UNL A   1      44.109  35.732  25.904  1.00  0.00     0.022 A 
BRANCH  86  89
ATOM     89  S   UNL A   1      45.500  37.195  27.751  1.00  0.00     0.127 S 
ATOM     90  O   UNL A   1      46.938  36.954  27.685  1.00  0.00    -0.237 OA
ATOM     91  O   UNL A   1      44.994  38.172  26.785  1.00  0.00    -0.237 OA
ATOM     92  O   UNL A   1      44.941  37.330  29.089  1.00  0.00    -0.744 OA
ENDBRANCH  86  89
ENDBRANCH  58  82
BRANCH  70  93
ATOM     93  C   UNL A   1      47.894  27.350  26.438  1.00  0.00     0.023 A 
ATOM     94  C   UNL A   1      47.435  26.860  25.200  1.00  0.00     0.012 A 
ATOM     95  C   UNL A   1      49.278  27.476  26.662  1.00  0.00     0.148 A 
ATOM     96  C   UNL A   1      48.340  26.476  24.211  1.00  0.00     0.002 A 
ATOM     97  C   UNL A   1      50.174  27.140  25.655  1.00  0.00     0.091 A 
ATOM     98  F   UNL A   1      49.695  27.927  27.855  1.00  0.00    -0.205 F 
ATOM     99  C   UNL A   1      49.707  26.627  24.434  1.00  0.00     0.022 A 
BRANCH  97 100
ATOM    100  S   UNL A   1      51.944  27.395  25.817  1.00  0.00     0.127 S 
ATOM    101  O   UNL A   1      52.014  28.826  26.110  1.00  0.00    -0.237 OA
ATOM    102  O   UNL A   1      52.282  26.524  26.945  1.00  0.00    -0.237 OA
ATOM    103  O   UNL A   1      52.526  26.987  24.546  1.00  0.00    -0.744 OA
ENDBRANCH  97 100
ENDBRANCH  70  93
ENDBRANCH  44  45
ENDBRANCH  36  39
ENDBRANCH  34  35
ENDBRANCH  33  34
ENDBRANCH  32  33
ENDBRANCH  31  32
ENDBRANCH  29  31
ENDBRANCH   1  27
TORSDOF 23
ENDMDL
