MODEL 1
REMARK VINA RESULT:     -11.4      0.000      0.000
REMARK SMILES COc1ccc(-n2c(SCC(=O)NCCCCNC(=O)c3ccc(-c4c5nc(c(-c6cccc(S(=O)(=O)[O-])c6F)c6ccc([nH]6)c(-c6cccc(S(=O)(=O)[O-])c6F)c6nc(c(-c7cccc(S(=O)(=O)[O-])c7F)c7ccc4[nH]7)C=C6)C=C5)cc3)nc3sc4c(c3c2=O)CC[N@H+](C)C4)cc1
REMARK SMILES IDX 15 1 14 2 13 3 11 4 12 5 10 7 9 8 8 9 7 10 90 11 84 12 89 13
REMARK SMILES IDX 91 14 85 15 88 16 86 17 87 18 92 19 96 20 93 21 94 22 95 23
REMARK SMILES IDX 6 25 3 26 4 27 98 28 5 29 97 30 2 31 1 32 16 33 17 34 18 35
REMARK SMILES IDX 19 36 20 38 21 39 22 40 83 41 23 42 82 43 24 44 25 45 26 46
REMARK SMILES IDX 76 47 27 48 81 49 75 50 77 51 28 52 80 53 74 54 73 55 29 57
REMARK SMILES IDX 61 58 41 59 60 60 42 61 45 62 59 63 78 64 43 65 44 66 58 68
REMARK SMILES IDX 79 69 46 70 30 71 31 72 39 73 32 74 34 75 40 76 33 77 35 78
REMARK SMILES IDX 36 79 37 80 38 81 62 82 63 83 71 84 64 85 66 86 72 87 65 88
REMARK SMILES IDX 67 89 68 90 69 91 70 92 47 93 48 94 56 95 49 96 51 97 57 98
REMARK SMILES IDX 50 99 52 100 53 101 54 102 55 103
REMARK H PARENT 13 6 94 24 18 37 77 56 45 67
REMARK Flexibility Score: inf
ROOT
ATOM      1  C   UNL A   1      35.965  30.457  27.997  1.00  0.00     0.023 C 
ENDROOT
BRANCH   1   2
ATOM      2  C   UNL A   1      35.019  29.335  27.569  1.00  0.00     0.116 C 
BRANCH   2   3
ATOM      3  N   UNL A   1      34.173  29.693  26.447  1.00  0.00    -0.355 N 
ATOM      4  C   UNL A   1      33.009  29.120  26.043  1.00  0.00     0.230 C 
ATOM      5  O   UNL A   1      32.129  29.900  25.658  1.00  0.00    -0.274 OA
ATOM      6  H   UNL A   1      34.484  30.453  25.904  1.00  0.00     0.163 HD
BRANCH   4   7
ATOM      7  C   UNL A   1      32.703  27.634  26.107  1.00  0.00     0.178 C 
BRANCH   7   8
ATOM      8  S   UNL A   1      33.985  26.485  25.672  1.00  0.00    -0.077 SA
BRANCH   8   9
ATOM      9  C   UNL A   1      33.482  24.919  25.071  1.00  0.00     0.177 A 
ATOM     10  N   UNL A   1      32.323  24.605  24.345  1.00  0.00    -0.255 N 
ATOM     11  C   UNL A   1      32.041  23.278  23.954  1.00  0.00     0.267 A 
ATOM     12  N   UNL A   1      34.346  24.019  25.453  1.00  0.00    -0.212 NA
ATOM     13  C   UNL A   1      33.041  22.308  24.337  1.00  0.00     0.081 A 
ATOM     14  O   UNL A   1      31.034  22.917  23.343  1.00  0.00    -0.268 OA
ATOM     15  C   UNL A   1      34.104  22.745  25.083  1.00  0.00     0.132 A 
ATOM     16  C   UNL A   1      33.116  20.915  24.047  1.00  0.00    -0.008 A 
ATOM     17  S   UNL A   1      35.136  21.459  25.537  1.00  0.00    -0.114 S 
ATOM     18  C   UNL A   1      34.180  20.325  24.702  1.00  0.00     0.065 A 
ATOM     19  C   UNL A   1      32.179  20.100  23.208  1.00  0.00     0.099 C 
ATOM     20  C   UNL A   1      34.492  18.856  24.669  1.00  0.00     0.310 C 
ATOM     21  C   UNL A   1      32.725  18.666  23.002  1.00  0.00     0.267 C 
ATOM     22  N   UNL A   1      33.336  18.047  24.205  1.00  0.00    -0.333 N 
ATOM     23  C   UNL A   1      32.350  17.861  25.270  1.00  0.00     0.333 C 
ATOM     24  H   UNL A   1      33.677  17.120  23.948  1.00  0.00     0.348 HD
BRANCH  10  25
ATOM     25  C   UNL A   1      31.382  25.542  23.876  1.00  0.00     0.052 A 
ATOM     26  C   UNL A   1      29.588  27.565  23.152  1.00  0.00     0.119 A 
ATOM     27  C   UNL A   1      30.830  27.465  22.519  1.00  0.00     0.048 A 
ATOM     28  C   UNL A   1      29.286  26.701  24.206  1.00  0.00     0.048 A 
ATOM     29  C   UNL A   1      31.733  26.464  22.883  1.00  0.00     0.030 A 
ATOM     30  C   UNL A   1      30.184  25.696  24.574  1.00  0.00     0.030 A 
BRANCH  26  31
ATOM     31  O   UNL A   1      28.762  28.542  22.669  1.00  0.00    -0.497 OA
ATOM     32  C   UNL A   1      29.412  29.615  21.987  1.00  0.00     0.278 C 
ENDBRANCH  26  31
ENDBRANCH  10  25
ENDBRANCH   8   9
ENDBRANCH   7   8
ENDBRANCH   4   7
ENDBRANCH   2   3
ENDBRANCH   1   2
BRANCH   1  33
ATOM     33  C   UNL A   1      35.512  31.907  27.705  1.00  0.00     0.023 C 
BRANCH  33  34
ATOM     34  C   UNL A   1      34.325  32.471  28.521  1.00  0.00     0.116 C 
BRANCH  34  35
ATOM     35  N   UNL A   1      34.763  33.516  29.429  1.00  0.00    -0.352 N 
ATOM     36  C   UNL A   1      35.508  33.529  30.582  1.00  0.00     0.251 C 
ATOM     37  H   UNL A   1      34.458  34.412  29.158  1.00  0.00     0.163 HD
ATOM     38  O   UNL A   1      35.374  34.530  31.293  1.00  0.00    -0.269 OA
BRANCH  36  39
ATOM     39  C   UNL A   1      36.457  32.467  31.030  1.00  0.00     0.039 A 
ATOM     40  C   UNL A   1      37.779  32.550  30.549  1.00  0.00     0.014 A 
ATOM     41  C   UNL A   1      36.082  31.315  31.718  1.00  0.00     0.014 A 
ATOM     42  C   UNL A   1      38.716  31.524  30.768  1.00  0.00     0.010 A 
ATOM     43  C   UNL A   1      37.025  30.281  31.930  1.00  0.00     0.010 A 
ATOM     44  C   UNL A   1      38.358  30.374  31.477  1.00  0.00    -0.014 A 
BRANCH  44  45
ATOM     45  C   UNL A   1      39.436  29.428  31.917  1.00  0.00     0.031 A 
ATOM     46  C   UNL A   1      39.496  28.179  31.096  1.00  0.00     0.074 A 
ATOM     47  C   UNL A   1      40.535  29.730  32.656  1.00  0.00     0.049 A 
ATOM     48  N   UNL A   1      40.084  28.158  29.938  1.00  0.00    -0.248 NA
ATOM     49  C   UNL A   1      38.692  26.989  31.366  1.00  0.00     0.031 C 
ATOM     50  C   UNL A   1      41.178  31.049  32.652  1.00  0.00     0.029 A 
ATOM     51  N   UNL A   1      41.441  28.923  33.338  1.00  0.00    -0.354 N 
ATOM     52  C   UNL A   1      39.687  27.010  29.283  1.00  0.00     0.074 A 
ATOM     53  C   UNL A   1      38.846  26.297  30.221  1.00  0.00     0.031 C 
ATOM     54  C   UNL A   1      42.434  30.923  33.136  1.00  0.00     0.029 A 
ATOM     55  C   UNL A   1      42.659  29.557  33.631  1.00  0.00     0.049 A 
ATOM     56  H   UNL A   1      41.247  27.992  33.590  1.00  0.00     0.167 HD
ATOM     57  C   UNL A   1      40.078  26.741  28.007  1.00  0.00     0.034 A 
ATOM     58  C   UNL A   1      43.894  28.960  33.613  1.00  0.00     0.034 A 
ATOM     59  C   UNL A   1      40.910  27.751  27.403  1.00  0.00     0.049 A 
ATOM     60  C   UNL A   1      44.030  28.594  32.163  1.00  0.00     0.074 A 
ATOM     61  C   UNL A   1      40.744  28.842  26.576  1.00  0.00     0.029 A 
ATOM     62  N   UNL A   1      42.242  27.790  27.743  1.00  0.00    -0.354 N 
ATOM     63  N   UNL A   1      44.317  29.413  31.193  1.00  0.00    -0.248 NA
ATOM     64  C   UNL A   1      43.475  27.307  31.749  1.00  0.00     0.031 C 
ATOM     65  C   UNL A   1      41.845  29.717  26.867  1.00  0.00     0.029 A 
ATOM     66  C   UNL A   1      42.590  29.113  27.876  1.00  0.00     0.049 A 
ATOM     67  H   UNL A   1      42.835  27.015  27.868  1.00  0.00     0.167 HD
ATOM     68  C   UNL A   1      43.707  28.869  30.064  1.00  0.00     0.074 A 
ATOM     69  C   UNL A   1      43.228  27.561  30.473  1.00  0.00     0.031 C 
ATOM     70  C   UNL A   1      43.479  29.577  28.918  1.00  0.00     0.034 A 
BRANCH  57  71
ATOM     71  C   UNL A   1      39.873  25.457  27.295  1.00  0.00     0.023 A 
ATOM     72  C   UNL A   1      38.546  25.184  26.902  1.00  0.00     0.012 A 
ATOM     73  C   UNL A   1      40.841  24.442  27.205  1.00  0.00     0.148 A 
ATOM     74  C   UNL A   1      38.162  23.912  26.495  1.00  0.00     0.002 A 
ATOM     75  C   UNL A   1      40.453  23.170  26.780  1.00  0.00     0.091 A 
ATOM     76  F   UNL A   1      42.098  24.715  27.582  1.00  0.00    -0.205 F 
ATOM     77  C   UNL A   1      39.113  22.901  26.445  1.00  0.00     0.022 A 
BRANCH  75  78
ATOM     78  S   UNL A   1      41.584  21.777  26.666  1.00  0.00     0.127 S 
ATOM     79  O   UNL A   1      40.665  20.647  26.535  1.00  0.00    -0.237 OA
ATOM     80  O   UNL A   1      42.336  22.096  25.452  1.00  0.00    -0.237 OA
ATOM     81  O   UNL A   1      42.374  21.803  27.890  1.00  0.00    -0.744 OA
ENDBRANCH  75  78
ENDBRANCH  57  71
BRANCH  58  82
ATOM     82  C   UNL A   1      44.299  27.982  34.687  1.00  0.00     0.023 A 
ATOM     83  C   UNL A   1      43.449  27.820  35.801  1.00  0.00     0.012 A 
ATOM     84  C   UNL A   1      45.508  27.245  34.690  1.00  0.00     0.148 A 
ATOM     85  C   UNL A   1      43.729  26.891  36.810  1.00  0.00     0.002 A 
ATOM     86  C   UNL A   1      45.745  26.262  35.651  1.00  0.00     0.091 A 
ATOM     87  F   UNL A   1      46.436  27.512  33.762  1.00  0.00    -0.205 F 
ATOM     88  C   UNL A   1      44.856  26.083  36.715  1.00  0.00     0.022 A 
BRANCH  86  89
ATOM     89  S   UNL A   1      47.119  25.104  35.539  1.00  0.00     0.127 S 
ATOM     90  O   UNL A   1      46.942  24.542  34.201  1.00  0.00    -0.237 OA
ATOM     91  O   UNL A   1      48.265  26.002  35.682  1.00  0.00    -0.237 OA
ATOM     92  O   UNL A   1      46.938  24.161  36.634  1.00  0.00    -0.744 OA
ENDBRANCH  86  89
ENDBRANCH  58  82
BRANCH  70  93
ATOM     93  C   UNL A   1      44.029  30.978  28.909  1.00  0.00     0.023 A 
ATOM     94  C   UNL A   1      45.352  31.185  28.465  1.00  0.00     0.012 A 
ATOM     95  C   UNL A   1      43.282  32.089  29.352  1.00  0.00     0.148 A 
ATOM     96  C   UNL A   1      45.922  32.457  28.465  1.00  0.00     0.002 A 
ATOM     97  C   UNL A   1      43.840  33.365  29.304  1.00  0.00     0.091 A 
ATOM     98  F   UNL A   1      42.046  31.892  29.833  1.00  0.00    -0.205 F 
ATOM     99  C   UNL A   1      45.163  33.548  28.871  1.00  0.00     0.022 A 
BRANCH  97 100
ATOM    100  S   UNL A   1      42.928  34.851  29.740  1.00  0.00     0.127 S 
ATOM    101  O   UNL A   1      43.939  35.894  29.569  1.00  0.00    -0.237 OA
ATOM    102  O   UNL A   1      41.868  34.862  28.730  1.00  0.00    -0.237 OA
ATOM    103  O   UNL A   1      42.460  34.661  31.106  1.00  0.00    -0.744 OA
ENDBRANCH  97 100
ENDBRANCH  70  93
ENDBRANCH  44  45
ENDBRANCH  36  39
ENDBRANCH  34  35
ENDBRANCH  33  34
ENDBRANCH   1  33
TORSDOF 18
ENDMDL
MODEL 2
REMARK VINA RESULT:     -11.2      3.069      8.881
REMARK SMILES COc1ccc(-n2c(SCC(=O)NCCCCNC(=O)c3ccc(-c4c5nc(c(-c6cccc(S(=O)(=O)[O-])c6F)c6ccc([nH]6)c(-c6cccc(S(=O)(=O)[O-])c6F)c6nc(c(-c7cccc(S(=O)(=O)[O-])c7F)c7ccc4[nH]7)C=C6)C=C5)cc3)nc3sc4c(c3c2=O)CC[N@H+](C)C4)cc1
REMARK SMILES IDX 15 1 14 2 13 3 11 4 12 5 10 7 9 8 8 9 7 10 90 11 84 12 89 13
REMARK SMILES IDX 91 14 85 15 88 16 86 17 87 18 92 19 96 20 93 21 94 22 95 23
REMARK SMILES IDX 6 25 3 26 4 27 98 28 5 29 97 30 2 31 1 32 16 33 17 34 18 35
REMARK SMILES IDX 19 36 20 38 21 39 22 40 83 41 23 42 82 43 24 44 25 45 26 46
REMARK SMILES IDX 76 47 27 48 81 49 75 50 77 51 28 52 80 53 74 54 73 55 29 57
REMARK SMILES IDX 61 58 41 59 60 60 42 61 45 62 59 63 78 64 43 65 44 66 58 68
REMARK SMILES IDX 79 69 46 70 30 71 31 72 39 73 32 74 34 75 40 76 33 77 35 78
REMARK SMILES IDX 36 79 37 80 38 81 62 82 63 83 71 84 64 85 66 86 72 87 65 88
REMARK SMILES IDX 67 89 68 90 69 91 70 92 47 93 48 94 56 95 49 96 51 97 57 98
REMARK SMILES IDX 50 99 52 100 53 101 54 102 55 103
REMARK H PARENT 13 6 94 24 18 37 77 56 45 67
REMARK Flexibility Score: inf
ROOT
ATOM      1  C   UNL A   1      39.345  23.593  26.884  1.00  0.00     0.023 C 
ENDROOT
BRANCH   1   2
ATOM      2  C   UNL A   1      38.094  24.034  26.124  1.00  0.00     0.116 C 
BRANCH   2   3
ATOM      3  N   UNL A   1      36.920  23.244  26.444  1.00  0.00    -0.355 N 
ATOM      4  C   UNL A   1      35.803  23.040  25.695  1.00  0.00     0.230 C 
ATOM      5  O   UNL A   1      35.342  21.892  25.719  1.00  0.00    -0.274 OA
ATOM      6  H   UNL A   1      36.933  22.796  27.320  1.00  0.00     0.163 HD
BRANCH   4   7
ATOM      7  C   UNL A   1      35.154  24.080  24.799  1.00  0.00     0.178 C 
BRANCH   7   8
ATOM      8  S   UNL A   1      34.411  25.505  25.555  1.00  0.00    -0.077 SA
BRANCH   8   9
ATOM      9  C   UNL A   1      32.876  26.041  24.906  1.00  0.00     0.177 A 
ATOM     10  N   UNL A   1      31.873  25.263  24.308  1.00  0.00    -0.255 N 
ATOM     11  C   UNL A   1      30.693  25.852  23.803  1.00  0.00     0.267 A 
ATOM     12  N   UNL A   1      32.801  27.340  25.005  1.00  0.00    -0.212 NA
ATOM     13  C   UNL A   1      30.608  27.283  23.977  1.00  0.00     0.081 A 
ATOM     14  O   UNL A   1      29.782  25.243  23.240  1.00  0.00    -0.268 OA
ATOM     15  C   UNL A   1      31.680  27.925  24.539  1.00  0.00     0.132 A 
ATOM     16  C   UNL A   1      29.544  28.176  23.660  1.00  0.00    -0.008 A 
ATOM     17  S   UNL A   1      31.459  29.620  24.579  1.00  0.00    -0.114 S 
ATOM     18  C   UNL A   1      29.913  29.490  23.880  1.00  0.00     0.065 A 
ATOM     19  C   UNL A   1      28.195  27.838  23.100  1.00  0.00     0.099 C 
ATOM     20  C   UNL A   1      29.049  30.680  23.574  1.00  0.00     0.310 C 
ATOM     21  C   UNL A   1      27.278  29.083  23.075  1.00  0.00     0.267 C 
ATOM     22  N   UNL A   1      27.937  30.343  22.649  1.00  0.00    -0.333 N 
ATOM     23  C   UNL A   1      28.399  30.262  21.262  1.00  0.00     0.333 C 
ATOM     24  H   UNL A   1      27.248  31.094  22.691  1.00  0.00     0.348 HD
BRANCH  10  25
ATOM     25  C   UNL A   1      31.886  23.858  24.211  1.00  0.00     0.052 A 
ATOM     26  C   UNL A   1      32.185  21.079  24.050  1.00  0.00     0.119 A 
ATOM     27  C   UNL A   1      31.823  21.680  25.259  1.00  0.00     0.048 A 
ATOM     28  C   UNL A   1      32.479  21.884  22.948  1.00  0.00     0.048 A 
ATOM     29  C   UNL A   1      31.682  23.066  25.348  1.00  0.00     0.030 A 
ATOM     30  C   UNL A   1      32.339  23.271  23.029  1.00  0.00     0.030 A 
BRANCH  26  31
ATOM     31  O   UNL A   1      32.229  19.713  24.066  1.00  0.00    -0.497 OA
ATOM     32  C   UNL A   1      32.651  19.125  25.297  1.00  0.00     0.278 C 
ENDBRANCH  26  31
ENDBRANCH  10  25
ENDBRANCH   8   9
ENDBRANCH   7   8
ENDBRANCH   4   7
ENDBRANCH   2   3
ENDBRANCH   1   2
BRANCH   1  33
ATOM     33  C   UNL A   1      39.886  22.175  26.584  1.00  0.00     0.023 C 
BRANCH  33  34
ATOM     34  C   UNL A   1      40.828  21.526  27.625  1.00  0.00     0.116 C 
BRANCH  34  35
ATOM     35  N   UNL A   1      42.133  21.249  27.049  1.00  0.00    -0.352 N 
ATOM     36  C   UNL A   1      43.094  22.022  26.447  1.00  0.00     0.251 C 
ATOM     37  H   UNL A   1      42.382  20.299  27.102  1.00  0.00     0.163 HD
ATOM     38  O   UNL A   1      43.908  21.413  25.746  1.00  0.00    -0.269 OA
BRANCH  36  39
ATOM     39  C   UNL A   1      43.246  23.502  26.580  1.00  0.00     0.039 A 
ATOM     40  C   UNL A   1      43.625  24.210  25.420  1.00  0.00     0.014 A 
ATOM     41  C   UNL A   1      43.231  24.190  27.790  1.00  0.00     0.014 A 
ATOM     42  C   UNL A   1      43.956  25.576  25.458  1.00  0.00     0.010 A 
ATOM     43  C   UNL A   1      43.573  25.563  27.826  1.00  0.00     0.010 A 
ATOM     44  C   UNL A   1      43.923  26.283  26.664  1.00  0.00    -0.014 A 
BRANCH  44  45
ATOM     45  C   UNL A   1      44.024  27.779  26.630  1.00  0.00     0.031 A 
ATOM     46  C   UNL A   1      42.712  28.464  26.852  1.00  0.00     0.074 A 
ATOM     47  C   UNL A   1      45.144  28.526  26.810  1.00  0.00     0.049 A 
ATOM     48  N   UNL A   1      42.224  28.619  28.045  1.00  0.00    -0.248 NA
ATOM     49  C   UNL A   1      41.757  28.757  25.785  1.00  0.00     0.031 C 
ATOM     50  C   UNL A   1      46.282  28.096  27.630  1.00  0.00     0.029 A 
ATOM     51  N   UNL A   1      45.415  29.865  26.546  1.00  0.00    -0.354 N 
ATOM     52  C   UNL A   1      40.890  28.954  27.915  1.00  0.00     0.074 A 
ATOM     53  C   UNL A   1      40.651  29.058  26.491  1.00  0.00     0.031 C 
ATOM     54  C   UNL A   1      47.027  29.180  27.945  1.00  0.00     0.029 A 
ATOM     55  C   UNL A   1      46.527  30.369  27.239  1.00  0.00     0.049 A 
ATOM     56  H   UNL A   1      44.876  30.410  25.929  1.00  0.00     0.167 HD
ATOM     57  C   UNL A   1      40.082  29.108  29.000  1.00  0.00     0.034 A 
ATOM     58  C   UNL A   1      46.639  31.634  27.757  1.00  0.00     0.034 A 
ATOM     59  C   UNL A   1      40.721  28.877  30.270  1.00  0.00     0.049 A 
ATOM     60  C   UNL A   1      45.551  31.633  28.792  1.00  0.00     0.074 A 
ATOM     61  C   UNL A   1      40.858  27.836  31.164  1.00  0.00     0.029 A 
ATOM     62  N   UNL A   1      41.517  29.870  30.792  1.00  0.00    -0.354 N 
ATOM     63  N   UNL A   1      45.607  31.059  29.958  1.00  0.00    -0.248 NA
ATOM     64  C   UNL A   1      44.210  32.005  28.345  1.00  0.00     0.031 C 
ATOM     65  C   UNL A   1      42.078  28.095  31.874  1.00  0.00     0.029 A 
ATOM     66  C   UNL A   1      42.620  29.261  31.342  1.00  0.00     0.049 A 
ATOM     67  H   UNL A   1      41.332  30.836  30.775  1.00  0.00     0.167 HD
ATOM     68  C   UNL A   1      44.290  30.728  30.266  1.00  0.00     0.074 A 
ATOM     69  C   UNL A   1      43.479  31.361  29.241  1.00  0.00     0.031 C 
ATOM     70  C   UNL A   1      43.948  29.824  31.232  1.00  0.00     0.034 A 
BRANCH  57  71
ATOM     71  C   UNL A   1      38.704  29.656  28.977  1.00  0.00     0.023 A 
ATOM     72  C   UNL A   1      37.747  28.867  28.305  1.00  0.00     0.012 A 
ATOM     73  C   UNL A   1      38.368  30.964  29.364  1.00  0.00     0.148 A 
ATOM     74  C   UNL A   1      36.505  29.381  27.957  1.00  0.00     0.002 A 
ATOM     75  C   UNL A   1      37.113  31.471  29.025  1.00  0.00     0.091 A 
ATOM     76  F   UNL A   1      39.288  31.703  30.001  1.00  0.00    -0.205 F 
ATOM     77  C   UNL A   1      36.191  30.688  28.306  1.00  0.00     0.022 A 
BRANCH  75  78
ATOM     78  S   UNL A   1      36.580  33.142  29.422  1.00  0.00     0.127 S 
ATOM     79  O   UNL A   1      36.674  33.154  30.881  1.00  0.00    -0.237 OA
ATOM     80  O   UNL A   1      37.590  33.952  28.739  1.00  0.00    -0.237 OA
ATOM     81  O   UNL A   1      35.234  33.272  28.880  1.00  0.00    -0.744 OA
ENDBRANCH  75  78
ENDBRANCH  57  71
BRANCH  58  82
ATOM     82  C   UNL A   1      46.831  32.827  26.854  1.00  0.00     0.023 A 
ATOM     83  C   UNL A   1      45.686  33.457  26.323  1.00  0.00     0.012 A 
ATOM     84  C   UNL A   1      48.089  33.335  26.449  1.00  0.00     0.148 A 
ATOM     85  C   UNL A   1      45.781  34.602  25.523  1.00  0.00     0.002 A 
ATOM     86  C   UNL A   1      48.181  34.522  25.722  1.00  0.00     0.091 A 
ATOM     87  F   UNL A   1      49.198  32.653  26.760  1.00  0.00    -0.205 F 
ATOM     88  C   UNL A   1      47.026  35.158  25.256  1.00  0.00     0.022 A 
BRANCH  86  89
ATOM     89  S   UNL A   1      49.745  35.364  25.429  1.00  0.00     0.127 S 
ATOM     90  O   UNL A   1      50.268  35.524  26.785  1.00  0.00    -0.237 OA
ATOM     91  O   UNL A   1      50.452  34.381  24.609  1.00  0.00    -0.237 OA
ATOM     92  O   UNL A   1      49.409  36.605  24.746  1.00  0.00    -0.744 OA
ENDBRANCH  86  89
ENDBRANCH  58  82
BRANCH  70  93
ATOM     93  C   UNL A   1      45.099  29.272  32.030  1.00  0.00     0.023 A 
ATOM     94  C   UNL A   1      45.558  29.997  33.149  1.00  0.00     0.012 A 
ATOM     95  C   UNL A   1      45.752  28.069  31.688  1.00  0.00     0.148 A 
ATOM     96  C   UNL A   1      46.640  29.549  33.905  1.00  0.00     0.002 A 
ATOM     97  C   UNL A   1      46.802  27.602  32.476  1.00  0.00     0.091 A 
ATOM     98  F   UNL A   1      45.361  27.407  30.591  1.00  0.00    -0.205 F 
ATOM     99  C   UNL A   1      47.253  28.346  33.578  1.00  0.00     0.022 A 
BRANCH  97 100
ATOM    100  S   UNL A   1      47.620  26.028  32.184  1.00  0.00     0.127 S 
ATOM    101  O   UNL A   1      49.021  26.356  32.444  1.00  0.00    -0.237 OA
ATOM    102  O   UNL A   1      47.000  25.173  33.199  1.00  0.00    -0.237 OA
ATOM    103  O   UNL A   1      47.316  25.654  30.810  1.00  0.00    -0.744 OA
ENDBRANCH  97 100
ENDBRANCH  70  93
ENDBRANCH  44  45
ENDBRANCH  36  39
ENDBRANCH  34  35
ENDBRANCH  33  34
ENDBRANCH   1  33
TORSDOF 18
ENDMDL
MODEL 3
REMARK VINA RESULT:     -11.2      7.390     14.689
REMARK SMILES COc1ccc(-n2c(SCC(=O)NCCCCNC(=O)c3ccc(-c4c5nc(c(-c6cccc(S(=O)(=O)[O-])c6F)c6ccc([nH]6)c(-c6cccc(S(=O)(=O)[O-])c6F)c6nc(c(-c7cccc(S(=O)(=O)[O-])c7F)c7ccc4[nH]7)C=C6)C=C5)cc3)nc3sc4c(c3c2=O)CC[N@H+](C)C4)cc1
REMARK SMILES IDX 15 1 14 2 13 3 11 4 12 5 10 7 9 8 8 9 7 10 90 11 84 12 89 13
REMARK SMILES IDX 91 14 85 15 88 16 86 17 87 18 92 19 96 20 93 21 94 22 95 23
REMARK SMILES IDX 6 25 3 26 4 27 98 28 5 29 97 30 2 31 1 32 16 33 17 34 18 35
REMARK SMILES IDX 19 36 20 38 21 39 22 40 83 41 23 42 82 43 24 44 25 45 26 46
REMARK SMILES IDX 76 47 27 48 81 49 75 50 77 51 28 52 80 53 74 54 73 55 29 57
REMARK SMILES IDX 61 58 41 59 60 60 42 61 45 62 59 63 78 64 43 65 44 66 58 68
REMARK SMILES IDX 79 69 46 70 30 71 31 72 39 73 32 74 34 75 40 76 33 77 35 78
REMARK SMILES IDX 36 79 37 80 38 81 62 82 63 83 71 84 64 85 66 86 72 87 65 88
REMARK SMILES IDX 67 89 68 90 69 91 70 92 47 93 48 94 56 95 49 96 51 97 57 98
REMARK SMILES IDX 50 99 52 100 53 101 54 102 55 103
REMARK H PARENT 13 6 94 24 18 37 77 56 45 67
REMARK Flexibility Score: inf
ROOT
ATOM      1  C   UNL A   1      47.805  37.824  25.378  1.00  0.00     0.023 C 
ENDROOT
BRANCH   1   2
ATOM      2  C   UNL A   1      46.878  39.036  25.279  1.00  0.00     0.116 C 
BRANCH   2   3
ATOM      3  N   UNL A   1      45.741  38.965  26.177  1.00  0.00    -0.355 N 
ATOM      4  C   UNL A   1      44.671  39.798  26.261  1.00  0.00     0.230 C 
ATOM      5  O   UNL A   1      43.578  39.253  26.456  1.00  0.00    -0.274 OA
ATOM      6  H   UNL A   1      45.746  38.213  26.812  1.00  0.00     0.163 HD
BRANCH   4   7
ATOM      7  C   UNL A   1      44.721  41.303  26.059  1.00  0.00     0.178 C 
BRANCH   7   8
ATOM      8  S   UNL A   1      43.406  42.080  25.154  1.00  0.00    -0.077 SA
BRANCH   8   9
ATOM      9  C   UNL A   1      43.846  42.959  23.704  1.00  0.00     0.177 A 
ATOM     10  N   UNL A   1      44.832  43.947  23.560  1.00  0.00    -0.255 N 
ATOM     11  C   UNL A   1      45.050  44.589  22.322  1.00  0.00     0.267 A 
ATOM     12  N   UNL A   1      43.058  42.595  22.731  1.00  0.00    -0.212 NA
ATOM     13  C   UNL A   1      44.205  44.128  21.244  1.00  0.00     0.081 A 
ATOM     14  O   UNL A   1      45.872  45.484  22.122  1.00  0.00    -0.268 OA
ATOM     15  C   UNL A   1      43.253  43.186  21.534  1.00  0.00     0.132 A 
ATOM     16  C   UNL A   1      44.205  44.495  19.868  1.00  0.00    -0.008 A 
ATOM     17  S   UNL A   1      42.276  42.828  20.178  1.00  0.00    -0.114 S 
ATOM     18  C   UNL A   1      43.154  43.904  19.193  1.00  0.00     0.065 A 
ATOM     19  C   UNL A   1      45.137  45.438  19.168  1.00  0.00     0.099 C 
ATOM     20  C   UNL A   1      42.826  44.145  17.747  1.00  0.00     0.310 C 
ATOM     21  C   UNL A   1      44.902  45.415  17.639  1.00  0.00     0.267 C 
ATOM     22  N   UNL A   1      43.479  45.371  17.221  1.00  0.00    -0.333 N 
ATOM     23  C   UNL A   1      42.762  46.579  17.634  1.00  0.00     0.333 C 
ATOM     24  H   UNL A   1      43.445  45.338  16.202  1.00  0.00     0.348 HD
BRANCH  10  25
ATOM     25  C   UNL A   1      45.732  44.347  24.567  1.00  0.00     0.052 A 
ATOM     26  C   UNL A   1      47.392  44.967  26.734  1.00  0.00     0.119 A 
ATOM     27  C   UNL A   1      47.807  44.043  25.771  1.00  0.00     0.048 A 
ATOM     28  C   UNL A   1      46.110  45.512  26.652  1.00  0.00     0.048 A 
ATOM     29  C   UNL A   1      46.979  43.723  24.693  1.00  0.00     0.030 A 
ATOM     30  C   UNL A   1      45.277  45.197  25.576  1.00  0.00     0.030 A 
BRANCH  26  31
ATOM     31  O   UNL A   1      48.310  45.250  27.707  1.00  0.00    -0.497 OA
ATOM     32  C   UNL A   1      48.490  46.637  27.999  1.00  0.00     0.278 C 
ENDBRANCH  26  31
ENDBRANCH  10  25
ENDBRANCH   8   9
ENDBRANCH   7   8
ENDBRANCH   4   7
ENDBRANCH   2   3
ENDBRANCH   1   2
BRANCH   1  33
ATOM     33  C   UNL A   1      47.263  36.585  26.130  1.00  0.00     0.023 C 
BRANCH  33  34
ATOM     34  C   UNL A   1      47.288  35.225  25.392  1.00  0.00     0.116 C 
BRANCH  34  35
ATOM     35  N   UNL A   1      46.036  34.984  24.696  1.00  0.00    -0.352 N 
ATOM     36  C   UNL A   1      44.923  34.228  24.967  1.00  0.00     0.251 C 
ATOM     37  H   UNL A   1      45.972  35.470  23.842  1.00  0.00     0.163 HD
ATOM     38  O   UNL A   1      44.210  33.959  23.995  1.00  0.00    -0.269 OA
BRANCH  36  39
ATOM     39  C   UNL A   1      44.503  33.728  26.310  1.00  0.00     0.039 A 
ATOM     40  C   UNL A   1      44.220  32.351  26.417  1.00  0.00     0.014 A 
ATOM     41  C   UNL A   1      44.187  34.546  27.392  1.00  0.00     0.014 A 
ATOM     42  C   UNL A   1      43.661  31.795  27.582  1.00  0.00     0.010 A 
ATOM     43  C   UNL A   1      43.618  33.986  28.559  1.00  0.00     0.010 A 
ATOM     44  C   UNL A   1      43.361  32.603  28.682  1.00  0.00    -0.014 A 
BRANCH  44  45
ATOM     45  C   UNL A   1      43.016  31.951  29.988  1.00  0.00     0.031 A 
ATOM     46  C   UNL A   1      41.647  32.303  30.480  1.00  0.00     0.074 A 
ATOM     47  C   UNL A   1      43.599  30.850  30.530  1.00  0.00     0.049 A 
ATOM     48  N   UNL A   1      40.589  31.710  30.014  1.00  0.00    -0.248 NA
ATOM     49  C   UNL A   1      41.351  33.487  31.282  1.00  0.00     0.031 C 
ATOM     50  C   UNL A   1      44.211  29.781  29.733  1.00  0.00     0.029 A 
ATOM     51  N   UNL A   1      43.557  30.319  31.815  1.00  0.00    -0.354 N 
ATOM     52  C   UNL A   1      39.490  32.460  30.382  1.00  0.00     0.074 A 
ATOM     53  C   UNL A   1      40.008  33.540  31.196  1.00  0.00     0.031 C 
ATOM     54  C   UNL A   1      44.322  28.673  30.500  1.00  0.00     0.029 A 
ATOM     55  C   UNL A   1      43.937  28.969  31.888  1.00  0.00     0.049 A 
ATOM     56  H   UNL A   1      43.284  30.842  32.603  1.00  0.00     0.167 HD
ATOM     57  C   UNL A   1      38.232  32.135  29.974  1.00  0.00     0.034 A 
ATOM     58  C   UNL A   1      43.382  28.027  32.715  1.00  0.00     0.034 A 
ATOM     59  C   UNL A   1      38.152  30.974  29.125  1.00  0.00     0.049 A 
ATOM     60  C   UNL A   1      41.973  27.967  32.202  1.00  0.00     0.074 A 
ATOM     61  C   UNL A   1      38.105  30.705  27.774  1.00  0.00     0.029 A 
ATOM     62  N   UNL A   1      38.224  29.730  29.709  1.00  0.00    -0.354 N 
ATOM     63  N   UNL A   1      41.581  27.367  31.116  1.00  0.00    -0.248 NA
ATOM     64  C   UNL A   1      41.021  28.924  32.763  1.00  0.00     0.031 C 
ATOM     65  C   UNL A   1      38.636  29.380  27.625  1.00  0.00     0.029 A 
ATOM     66  C   UNL A   1      39.001  28.942  28.895  1.00  0.00     0.049 A 
ATOM     67  H   UNL A   1      37.798  29.457  30.553  1.00  0.00     0.167 HD
ATOM     68  C   UNL A   1      40.464  28.080  30.687  1.00  0.00     0.074 A 
ATOM     69  C   UNL A   1      40.160  29.010  31.760  1.00  0.00     0.031 C 
ATOM     70  C   UNL A   1      39.956  27.992  29.422  1.00  0.00     0.034 A 
BRANCH  57  71
ATOM     71  C   UNL A   1      36.979  32.751  30.472  1.00  0.00     0.023 A 
ATOM     72  C   UNL A   1      36.562  32.331  31.753  1.00  0.00     0.012 A 
ATOM     73  C   UNL A   1      36.105  33.514  29.679  1.00  0.00     0.148 A 
ATOM     74  C   UNL A   1      35.279  32.597  32.216  1.00  0.00     0.002 A 
ATOM     75  C   UNL A   1      34.822  33.790  30.156  1.00  0.00     0.091 A 
ATOM     76  F   UNL A   1      36.514  33.905  28.464  1.00  0.00    -0.205 F 
ATOM     77  C   UNL A   1      34.405  33.316  31.413  1.00  0.00     0.022 A 
BRANCH  75  78
ATOM     78  S   UNL A   1      33.597  34.715  29.220  1.00  0.00     0.127 S 
ATOM     79  O   UNL A   1      33.154  33.728  28.237  1.00  0.00    -0.237 OA
ATOM     80  O   UNL A   1      32.608  35.036  30.250  1.00  0.00    -0.237 OA
ATOM     81  O   UNL A   1      34.299  35.870  28.675  1.00  0.00    -0.744 OA
ENDBRANCH  75  78
ENDBRANCH  57  71
BRANCH  58  82
ATOM     82  C   UNL A   1      43.653  28.043  34.199  1.00  0.00     0.023 A 
ATOM     83  C   UNL A   1      44.214  29.206  34.766  1.00  0.00     0.012 A 
ATOM     84  C   UNL A   1      43.435  26.946  35.069  1.00  0.00     0.148 A 
ATOM     85  C   UNL A   1      44.442  29.317  36.143  1.00  0.00     0.002 A 
ATOM     86  C   UNL A   1      43.583  27.087  36.449  1.00  0.00     0.091 A 
ATOM     87  F   UNL A   1      43.095  25.760  34.549  1.00  0.00    -0.205 F 
ATOM     88  C   UNL A   1      44.089  28.273  36.989  1.00  0.00     0.022 A 
BRANCH  86  89
ATOM     89  S   UNL A   1      43.048  25.826  37.618  1.00  0.00     0.127 S 
ATOM     90  O   UNL A   1      43.826  24.663  37.195  1.00  0.00    -0.237 OA
ATOM     91  O   UNL A   1      43.467  26.417  38.889  1.00  0.00    -0.237 OA
ATOM     92  O   UNL A   1      41.608  25.704  37.442  1.00  0.00    -0.744 OA
ENDBRANCH  86  89
ENDBRANCH  58  82
BRANCH  70  93
ATOM     93  C   UNL A   1      40.625  26.981  28.531  1.00  0.00     0.023 A 
ATOM     94  C   UNL A   1      40.252  25.625  28.642  1.00  0.00     0.012 A 
ATOM     95  C   UNL A   1      41.629  27.333  27.605  1.00  0.00     0.148 A 
ATOM     96  C   UNL A   1      40.861  24.642  27.864  1.00  0.00     0.002 A 
ATOM     97  C   UNL A   1      42.201  26.353  26.795  1.00  0.00     0.091 A 
ATOM     98  F   UNL A   1      42.033  28.609  27.537  1.00  0.00    -0.205 F 
ATOM     99  C   UNL A   1      41.826  25.007  26.931  1.00  0.00     0.022 A 
BRANCH  97 100
ATOM    100  S   UNL A   1      43.405  26.722  25.512  1.00  0.00     0.127 S 
ATOM    101  O   UNL A   1      42.649  27.608  24.626  1.00  0.00    -0.237 OA
ATOM    102  O   UNL A   1      44.464  27.387  26.274  1.00  0.00    -0.237 OA
ATOM    103  O   UNL A   1      43.790  25.445  24.929  1.00  0.00    -0.744 OA
ENDBRANCH  97 100
ENDBRANCH  70  93
ENDBRANCH  44  45
ENDBRANCH  36  39
ENDBRANCH  34  35
ENDBRANCH  33  34
ENDBRANCH   1  33
TORSDOF 18
ENDMDL
