MODEL 1
REMARK VINA RESULT:     -11.8      0.000      0.000
REMARK SMILES COc1ccc([C@H]2C[NH2+]C[C@@H]2C(=O)NCCCCNC(=O)c2ccc(-c3c4nc(c(-c5cccc(S(=O)(=O)[O-])c5F)c5ccc([nH]5)c(-c5cccc(S(=O)(=O)[O-])c5F)c5nc(c(-c6cccc(S(=O)(=O)[O-])c6F)c6ccc3[nH]6)C=C5)C=C4)cc2)cc1OC
REMARK SMILES IDX 17 1 16 2 15 3 14 4 12 5 13 6 11 8 7 9 8 10 9 11 10 12 6 15
REMARK SMILES IDX 3 16 4 17 86 18 5 19 85 20 2 21 1 22 87 23 88 24 18 25 19 26
REMARK SMILES IDX 20 27 21 29 22 30 23 31 84 32 24 33 83 34 25 35 26 36 27 37
REMARK SMILES IDX 77 38 28 39 82 40 76 41 78 42 29 43 81 44 75 45 74 46 30 48
REMARK SMILES IDX 62 49 42 50 61 51 43 52 46 53 60 54 79 55 44 56 45 57 59 59
REMARK SMILES IDX 80 60 47 61 31 62 32 63 40 64 33 65 35 66 41 67 34 68 36 69
REMARK SMILES IDX 37 70 38 71 39 72 63 73 64 74 72 75 65 76 67 77 73 78 66 79
REMARK SMILES IDX 68 80 69 81 70 82 71 83 48 84 49 85 57 86 50 87 52 88 58 89
REMARK SMILES IDX 51 90 53 91 54 92 55 93 56 94
REMARK H PARENT 14 7 9 13 9 14 19 28 78 47 46 58
REMARK Flexibility Score: inf
ROOT
ATOM      1  C   UNL A   1      36.625  21.424  25.358  1.00  0.00     0.023 C 
ENDROOT
BRANCH   1   2
ATOM      2  C   UNL A   1      35.723  22.527  24.809  1.00  0.00     0.023 C 
BRANCH   2   3
ATOM      3  C   UNL A   1      35.345  23.596  25.830  1.00  0.00     0.116 C 
BRANCH   3   4
ATOM      4  N   UNL A   1      34.702  23.032  27.012  1.00  0.00    -0.356 N 
ATOM      5  C   UNL A   1      33.365  22.795  27.227  1.00  0.00     0.229 C 
ATOM      6  O   UNL A   1      32.989  22.331  28.299  1.00  0.00    -0.275 OA
ATOM      7  H   UNL A   1      35.305  22.789  27.751  1.00  0.00     0.163 HD
BRANCH   5   8
ATOM      8  C   UNL A   1      32.420  23.148  26.094  1.00  0.00     0.146 C 
ATOM      9  C   UNL A   1      31.361  24.214  26.408  1.00  0.00     0.092 C 
ATOM     10  C   UNL A   1      30.217  23.325  26.913  1.00  0.00     0.269 C 
ATOM     11  N   UNL A   1      30.197  22.181  25.985  1.00  0.00    -0.345 N 
ATOM     12  C   UNL A   1      31.614  21.913  25.681  1.00  0.00     0.274 C 
ATOM     13  H   UNL A   1      29.686  22.418  25.135  1.00  0.00     0.346 HD
ATOM     14  H   UNL A   1      29.732  21.368  26.389  1.00  0.00     0.346 HD
BRANCH   9  15
ATOM     15  C   UNL A   1      30.970  25.097  25.205  1.00  0.00    -0.034 A 
ATOM     16  C   UNL A   1      30.422  26.892  23.063  1.00  0.00     0.160 A 
ATOM     17  C   UNL A   1      29.697  26.953  24.261  1.00  0.00     0.051 A 
ATOM     18  C   UNL A   1      31.415  25.929  22.915  1.00  0.00     0.161 A 
ATOM     19  C   UNL A   1      29.970  26.071  25.322  1.00  0.00     0.008 A 
ATOM     20  C   UNL A   1      31.657  25.047  23.978  1.00  0.00     0.054 A 
BRANCH  16  21
ATOM     21  O   UNL A   1      30.241  27.895  22.152  1.00  0.00    -0.493 OA
ATOM     22  C   UNL A   1      29.352  28.904  22.625  1.00  0.00     0.278 C 
ENDBRANCH  16  21
BRANCH  18  23
ATOM     23  O   UNL A   1      32.291  25.718  21.888  1.00  0.00    -0.493 OA
ATOM     24  C   UNL A   1      33.532  25.098  22.150  1.00  0.00     0.278 C 
ENDBRANCH  18  23
ENDBRANCH   9  15
ENDBRANCH   5   8
ENDBRANCH   3   4
ENDBRANCH   2   3
ENDBRANCH   1   2
BRANCH   1  25
ATOM     25  C   UNL A   1      38.118  21.649  25.146  1.00  0.00     0.116 C 
BRANCH  25  26
ATOM     26  N   UNL A   1      38.945  20.667  25.834  1.00  0.00    -0.352 N 
ATOM     27  C   UNL A   1      40.024  20.883  26.659  1.00  0.00     0.251 C 
ATOM     28  H   UNL A   1      38.701  19.725  25.689  1.00  0.00     0.163 HD
ATOM     29  O   UNL A   1      40.699  19.933  27.047  1.00  0.00    -0.269 OA
BRANCH  27  30
ATOM     30  C   UNL A   1      40.382  22.264  27.049  1.00  0.00     0.039 A 
ATOM     31  C   UNL A   1      41.336  22.458  28.049  1.00  0.00     0.014 A 
ATOM     32  C   UNL A   1      39.799  23.362  26.411  1.00  0.00     0.014 A 
ATOM     33  C   UNL A   1      41.744  23.755  28.373  1.00  0.00     0.010 A 
ATOM     34  C   UNL A   1      40.271  24.644  26.671  1.00  0.00     0.010 A 
ATOM     35  C   UNL A   1      41.238  24.858  27.665  1.00  0.00    -0.014 A 
BRANCH  35  36
ATOM     36  C   UNL A   1      41.705  26.239  27.955  1.00  0.00     0.031 A 
ATOM     37  C   UNL A   1      43.110  26.653  27.604  1.00  0.00     0.074 A 
ATOM     38  C   UNL A   1      40.893  27.098  28.602  1.00  0.00     0.049 A 
ATOM     39  N   UNL A   1      43.706  27.800  27.809  1.00  0.00    -0.248 NA
ATOM     40  C   UNL A   1      43.967  25.640  26.969  1.00  0.00     0.031 C 
ATOM     41  C   UNL A   1      39.540  26.793  29.071  1.00  0.00     0.029 A 
ATOM     42  N   UNL A   1      41.096  28.397  28.998  1.00  0.00    -0.354 N 
ATOM     43  C   UNL A   1      45.013  27.634  27.364  1.00  0.00     0.074 A 
ATOM     44  C   UNL A   1      45.134  26.264  26.916  1.00  0.00     0.031 C 
ATOM     45  C   UNL A   1      39.031  27.875  29.682  1.00  0.00     0.029 A 
ATOM     46  C   UNL A   1      40.031  28.940  29.677  1.00  0.00     0.049 A 
ATOM     47  H   UNL A   1      41.926  28.893  28.814  1.00  0.00     0.167 HD
ATOM     48  C   UNL A   1      46.014  28.544  27.305  1.00  0.00     0.034 A 
ATOM     49  C   UNL A   1      39.877  30.155  30.240  1.00  0.00     0.034 A 
ATOM     50  C   UNL A   1      45.880  29.915  27.717  1.00  0.00     0.049 A 
ATOM     51  C   UNL A   1      40.989  31.162  30.125  1.00  0.00     0.074 A 
ATOM     52  C   UNL A   1      46.804  30.939  27.612  1.00  0.00     0.029 A 
ATOM     53  N   UNL A   1      44.756  30.452  28.326  1.00  0.00    -0.354 N 
ATOM     54  N   UNL A   1      42.161  31.035  29.553  1.00  0.00    -0.248 NA
ATOM     55  C   UNL A   1      40.741  32.493  30.697  1.00  0.00     0.031 C 
ATOM     56  C   UNL A   1      46.253  32.086  28.191  1.00  0.00     0.029 A 
ATOM     57  C   UNL A   1      44.968  31.789  28.616  1.00  0.00     0.049 A 
ATOM     58  H   UNL A   1      43.929  29.955  28.524  1.00  0.00     0.167 HD
ATOM     59  C   UNL A   1      42.775  32.278  29.662  1.00  0.00     0.074 A 
ATOM     60  C   UNL A   1      41.835  33.148  30.336  1.00  0.00     0.031 C 
ATOM     61  C   UNL A   1      44.009  32.660  29.246  1.00  0.00     0.034 A 
BRANCH  48  62
ATOM     62  C   UNL A   1      47.336  28.092  26.736  1.00  0.00     0.023 A 
ATOM     63  C   UNL A   1      48.397  27.765  27.606  1.00  0.00     0.012 A 
ATOM     64  C   UNL A   1      47.515  27.947  25.347  1.00  0.00     0.148 A 
ATOM     65  C   UNL A   1      49.628  27.346  27.102  1.00  0.00     0.002 A 
ATOM     66  C   UNL A   1      48.727  27.479  24.854  1.00  0.00     0.091 A 
ATOM     67  F   UNL A   1      46.502  28.280  24.533  1.00  0.00    -0.205 F 
ATOM     68  C   UNL A   1      49.789  27.194  25.728  1.00  0.00     0.022 A 
BRANCH  66  69
ATOM     69  S   UNL A   1      49.007  27.166  23.108  1.00  0.00     0.127 S 
ATOM     70  O   UNL A   1      48.221  25.951  22.896  1.00  0.00    -0.237 OA
ATOM     71  O   UNL A   1      48.449  28.369  22.489  1.00  0.00    -0.237 OA
ATOM     72  O   UNL A   1      50.447  27.015  22.953  1.00  0.00    -0.744 OA
ENDBRANCH  66  69
ENDBRANCH  48  62
BRANCH  49  73
ATOM     73  C   UNL A   1      38.591  30.506  30.908  1.00  0.00     0.023 A 
ATOM     74  C   UNL A   1      38.386  30.145  32.253  1.00  0.00     0.012 A 
ATOM     75  C   UNL A   1      37.586  31.219  30.227  1.00  0.00     0.148 A 
ATOM     76  C   UNL A   1      37.190  30.458  32.899  1.00  0.00     0.002 A 
ATOM     77  C   UNL A   1      36.420  31.578  30.893  1.00  0.00     0.091 A 
ATOM     78  F   UNL A   1      37.799  31.547  28.945  1.00  0.00    -0.205 F 
ATOM     79  C   UNL A   1      36.211  31.181  32.223  1.00  0.00     0.022 A 
BRANCH  77  80
ATOM     80  S   UNL A   1      35.163  32.621  30.147  1.00  0.00     0.127 S 
ATOM     81  O   UNL A   1      34.252  32.839  31.268  1.00  0.00    -0.237 OA
ATOM     82  O   UNL A   1      35.944  33.793  29.749  1.00  0.00    -0.237 OA
ATOM     83  O   UNL A   1      34.621  31.853  29.035  1.00  0.00    -0.744 OA
ENDBRANCH  77  80
ENDBRANCH  49  73
BRANCH  61  84
ATOM     84  C   UNL A   1      44.406  34.097  29.463  1.00  0.00     0.023 A 
ATOM     85  C   UNL A   1      44.999  34.494  30.678  1.00  0.00     0.012 A 
ATOM     86  C   UNL A   1      44.250  35.043  28.430  1.00  0.00     0.148 A 
ATOM     87  C   UNL A   1      45.394  35.817  30.874  1.00  0.00     0.002 A 
ATOM     88  C   UNL A   1      44.697  36.347  28.612  1.00  0.00     0.091 A 
ATOM     89  F   UNL A   1      43.668  34.652  27.286  1.00  0.00    -0.205 F 
ATOM     90  C   UNL A   1      45.255  36.739  29.840  1.00  0.00     0.022 A 
BRANCH  88  91
ATOM     91  S   UNL A   1      44.650  37.573  27.302  1.00  0.00     0.127 S 
ATOM     92  O   UNL A   1      45.114  38.772  27.997  1.00  0.00    -0.237 OA
ATOM     93  O   UNL A   1      45.598  37.025  26.331  1.00  0.00    -0.237 OA
ATOM     94  O   UNL A   1      43.269  37.615  26.839  1.00  0.00    -0.744 OA
ENDBRANCH  88  91
ENDBRANCH  61  84
ENDBRANCH  35  36
ENDBRANCH  27  30
ENDBRANCH  25  26
ENDBRANCH   1  25
TORSDOF 17
ENDMDL
MODEL 2
REMARK VINA RESULT:     -11.7      5.093     10.181
REMARK SMILES COc1ccc([C@H]2C[NH2+]C[C@@H]2C(=O)NCCCCNC(=O)c2ccc(-c3c4nc(c(-c5cccc(S(=O)(=O)[O-])c5F)c5ccc([nH]5)c(-c5cccc(S(=O)(=O)[O-])c5F)c5nc(c(-c6cccc(S(=O)(=O)[O-])c6F)c6ccc3[nH]6)C=C5)C=C4)cc2)cc1OC
REMARK SMILES IDX 17 1 16 2 15 3 14 4 12 5 13 6 11 8 7 9 8 10 9 11 10 12 6 15
REMARK SMILES IDX 3 16 4 17 86 18 5 19 85 20 2 21 1 22 87 23 88 24 18 25 19 26
REMARK SMILES IDX 20 27 21 29 22 30 23 31 84 32 24 33 83 34 25 35 26 36 27 37
REMARK SMILES IDX 77 38 28 39 82 40 76 41 78 42 29 43 81 44 75 45 74 46 30 48
REMARK SMILES IDX 62 49 42 50 61 51 43 52 46 53 60 54 79 55 44 56 45 57 59 59
REMARK SMILES IDX 80 60 47 61 31 62 32 63 40 64 33 65 35 66 41 67 34 68 36 69
REMARK SMILES IDX 37 70 38 71 39 72 63 73 64 74 72 75 65 76 67 77 73 78 66 79
REMARK SMILES IDX 68 80 69 81 70 82 71 83 48 84 49 85 57 86 50 87 52 88 58 89
REMARK SMILES IDX 51 90 53 91 54 92 55 93 56 94
REMARK H PARENT 14 7 9 13 9 14 19 28 78 47 46 58
REMARK Flexibility Score: inf
ROOT
ATOM      1  C   UNL A   1      32.896  29.790  25.405  1.00  0.00     0.023 C 
ENDROOT
BRANCH   1   2
ATOM      2  C   UNL A   1      33.839  28.600  25.572  1.00  0.00     0.023 C 
BRANCH   2   3
ATOM      3  C   UNL A   1      34.075  27.801  24.293  1.00  0.00     0.116 C 
BRANCH   3   4
ATOM      4  N   UNL A   1      34.059  26.362  24.527  1.00  0.00    -0.356 N 
ATOM      5  C   UNL A   1      33.091  25.450  24.181  1.00  0.00     0.229 C 
ATOM      6  O   UNL A   1      33.228  24.267  24.477  1.00  0.00    -0.275 OA
ATOM      7  H   UNL A   1      34.845  25.996  24.993  1.00  0.00     0.163 HD
BRANCH   5   8
ATOM      8  C   UNL A   1      31.878  25.991  23.446  1.00  0.00     0.146 C 
ATOM      9  C   UNL A   1      30.860  26.756  24.303  1.00  0.00     0.092 C 
ATOM     10  C   UNL A   1      29.933  25.608  24.721  1.00  0.00     0.269 C 
ATOM     11  N   UNL A   1      29.763  24.802  23.500  1.00  0.00    -0.345 N 
ATOM     12  C   UNL A   1      31.078  24.837  22.836  1.00  0.00     0.274 C 
ATOM     13  H   UNL A   1      29.047  25.209  22.899  1.00  0.00     0.346 HD
ATOM     14  H   UNL A   1      29.464  23.849  23.708  1.00  0.00     0.346 HD
BRANCH   9  15
ATOM     15  C   UNL A   1      30.132  27.896  23.560  1.00  0.00    -0.034 A 
ATOM     16  C   UNL A   1      28.741  29.835  22.005  1.00  0.00     0.160 A 
ATOM     17  C   UNL A   1      30.131  29.683  21.897  1.00  0.00     0.051 A 
ATOM     18  C   UNL A   1      28.035  29.034  22.896  1.00  0.00     0.161 A 
ATOM     19  C   UNL A   1      30.818  28.723  22.661  1.00  0.00     0.008 A 
ATOM     20  C   UNL A   1      28.743  28.097  23.662  1.00  0.00     0.054 A 
BRANCH  16  21
ATOM     21  O   UNL A   1      28.113  30.645  21.101  1.00  0.00    -0.493 OA
ATOM     22  C   UNL A   1      28.035  31.997  21.545  1.00  0.00     0.278 C 
ENDBRANCH  16  21
BRANCH  18  23
ATOM     23  O   UNL A   1      26.691  28.946  23.126  1.00  0.00    -0.493 OA
ATOM     24  C   UNL A   1      26.181  27.852  23.859  1.00  0.00     0.278 C 
ENDBRANCH  18  23
ENDBRANCH   9  15
ENDBRANCH   5   8
ENDBRANCH   3   4
ENDBRANCH   2   3
ENDBRANCH   1   2
BRANCH   1  25
ATOM     25  C   UNL A   1      32.225  30.263  26.689  1.00  0.00     0.116 C 
BRANCH  25  26
ATOM     26  N   UNL A   1      32.214  31.713  26.825  1.00  0.00    -0.352 N 
ATOM     27  C   UNL A   1      33.111  32.518  27.487  1.00  0.00     0.251 C 
ATOM     28  H   UNL A   1      31.465  32.178  26.386  1.00  0.00     0.163 HD
ATOM     29  O   UNL A   1      32.875  33.717  27.622  1.00  0.00    -0.269 OA
BRANCH  27  30
ATOM     30  C   UNL A   1      34.341  31.928  28.059  1.00  0.00     0.039 A 
ATOM     31  C   UNL A   1      35.493  32.713  28.138  1.00  0.00     0.014 A 
ATOM     32  C   UNL A   1      34.349  30.616  28.538  1.00  0.00     0.014 A 
ATOM     33  C   UNL A   1      36.639  32.197  28.748  1.00  0.00     0.010 A 
ATOM     34  C   UNL A   1      35.460  30.137  29.224  1.00  0.00     0.010 A 
ATOM     35  C   UNL A   1      36.623  30.916  29.325  1.00  0.00    -0.014 A 
BRANCH  35  36
ATOM     36  C   UNL A   1      37.814  30.374  30.030  1.00  0.00     0.031 A 
ATOM     37  C   UNL A   1      38.125  30.811  31.438  1.00  0.00     0.074 A 
ATOM     38  C   UNL A   1      38.659  29.549  29.381  1.00  0.00     0.049 A 
ATOM     39  N   UNL A   1      39.133  30.475  32.201  1.00  0.00    -0.248 NA
ATOM     40  C   UNL A   1      37.201  31.774  32.059  1.00  0.00     0.031 C 
ATOM     41  C   UNL A   1      38.517  29.116  27.990  1.00  0.00     0.029 A 
ATOM     42  N   UNL A   1      39.819  28.945  29.799  1.00  0.00    -0.354 N 
ATOM     43  C   UNL A   1      38.985  31.210  33.372  1.00  0.00     0.074 A 
ATOM     44  C   UNL A   1      37.814  32.041  33.202  1.00  0.00     0.031 C 
ATOM     45  C   UNL A   1      39.543  28.310  27.672  1.00  0.00     0.029 A 
ATOM     46  C   UNL A   1      40.432  28.193  28.824  1.00  0.00     0.049 A 
ATOM     47  H   UNL A   1      40.178  29.040  30.711  1.00  0.00     0.167 HD
ATOM     48  C   UNL A   1      39.737  31.178  34.498  1.00  0.00     0.034 A 
ATOM     49  C   UNL A   1      41.584  27.494  28.850  1.00  0.00     0.034 A 
ATOM     50  C   UNL A   1      40.880  30.324  34.677  1.00  0.00     0.049 A 
ATOM     51  C   UNL A   1      42.380  27.441  30.126  1.00  0.00     0.074 A 
ATOM     52  C   UNL A   1      41.653  30.149  35.811  1.00  0.00     0.029 A 
ATOM     53  N   UNL A   1      41.425  29.513  33.693  1.00  0.00    -0.354 N 
ATOM     54  N   UNL A   1      42.133  28.017  31.277  1.00  0.00    -0.248 NA
ATOM     55  C   UNL A   1      43.591  26.609  30.119  1.00  0.00     0.031 C 
ATOM     56  C   UNL A   1      42.687  29.259  35.503  1.00  0.00     0.029 A 
ATOM     57  C   UNL A   1      42.532  28.845  34.189  1.00  0.00     0.049 A 
ATOM     58  H   UNL A   1      41.076  29.425  32.777  1.00  0.00     0.167 HD
ATOM     59  C   UNL A   1      43.134  27.587  32.141  1.00  0.00     0.074 A 
ATOM     60  C   UNL A   1      43.979  26.687  31.384  1.00  0.00     0.031 C 
ATOM     61  C   UNL A   1      43.339  27.915  33.442  1.00  0.00     0.034 A 
BRANCH  48  62
ATOM     62  C   UNL A   1      39.321  32.068  35.641  1.00  0.00     0.023 A 
ATOM     63  C   UNL A   1      38.498  31.554  36.666  1.00  0.00     0.012 A 
ATOM     64  C   UNL A   1      39.778  33.397  35.729  1.00  0.00     0.148 A 
ATOM     65  C   UNL A   1      38.100  32.359  37.732  1.00  0.00     0.002 A 
ATOM     66  C   UNL A   1      39.421  34.178  36.821  1.00  0.00     0.091 A 
ATOM     67  F   UNL A   1      40.544  33.876  34.738  1.00  0.00    -0.205 F 
ATOM     68  C   UNL A   1      38.569  33.667  37.814  1.00  0.00     0.022 A 
BRANCH  66  69
ATOM     69  S   UNL A   1      40.042  35.846  37.064  1.00  0.00     0.127 S 
ATOM     70  O   UNL A   1      39.363  36.236  38.299  1.00  0.00    -0.237 OA
ATOM     71  O   UNL A   1      41.480  35.619  37.204  1.00  0.00    -0.237 OA
ATOM     72  O   UNL A   1      39.658  36.594  35.876  1.00  0.00    -0.744 OA
ENDBRANCH  66  69
ENDBRANCH  48  62
BRANCH  49  73
ATOM     73  C   UNL A   1      42.020  26.734  27.644  1.00  0.00     0.023 A 
ATOM     74  C   UNL A   1      42.671  27.411  26.595  1.00  0.00     0.012 A 
ATOM     75  C   UNL A   1      41.817  25.344  27.545  1.00  0.00     0.148 A 
ATOM     76  C   UNL A   1      43.083  26.723  25.453  1.00  0.00     0.002 A 
ATOM     77  C   UNL A   1      42.281  24.655  26.430  1.00  0.00     0.091 A 
ATOM     78  F   UNL A   1      41.188  24.722  28.552  1.00  0.00    -0.205 F 
ATOM     79  C   UNL A   1      42.897  25.345  25.374  1.00  0.00     0.022 A 
BRANCH  77  80
ATOM     80  S   UNL A   1      42.204  22.866  26.300  1.00  0.00     0.127 S 
ATOM     81  O   UNL A   1      43.002  22.449  27.450  1.00  0.00    -0.237 OA
ATOM     82  O   UNL A   1      40.768  22.618  26.422  1.00  0.00    -0.237 OA
ATOM     83  O   UNL A   1      42.763  22.541  24.995  1.00  0.00    -0.744 OA
ENDBRANCH  77  80
ENDBRANCH  49  73
BRANCH  61  84
ATOM     84  C   UNL A   1      44.496  27.263  34.154  1.00  0.00     0.023 A 
ATOM     85  C   UNL A   1      45.713  27.956  34.312  1.00  0.00     0.012 A 
ATOM     86  C   UNL A   1      44.351  25.983  34.726  1.00  0.00     0.148 A 
ATOM     87  C   UNL A   1      46.778  27.369  34.995  1.00  0.00     0.002 A 
ATOM     88  C   UNL A   1      45.397  25.428  35.452  1.00  0.00     0.091 A 
ATOM     89  F   UNL A   1      43.191  25.332  34.551  1.00  0.00    -0.205 F 
ATOM     90  C   UNL A   1      46.617  26.113  35.574  1.00  0.00     0.022 A 
BRANCH  88  91
ATOM     91  S   UNL A   1      45.244  23.862  36.317  1.00  0.00     0.127 S 
ATOM     92  O   UNL A   1      46.604  23.334  36.222  1.00  0.00    -0.237 OA
ATOM     93  O   UNL A   1      44.847  24.287  37.659  1.00  0.00    -0.237 OA
ATOM     94  O   UNL A   1      44.229  23.103  35.599  1.00  0.00    -0.744 OA
ENDBRANCH  88  91
ENDBRANCH  61  84
ENDBRANCH  35  36
ENDBRANCH  27  30
ENDBRANCH  25  26
ENDBRANCH   1  25
TORSDOF 17
ENDMDL
MODEL 3
REMARK VINA RESULT:     -11.7      4.835      9.661
REMARK SMILES COc1ccc([C@H]2C[NH2+]C[C@@H]2C(=O)NCCCCNC(=O)c2ccc(-c3c4nc(c(-c5cccc(S(=O)(=O)[O-])c5F)c5ccc([nH]5)c(-c5cccc(S(=O)(=O)[O-])c5F)c5nc(c(-c6cccc(S(=O)(=O)[O-])c6F)c6ccc3[nH]6)C=C5)C=C4)cc2)cc1OC
REMARK SMILES IDX 17 1 16 2 15 3 14 4 12 5 13 6 11 8 7 9 8 10 9 11 10 12 6 15
REMARK SMILES IDX 3 16 4 17 86 18 5 19 85 20 2 21 1 22 87 23 88 24 18 25 19 26
REMARK SMILES IDX 20 27 21 29 22 30 23 31 84 32 24 33 83 34 25 35 26 36 27 37
REMARK SMILES IDX 77 38 28 39 82 40 76 41 78 42 29 43 81 44 75 45 74 46 30 48
REMARK SMILES IDX 62 49 42 50 61 51 43 52 46 53 60 54 79 55 44 56 45 57 59 59
REMARK SMILES IDX 80 60 47 61 31 62 32 63 40 64 33 65 35 66 41 67 34 68 36 69
REMARK SMILES IDX 37 70 38 71 39 72 63 73 64 74 72 75 65 76 67 77 73 78 66 79
REMARK SMILES IDX 68 80 69 81 70 82 71 83 48 84 49 85 57 86 50 87 52 88 58 89
REMARK SMILES IDX 51 90 53 91 54 92 55 93 56 94
REMARK H PARENT 14 7 9 13 9 14 19 28 78 47 46 58
REMARK Flexibility Score: inf
ROOT
ATOM      1  C   UNL A   1      33.578  27.562  26.585  1.00  0.00     0.023 C 
ENDROOT
BRANCH   1   2
ATOM      2  C   UNL A   1      32.139  27.824  27.022  1.00  0.00     0.023 C 
BRANCH   2   3
ATOM      3  C   UNL A   1      31.085  27.419  25.995  1.00  0.00     0.116 C 
BRANCH   3   4
ATOM      4  N   UNL A   1      31.013  28.352  24.876  1.00  0.00    -0.356 N 
ATOM      5  C   UNL A   1      31.251  28.110  23.544  1.00  0.00     0.229 C 
ATOM      6  O   UNL A   1      31.166  29.024  22.730  1.00  0.00    -0.275 OA
ATOM      7  H   UNL A   1      30.761  29.275  25.106  1.00  0.00     0.163 HD
BRANCH   5   8
ATOM      8  C   UNL A   1      31.626  26.689  23.167  1.00  0.00     0.146 C 
ATOM      9  C   UNL A   1      33.119  26.342  23.252  1.00  0.00     0.092 C 
ATOM     10  C   UNL A   1      33.566  26.701  21.829  1.00  0.00     0.269 C 
ATOM     11  N   UNL A   1      32.497  26.180  20.959  1.00  0.00    -0.345 N 
ATOM     12  C   UNL A   1      31.250  26.419  21.707  1.00  0.00     0.274 C 
ATOM     13  H   UNL A   1      32.628  25.184  20.789  1.00  0.00     0.346 HD
ATOM     14  H   UNL A   1      32.490  26.635  20.047  1.00  0.00     0.346 HD
BRANCH   9  15
ATOM     15  C   UNL A   1      33.411  24.878  23.639  1.00  0.00    -0.034 A 
ATOM     16  C   UNL A   1      34.093  22.264  24.541  1.00  0.00     0.160 A 
ATOM     17  C   UNL A   1      34.843  22.904  23.543  1.00  0.00     0.051 A 
ATOM     18  C   UNL A   1      32.991  22.912  25.086  1.00  0.00     0.161 A 
ATOM     19  C   UNL A   1      34.511  24.197  23.102  1.00  0.00     0.008 A 
ATOM     20  C   UNL A   1      32.666  24.192  24.616  1.00  0.00     0.054 A 
BRANCH  16  21
ATOM     21  O   UNL A   1      34.581  21.097  25.059  1.00  0.00    -0.493 OA
ATOM     22  C   UNL A   1      35.600  21.318  26.030  1.00  0.00     0.278 C 
ENDBRANCH  16  21
BRANCH  18  23
ATOM     23  O   UNL A   1      32.159  22.532  26.101  1.00  0.00    -0.493 OA
ATOM     24  C   UNL A   1      31.456  23.516  26.830  1.00  0.00     0.278 C 
ENDBRANCH  18  23
ENDBRANCH   9  15
ENDBRANCH   5   8
ENDBRANCH   3   4
ENDBRANCH   2   3
ENDBRANCH   1   2
BRANCH   1  25
ATOM     25  C   UNL A   1      34.304  28.771  26.006  1.00  0.00     0.116 C 
BRANCH  25  26
ATOM     26  N   UNL A   1      33.850  30.033  26.573  1.00  0.00    -0.352 N 
ATOM     27  C   UNL A   1      34.413  30.767  27.590  1.00  0.00     0.251 C 
ATOM     28  H   UNL A   1      33.032  30.410  26.176  1.00  0.00     0.163 HD
ATOM     29  O   UNL A   1      33.821  31.745  28.041  1.00  0.00    -0.269 OA
BRANCH  27  30
ATOM     30  C   UNL A   1      35.717  30.357  28.154  1.00  0.00     0.039 A 
ATOM     31  C   UNL A   1      35.741  29.657  29.362  1.00  0.00     0.014 A 
ATOM     32  C   UNL A   1      36.909  30.639  27.481  1.00  0.00     0.014 A 
ATOM     33  C   UNL A   1      36.958  29.192  29.867  1.00  0.00     0.010 A 
ATOM     34  C   UNL A   1      38.106  30.099  27.939  1.00  0.00     0.010 A 
ATOM     35  C   UNL A   1      38.148  29.382  29.144  1.00  0.00    -0.014 A 
BRANCH  35  36
ATOM     36  C   UNL A   1      39.442  28.842  29.636  1.00  0.00     0.031 A 
ATOM     37  C   UNL A   1      40.169  29.528  30.763  1.00  0.00     0.074 A 
ATOM     38  C   UNL A   1      40.004  27.782  29.022  1.00  0.00     0.049 A 
ATOM     39  N   UNL A   1      41.321  29.225  31.306  1.00  0.00    -0.248 NA
ATOM     40  C   UNL A   1      39.535  30.726  31.338  1.00  0.00     0.031 C 
ATOM     41  C   UNL A   1      39.443  27.081  27.865  1.00  0.00     0.029 A 
ATOM     42  N   UNL A   1      41.183  27.125  29.269  1.00  0.00    -0.354 N 
ATOM     43  C   UNL A   1      41.566  30.213  32.253  1.00  0.00     0.074 A 
ATOM     44  C   UNL A   1      40.463  31.145  32.184  1.00  0.00     0.031 C 
ATOM     45  C   UNL A   1      40.272  26.086  27.509  1.00  0.00     0.029 A 
ATOM     46  C   UNL A   1      41.437  26.098  28.390  1.00  0.00     0.049 A 
ATOM     47  H   UNL A   1      41.790  27.365  30.006  1.00  0.00     0.167 HD
ATOM     48  C   UNL A   1      42.598  30.320  33.123  1.00  0.00     0.034 A 
ATOM     49  C   UNL A   1      42.492  25.263  28.297  1.00  0.00     0.034 A 
ATOM     50  C   UNL A   1      43.675  29.372  33.214  1.00  0.00     0.049 A 
ATOM     51  C   UNL A   1      43.607  25.377  29.301  1.00  0.00     0.074 A 
ATOM     52  C   UNL A   1      44.719  29.340  34.122  1.00  0.00     0.029 A 
ATOM     53  N   UNL A   1      43.856  28.295  32.359  1.00  0.00    -0.354 N 
ATOM     54  N   UNL A   1      43.739  26.221  30.295  1.00  0.00    -0.248 NA
ATOM     55  C   UNL A   1      44.698  24.399  29.195  1.00  0.00     0.031 C 
ATOM     56  C   UNL A   1      45.551  28.265  33.794  1.00  0.00     0.029 A 
ATOM     57  C   UNL A   1      45.002  27.600  32.709  1.00  0.00     0.049 A 
ATOM     58  H   UNL A   1      43.258  28.060  31.614  1.00  0.00     0.167 HD
ATOM     59  C   UNL A   1      44.905  25.852  30.956  1.00  0.00     0.074 A 
ATOM     60  C   UNL A   1      45.430  24.696  30.260  1.00  0.00     0.031 C 
ATOM     61  C   UNL A   1      45.491  26.423  32.038  1.00  0.00     0.034 A 
BRANCH  48  62
ATOM     62  C   UNL A   1      42.591  31.489  34.075  1.00  0.00     0.023 A 
ATOM     63  C   UNL A   1      43.225  32.695  33.709  1.00  0.00     0.012 A 
ATOM     64  C   UNL A   1      41.919  31.413  35.311  1.00  0.00     0.148 A 
ATOM     65  C   UNL A   1      43.231  33.789  34.575  1.00  0.00     0.002 A 
ATOM     66  C   UNL A   1      41.884  32.524  36.145  1.00  0.00     0.091 A 
ATOM     67  F   UNL A   1      41.336  30.254  35.652  1.00  0.00    -0.205 F 
ATOM     68  C   UNL A   1      42.553  33.706  35.787  1.00  0.00     0.022 A 
BRANCH  66  69
ATOM     69  S   UNL A   1      40.965  32.547  37.688  1.00  0.00     0.127 S 
ATOM     70  O   UNL A   1      40.820  33.983  37.924  1.00  0.00    -0.237 OA
ATOM     71  O   UNL A   1      39.726  31.863  37.317  1.00  0.00    -0.237 OA
ATOM     72  O   UNL A   1      41.786  31.834  38.656  1.00  0.00    -0.744 OA
ENDBRANCH  66  69
ENDBRANCH  48  62
BRANCH  49  73
ATOM     73  C   UNL A   1      42.510  24.204  27.249  1.00  0.00     0.023 A 
ATOM     74  C   UNL A   1      43.385  24.326  26.152  1.00  0.00     0.012 A 
ATOM     75  C   UNL A   1      41.687  23.065  27.348  1.00  0.00     0.148 A 
ATOM     76  C   UNL A   1      43.417  23.350  25.156  1.00  0.00     0.002 A 
ATOM     77  C   UNL A   1      41.765  22.069  26.382  1.00  0.00     0.091 A 
ATOM     78  F   UNL A   1      40.857  22.972  28.396  1.00  0.00    -0.205 F 
ATOM     79  C   UNL A   1      42.615  22.218  25.274  1.00  0.00     0.022 A 
BRANCH  77  80
ATOM     80  S   UNL A   1      40.870  20.519  26.519  1.00  0.00     0.127 S 
ATOM     81  O   UNL A   1      39.513  20.925  26.161  1.00  0.00    -0.237 OA
ATOM     82  O   UNL A   1      41.550  19.691  25.522  1.00  0.00    -0.237 OA
ATOM     83  O   UNL A   1      41.053  20.077  27.894  1.00  0.00    -0.744 OA
ENDBRANCH  77  80
ENDBRANCH  49  73
BRANCH  61  84
ATOM     84  C   UNL A   1      46.746  25.784  32.573  1.00  0.00     0.023 A 
ATOM     85  C   UNL A   1      46.676  24.870  33.643  1.00  0.00     0.012 A 
ATOM     86  C   UNL A   1      47.993  26.044  31.969  1.00  0.00     0.148 A 
ATOM     87  C   UNL A   1      47.831  24.253  34.126  1.00  0.00     0.002 A 
ATOM     88  C   UNL A   1      49.130  25.385  32.419  1.00  0.00     0.091 A 
ATOM     89  F   UNL A   1      48.043  26.931  30.964  1.00  0.00    -0.205 F 
ATOM     90  C   UNL A   1      49.053  24.502  33.507  1.00  0.00     0.022 A 
BRANCH  88  91
ATOM     91  S   UNL A   1      50.727  25.566  31.618  1.00  0.00     0.127 S 
ATOM     92  O   UNL A   1      50.454  25.037  30.283  1.00  0.00    -0.237 OA
ATOM     93  O   UNL A   1      50.937  27.013  31.670  1.00  0.00    -0.237 OA
ATOM     94  O   UNL A   1      51.668  24.790  32.416  1.00  0.00    -0.744 OA
ENDBRANCH  88  91
ENDBRANCH  61  84
ENDBRANCH  35  36
ENDBRANCH  27  30
ENDBRANCH  25  26
ENDBRANCH   1  25
TORSDOF 17
ENDMDL
