MODEL 1
REMARK VINA RESULT:     -11.9      0.000      0.000
REMARK SMILES O=C(Cc1cncnc1N1CCC2(CC1)OCCC[C@@H]2O)NCCCCNC(=O)c1ccc(-c2c3nc(c(-c4cccc(S(=O)(=O)[O-])c4F)c4ccc([nH]4)c(-c4cccc(S(=O)(=O)[O-])c4F)c4nc(c(-c5cccc(S(=O)(=O)[O-])c5F)c5ccc2[nH]5)C=C4)C=C3)cc1
REMARK SMILES IDX 24 1 23 2 22 3 1 4 2 5 3 7 4 8 5 9 9 10 6 11 8 12 7 13 10 14
REMARK SMILES IDX 11 15 15 16 12 17 14 18 13 19 16 20 20 21 17 22 19 23 18 24
REMARK SMILES IDX 21 25 25 27 26 28 27 29 28 30 29 32 30 33 31 34 92 35 32 36
REMARK SMILES IDX 91 37 33 38 34 39 35 40 85 41 36 42 90 43 84 44 86 45 37 46
REMARK SMILES IDX 89 47 83 48 82 49 38 51 70 52 50 53 69 54 51 55 54 56 68 57
REMARK SMILES IDX 87 58 52 59 53 60 67 62 88 63 55 64 39 65 40 66 48 67 41 68
REMARK SMILES IDX 43 69 49 70 42 71 44 72 45 73 46 74 47 75 71 76 72 77 80 78
REMARK SMILES IDX 73 79 75 80 81 81 74 82 76 83 77 84 78 85 79 86 56 87 57 88
REMARK SMILES IDX 65 89 58 90 60 91 66 92 59 93 61 94 62 95 63 96 64 97
REMARK H PARENT 22 6 21 26 27 31 86 50 54 61
REMARK Flexibility Score: inf
ROOT
ATOM      1  C   UNL A   1      36.625  23.051  23.855  1.00  0.00     0.023 C 
ENDROOT
BRANCH   1   2
ATOM      2  C   UNL A   1      36.488  24.086  24.977  1.00  0.00     0.116 C 
BRANCH   2   3
ATOM      3  N   UNL A   1      35.161  24.643  25.157  1.00  0.00    -0.356 N 
ATOM      4  O   UNL A   1      34.436  23.112  26.692  1.00  0.00    -0.275 OA
ATOM      5  C   UNL A   1      34.243  24.151  26.060  1.00  0.00     0.224 C 
ATOM      6  H   UNL A   1      34.901  25.414  24.604  1.00  0.00     0.163 HD
BRANCH   5   7
ATOM      7  C   UNL A   1      32.928  24.918  26.204  1.00  0.00     0.141 C 
BRANCH   7   8
ATOM      8  C   UNL A   1      32.370  25.500  24.931  1.00  0.00     0.022 A 
ATOM      9  C   UNL A   1      32.255  26.869  24.774  1.00  0.00     0.121 A 
ATOM     10  C   UNL A   1      32.027  24.729  23.821  1.00  0.00     0.135 A 
ATOM     11  N   UNL A   1      31.853  27.461  23.637  1.00  0.00    -0.244 NA
ATOM     12  N   UNL A   1      31.668  25.289  22.656  1.00  0.00    -0.219 NA
ATOM     13  C   UNL A   1      31.581  26.626  22.625  1.00  0.00     0.224 A 
BRANCH  10  14
ATOM     14  N   UNL A   1      32.139  23.354  23.896  1.00  0.00    -0.356 N 
ATOM     15  C   UNL A   1      32.623  22.600  22.754  1.00  0.00     0.121 C 
ATOM     16  C   UNL A   1      31.090  22.631  24.613  1.00  0.00     0.121 C 
ATOM     17  C   UNL A   1      33.456  21.475  23.364  1.00  0.00     0.060 C 
ATOM     18  C   UNL A   1      31.737  21.420  25.280  1.00  0.00     0.060 C 
ATOM     19  C   UNL A   1      32.687  20.586  24.370  1.00  0.00     0.097 C 
ATOM     20  O   UNL A   1      31.872  19.654  23.641  1.00  0.00    -0.372 OA
ATOM     21  C   UNL A   1      33.692  19.832  25.314  1.00  0.00     0.146 C 
ATOM     22  C   UNL A   1      32.572  18.629  22.932  1.00  0.00     0.161 C 
ATOM     23  C   UNL A   1      34.438  18.697  24.622  1.00  0.00     0.037 C 
ATOM     24  C   UNL A   1      33.488  17.811  23.831  1.00  0.00     0.031 C 
BRANCH  21  25
ATOM     25  O   UNL A   1      33.005  19.290  26.451  1.00  0.00    -0.390 OA
ATOM     26  H   UNL A   1      33.604  19.275  27.213  1.00  0.00     0.211 HD
ENDBRANCH  21  25
ENDBRANCH  10  14
ENDBRANCH   7   8
ENDBRANCH   5   7
ENDBRANCH   2   3
ENDBRANCH   1   2
BRANCH   1  27
ATOM     27  C   UNL A   1      37.264  21.676  24.129  1.00  0.00     0.023 C 
BRANCH  27  28
ATOM     28  C   UNL A   1      37.226  21.094  25.547  1.00  0.00     0.116 C 
BRANCH  28  29
ATOM     29  N   UNL A   1      38.478  20.412  25.849  1.00  0.00    -0.352 N 
ATOM     30  C   UNL A   1      39.731  20.785  26.254  1.00  0.00     0.251 C 
ATOM     31  H   UNL A   1      38.403  19.437  25.733  1.00  0.00     0.163 HD
ATOM     32  O   UNL A   1      40.613  19.930  26.118  1.00  0.00    -0.269 OA
BRANCH  30  33
ATOM     33  C   UNL A   1      40.111  22.094  26.860  1.00  0.00     0.039 A 
ATOM     34  C   UNL A   1      39.616  23.249  26.224  1.00  0.00     0.014 A 
ATOM     35  C   UNL A   1      41.051  22.261  27.878  1.00  0.00     0.014 A 
ATOM     36  C   UNL A   1      40.070  24.530  26.571  1.00  0.00     0.010 A 
ATOM     37  C   UNL A   1      41.469  23.554  28.262  1.00  0.00     0.010 A 
ATOM     38  C   UNL A   1      41.011  24.704  27.595  1.00  0.00    -0.014 A 
BRANCH  38  39
ATOM     39  C   UNL A   1      41.530  26.071  27.923  1.00  0.00     0.031 A 
ATOM     40  C   UNL A   1      42.951  26.471  27.588  1.00  0.00     0.074 A 
ATOM     41  C   UNL A   1      40.736  26.976  28.535  1.00  0.00     0.049 A 
ATOM     42  N   UNL A   1      43.568  27.605  27.815  1.00  0.00    -0.248 NA
ATOM     43  C   UNL A   1      43.787  25.464  26.918  1.00  0.00     0.031 C 
ATOM     44  C   UNL A   1      39.354  26.739  28.951  1.00  0.00     0.029 A 
ATOM     45  N   UNL A   1      40.983  28.270  28.931  1.00  0.00    -0.354 N 
ATOM     46  C   UNL A   1      44.870  27.438  27.352  1.00  0.00     0.074 A 
ATOM     47  C   UNL A   1      44.958  26.083  26.847  1.00  0.00     0.031 C 
ATOM     48  C   UNL A   1      38.879  27.843  29.550  1.00  0.00     0.029 A 
ATOM     49  C   UNL A   1      39.927  28.862  29.585  1.00  0.00     0.049 A 
ATOM     50  H   UNL A   1      41.837  28.730  28.761  1.00  0.00     0.167 HD
ATOM     51  C   UNL A   1      45.894  28.329  27.322  1.00  0.00     0.034 A 
ATOM     52  C   UNL A   1      39.807  30.077  30.160  1.00  0.00     0.034 A 
ATOM     53  C   UNL A   1      45.809  29.694  27.771  1.00  0.00     0.049 A 
ATOM     54  C   UNL A   1      40.952  31.055  30.095  1.00  0.00     0.074 A 
ATOM     55  C   UNL A   1      46.781  30.682  27.709  1.00  0.00     0.029 A 
ATOM     56  N   UNL A   1      44.699  30.272  28.365  1.00  0.00    -0.354 N 
ATOM     57  N   UNL A   1      42.125  30.916  29.530  1.00  0.00    -0.248 NA
ATOM     58  C   UNL A   1      40.740  32.371  30.718  1.00  0.00     0.031 C 
ATOM     59  C   UNL A   1      46.262  31.849  28.280  1.00  0.00     0.029 A 
ATOM     60  C   UNL A   1      44.961  31.595  28.680  1.00  0.00     0.049 A 
ATOM     61  H   UNL A   1      43.848  29.808  28.539  1.00  0.00     0.167 HD
ATOM     62  C   UNL A   1      42.776  32.134  29.698  1.00  0.00     0.074 A 
ATOM     63  C   UNL A   1      41.859  33.008  30.399  1.00  0.00     0.031 C 
ATOM     64  C   UNL A   1      44.030  32.487  29.321  1.00  0.00     0.034 A 
BRANCH  51  65
ATOM     65  C   UNL A   1      47.203  27.874  26.725  1.00  0.00     0.023 A 
ATOM     66  C   UNL A   1      48.218  27.388  27.574  1.00  0.00     0.012 A 
ATOM     67  C   UNL A   1      47.402  27.850  25.330  1.00  0.00     0.148 A 
ATOM     68  C   UNL A   1      49.421  26.917  27.049  1.00  0.00     0.002 A 
ATOM     69  C   UNL A   1      48.587  27.341  24.810  1.00  0.00     0.091 A 
ATOM     70  F   UNL A   1      46.432  28.328  24.537  1.00  0.00    -0.205 F 
ATOM     71  C   UNL A   1      49.601  26.883  25.669  1.00  0.00     0.022 A 
BRANCH  69  72
ATOM     72  S   UNL A   1      48.885  27.184  23.045  1.00  0.00     0.127 S 
ATOM     73  O   UNL A   1      50.345  27.173  22.992  1.00  0.00    -0.237 OA
ATOM     74  O   UNL A   1      48.253  25.901  22.736  1.00  0.00    -0.237 OA
ATOM     75  O   UNL A   1      48.243  28.339  22.429  1.00  0.00    -0.744 OA
ENDBRANCH  69  72
ENDBRANCH  51  65
BRANCH  52  76
ATOM     76  C   UNL A   1      38.522  30.465  30.811  1.00  0.00     0.023 A 
ATOM     77  C   UNL A   1      38.283  30.092  32.148  1.00  0.00     0.012 A 
ATOM     78  C   UNL A   1      37.550  31.215  30.122  1.00  0.00     0.148 A 
ATOM     79  C   UNL A   1      37.086  30.436  32.778  1.00  0.00     0.002 A 
ATOM     80  C   UNL A   1      36.385  31.601  30.772  1.00  0.00     0.091 A 
ATOM     81  F   UNL A   1      37.789  31.542  28.844  1.00  0.00    -0.205 F 
ATOM     82  C   UNL A   1      36.143  31.200  32.095  1.00  0.00     0.022 A 
BRANCH  80  83
ATOM     83  S   UNL A   1      35.176  32.694  30.017  1.00  0.00     0.127 S 
ATOM     84  O   UNL A   1      34.564  31.822  29.022  1.00  0.00    -0.237 OA
ATOM     85  O   UNL A   1      34.322  33.032  31.154  1.00  0.00    -0.237 OA
ATOM     86  O   UNL A   1      35.945  33.819  29.491  1.00  0.00    -0.744 OA
ENDBRANCH  80  83
ENDBRANCH  52  76
BRANCH  64  87
ATOM     87  C   UNL A   1      44.491  33.890  29.625  1.00  0.00     0.023 A 
ATOM     88  C   UNL A   1      45.092  34.176  30.867  1.00  0.00     0.012 A 
ATOM     89  C   UNL A   1      44.397  34.910  28.656  1.00  0.00     0.148 A 
ATOM     90  C   UNL A   1      45.565  35.457  31.152  1.00  0.00     0.002 A 
ATOM     91  C   UNL A   1      44.909  36.174  28.929  1.00  0.00     0.091 A 
ATOM     92  F   UNL A   1      43.804  34.628  27.486  1.00  0.00    -0.205 F 
ATOM     93  C   UNL A   1      45.484  36.452  30.180  1.00  0.00     0.022 A 
BRANCH  91  94
ATOM     94  S   UNL A   1      44.928  37.492  27.707  1.00  0.00     0.127 S 
ATOM     95  O   UNL A   1      43.501  37.710  27.480  1.00  0.00    -0.237 OA
ATOM     96  O   UNL A   1      45.604  38.574  28.425  1.00  0.00    -0.237 OA
ATOM     97  O   UNL A   1      45.672  36.969  26.568  1.00  0.00    -0.744 OA
ENDBRANCH  91  94
ENDBRANCH  64  87
ENDBRANCH  38  39
ENDBRANCH  30  33
ENDBRANCH  28  29
ENDBRANCH  27  28
ENDBRANCH   1  27
TORSDOF 17
ENDMDL
MODEL 2
REMARK VINA RESULT:     -11.9      5.784      8.668
REMARK SMILES O=C(Cc1cncnc1N1CCC2(CC1)OCCC[C@@H]2O)NCCCCNC(=O)c1ccc(-c2c3nc(c(-c4cccc(S(=O)(=O)[O-])c4F)c4ccc([nH]4)c(-c4cccc(S(=O)(=O)[O-])c4F)c4nc(c(-c5cccc(S(=O)(=O)[O-])c5F)c5ccc2[nH]5)C=C4)C=C3)cc1
REMARK SMILES IDX 24 1 23 2 22 3 1 4 2 5 3 7 4 8 5 9 9 10 6 11 8 12 7 13 10 14
REMARK SMILES IDX 11 15 15 16 12 17 14 18 13 19 16 20 20 21 17 22 19 23 18 24
REMARK SMILES IDX 21 25 25 27 26 28 27 29 28 30 29 32 30 33 31 34 92 35 32 36
REMARK SMILES IDX 91 37 33 38 34 39 35 40 85 41 36 42 90 43 84 44 86 45 37 46
REMARK SMILES IDX 89 47 83 48 82 49 38 51 70 52 50 53 69 54 51 55 54 56 68 57
REMARK SMILES IDX 87 58 52 59 53 60 67 62 88 63 55 64 39 65 40 66 48 67 41 68
REMARK SMILES IDX 43 69 49 70 42 71 44 72 45 73 46 74 47 75 71 76 72 77 80 78
REMARK SMILES IDX 73 79 75 80 81 81 74 82 76 83 77 84 78 85 79 86 56 87 57 88
REMARK SMILES IDX 65 89 58 90 60 91 66 92 59 93 61 94 62 95 63 96 64 97
REMARK H PARENT 22 6 21 26 27 31 86 50 54 61
REMARK Flexibility Score: inf
ROOT
ATOM      1  C   UNL A   1      33.948  30.729  27.975  1.00  0.00     0.023 C 
ENDROOT
BRANCH   1   2
ATOM      2  C   UNL A   1      34.916  29.704  27.372  1.00  0.00     0.116 C 
BRANCH   2   3
ATOM      3  N   UNL A   1      34.549  29.191  26.066  1.00  0.00    -0.356 N 
ATOM      4  O   UNL A   1      33.241  27.472  26.813  1.00  0.00    -0.275 OA
ATOM      5  C   UNL A   1      33.676  28.142  25.876  1.00  0.00     0.224 C 
ATOM      6  H   UNL A   1      34.945  29.615  25.271  1.00  0.00     0.163 HD
BRANCH   5   7
ATOM      7  C   UNL A   1      33.311  27.793  24.433  1.00  0.00     0.141 C 
BRANCH   7   8
ATOM      8  C   UNL A   1      31.838  27.657  24.147  1.00  0.00     0.022 A 
ATOM      9  C   UNL A   1      31.088  28.757  23.773  1.00  0.00     0.121 A 
ATOM     10  C   UNL A   1      31.166  26.435  24.149  1.00  0.00     0.135 A 
ATOM     11  N   UNL A   1      29.795  28.696  23.415  1.00  0.00    -0.244 NA
ATOM     12  N   UNL A   1      29.889  26.330  23.752  1.00  0.00    -0.219 NA
ATOM     13  C   UNL A   1      29.260  27.467  23.422  1.00  0.00     0.224 A 
BRANCH  10  14
ATOM     14  N   UNL A   1      31.857  25.287  24.490  1.00  0.00    -0.356 N 
ATOM     15  C   UNL A   1      32.361  24.406  23.452  1.00  0.00     0.121 C 
ATOM     16  C   UNL A   1      31.384  24.537  25.651  1.00  0.00     0.121 C 
ATOM     17  C   UNL A   1      33.695  23.901  23.995  1.00  0.00     0.060 C 
ATOM     18  C   UNL A   1      32.602  23.912  26.325  1.00  0.00     0.060 C 
ATOM     19  C   UNL A   1      33.599  23.195  25.368  1.00  0.00     0.097 C 
ATOM     20  O   UNL A   1      33.117  21.856  25.171  1.00  0.00    -0.372 OA
ATOM     21  C   UNL A   1      35.001  23.186  26.078  1.00  0.00     0.146 C 
ATOM     22  C   UNL A   1      34.016  20.954  24.522  1.00  0.00     0.161 C 
ATOM     23  C   UNL A   1      35.991  22.209  25.454  1.00  0.00     0.037 C 
ATOM     24  C   UNL A   1      35.357  20.845  25.234  1.00  0.00     0.031 C 
BRANCH  21  25
ATOM     25  O   UNL A   1      34.860  22.857  27.467  1.00  0.00    -0.390 OA
ATOM     26  H   UNL A   1      33.962  23.070  27.760  1.00  0.00     0.211 HD
ENDBRANCH  21  25
ENDBRANCH  10  14
ENDBRANCH   7   8
ENDBRANCH   5   7
ENDBRANCH   2   3
ENDBRANCH   1   2
BRANCH   1  27
ATOM     27  C   UNL A   1      33.804  32.132  27.354  1.00  0.00     0.023 C 
BRANCH  27  28
ATOM     28  C   UNL A   1      32.416  32.779  27.263  1.00  0.00     0.116 C 
BRANCH  28  29
ATOM     29  N   UNL A   1      32.486  34.184  27.641  1.00  0.00    -0.352 N 
ATOM     30  C   UNL A   1      33.061  34.906  28.653  1.00  0.00     0.251 C 
ATOM     31  H   UNL A   1      31.998  34.760  27.010  1.00  0.00     0.163 HD
ATOM     32  O   UNL A   1      32.643  36.061  28.789  1.00  0.00    -0.269 OA
BRANCH  30  33
ATOM     33  C   UNL A   1      34.143  34.439  29.567  1.00  0.00     0.039 A 
ATOM     34  C   UNL A   1      35.462  34.541  29.084  1.00  0.00     0.014 A 
ATOM     35  C   UNL A   1      33.938  33.753  30.765  1.00  0.00     0.014 A 
ATOM     36  C   UNL A   1      36.539  33.948  29.759  1.00  0.00     0.010 A 
ATOM     37  C   UNL A   1      35.028  33.201  31.471  1.00  0.00     0.010 A 
ATOM     38  C   UNL A   1      36.340  33.262  30.964  1.00  0.00    -0.014 A 
BRANCH  38  39
ATOM     39  C   UNL A   1      37.487  32.586  31.651  1.00  0.00     0.031 A 
ATOM     40  C   UNL A   1      38.226  31.439  30.998  1.00  0.00     0.074 A 
ATOM     41  C   UNL A   1      37.881  32.988  32.879  1.00  0.00     0.049 A 
ATOM     42  N   UNL A   1      39.229  30.730  31.457  1.00  0.00    -0.248 NA
ATOM     43  C   UNL A   1      37.774  31.030  29.660  1.00  0.00     0.031 C 
ATOM     44  C   UNL A   1      37.257  34.057  33.657  1.00  0.00     0.029 A 
ATOM     45  N   UNL A   1      38.889  32.530  33.696  1.00  0.00    -0.354 N 
ATOM     46  C   UNL A   1      39.505  29.773  30.485  1.00  0.00     0.074 A 
ATOM     47  C   UNL A   1      38.548  29.979  29.418  1.00  0.00     0.031 C 
ATOM     48  C   UNL A   1      37.886  34.168  34.838  1.00  0.00     0.029 A 
ATOM     49  C   UNL A   1      38.944  33.163  34.917  1.00  0.00     0.049 A 
ATOM     50  H   UNL A   1      39.513  31.815  33.432  1.00  0.00     0.167 HD
ATOM     51  C   UNL A   1      40.476  28.824  30.463  1.00  0.00     0.034 A 
ATOM     52  C   UNL A   1      39.742  32.960  35.987  1.00  0.00     0.034 A 
ATOM     53  C   UNL A   1      41.467  28.637  31.491  1.00  0.00     0.049 A 
ATOM     54  C   UNL A   1      40.825  31.914  35.929  1.00  0.00     0.074 A 
ATOM     55  C   UNL A   1      42.528  27.745  31.509  1.00  0.00     0.029 A 
ATOM     56  N   UNL A   1      41.527  29.346  32.679  1.00  0.00    -0.354 N 
ATOM     57  N   UNL A   1      41.149  31.115  34.943  1.00  0.00    -0.248 NA
ATOM     58  C   UNL A   1      41.675  31.767  37.121  1.00  0.00     0.031 C 
ATOM     59  C   UNL A   1      43.218  27.904  32.716  1.00  0.00     0.029 A 
ATOM     60  C   UNL A   1      42.599  28.909  33.440  1.00  0.00     0.049 A 
ATOM     61  H   UNL A   1      40.899  30.056  32.944  1.00  0.00     0.167 HD
ATOM     62  C   UNL A   1      42.258  30.398  35.382  1.00  0.00     0.074 A 
ATOM     63  C   UNL A   1      42.565  30.872  36.714  1.00  0.00     0.031 C 
ATOM     64  C   UNL A   1      42.946  29.421  34.741  1.00  0.00     0.034 A 
BRANCH  51  65
ATOM     65  C   UNL A   1      40.558  27.932  29.249  1.00  0.00     0.023 A 
ATOM     66  C   UNL A   1      39.677  26.837  29.134  1.00  0.00     0.012 A 
ATOM     67  C   UNL A   1      41.444  28.218  28.190  1.00  0.00     0.148 A 
ATOM     68  C   UNL A   1      39.697  26.023  28.002  1.00  0.00     0.002 A 
ATOM     69  C   UNL A   1      41.430  27.427  27.046  1.00  0.00     0.091 A 
ATOM     70  F   UNL A   1      42.284  29.255  28.321  1.00  0.00    -0.205 F 
ATOM     71  C   UNL A   1      40.565  26.323  26.955  1.00  0.00     0.022 A 
BRANCH  69  72
ATOM     72  S   UNL A   1      42.455  27.776  25.612  1.00  0.00     0.127 S 
ATOM     73  O   UNL A   1      43.775  27.917  26.220  1.00  0.00    -0.237 OA
ATOM     74  O   UNL A   1      42.281  26.569  24.804  1.00  0.00    -0.237 OA
ATOM     75  O   UNL A   1      41.906  28.988  25.016  1.00  0.00    -0.744 OA
ENDBRANCH  69  72
ENDBRANCH  51  65
BRANCH  52  76
ATOM     76  C   UNL A   1      39.581  33.809  37.202  1.00  0.00     0.023 A 
ATOM     77  C   UNL A   1      40.117  35.112  37.214  1.00  0.00     0.012 A 
ATOM     78  C   UNL A   1      38.884  33.342  38.334  1.00  0.00     0.148 A 
ATOM     79  C   UNL A   1      39.987  35.923  38.341  1.00  0.00     0.002 A 
ATOM     80  C   UNL A   1      38.710  34.177  39.431  1.00  0.00     0.091 A 
ATOM     81  F   UNL A   1      38.399  32.093  38.310  1.00  0.00    -0.205 F 
ATOM     82  C   UNL A   1      39.273  35.461  39.444  1.00  0.00     0.022 A 
BRANCH  80  83
ATOM     83  S   UNL A   1      37.697  33.715  40.840  1.00  0.00     0.127 S 
ATOM     84  O   UNL A   1      36.558  33.073  40.195  1.00  0.00    -0.237 OA
ATOM     85  O   UNL A   1      38.586  32.812  41.570  1.00  0.00    -0.237 OA
ATOM     86  O   UNL A   1      37.411  34.966  41.539  1.00  0.00    -0.744 OA
ENDBRANCH  80  83
ENDBRANCH  52  76
BRANCH  64  87
ATOM     87  C   UNL A   1      44.127  28.806  35.450  1.00  0.00     0.023 A 
ATOM     88  C   UNL A   1      45.422  29.309  35.219  1.00  0.00     0.012 A 
ATOM     89  C   UNL A   1      43.947  27.780  36.400  1.00  0.00     0.148 A 
ATOM     90  C   UNL A   1      46.522  28.784  35.897  1.00  0.00     0.002 A 
ATOM     91  C   UNL A   1      45.042  27.290  37.105  1.00  0.00     0.091 A 
ATOM     92  F   UNL A   1      42.711  27.297  36.595  1.00  0.00    -0.205 F 
ATOM     93  C   UNL A   1      46.331  27.783  36.847  1.00  0.00     0.022 A 
BRANCH  91  94
ATOM     94  S   UNL A   1      44.879  26.064  38.410  1.00  0.00     0.127 S 
ATOM     95  O   UNL A   1      44.040  26.767  39.378  1.00  0.00    -0.237 OA
ATOM     96  O   UNL A   1      44.217  24.957  37.718  1.00  0.00    -0.237 OA
ATOM     97  O   UNL A   1      46.237  25.770  38.853  1.00  0.00    -0.744 OA
ENDBRANCH  91  94
ENDBRANCH  64  87
ENDBRANCH  38  39
ENDBRANCH  30  33
ENDBRANCH  28  29
ENDBRANCH  27  28
ENDBRANCH   1  27
TORSDOF 17
ENDMDL
MODEL 3
REMARK VINA RESULT:     -11.8      1.391      7.573
REMARK SMILES O=C(Cc1cncnc1N1CCC2(CC1)OCCC[C@@H]2O)NCCCCNC(=O)c1ccc(-c2c3nc(c(-c4cccc(S(=O)(=O)[O-])c4F)c4ccc([nH]4)c(-c4cccc(S(=O)(=O)[O-])c4F)c4nc(c(-c5cccc(S(=O)(=O)[O-])c5F)c5ccc2[nH]5)C=C4)C=C3)cc1
REMARK SMILES IDX 24 1 23 2 22 3 1 4 2 5 3 7 4 8 5 9 9 10 6 11 8 12 7 13 10 14
REMARK SMILES IDX 11 15 15 16 12 17 14 18 13 19 16 20 20 21 17 22 19 23 18 24
REMARK SMILES IDX 21 25 25 27 26 28 27 29 28 30 29 32 30 33 31 34 92 35 32 36
REMARK SMILES IDX 91 37 33 38 34 39 35 40 85 41 36 42 90 43 84 44 86 45 37 46
REMARK SMILES IDX 89 47 83 48 82 49 38 51 70 52 50 53 69 54 51 55 54 56 68 57
REMARK SMILES IDX 87 58 52 59 53 60 67 62 88 63 55 64 39 65 40 66 48 67 41 68
REMARK SMILES IDX 43 69 49 70 42 71 44 72 45 73 46 74 47 75 71 76 72 77 80 78
REMARK SMILES IDX 73 79 75 80 81 81 74 82 76 83 77 84 78 85 79 86 56 87 57 88
REMARK SMILES IDX 65 89 58 90 60 91 66 92 59 93 61 94 62 95 63 96 64 97
REMARK H PARENT 22 6 21 26 27 31 86 50 54 61
REMARK Flexibility Score: inf
ROOT
ATOM      1  C   UNL A   1      38.129  22.160  25.019  1.00  0.00     0.023 C 
ENDROOT
BRANCH   1   2
ATOM      2  C   UNL A   1      37.258  23.312  25.532  1.00  0.00     0.116 C 
BRANCH   2   3
ATOM      3  N   UNL A   1      35.957  23.440  24.904  1.00  0.00    -0.356 N 
ATOM      4  O   UNL A   1      36.683  23.240  22.746  1.00  0.00    -0.275 OA
ATOM      5  C   UNL A   1      35.751  23.327  23.546  1.00  0.00     0.224 C 
ATOM      6  H   UNL A   1      35.178  23.617  25.478  1.00  0.00     0.163 HD
BRANCH   5   7
ATOM      7  C   UNL A   1      34.304  23.380  23.054  1.00  0.00     0.141 C 
BRANCH   7   8
ATOM      8  C   UNL A   1      33.316  24.012  24.001  1.00  0.00     0.022 A 
ATOM      9  C   UNL A   1      33.041  25.366  23.931  1.00  0.00     0.121 A 
ATOM     10  C   UNL A   1      32.565  23.284  24.923  1.00  0.00     0.135 A 
ATOM     11  N   UNL A   1      32.108  25.979  24.678  1.00  0.00    -0.244 NA
ATOM     12  N   UNL A   1      31.594  23.856  25.651  1.00  0.00    -0.219 NA
ATOM     13  C   UNL A   1      31.425  25.178  25.506  1.00  0.00     0.224 A 
BRANCH  10  14
ATOM     14  N   UNL A   1      32.769  21.922  25.032  1.00  0.00    -0.356 N 
ATOM     15  C   UNL A   1      31.748  20.994  24.580  1.00  0.00     0.121 C 
ATOM     16  C   UNL A   1      33.443  21.436  26.235  1.00  0.00     0.121 C 
ATOM     17  C   UNL A   1      32.531  19.827  23.985  1.00  0.00     0.060 C 
ATOM     18  C   UNL A   1      34.271  20.217  25.841  1.00  0.00     0.060 C 
ATOM     19  C   UNL A   1      33.532  19.165  24.961  1.00  0.00     0.097 C 
ATOM     20  O   UNL A   1      32.811  18.295  25.849  1.00  0.00    -0.372 OA
ATOM     21  C   UNL A   1      34.629  18.370  24.165  1.00  0.00     0.146 C 
ATOM     22  C   UNL A   1      32.264  17.113  25.261  1.00  0.00     0.161 C 
ATOM     23  C   UNL A   1      34.112  17.074  23.550  1.00  0.00     0.037 C 
ATOM     24  C   UNL A   1      33.314  16.263  24.559  1.00  0.00     0.031 C 
BRANCH  21  25
ATOM     25  O   UNL A   1      35.738  18.051  25.018  1.00  0.00    -0.390 OA
ATOM     26  H   UNL A   1      35.739  18.646  25.783  1.00  0.00     0.211 HD
ENDBRANCH  21  25
ENDBRANCH  10  14
ENDBRANCH   7   8
ENDBRANCH   5   7
ENDBRANCH   2   3
ENDBRANCH   1   2
BRANCH   1  27
ATOM     27  C   UNL A   1      38.148  20.803  25.752  1.00  0.00     0.023 C 
BRANCH  27  28
ATOM     28  C   UNL A   1      38.802  19.591  25.080  1.00  0.00     0.116 C 
BRANCH  28  29
ATOM     29  N   UNL A   1      39.906  19.095  25.892  1.00  0.00    -0.352 N 
ATOM     30  C   UNL A   1      40.986  19.645  26.528  1.00  0.00     0.251 C 
ATOM     31  H   UNL A   1      39.864  18.119  26.016  1.00  0.00     0.163 HD
ATOM     32  O   UNL A   1      41.865  18.847  26.875  1.00  0.00    -0.269 OA
BRANCH  30  33
ATOM     33  C   UNL A   1      41.179  21.087  26.857  1.00  0.00     0.039 A 
ATOM     34  C   UNL A   1      41.533  21.934  25.790  1.00  0.00     0.014 A 
ATOM     35  C   UNL A   1      41.215  21.614  28.149  1.00  0.00     0.014 A 
ATOM     36  C   UNL A   1      41.941  23.258  26.008  1.00  0.00     0.010 A 
ATOM     37  C   UNL A   1      41.575  22.962  28.363  1.00  0.00     0.010 A 
ATOM     38  C   UNL A   1      41.975  23.794  27.302  1.00  0.00    -0.014 A 
BRANCH  38  39
ATOM     39  C   UNL A   1      42.463  25.192  27.532  1.00  0.00     0.031 A 
ATOM     40  C   UNL A   1      41.580  26.234  28.182  1.00  0.00     0.074 A 
ATOM     41  C   UNL A   1      43.709  25.551  27.154  1.00  0.00     0.049 A 
ATOM     42  N   UNL A   1      41.837  27.494  28.441  1.00  0.00    -0.248 NA
ATOM     43  C   UNL A   1      40.232  25.809  28.585  1.00  0.00     0.031 C 
ATOM     44  C   UNL A   1      44.674  24.676  26.489  1.00  0.00     0.029 A 
ATOM     45  N   UNL A   1      44.370  26.754  27.257  1.00  0.00    -0.354 N 
ATOM     46  C   UNL A   1      40.676  28.019  29.003  1.00  0.00     0.074 A 
ATOM     47  C   UNL A   1      39.707  26.944  29.028  1.00  0.00     0.031 C 
ATOM     48  C   UNL A   1      45.796  25.369  26.236  1.00  0.00     0.029 A 
ATOM     49  C   UNL A   1      45.628  26.746  26.697  1.00  0.00     0.049 A 
ATOM     50  H   UNL A   1      43.980  27.546  27.692  1.00  0.00     0.167 HD
ATOM     51  C   UNL A   1      40.439  29.268  29.477  1.00  0.00     0.034 A 
ATOM     52  C   UNL A   1      46.542  27.728  26.555  1.00  0.00     0.034 A 
ATOM     53  C   UNL A   1      41.407  30.334  29.508  1.00  0.00     0.049 A 
ATOM     54  C   UNL A   1      46.262  29.101  27.109  1.00  0.00     0.074 A 
ATOM     55  C   UNL A   1      41.267  31.607  30.039  1.00  0.00     0.029 A 
ATOM     56  N   UNL A   1      42.690  30.261  28.991  1.00  0.00    -0.354 N 
ATOM     57  N   UNL A   1      45.208  29.531  27.756  1.00  0.00    -0.248 NA
ATOM     58  C   UNL A   1      47.316  30.115  26.943  1.00  0.00     0.031 C 
ATOM     59  C   UNL A   1      42.460  32.308  29.826  1.00  0.00     0.029 A 
ATOM     60  C   UNL A   1      43.349  31.465  29.182  1.00  0.00     0.049 A 
ATOM     61  H   UNL A   1      43.076  29.470  28.551  1.00  0.00     0.167 HD
ATOM     62  C   UNL A   1      45.485  30.850  28.104  1.00  0.00     0.074 A 
ATOM     63  C   UNL A   1      46.815  31.143  27.615  1.00  0.00     0.031 C 
ATOM     64  C   UNL A   1      44.696  31.741  28.753  1.00  0.00     0.034 A 
BRANCH  51  65
ATOM     65  C   UNL A   1      39.079  29.549  30.067  1.00  0.00     0.023 A 
ATOM     66  C   UNL A   1      38.816  29.185  31.404  1.00  0.00     0.012 A 
ATOM     67  C   UNL A   1      38.093  30.241  29.334  1.00  0.00     0.148 A 
ATOM     68  C   UNL A   1      37.585  29.475  31.991  1.00  0.00     0.002 A 
ATOM     69  C   UNL A   1      36.882  30.562  29.939  1.00  0.00     0.091 A 
ATOM     70  F   UNL A   1      38.353  30.567  28.060  1.00  0.00    -0.205 F 
ATOM     71  C   UNL A   1      36.623  30.171  31.264  1.00  0.00     0.022 A 
BRANCH  69  72
ATOM     72  S   UNL A   1      35.609  31.523  29.112  1.00  0.00     0.127 S 
ATOM     73  O   UNL A   1      35.000  30.519  28.243  1.00  0.00    -0.237 OA
ATOM     74  O   UNL A   1      34.769  31.953  30.230  1.00  0.00    -0.237 OA
ATOM     75  O   UNL A   1      36.307  32.605  28.429  1.00  0.00    -0.744 OA
ENDBRANCH  69  72
ENDBRANCH  51  65
BRANCH  52  76
ATOM     76  C   UNL A   1      47.848  27.435  25.896  1.00  0.00     0.023 A 
ATOM     77  C   UNL A   1      48.932  26.985  26.675  1.00  0.00     0.012 A 
ATOM     78  C   UNL A   1      48.014  27.579  24.505  1.00  0.00     0.148 A 
ATOM     79  C   UNL A   1      50.166  26.711  26.084  1.00  0.00     0.002 A 
ATOM     80  C   UNL A   1      49.228  27.250  23.916  1.00  0.00     0.091 A 
ATOM     81  F   UNL A   1      46.976  28.027  23.784  1.00  0.00    -0.205 F 
ATOM     82  C   UNL A   1      50.310  26.832  24.704  1.00  0.00     0.022 A 
BRANCH  80  83
ATOM     83  S   UNL A   1      49.467  27.250  22.136  1.00  0.00     0.127 S 
ATOM     84  O   UNL A   1      49.106  28.617  21.783  1.00  0.00    -0.237 OA
ATOM     85  O   UNL A   1      50.891  26.936  22.022  1.00  0.00    -0.237 OA
ATOM     86  O   UNL A   1      48.582  26.206  21.626  1.00  0.00    -0.744 OA
ENDBRANCH  80  83
ENDBRANCH  52  76
BRANCH  64  87
ATOM     87  C   UNL A   1      45.250  33.121  29.009  1.00  0.00     0.023 A 
ATOM     88  C   UNL A   1      46.009  33.365  30.171  1.00  0.00     0.012 A 
ATOM     89  C   UNL A   1      45.082  34.156  28.067  1.00  0.00     0.148 A 
ATOM     90  C   UNL A   1      46.568  34.621  30.405  1.00  0.00     0.002 A 
ATOM     91  C   UNL A   1      45.678  35.394  28.286  1.00  0.00     0.091 A 
ATOM     92  F   UNL A   1      44.340  33.914  26.976  1.00  0.00    -0.205 F 
ATOM     93  C   UNL A   1      46.411  35.631  29.459  1.00  0.00     0.022 A 
BRANCH  91  94
ATOM     94  S   UNL A   1      45.604  36.726  27.081  1.00  0.00     0.127 S 
ATOM     95  O   UNL A   1      46.281  36.127  25.932  1.00  0.00    -0.237 OA
ATOM     96  O   UNL A   1      44.163  36.914  26.910  1.00  0.00    -0.237 OA
ATOM     97  O   UNL A   1      46.290  37.856  27.694  1.00  0.00    -0.744 OA
ENDBRANCH  91  94
ENDBRANCH  64  87
ENDBRANCH  38  39
ENDBRANCH  30  33
ENDBRANCH  28  29
ENDBRANCH  27  28
ENDBRANCH   1  27
TORSDOF 17
ENDMDL
