MODEL 1
REMARK VINA RESULT:     -11.8      0.000      0.000
REMARK SMILES O=C(NCCCCNC(=O)[C@H]1CCCN1S(=O)(=O)c1ccccc1Cl)c1ccc(-c2c3nc(c(-c4cccc(S(=O)(=O)[O-])c4F)c4ccc([nH]4)c(-c4cccc(S(=O)(=O)[O-])c4F)c4nc(c(-c5cccc(S(=O)(=O)[O-])c5F)c5ccc2[nH]5)C=C4)C=C3)cc1
REMARK SMILES IDX 5 1 4 2 3 3 1 4 2 5 26 7 27 8 88 9 28 10 87 11 29 12 30 13
REMARK SMILES IDX 31 14 81 15 32 16 86 17 80 18 82 19 33 20 85 21 79 22 78 23
REMARK SMILES IDX 34 25 66 26 46 27 65 28 47 29 50 30 64 31 83 32 48 33 49 34
REMARK SMILES IDX 63 36 84 37 51 38 35 39 36 40 44 41 37 42 39 43 45 44 38 45
REMARK SMILES IDX 40 46 41 47 42 48 43 49 67 50 68 51 76 52 69 53 71 54 77 55
REMARK SMILES IDX 70 56 72 57 73 58 74 59 75 60 52 61 53 62 61 63 54 64 56 65
REMARK SMILES IDX 62 66 55 67 57 68 58 69 59 70 60 71 6 72 7 73 8 74 9 75
REMARK SMILES IDX 10 77 11 78 12 79 15 80 13 81 14 82 16 83 17 84 18 85 19 86
REMARK SMILES IDX 20 87 24 88 21 89 23 90 25 91 22 92
REMARK H PARENT 3 6 82 24 50 35 8 76
REMARK Flexibility Score: inf
ROOT
ATOM      1  C   UNL A   1      31.473  32.721  26.831  1.00  0.00     0.023 C 
ENDROOT
BRANCH   1   2
ATOM      2  C   UNL A   1      32.798  33.342  27.256  1.00  0.00     0.116 C 
BRANCH   2   3
ATOM      3  N   UNL A   1      32.637  34.588  27.989  1.00  0.00    -0.352 N 
ATOM      4  O   UNL A   1      32.967  36.049  29.677  1.00  0.00    -0.269 OA
ATOM      5  C   UNL A   1      33.306  35.013  29.113  1.00  0.00     0.251 C 
ATOM      6  H   UNL A   1      31.961  35.208  27.635  1.00  0.00     0.163 HD
BRANCH   5   7
ATOM      7  C   UNL A   1      34.406  34.185  29.653  1.00  0.00     0.039 A 
ATOM      8  C   UNL A   1      34.144  33.201  30.611  1.00  0.00     0.014 A 
ATOM      9  C   UNL A   1      35.715  34.431  29.234  1.00  0.00     0.014 A 
ATOM     10  C   UNL A   1      35.203  32.577  31.261  1.00  0.00     0.010 A 
ATOM     11  C   UNL A   1      36.773  33.741  29.831  1.00  0.00     0.010 A 
ATOM     12  C   UNL A   1      36.529  32.843  30.882  1.00  0.00    -0.014 A 
BRANCH  12  13
ATOM     13  C   UNL A   1      37.639  32.145  31.581  1.00  0.00     0.031 A 
ATOM     14  C   UNL A   1      38.410  31.039  30.911  1.00  0.00     0.074 A 
ATOM     15  C   UNL A   1      37.959  32.530  32.832  1.00  0.00     0.049 A 
ATOM     16  N   UNL A   1      39.436  30.365  31.363  1.00  0.00    -0.248 NA
ATOM     17  C   UNL A   1      37.972  30.629  29.568  1.00  0.00     0.031 C 
ATOM     18  C   UNL A   1      37.258  33.562  33.599  1.00  0.00     0.029 A 
ATOM     19  N   UNL A   1      38.955  32.109  33.675  1.00  0.00    -0.354 N 
ATOM     20  C   UNL A   1      39.735  29.421  30.388  1.00  0.00     0.074 A 
ATOM     21  C   UNL A   1      38.779  29.607  29.317  1.00  0.00     0.031 C 
ATOM     22  C   UNL A   1      37.866  33.720  34.783  1.00  0.00     0.029 A 
ATOM     23  C   UNL A   1      38.969  32.773  34.880  1.00  0.00     0.049 A 
ATOM     24  H   UNL A   1      39.597  31.402  33.441  1.00  0.00     0.167 HD
ATOM     25  C   UNL A   1      40.724  28.494  30.377  1.00  0.00     0.034 A 
ATOM     26  C   UNL A   1      39.780  32.633  35.946  1.00  0.00     0.034 A 
ATOM     27  C   UNL A   1      41.705  28.348  31.421  1.00  0.00     0.049 A 
ATOM     28  C   UNL A   1      40.896  31.630  35.886  1.00  0.00     0.074 A 
ATOM     29  C   UNL A   1      42.791  27.492  31.468  1.00  0.00     0.029 A 
ATOM     30  N   UNL A   1      41.717  29.072  32.605  1.00  0.00    -0.354 N 
ATOM     31  N   UNL A   1      41.243  30.841  34.898  1.00  0.00    -0.248 NA
ATOM     32  C   UNL A   1      41.751  31.519  37.075  1.00  0.00     0.031 C 
ATOM     33  C   UNL A   1      43.451  27.687  32.687  1.00  0.00     0.029 A 
ATOM     34  C   UNL A   1      42.787  28.678  33.391  1.00  0.00     0.049 A 
ATOM     35  H   UNL A   1      41.061  29.763  32.849  1.00  0.00     0.167 HD
ATOM     36  C   UNL A   1      42.375  30.165  35.333  1.00  0.00     0.074 A 
ATOM     37  C   UNL A   1      42.667  30.653  36.665  1.00  0.00     0.031 C 
ATOM     38  C   UNL A   1      43.099  29.213  34.692  1.00  0.00     0.034 A 
BRANCH  25  39
ATOM     39  C   UNL A   1      40.823  27.584  29.180  1.00  0.00     0.023 A 
ATOM     40  C   UNL A   1      40.002  26.441  29.101  1.00  0.00     0.012 A 
ATOM     41  C   UNL A   1      41.682  27.891  28.105  1.00  0.00     0.148 A 
ATOM     42  C   UNL A   1      40.056  25.601  27.989  1.00  0.00     0.002 A 
ATOM     43  C   UNL A   1      41.701  27.070  26.983  1.00  0.00     0.091 A 
ATOM     44  F   UNL A   1      42.474  28.967  28.205  1.00  0.00    -0.205 F 
ATOM     45  C   UNL A   1      40.897  25.921  26.926  1.00  0.00     0.022 A 
BRANCH  43  46
ATOM     46  S   UNL A   1      42.697  27.448  25.535  1.00  0.00     0.127 S 
ATOM     47  O   UNL A   1      44.036  27.538  26.114  1.00  0.00    -0.237 OA
ATOM     48  O   UNL A   1      42.478  26.274  24.688  1.00  0.00    -0.237 OA
ATOM     49  O   UNL A   1      42.156  28.687  24.995  1.00  0.00    -0.744 OA
ENDBRANCH  43  46
ENDBRANCH  25  39
BRANCH  26  50
ATOM     50  C   UNL A   1      39.604  33.526  37.124  1.00  0.00     0.023 A 
ATOM     51  C   UNL A   1      40.094  34.845  37.068  1.00  0.00     0.012 A 
ATOM     52  C   UNL A   1      38.903  33.101  38.270  1.00  0.00     0.148 A 
ATOM     53  C   UNL A   1      39.908  35.718  38.140  1.00  0.00     0.002 A 
ATOM     54  C   UNL A   1      38.671  33.994  39.309  1.00  0.00     0.091 A 
ATOM     55  F   UNL A   1      38.456  31.837  38.308  1.00  0.00    -0.205 F 
ATOM     56  C   UNL A   1      39.186  35.298  39.253  1.00  0.00     0.022 A 
BRANCH  54  57
ATOM     57  S   UNL A   1      37.629  33.582  40.712  1.00  0.00     0.127 S 
ATOM     58  O   UNL A   1      36.433  33.064  40.054  1.00  0.00    -0.237 OA
ATOM     59  O   UNL A   1      38.436  32.577  41.406  1.00  0.00    -0.237 OA
ATOM     60  O   UNL A   1      37.459  34.825  41.452  1.00  0.00    -0.744 OA
ENDBRANCH  54  57
ENDBRANCH  26  50
BRANCH  38  61
ATOM     61  C   UNL A   1      44.301  28.659  35.407  1.00  0.00     0.023 A 
ATOM     62  C   UNL A   1      45.574  29.214  35.171  1.00  0.00     0.012 A 
ATOM     63  C   UNL A   1      44.160  27.628  36.357  1.00  0.00     0.148 A 
ATOM     64  C   UNL A   1      46.694  28.730  35.846  1.00  0.00     0.002 A 
ATOM     65  C   UNL A   1      45.274  27.182  37.059  1.00  0.00     0.091 A 
ATOM     66  F   UNL A   1      42.945  27.096  36.551  1.00  0.00    -0.205 F 
ATOM     67  C   UNL A   1      46.543  27.724  36.797  1.00  0.00     0.022 A 
BRANCH  65  68
ATOM     68  S   UNL A   1      45.146  25.956  38.366  1.00  0.00     0.127 S 
ATOM     69  O   UNL A   1      46.540  25.815  38.781  1.00  0.00    -0.237 OA
ATOM     70  O   UNL A   1      44.284  26.625  39.343  1.00  0.00    -0.237 OA
ATOM     71  O   UNL A   1      44.549  24.781  37.747  1.00  0.00    -0.744 OA
ENDBRANCH  65  68
ENDBRANCH  38  61
ENDBRANCH  12  13
ENDBRANCH   5   7
ENDBRANCH   2   3
ENDBRANCH   1   2
BRANCH   1  72
ATOM     72  C   UNL A   1      31.540  31.241  26.444  1.00  0.00     0.023 C 
BRANCH  72  73
ATOM     73  C   UNL A   1      32.550  30.419  27.246  1.00  0.00     0.116 C 
BRANCH  73  74
ATOM     74  N   UNL A   1      32.034  29.100  27.540  1.00  0.00    -0.355 N 
ATOM     75  C   UNL A   1      31.775  28.042  26.724  1.00  0.00     0.238 C 
ATOM     76  H   UNL A   1      31.837  28.940  28.491  1.00  0.00     0.163 HD
ATOM     77  O   UNL A   1      31.187  27.088  27.249  1.00  0.00    -0.273 OA
BRANCH  75  78
ATOM     78  C   UNL A   1      32.289  27.957  25.277  1.00  0.00     0.162 C 
ATOM     79  C   UNL A   1      33.784  27.636  25.267  1.00  0.00     0.032 C 
ATOM     80  N   UNL A   1      31.704  26.889  24.413  1.00  0.00    -0.185 NA
ATOM     81  C   UNL A   1      33.792  26.123  25.392  1.00  0.00     0.019 C 
ATOM     82  C   UNL A   1      32.559  25.667  24.623  1.00  0.00     0.103 C 
BRANCH  80  83
ATOM     83  S   UNL A   1      31.515  27.250  22.741  1.00  0.00     0.245 S 
ATOM     84  O   UNL A   1      32.695  27.965  22.295  1.00  0.00    -0.207 OA
ATOM     85  O   UNL A   1      31.173  25.997  22.100  1.00  0.00    -0.207 OA
BRANCH  83  86
ATOM     86  C   UNL A   1      30.088  28.303  22.611  1.00  0.00     0.101 A 
ATOM     87  C   UNL A   1      30.296  29.591  22.081  1.00  0.00     0.023 A 
ATOM     88  C   UNL A   1      28.827  27.969  23.118  1.00  0.00     0.061 A 
ATOM     89  C   UNL A   1      29.250  30.513  22.013  1.00  0.00     0.002 A 
ATOM     90  C   UNL A   1      27.777  28.895  23.017  1.00  0.00     0.022 A 
ATOM     91  Cl  UNL A   1      28.419  26.478  23.889  1.00  0.00    -0.083 Cl
ATOM     92  C   UNL A   1      27.986  30.159  22.469  1.00  0.00     0.002 A 
ENDBRANCH  83  86
ENDBRANCH  80  83
ENDBRANCH  75  78
ENDBRANCH  73  74
ENDBRANCH  72  73
ENDBRANCH   1  72
TORSDOF 16
ENDMDL
MODEL 2
REMARK VINA RESULT:     -11.8      5.741      9.031
REMARK SMILES O=C(NCCCCNC(=O)[C@H]1CCCN1S(=O)(=O)c1ccccc1Cl)c1ccc(-c2c3nc(c(-c4cccc(S(=O)(=O)[O-])c4F)c4ccc([nH]4)c(-c4cccc(S(=O)(=O)[O-])c4F)c4nc(c(-c5cccc(S(=O)(=O)[O-])c5F)c5ccc2[nH]5)C=C4)C=C3)cc1
REMARK SMILES IDX 5 1 4 2 3 3 1 4 2 5 26 7 27 8 88 9 28 10 87 11 29 12 30 13
REMARK SMILES IDX 31 14 81 15 32 16 86 17 80 18 82 19 33 20 85 21 79 22 78 23
REMARK SMILES IDX 34 25 66 26 46 27 65 28 47 29 50 30 64 31 83 32 48 33 49 34
REMARK SMILES IDX 63 36 84 37 51 38 35 39 36 40 44 41 37 42 39 43 45 44 38 45
REMARK SMILES IDX 40 46 41 47 42 48 43 49 67 50 68 51 76 52 69 53 71 54 77 55
REMARK SMILES IDX 70 56 72 57 73 58 74 59 75 60 52 61 53 62 61 63 54 64 56 65
REMARK SMILES IDX 62 66 55 67 57 68 58 69 59 70 60 71 6 72 7 73 8 74 9 75
REMARK SMILES IDX 10 77 11 78 12 79 15 80 13 81 14 82 16 83 17 84 18 85 19 86
REMARK SMILES IDX 20 87 24 88 21 89 23 90 25 91 22 92
REMARK H PARENT 3 6 82 24 50 35 8 76
REMARK Flexibility Score: inf
ROOT
ATOM      1  C   UNL A   1      35.595  21.372  24.603  1.00  0.00     0.023 C 
ENDROOT
BRANCH   1   2
ATOM      2  C   UNL A   1      36.682  21.595  25.646  1.00  0.00     0.116 C 
BRANCH   2   3
ATOM      3  N   UNL A   1      37.714  20.570  25.626  1.00  0.00    -0.352 N 
ATOM      4  O   UNL A   1      39.809  19.744  25.768  1.00  0.00    -0.269 OA
ATOM      5  C   UNL A   1      39.046  20.688  25.949  1.00  0.00     0.251 C 
ATOM      6  H   UNL A   1      37.420  19.673  25.346  1.00  0.00     0.163 HD
BRANCH   5   7
ATOM      7  C   UNL A   1      39.548  21.976  26.473  1.00  0.00     0.039 A 
ATOM      8  C   UNL A   1      39.101  23.183  25.929  1.00  0.00     0.014 A 
ATOM      9  C   UNL A   1      40.512  21.972  27.484  1.00  0.00     0.014 A 
ATOM     10  C   UNL A   1      39.732  24.370  26.282  1.00  0.00     0.010 A 
ATOM     11  C   UNL A   1      41.085  23.178  27.897  1.00  0.00     0.010 A 
ATOM     12  C   UNL A   1      40.733  24.381  27.266  1.00  0.00    -0.014 A 
BRANCH  12  13
ATOM     13  C   UNL A   1      41.374  25.669  27.637  1.00  0.00     0.031 A 
ATOM     14  C   UNL A   1      42.779  25.994  27.205  1.00  0.00     0.074 A 
ATOM     15  C   UNL A   1      40.668  26.559  28.361  1.00  0.00     0.049 A 
ATOM     16  N   UNL A   1      43.465  27.090  27.402  1.00  0.00    -0.248 NA
ATOM     17  C   UNL A   1      43.515  24.955  26.467  1.00  0.00     0.031 C 
ATOM     18  C   UNL A   1      39.312  26.340  28.871  1.00  0.00     0.029 A 
ATOM     19  N   UNL A   1      40.983  27.824  28.786  1.00  0.00    -0.354 N 
ATOM     20  C   UNL A   1      44.724  26.859  26.860  1.00  0.00     0.074 A 
ATOM     21  C   UNL A   1      44.710  25.515  26.327  1.00  0.00     0.031 C 
ATOM     22  C   UNL A   1      38.898  27.444  29.508  1.00  0.00     0.029 A 
ATOM     23  C   UNL A   1      39.970  28.431  29.493  1.00  0.00     0.049 A 
ATOM     24  H   UNL A   1      41.848  28.255  28.604  1.00  0.00     0.167 HD
ATOM     25  C   UNL A   1      45.789  27.695  26.798  1.00  0.00     0.034 A 
ATOM     26  C   UNL A   1      39.912  29.649  30.066  1.00  0.00     0.034 A 
ATOM     27  C   UNL A   1      45.781  29.051  27.284  1.00  0.00     0.049 A 
ATOM     28  C   UNL A   1      41.091  30.570  29.940  1.00  0.00     0.074 A 
ATOM     29  C   UNL A   1      46.782  30.002  27.198  1.00  0.00     0.029 A 
ATOM     30  N   UNL A   1      44.720  29.648  27.950  1.00  0.00    -0.354 N 
ATOM     31  N   UNL A   1      42.222  30.379  29.306  1.00  0.00    -0.248 NA
ATOM     32  C   UNL A   1      40.974  31.886  30.583  1.00  0.00     0.031 C 
ATOM     33  C   UNL A   1      46.334  31.169  27.827  1.00  0.00     0.029 A 
ATOM     34  C   UNL A   1      45.045  30.951  28.287  1.00  0.00     0.049 A 
ATOM     35  H   UNL A   1      43.863  29.209  28.152  1.00  0.00     0.167 HD
ATOM     36  C   UNL A   1      42.938  31.561  29.444  1.00  0.00     0.074 A 
ATOM     37  C   UNL A   1      42.103  32.468  30.205  1.00  0.00     0.031 C 
ATOM     38  C   UNL A   1      44.182  31.862  28.994  1.00  0.00     0.034 A 
BRANCH  25  39
ATOM     39  C   UNL A   1      47.048  27.184  26.148  1.00  0.00     0.023 A 
ATOM     40  C   UNL A   1      47.278  27.428  24.779  1.00  0.00     0.012 A 
ATOM     41  C   UNL A   1      48.034  26.517  26.903  1.00  0.00     0.148 A 
ATOM     42  C   UNL A   1      48.450  26.989  24.164  1.00  0.00     0.002 A 
ATOM     43  C   UNL A   1      49.218  26.118  26.292  1.00  0.00     0.091 A 
ATOM     44  F   UNL A   1      47.792  26.270  28.198  1.00  0.00    -0.205 F 
ATOM     45  C   UNL A   1      49.424  26.344  24.922  1.00  0.00     0.022 A 
BRANCH  43  46
ATOM     46  S   UNL A   1      50.559  25.349  27.209  1.00  0.00     0.127 S 
ATOM     47  O   UNL A   1      50.929  26.415  28.139  1.00  0.00    -0.237 OA
ATOM     48  O   UNL A   1      49.897  24.201  27.831  1.00  0.00    -0.237 OA
ATOM     49  O   UNL A   1      51.565  24.997  26.216  1.00  0.00    -0.744 OA
ENDBRANCH  43  46
ENDBRANCH  25  39
BRANCH  26  50
ATOM     50  C   UNL A   1      38.657  30.083  30.741  1.00  0.00     0.023 A 
ATOM     51  C   UNL A   1      38.492  29.830  32.116  1.00  0.00     0.012 A 
ATOM     52  C   UNL A   1      37.659  30.795  30.047  1.00  0.00     0.148 A 
ATOM     53  C   UNL A   1      37.346  30.261  32.785  1.00  0.00     0.002 A 
ATOM     54  C   UNL A   1      36.548  31.271  30.732  1.00  0.00     0.091 A 
ATOM     55  F   UNL A   1      37.830  31.012  28.735  1.00  0.00    -0.205 F 
ATOM     56  C   UNL A   1      36.382  30.993  32.096  1.00  0.00     0.022 A 
BRANCH  54  57
ATOM     57  S   UNL A   1      35.332  32.343  29.958  1.00  0.00     0.127 S 
ATOM     58  O   UNL A   1      36.152  33.482  29.554  1.00  0.00    -0.237 OA
ATOM     59  O   UNL A   1      34.848  31.508  28.857  1.00  0.00    -0.237 OA
ATOM     60  O   UNL A   1      34.336  32.610  30.986  1.00  0.00    -0.744 OA
ENDBRANCH  54  57
ENDBRANCH  26  50
BRANCH  38  61
ATOM     61  C   UNL A   1      44.706  33.243  29.281  1.00  0.00     0.023 A 
ATOM     62  C   UNL A   1      45.356  33.506  30.503  1.00  0.00     0.012 A 
ATOM     63  C   UNL A   1      44.606  34.265  28.316  1.00  0.00     0.148 A 
ATOM     64  C   UNL A   1      45.871  34.774  30.772  1.00  0.00     0.002 A 
ATOM     65  C   UNL A   1      45.162  35.513  28.573  1.00  0.00     0.091 A 
ATOM     66  F   UNL A   1      43.962  34.003  27.169  1.00  0.00    -0.205 F 
ATOM     67  C   UNL A   1      45.785  35.772  29.805  1.00  0.00     0.022 A 
BRANCH  65  68
ATOM     68  S   UNL A   1      45.175  36.820  27.342  1.00  0.00     0.127 S 
ATOM     69  O   UNL A   1      45.910  37.877  28.036  1.00  0.00    -0.237 OA
ATOM     70  O   UNL A   1      45.900  36.201  26.231  1.00  0.00    -0.237 OA
ATOM     71  O   UNL A   1      43.776  37.107  27.057  1.00  0.00    -0.744 OA
ENDBRANCH  65  68
ENDBRANCH  38  61
ENDBRANCH  12  13
ENDBRANCH   5   7
ENDBRANCH   2   3
ENDBRANCH   1   2
BRANCH   1  72
ATOM     72  C   UNL A   1      34.466  20.427  25.028  1.00  0.00     0.023 C 
BRANCH  72  73
ATOM     73  C   UNL A   1      33.068  20.878  24.605  1.00  0.00     0.116 C 
BRANCH  73  74
ATOM     74  N   UNL A   1      33.132  21.825  23.513  1.00  0.00    -0.355 N 
ATOM     75  C   UNL A   1      32.739  23.126  23.437  1.00  0.00     0.238 C 
ATOM     76  H   UNL A   1      33.527  21.469  22.685  1.00  0.00     0.163 HD
ATOM     77  O   UNL A   1      32.782  23.637  22.311  1.00  0.00    -0.273 OA
BRANCH  75  78
ATOM     78  C   UNL A   1      32.390  23.967  24.677  1.00  0.00     0.162 C 
ATOM     79  C   UNL A   1      33.611  24.093  25.589  1.00  0.00     0.032 C 
ATOM     80  N   UNL A   1      31.992  25.386  24.440  1.00  0.00    -0.185 NA
ATOM     81  C   UNL A   1      34.360  25.259  24.969  1.00  0.00     0.019 C 
ATOM     82  C   UNL A   1      33.268  26.186  24.451  1.00  0.00     0.103 C 
BRANCH  80  83
ATOM     83  S   UNL A   1      30.816  26.058  25.504  1.00  0.00     0.245 S 
ATOM     84  O   UNL A   1      29.524  25.998  24.849  1.00  0.00    -0.207 OA
ATOM     85  O   UNL A   1      30.991  25.377  26.770  1.00  0.00    -0.207 OA
BRANCH  83  86
ATOM     86  C   UNL A   1      31.282  27.754  25.762  1.00  0.00     0.101 A 
ATOM     87  C   UNL A   1      31.705  28.106  27.058  1.00  0.00     0.023 A 
ATOM     88  C   UNL A   1      31.128  28.757  24.798  1.00  0.00     0.061 A 
ATOM     89  C   UNL A   1      32.018  29.430  27.373  1.00  0.00     0.002 A 
ATOM     90  C   UNL A   1      31.473  30.080  25.120  1.00  0.00     0.022 A 
ATOM     91  Cl  UNL A   1      30.530  28.524  23.194  1.00  0.00    -0.083 Cl
ATOM     92  C   UNL A   1      31.914  30.415  26.399  1.00  0.00     0.002 A 
ENDBRANCH  83  86
ENDBRANCH  80  83
ENDBRANCH  75  78
ENDBRANCH  73  74
ENDBRANCH  72  73
ENDBRANCH   1  72
TORSDOF 16
ENDMDL
MODEL 3
REMARK VINA RESULT:     -11.6      3.032      8.807
REMARK SMILES O=C(NCCCCNC(=O)[C@H]1CCCN1S(=O)(=O)c1ccccc1Cl)c1ccc(-c2c3nc(c(-c4cccc(S(=O)(=O)[O-])c4F)c4ccc([nH]4)c(-c4cccc(S(=O)(=O)[O-])c4F)c4nc(c(-c5cccc(S(=O)(=O)[O-])c5F)c5ccc2[nH]5)C=C4)C=C3)cc1
REMARK SMILES IDX 5 1 4 2 3 3 1 4 2 5 26 7 27 8 88 9 28 10 87 11 29 12 30 13
REMARK SMILES IDX 31 14 81 15 32 16 86 17 80 18 82 19 33 20 85 21 79 22 78 23
REMARK SMILES IDX 34 25 66 26 46 27 65 28 47 29 50 30 64 31 83 32 48 33 49 34
REMARK SMILES IDX 63 36 84 37 51 38 35 39 36 40 44 41 37 42 39 43 45 44 38 45
REMARK SMILES IDX 40 46 41 47 42 48 43 49 67 50 68 51 76 52 69 53 71 54 77 55
REMARK SMILES IDX 70 56 72 57 73 58 74 59 75 60 52 61 53 62 61 63 54 64 56 65
REMARK SMILES IDX 62 66 55 67 57 68 58 69 59 70 60 71 6 72 7 73 8 74 9 75
REMARK SMILES IDX 10 77 11 78 12 79 15 80 13 81 14 82 16 83 17 84 18 85 19 86
REMARK SMILES IDX 20 87 24 88 21 89 23 90 25 91 22 92
REMARK H PARENT 3 6 82 24 50 35 8 76
REMARK Flexibility Score: inf
ROOT
ATOM      1  C   UNL A   1      32.671  28.171  26.794  1.00  0.00     0.023 C 
ENDROOT
BRANCH   1   2
ATOM      2  C   UNL A   1      33.213  29.305  25.933  1.00  0.00     0.116 C 
BRANCH   2   3
ATOM      3  N   UNL A   1      32.836  30.623  26.419  1.00  0.00    -0.352 N 
ATOM      4  O   UNL A   1      32.995  32.478  27.694  1.00  0.00    -0.269 OA
ATOM      5  C   UNL A   1      33.511  31.438  27.298  1.00  0.00     0.251 C 
ATOM      6  H   UNL A   1      31.986  30.980  26.073  1.00  0.00     0.163 HD
BRANCH   5   7
ATOM      7  C   UNL A   1      34.841  31.020  27.790  1.00  0.00     0.039 A 
ATOM      8  C   UNL A   1      35.078  29.689  28.143  1.00  0.00     0.014 A 
ATOM      9  C   UNL A   1      35.844  31.980  27.945  1.00  0.00     0.014 A 
ATOM     10  C   UNL A   1      36.257  29.352  28.798  1.00  0.00     0.010 A 
ATOM     11  C   UNL A   1      37.062  31.620  28.528  1.00  0.00     0.010 A 
ATOM     12  C   UNL A   1      37.261  30.313  29.001  1.00  0.00    -0.014 A 
BRANCH  12  13
ATOM     13  C   UNL A   1      38.519  29.918  29.685  1.00  0.00     0.031 A 
ATOM     14  C   UNL A   1      38.846  30.419  31.066  1.00  0.00     0.074 A 
ATOM     15  C   UNL A   1      39.365  29.083  29.051  1.00  0.00     0.049 A 
ATOM     16  N   UNL A   1      39.876  30.131  31.820  1.00  0.00    -0.248 NA
ATOM     17  C   UNL A   1      37.908  31.373  31.678  1.00  0.00     0.031 C 
ATOM     18  C   UNL A   1      39.175  28.564  27.695  1.00  0.00     0.029 A 
ATOM     19  N   UNL A   1      40.546  28.520  29.460  1.00  0.00    -0.354 N 
ATOM     20  C   UNL A   1      39.738  30.900  32.970  1.00  0.00     0.074 A 
ATOM     21  C   UNL A   1      38.524  31.672  32.814  1.00  0.00     0.031 C 
ATOM     22  C   UNL A   1      40.181  27.730  27.398  1.00  0.00     0.029 A 
ATOM     23  C   UNL A   1      41.111  27.690  28.520  1.00  0.00     0.049 A 
ATOM     24  H   UNL A   1      40.951  28.691  30.340  1.00  0.00     0.167 HD
ATOM     25  C   UNL A   1      40.539  30.947  34.062  1.00  0.00     0.034 A 
ATOM     26  C   UNL A   1      42.253  26.977  28.555  1.00  0.00     0.034 A 
ATOM     27  C   UNL A   1      41.718  30.138  34.235  1.00  0.00     0.049 A 
ATOM     28  C   UNL A   1      43.097  27.013  29.797  1.00  0.00     0.074 A 
ATOM     29  C   UNL A   1      42.552  30.056  35.335  1.00  0.00     0.029 A 
ATOM     30  N   UNL A   1      42.231  29.272  33.280  1.00  0.00    -0.354 N 
ATOM     31  N   UNL A   1      42.876  27.644  30.924  1.00  0.00    -0.248 NA
ATOM     32  C   UNL A   1      44.330  26.216  29.783  1.00  0.00     0.031 C 
ATOM     33  C   UNL A   1      43.580  29.154  35.040  1.00  0.00     0.029 A 
ATOM     34  C   UNL A   1      43.375  28.658  33.763  1.00  0.00     0.049 A 
ATOM     35  H   UNL A   1      41.840  29.118  32.391  1.00  0.00     0.167 HD
ATOM     36  C   UNL A   1      43.924  27.294  31.766  1.00  0.00     0.074 A 
ATOM     37  C   UNL A   1      44.767  26.380  31.024  1.00  0.00     0.031 C 
ATOM     38  C   UNL A   1      44.173  27.706  33.034  1.00  0.00     0.034 A 
BRANCH  25  39
ATOM     39  C   UNL A   1      40.151  31.881  35.179  1.00  0.00     0.023 A 
ATOM     40  C   UNL A   1      40.678  33.189  35.212  1.00  0.00     0.012 A 
ATOM     41  C   UNL A   1      39.221  31.489  36.162  1.00  0.00     0.148 A 
ATOM     42  C   UNL A   1      40.310  34.079  36.220  1.00  0.00     0.002 A 
ATOM     43  C   UNL A   1      38.829  32.395  37.141  1.00  0.00     0.091 A 
ATOM     44  F   UNL A   1      38.748  30.235  36.133  1.00  0.00    -0.205 F 
ATOM     45  C   UNL A   1      39.378  33.686  37.178  1.00  0.00     0.022 A 
BRANCH  43  46
ATOM     46  S   UNL A   1      37.576  32.000  38.369  1.00  0.00     0.127 S 
ATOM     47  O   UNL A   1      38.306  32.223  39.616  1.00  0.00    -0.237 OA
ATOM     48  O   UNL A   1      36.537  32.991  38.087  1.00  0.00    -0.237 OA
ATOM     49  O   UNL A   1      37.183  30.624  38.103  1.00  0.00    -0.744 OA
ENDBRANCH  43  46
ENDBRANCH  25  39
BRANCH  26  50
ATOM     50  C   UNL A   1      42.613  26.109  27.399  1.00  0.00     0.023 A 
ATOM     51  C   UNL A   1      43.477  26.608  26.407  1.00  0.00     0.012 A 
ATOM     52  C   UNL A   1      42.157  24.779  27.309  1.00  0.00     0.148 A 
ATOM     53  C   UNL A   1      43.865  25.805  25.333  1.00  0.00     0.002 A 
ATOM     54  C   UNL A   1      42.593  23.967  26.269  1.00  0.00     0.091 A 
ATOM     55  F   UNL A   1      41.323  24.328  28.258  1.00  0.00    -0.205 F 
ATOM     56  C   UNL A   1      43.434  24.483  25.272  1.00  0.00     0.022 A 
BRANCH  54  57
ATOM     57  S   UNL A   1      42.205  22.216  26.193  1.00  0.00     0.127 S 
ATOM     58  O   UNL A   1      42.975  21.790  25.027  1.00  0.00    -0.237 OA
ATOM     59  O   UNL A   1      42.715  21.735  27.478  1.00  0.00    -0.237 OA
ATOM     60  O   UNL A   1      40.757  22.142  26.060  1.00  0.00    -0.744 OA
ENDBRANCH  54  57
ENDBRANCH  26  50
BRANCH  38  61
ATOM     61  C   UNL A   1      45.390  27.144  33.717  1.00  0.00     0.023 A 
ATOM     62  C   UNL A   1      46.628  27.806  33.599  1.00  0.00     0.012 A 
ATOM     63  C   UNL A   1      45.294  25.993  34.525  1.00  0.00     0.148 A 
ATOM     64  C   UNL A   1      47.760  27.312  34.248  1.00  0.00     0.002 A 
ATOM     65  C   UNL A   1      46.416  25.534  35.205  1.00  0.00     0.091 A 
ATOM     66  F   UNL A   1      44.114  25.363  34.606  1.00  0.00    -0.205 F 
ATOM     67  C   UNL A   1      47.652  26.185  35.060  1.00  0.00     0.022 A 
BRANCH  65  68
ATOM     68  S   UNL A   1      46.336  24.146  36.342  1.00  0.00     0.127 S 
ATOM     69  O   UNL A   1      45.353  24.614  37.318  1.00  0.00    -0.237 OA
ATOM     70  O   UNL A   1      45.869  23.058  35.480  1.00  0.00    -0.237 OA
ATOM     71  O   UNL A   1      47.691  23.969  36.846  1.00  0.00    -0.744 OA
ENDBRANCH  65  68
ENDBRANCH  38  61
ENDBRANCH  12  13
ENDBRANCH   5   7
ENDBRANCH   2   3
ENDBRANCH   1   2
BRANCH   1  72
ATOM     72  C   UNL A   1      31.232  27.748  26.485  1.00  0.00     0.023 C 
BRANCH  72  73
ATOM     73  C   UNL A   1      31.107  26.419  25.738  1.00  0.00     0.116 C 
BRANCH  73  74
ATOM     74  N   UNL A   1      30.696  25.356  26.629  1.00  0.00    -0.355 N 
ATOM     75  C   UNL A   1      31.005  24.030  26.637  1.00  0.00     0.238 C 
ATOM     76  H   UNL A   1      30.091  25.638  27.352  1.00  0.00     0.163 HD
ATOM     77  O   UNL A   1      30.372  23.334  27.440  1.00  0.00    -0.273 OA
BRANCH  75  78
ATOM     78  C   UNL A   1      32.156  23.436  25.808  1.00  0.00     0.162 C 
ATOM     79  C   UNL A   1      33.502  23.910  26.359  1.00  0.00     0.032 C 
ATOM     80  N   UNL A   1      32.292  21.949  25.809  1.00  0.00    -0.185 NA
ATOM     81  C   UNL A   1      33.759  22.923  27.482  1.00  0.00     0.019 C 
ATOM     82  C   UNL A   1      33.171  21.610  26.983  1.00  0.00     0.103 C 
BRANCH  80  83
ATOM     83  S   UNL A   1      32.861  21.214  24.360  1.00  0.00     0.245 S 
ATOM     84  O   UNL A   1      32.611  19.788  24.445  1.00  0.00    -0.207 OA
ATOM     85  O   UNL A   1      32.266  21.964  23.273  1.00  0.00    -0.207 OA
BRANCH  83  86
ATOM     86  C   UNL A   1      34.612  21.515  24.298  1.00  0.00     0.101 A 
ATOM     87  C   UNL A   1      35.438  20.594  24.971  1.00  0.00     0.023 A 
ATOM     88  C   UNL A   1      35.184  22.662  23.737  1.00  0.00     0.061 A 
ATOM     89  C   UNL A   1      36.819  20.791  25.041  1.00  0.00     0.002 A 
ATOM     90  C   UNL A   1      36.577  22.834  23.790  1.00  0.00     0.022 A 
ATOM     91  Cl  UNL A   1      34.316  23.939  22.962  1.00  0.00    -0.083 Cl
ATOM     92  C   UNL A   1      37.389  21.906  24.438  1.00  0.00     0.002 A 
ENDBRANCH  83  86
ENDBRANCH  80  83
ENDBRANCH  75  78
ENDBRANCH  73  74
ENDBRANCH  72  73
ENDBRANCH   1  72
TORSDOF 16
ENDMDL
