MODEL 1
REMARK VINA RESULT:     -10.9      0.000      0.000
REMARK SMILES CC(C)[N@@H+](Cc1cccs1)[C@@H](C)c1ccc(C(=O)NCCCCNC(=O)c2ccc(-c3c4nc(c(-c5cccc(S(=O)(=O)[O-])c5F)c5ccc([nH]5)c(-c5cccc(S(=O)(=O)[O-])c5F)c5nc(c(-c6cccc(S(=O)(=O)[O-])c6F)c6ccc3[nH]6)C=C5)C=C4)cc2)o1
REMARK SMILES IDX 21 1 20 2 19 3 17 4 18 5 16 7 13 8 14 9 90 10 15 11 11 12
REMARK SMILES IDX 12 13 4 14 2 16 1 17 3 18 5 19 6 20 7 21 10 22 8 23 9 24
REMARK SMILES IDX 22 25 23 26 24 27 25 28 26 30 27 31 28 32 89 33 29 34 88 35
REMARK SMILES IDX 30 36 31 37 32 38 82 39 33 40 87 41 81 42 83 43 34 44 86 45
REMARK SMILES IDX 80 46 79 47 35 49 67 50 47 51 66 52 48 53 51 54 65 55 84 56
REMARK SMILES IDX 49 57 50 58 64 60 85 61 52 62 36 63 37 64 45 65 38 66 40 67
REMARK SMILES IDX 46 68 39 69 41 70 42 71 43 72 44 73 68 74 69 75 77 76 70 77
REMARK SMILES IDX 72 78 78 79 71 80 73 81 74 82 75 83 76 84 53 85 54 86 62 87
REMARK SMILES IDX 55 88 57 89 63 90 56 91 58 92 59 93 60 94 61 95
REMARK H PARENT 19 6 4 15 24 29 83 48 51 59
REMARK Flexibility Score: inf
ROOT
ATOM      1  C   UNL A   1      33.071  29.975  27.193  1.00  0.00     0.023 C 
ENDROOT
BRANCH   1   2
ATOM      2  C   UNL A   1      32.035  28.871  27.002  1.00  0.00     0.116 C 
BRANCH   2   3
ATOM      3  N   UNL A   1      31.283  29.089  25.794  1.00  0.00    -0.349 N 
ATOM      4  C   UNL A   1      31.385  28.505  24.560  1.00  0.00     0.287 C 
ATOM      5  O   UNL A   1      30.602  28.943  23.709  1.00  0.00    -0.266 OA
ATOM      6  H   UNL A   1      30.578  29.773  25.867  1.00  0.00     0.163 HD
BRANCH   4   7
ATOM      7  C   UNL A   1      32.333  27.438  24.288  1.00  0.00     0.191 A 
ATOM      8  C   UNL A   1      32.793  25.270  24.129  1.00  0.00     0.162 A 
ATOM      9  C   UNL A   1      33.978  25.946  23.901  1.00  0.00     0.053 A 
ATOM     10  O   UNL A   1      31.825  26.170  24.370  1.00  0.00    -0.450 OA
ATOM     11  C   UNL A   1      33.659  27.326  23.911  1.00  0.00     0.057 A 
BRANCH   8  12
ATOM     12  C   UNL A   1      32.445  23.821  23.909  1.00  0.00     0.248 C 
ATOM     13  C   UNL A   1      30.941  23.709  24.215  1.00  0.00     0.084 C 
BRANCH  12  14
ATOM     14  N   UNL A   1      33.282  22.694  24.385  1.00  0.00    -0.320 N 
ATOM     15  H   UNL A   1      33.644  22.849  23.445  1.00  0.00     0.349 HD
BRANCH  14  16
ATOM     16  C   UNL A   1      34.734  22.603  24.635  1.00  0.00     0.178 C 
ATOM     17  C   UNL A   1      35.758  22.914  23.545  1.00  0.00     0.075 C 
ATOM     18  C   UNL A   1      35.236  23.291  25.912  1.00  0.00     0.075 C 
ENDBRANCH  14  16
BRANCH  14  19
ATOM     19  C   UNL A   1      32.508  21.595  25.008  1.00  0.00     0.310 C 
BRANCH  19  20
ATOM     20  C   UNL A   1      32.494  20.236  24.330  1.00  0.00     0.059 A 
ATOM     21  C   UNL A   1      32.268  19.851  23.018  1.00  0.00     0.021 A 
ATOM     22  S   UNL A   1      32.808  18.841  25.298  1.00  0.00    -0.143 S 
ATOM     23  C   UNL A   1      32.376  18.452  22.801  1.00  0.00     0.012 A 
ATOM     24  C   UNL A   1      32.655  17.782  23.966  1.00  0.00     0.065 A 
ENDBRANCH  19  20
ENDBRANCH  14  19
ENDBRANCH  12  14
ENDBRANCH   8  12
ENDBRANCH   4   7
ENDBRANCH   2   3
ENDBRANCH   1   2
BRANCH   1  25
ATOM     25  C   UNL A   1      32.448  31.372  27.280  1.00  0.00     0.023 C 
BRANCH  25  26
ATOM     26  C   UNL A   1      33.457  32.515  27.232  1.00  0.00     0.116 C 
BRANCH  26  27
ATOM     27  N   UNL A   1      32.880  33.801  27.609  1.00  0.00    -0.352 N 
ATOM     28  C   UNL A   1      33.218  34.589  28.680  1.00  0.00     0.251 C 
ATOM     29  H   UNL A   1      32.165  34.144  27.026  1.00  0.00     0.163 HD
ATOM     30  O   UNL A   1      32.567  35.595  28.951  1.00  0.00    -0.269 OA
BRANCH  28  31
ATOM     31  C   UNL A   1      34.359  34.177  29.513  1.00  0.00     0.039 A 
ATOM     32  C   UNL A   1      34.122  33.414  30.657  1.00  0.00     0.014 A 
ATOM     33  C   UNL A   1      35.661  34.470  29.099  1.00  0.00     0.014 A 
ATOM     34  C   UNL A   1      35.206  32.893  31.363  1.00  0.00     0.010 A 
ATOM     35  C   UNL A   1      36.733  33.882  29.756  1.00  0.00     0.010 A 
ATOM     36  C   UNL A   1      36.517  33.095  30.898  1.00  0.00    -0.014 A 
BRANCH  36  37
ATOM     37  C   UNL A   1      37.682  32.499  31.594  1.00  0.00     0.031 A 
ATOM     38  C   UNL A   1      38.430  31.362  30.955  1.00  0.00     0.074 A 
ATOM     39  C   UNL A   1      38.006  32.917  32.834  1.00  0.00     0.049 A 
ATOM     40  N   UNL A   1      39.422  30.657  31.432  1.00  0.00    -0.248 NA
ATOM     41  C   UNL A   1      37.986  30.941  29.614  1.00  0.00     0.031 C 
ATOM     42  C   UNL A   1      37.306  33.959  33.589  1.00  0.00     0.029 A 
ATOM     43  N   UNL A   1      38.992  32.495  33.690  1.00  0.00    -0.354 N 
ATOM     44  C   UNL A   1      39.694  29.690  30.473  1.00  0.00     0.074 A 
ATOM     45  C   UNL A   1      38.739  29.872  29.403  1.00  0.00     0.031 C 
ATOM     46  C   UNL A   1      37.887  34.098  34.791  1.00  0.00     0.029 A 
ATOM     47  C   UNL A   1      38.977  33.134  34.908  1.00  0.00     0.049 A 
ATOM     48  H   UNL A   1      39.649  31.801  33.455  1.00  0.00     0.167 HD
ATOM     49  C   UNL A   1      40.671  28.753  30.466  1.00  0.00     0.034 A 
ATOM     50  C   UNL A   1      39.747  32.954  35.999  1.00  0.00     0.034 A 
ATOM     51  C   UNL A   1      41.645  28.606  31.514  1.00  0.00     0.049 A 
ATOM     52  C   UNL A   1      40.847  31.928  35.953  1.00  0.00     0.074 A 
ATOM     53  C   UNL A   1      42.726  27.746  31.566  1.00  0.00     0.029 A 
ATOM     54  N   UNL A   1      41.650  29.331  32.695  1.00  0.00    -0.354 N 
ATOM     55  N   UNL A   1      41.185  31.125  34.973  1.00  0.00    -0.248 NA
ATOM     56  C   UNL A   1      41.696  31.808  37.147  1.00  0.00     0.031 C 
ATOM     57  C   UNL A   1      43.370  27.930  32.792  1.00  0.00     0.029 A 
ATOM     58  C   UNL A   1      42.713  28.932  33.487  1.00  0.00     0.049 A 
ATOM     59  H   UNL A   1      40.997  30.027  32.934  1.00  0.00     0.167 HD
ATOM     60  C   UNL A   1      42.310  30.438  35.415  1.00  0.00     0.074 A 
ATOM     61  C   UNL A   1      42.605  30.930  36.744  1.00  0.00     0.031 C 
ATOM     62  C   UNL A   1      43.028  29.478  34.782  1.00  0.00     0.034 A 
BRANCH  49  63
ATOM     63  C   UNL A   1      40.768  27.848  29.267  1.00  0.00     0.023 A 
ATOM     64  C   UNL A   1      39.969  26.686  29.203  1.00  0.00     0.012 A 
ATOM     65  C   UNL A   1      41.600  28.174  28.179  1.00  0.00     0.148 A 
ATOM     66  C   UNL A   1      40.023  25.848  28.092  1.00  0.00     0.002 A 
ATOM     67  C   UNL A   1      41.612  27.359  27.055  1.00  0.00     0.091 A 
ATOM     68  F   UNL A   1      42.367  29.271  28.267  1.00  0.00    -0.205 F 
ATOM     69  C   UNL A   1      40.835  26.189  27.014  1.00  0.00     0.022 A 
BRANCH  67  70
ATOM     70  S   UNL A   1      42.558  27.753  25.580  1.00  0.00     0.127 S 
ATOM     71  O   UNL A   1      43.914  27.857  26.118  1.00  0.00    -0.237 OA
ATOM     72  O   UNL A   1      42.324  26.577  24.742  1.00  0.00    -0.237 OA
ATOM     73  O   UNL A   1      41.997  28.993  25.060  1.00  0.00    -0.744 OA
ENDBRANCH  67  70
ENDBRANCH  49  63
BRANCH  50  74
ATOM     74  C   UNL A   1      39.545  33.803  37.209  1.00  0.00     0.023 A 
ATOM     75  C   UNL A   1      40.025  35.127  37.215  1.00  0.00     0.012 A 
ATOM     76  C   UNL A   1      38.876  33.311  38.346  1.00  0.00     0.148 A 
ATOM     77  C   UNL A   1      39.880  35.932  38.345  1.00  0.00     0.002 A 
ATOM     78  C   UNL A   1      38.683  34.137  39.447  1.00  0.00     0.091 A 
ATOM     79  F   UNL A   1      38.433  32.046  38.325  1.00  0.00    -0.205 F 
ATOM     80  C   UNL A   1      39.201  35.442  39.457  1.00  0.00     0.022 A 
BRANCH  78  81
ATOM     81  S   UNL A   1      37.710  33.634  40.871  1.00  0.00     0.127 S 
ATOM     82  O   UNL A   1      36.464  33.201  40.243  1.00  0.00    -0.237 OA
ATOM     83  O   UNL A   1      38.528  32.556  41.429  1.00  0.00    -0.237 OA
ATOM     84  O   UNL A   1      37.615  34.815  41.719  1.00  0.00    -0.744 OA
ENDBRANCH  78  81
ENDBRANCH  50  74
BRANCH  62  85
ATOM     85  C   UNL A   1      44.241  28.929  35.486  1.00  0.00     0.023 A 
ATOM     86  C   UNL A   1      45.505  29.512  35.276  1.00  0.00     0.012 A 
ATOM     87  C   UNL A   1      44.106  27.887  36.425  1.00  0.00     0.148 A 
ATOM     88  C   UNL A   1      46.623  29.046  35.967  1.00  0.00     0.002 A 
ATOM     89  C   UNL A   1      45.213  27.463  37.149  1.00  0.00     0.091 A 
ATOM     90  F   UNL A   1      42.896  27.334  36.597  1.00  0.00    -0.205 F 
ATOM     91  C   UNL A   1      46.475  28.032  36.912  1.00  0.00     0.022 A 
BRANCH  89  92
ATOM     92  S   UNL A   1      45.099  26.237  38.456  1.00  0.00     0.127 S 
ATOM     93  O   UNL A   1      44.148  26.866  39.372  1.00  0.00    -0.237 OA
ATOM     94  O   UNL A   1      44.578  25.072  37.742  1.00  0.00    -0.237 OA
ATOM     95  O   UNL A   1      46.450  26.076  38.976  1.00  0.00    -0.744 OA
ENDBRANCH  89  92
ENDBRANCH  62  85
ENDBRANCH  36  37
ENDBRANCH  28  31
ENDBRANCH  26  27
ENDBRANCH  25  26
ENDBRANCH   1  25
TORSDOF 19
ENDMDL
MODEL 2
REMARK VINA RESULT:     -10.9      3.794      8.871
REMARK SMILES CC(C)[N@@H+](Cc1cccs1)[C@@H](C)c1ccc(C(=O)NCCCCNC(=O)c2ccc(-c3c4nc(c(-c5cccc(S(=O)(=O)[O-])c5F)c5ccc([nH]5)c(-c5cccc(S(=O)(=O)[O-])c5F)c5nc(c(-c6cccc(S(=O)(=O)[O-])c6F)c6ccc3[nH]6)C=C5)C=C4)cc2)o1
REMARK SMILES IDX 21 1 20 2 19 3 17 4 18 5 16 7 13 8 14 9 90 10 15 11 11 12
REMARK SMILES IDX 12 13 4 14 2 16 1 17 3 18 5 19 6 20 7 21 10 22 8 23 9 24
REMARK SMILES IDX 22 25 23 26 24 27 25 28 26 30 27 31 28 32 89 33 29 34 88 35
REMARK SMILES IDX 30 36 31 37 32 38 82 39 33 40 87 41 81 42 83 43 34 44 86 45
REMARK SMILES IDX 80 46 79 47 35 49 67 50 47 51 66 52 48 53 51 54 65 55 84 56
REMARK SMILES IDX 49 57 50 58 64 60 85 61 52 62 36 63 37 64 45 65 38 66 40 67
REMARK SMILES IDX 46 68 39 69 41 70 42 71 43 72 44 73 68 74 69 75 77 76 70 77
REMARK SMILES IDX 72 78 78 79 71 80 73 81 74 82 75 83 76 84 53 85 54 86 62 87
REMARK SMILES IDX 55 88 57 89 63 90 56 91 58 92 59 93 60 94 61 95
REMARK H PARENT 19 6 4 15 24 29 83 48 51 59
REMARK Flexibility Score: inf
ROOT
ATOM      1  C   UNL A   1      32.954  29.073  24.864  1.00  0.00     0.023 C 
ENDROOT
BRANCH   1   2
ATOM      2  C   UNL A   1      31.825  28.228  24.281  1.00  0.00     0.116 C 
BRANCH   2   3
ATOM      3  N   UNL A   1      31.037  27.646  25.336  1.00  0.00    -0.349 N 
ATOM      4  C   UNL A   1      30.643  26.351  25.546  1.00  0.00     0.287 C 
ATOM      5  O   UNL A   1      29.933  26.178  26.543  1.00  0.00    -0.266 OA
ATOM      6  H   UNL A   1      30.730  28.285  26.019  1.00  0.00     0.163 HD
BRANCH   4   7
ATOM      7  C   UNL A   1      31.051  25.268  24.668  1.00  0.00     0.191 A 
ATOM      8  C   UNL A   1      32.609  23.851  23.960  1.00  0.00     0.162 A 
ATOM      9  C   UNL A   1      31.495  23.646  23.166  1.00  0.00     0.053 A 
ATOM     10  O   UNL A   1      32.335  24.828  24.841  1.00  0.00    -0.450 OA
ATOM     11  C   UNL A   1      30.477  24.486  23.683  1.00  0.00     0.057 A 
BRANCH   8  12
ATOM     12  C   UNL A   1      33.861  23.025  24.107  1.00  0.00     0.248 C 
ATOM     13  C   UNL A   1      34.445  22.909  22.689  1.00  0.00     0.084 C 
BRANCH  12  14
ATOM     14  N   UNL A   1      33.943  21.799  24.937  1.00  0.00    -0.320 N 
ATOM     15  H   UNL A   1      34.824  21.771  24.423  1.00  0.00     0.349 HD
BRANCH  14  16
ATOM     16  C   UNL A   1      34.876  21.421  26.017  1.00  0.00     0.178 C 
ATOM     17  C   UNL A   1      36.386  21.372  25.794  1.00  0.00     0.075 C 
ATOM     18  C   UNL A   1      34.657  22.122  27.364  1.00  0.00     0.075 C 
ENDBRANCH  14  16
BRANCH  14  19
ATOM     19  C   UNL A   1      32.718  20.968  24.899  1.00  0.00     0.310 C 
BRANCH  19  20
ATOM     20  C   UNL A   1      32.705  19.725  24.025  1.00  0.00     0.059 A 
ATOM     21  C   UNL A   1      32.177  19.476  22.768  1.00  0.00     0.021 A 
ATOM     22  S   UNL A   1      33.468  18.300  24.629  1.00  0.00    -0.143 S 
ATOM     23  C   UNL A   1      32.413  18.157  22.296  1.00  0.00     0.012 A 
ATOM     24  C   UNL A   1      33.098  17.406  23.219  1.00  0.00     0.065 A 
ENDBRANCH  19  20
ENDBRANCH  14  19
ENDBRANCH  12  14
ENDBRANCH   8  12
ENDBRANCH   4   7
ENDBRANCH   2   3
ENDBRANCH   1   2
BRANCH   1  25
ATOM     25  C   UNL A   1      33.810  28.312  25.879  1.00  0.00     0.023 C 
BRANCH  25  26
ATOM     26  C   UNL A   1      33.562  28.704  27.332  1.00  0.00     0.116 C 
BRANCH  26  27
ATOM     27  N   UNL A   1      33.597  30.146  27.548  1.00  0.00    -0.352 N 
ATOM     28  C   UNL A   1      34.614  30.887  28.094  1.00  0.00     0.251 C 
ATOM     29  H   UNL A   1      32.797  30.647  27.267  1.00  0.00     0.163 HD
ATOM     30  O   UNL A   1      34.464  32.083  28.331  1.00  0.00    -0.269 OA
BRANCH  28  31
ATOM     31  C   UNL A   1      35.875  30.202  28.421  1.00  0.00     0.039 A 
ATOM     32  C   UNL A   1      36.942  30.280  27.525  1.00  0.00     0.014 A 
ATOM     33  C   UNL A   1      36.018  29.567  29.657  1.00  0.00     0.014 A 
ATOM     34  C   UNL A   1      38.182  29.765  27.898  1.00  0.00     0.010 A 
ATOM     35  C   UNL A   1      37.273  29.129  30.057  1.00  0.00     0.010 A 
ATOM     36  C   UNL A   1      38.365  29.216  29.179  1.00  0.00    -0.014 A 
BRANCH  36  37
ATOM     37  C   UNL A   1      39.689  28.719  29.623  1.00  0.00     0.031 A 
ATOM     38  C   UNL A   1      40.430  29.445  30.712  1.00  0.00     0.074 A 
ATOM     39  C   UNL A   1      40.259  27.678  28.987  1.00  0.00     0.049 A 
ATOM     40  N   UNL A   1      41.627  29.218  31.187  1.00  0.00    -0.248 NA
ATOM     41  C   UNL A   1      39.750  30.598  31.329  1.00  0.00     0.031 C 
ATOM     42  C   UNL A   1      39.672  26.942  27.865  1.00  0.00     0.029 A 
ATOM     43  N   UNL A   1      41.477  27.074  29.175  1.00  0.00    -0.354 N 
ATOM     44  C   UNL A   1      41.857  30.216  32.125  1.00  0.00     0.074 A 
ATOM     45  C   UNL A   1      40.694  31.075  32.126  1.00  0.00     0.031 C 
ATOM     46  C   UNL A   1      40.526  25.984  27.470  1.00  0.00     0.029 A 
ATOM     47  C   UNL A   1      41.735  26.058  28.284  1.00  0.00     0.049 A 
ATOM     48  H   UNL A   1      42.108  27.341  29.883  1.00  0.00     0.167 HD
ATOM     49  C   UNL A   1      42.927  30.386  32.936  1.00  0.00     0.034 A 
ATOM     50  C   UNL A   1      42.827  25.284  28.132  1.00  0.00     0.034 A 
ATOM     51  C   UNL A   1      44.061  29.503  32.960  1.00  0.00     0.049 A 
ATOM     52  C   UNL A   1      43.990  25.473  29.069  1.00  0.00     0.074 A 
ATOM     53  C   UNL A   1      45.158  29.537  33.802  1.00  0.00     0.029 A 
ATOM     54  N   UNL A   1      44.247  28.432  32.100  1.00  0.00    -0.354 N 
ATOM     55  N   UNL A   1      44.125  26.329  30.054  1.00  0.00    -0.248 NA
ATOM     56  C   UNL A   1      45.135  24.568  28.901  1.00  0.00     0.031 C 
ATOM     57  C   UNL A   1      46.022  28.504  33.432  1.00  0.00     0.029 A 
ATOM     58  C   UNL A   1      45.445  27.802  32.386  1.00  0.00     0.049 A 
ATOM     59  H   UNL A   1      43.619  28.160  31.393  1.00  0.00     0.167 HD
ATOM     60  C   UNL A   1      45.347  26.036  30.648  1.00  0.00     0.074 A 
ATOM     61  C   UNL A   1      45.906  24.915  29.923  1.00  0.00     0.031 C 
ATOM     62  C   UNL A   1      45.957  26.647  31.693  1.00  0.00     0.034 A 
BRANCH  49  63
ATOM     63  C   UNL A   1      42.900  31.542  33.901  1.00  0.00     0.023 A 
ATOM     64  C   UNL A   1      43.442  32.786  33.515  1.00  0.00     0.012 A 
ATOM     65  C   UNL A   1      42.286  31.417  35.162  1.00  0.00     0.148 A 
ATOM     66  C   UNL A   1      43.405  33.876  34.382  1.00  0.00     0.002 A 
ATOM     67  C   UNL A   1      42.210  32.522  36.001  1.00  0.00     0.091 A 
ATOM     68  F   UNL A   1      41.795  30.222  35.519  1.00  0.00    -0.205 F 
ATOM     69  C   UNL A   1      42.779  33.748  35.619  1.00  0.00     0.022 A 
BRANCH  67  70
ATOM     70  S   UNL A   1      41.352  32.485  37.578  1.00  0.00     0.127 S 
ATOM     71  O   UNL A   1      42.148  31.510  38.324  1.00  0.00    -0.237 OA
ATOM     72  O   UNL A   1      41.496  33.867  38.037  1.00  0.00    -0.237 OA
ATOM     73  O   UNL A   1      39.985  32.080  37.285  1.00  0.00    -0.744 OA
ENDBRANCH  67  70
ENDBRANCH  49  63
BRANCH  50  74
ATOM     74  C   UNL A   1      42.854  24.219  27.089  1.00  0.00     0.023 A 
ATOM     75  C   UNL A   1      43.555  24.441  25.888  1.00  0.00     0.012 A 
ATOM     76  C   UNL A   1      42.197  22.988  27.282  1.00  0.00     0.148 A 
ATOM     77  C   UNL A   1      43.569  23.476  24.882  1.00  0.00     0.002 A 
ATOM     78  C   UNL A   1      42.263  22.007  26.298  1.00  0.00     0.091 A 
ATOM     79  F   UNL A   1      41.528  22.798  28.427  1.00  0.00    -0.205 F 
ATOM     80  C   UNL A   1      42.932  22.256  25.090  1.00  0.00     0.022 A 
BRANCH  78  81
ATOM     81  S   UNL A   1      41.582  20.361  26.533  1.00  0.00     0.127 S 
ATOM     82  O   UNL A   1      40.146  20.626  26.510  1.00  0.00    -0.237 OA
ATOM     83  O   UNL A   1      42.098  19.653  25.361  1.00  0.00    -0.237 OA
ATOM     84  O   UNL A   1      42.121  19.891  27.802  1.00  0.00    -0.744 OA
ENDBRANCH  78  81
ENDBRANCH  50  74
BRANCH  62  85
ATOM     85  C   UNL A   1      47.274  26.088  32.163  1.00  0.00     0.023 A 
ATOM     86  C   UNL A   1      47.316  25.197  33.252  1.00  0.00     0.012 A 
ATOM     87  C   UNL A   1      48.461  26.381  31.462  1.00  0.00     0.148 A 
ATOM     88  C   UNL A   1      48.525  24.631  33.658  1.00  0.00     0.002 A 
ATOM     89  C   UNL A   1      49.651  25.773  31.836  1.00  0.00     0.091 A 
ATOM     90  F   UNL A   1      48.401  27.246  30.437  1.00  0.00    -0.205 F 
ATOM     91  C   UNL A   1      49.688  24.908  32.942  1.00  0.00     0.022 A 
BRANCH  89  92
ATOM     92  S   UNL A   1      51.177  25.989  30.913  1.00  0.00     0.127 S 
ATOM     93  O   UNL A   1      50.792  25.510  29.586  1.00  0.00    -0.237 OA
ATOM     94  O   UNL A   1      51.390  27.433  31.003  1.00  0.00    -0.237 OA
ATOM     95  O   UNL A   1      52.179  25.184  31.599  1.00  0.00    -0.744 OA
ENDBRANCH  89  92
ENDBRANCH  62  85
ENDBRANCH  36  37
ENDBRANCH  28  31
ENDBRANCH  26  27
ENDBRANCH  25  26
ENDBRANCH   1  25
TORSDOF 19
ENDMDL
MODEL 3
REMARK VINA RESULT:     -10.9      6.028     11.291
REMARK SMILES CC(C)[N@@H+](Cc1cccs1)[C@@H](C)c1ccc(C(=O)NCCCCNC(=O)c2ccc(-c3c4nc(c(-c5cccc(S(=O)(=O)[O-])c5F)c5ccc([nH]5)c(-c5cccc(S(=O)(=O)[O-])c5F)c5nc(c(-c6cccc(S(=O)(=O)[O-])c6F)c6ccc3[nH]6)C=C5)C=C4)cc2)o1
REMARK SMILES IDX 21 1 20 2 19 3 17 4 18 5 16 7 13 8 14 9 90 10 15 11 11 12
REMARK SMILES IDX 12 13 4 14 2 16 1 17 3 18 5 19 6 20 7 21 10 22 8 23 9 24
REMARK SMILES IDX 22 25 23 26 24 27 25 28 26 30 27 31 28 32 89 33 29 34 88 35
REMARK SMILES IDX 30 36 31 37 32 38 82 39 33 40 87 41 81 42 83 43 34 44 86 45
REMARK SMILES IDX 80 46 79 47 35 49 67 50 47 51 66 52 48 53 51 54 65 55 84 56
REMARK SMILES IDX 49 57 50 58 64 60 85 61 52 62 36 63 37 64 45 65 38 66 40 67
REMARK SMILES IDX 46 68 39 69 41 70 42 71 43 72 44 73 68 74 69 75 77 76 70 77
REMARK SMILES IDX 72 78 78 79 71 80 73 81 74 82 75 83 76 84 53 85 54 86 62 87
REMARK SMILES IDX 55 88 57 89 63 90 56 91 58 92 59 93 60 94 61 95
REMARK H PARENT 19 6 4 15 24 29 83 48 51 59
REMARK Flexibility Score: inf
ROOT
ATOM      1  C   UNL A   1      34.593  21.324  24.547  1.00  0.00     0.023 C 
ENDROOT
BRANCH   1   2
ATOM      2  C   UNL A   1      33.170  20.876  24.867  1.00  0.00     0.116 C 
BRANCH   2   3
ATOM      3  N   UNL A   1      32.721  21.467  26.100  1.00  0.00    -0.349 N 
ATOM      4  C   UNL A   1      32.661  22.777  26.493  1.00  0.00     0.287 C 
ATOM      5  O   UNL A   1      32.251  22.958  27.645  1.00  0.00    -0.266 OA
ATOM      6  H   UNL A   1      32.405  20.821  26.774  1.00  0.00     0.163 HD
BRANCH   4   7
ATOM      7  C   UNL A   1      33.036  23.866  25.607  1.00  0.00     0.191 A 
ATOM      8  C   UNL A   1      32.557  25.208  23.902  1.00  0.00     0.162 A 
ATOM      9  C   UNL A   1      33.846  25.515  24.300  1.00  0.00     0.053 A 
ATOM     10  O   UNL A   1      32.092  24.216  24.681  1.00  0.00    -0.450 OA
ATOM     11  C   UNL A   1      34.110  24.722  25.445  1.00  0.00     0.057 A 
BRANCH   8  12
ATOM     12  C   UNL A   1      31.626  25.945  22.975  1.00  0.00     0.248 C 
ATOM     13  C   UNL A   1      32.399  26.097  21.653  1.00  0.00     0.084 C 
BRANCH  12  14
ATOM     14  N   UNL A   1      30.820  27.119  23.384  1.00  0.00    -0.320 N 
ATOM     15  H   UNL A   1      31.477  27.530  22.722  1.00  0.00     0.349 HD
BRANCH  14  16
ATOM     16  C   UNL A   1      29.915  27.992  22.609  1.00  0.00     0.178 C 
ATOM     17  C   UNL A   1      28.515  28.343  23.108  1.00  0.00     0.075 C 
ATOM     18  C   UNL A   1      30.532  29.298  22.089  1.00  0.00     0.075 C 
ENDBRANCH  14  16
BRANCH  14  19
ATOM     19  C   UNL A   1      30.643  27.243  24.850  1.00  0.00     0.310 C 
BRANCH  19  20
ATOM     20  C   UNL A   1      31.525  28.217  25.612  1.00  0.00     0.059 A 
ATOM     21  C   UNL A   1      31.568  28.586  26.947  1.00  0.00     0.021 A 
ATOM     22  S   UNL A   1      32.735  29.078  24.732  1.00  0.00    -0.143 S 
ATOM     23  C   UNL A   1      32.583  29.531  27.252  1.00  0.00     0.012 A 
ATOM     24  C   UNL A   1      33.286  29.893  26.130  1.00  0.00     0.065 A 
ENDBRANCH  19  20
ENDBRANCH  14  19
ENDBRANCH  12  14
ENDBRANCH   8  12
ENDBRANCH   4   7
ENDBRANCH   2   3
ENDBRANCH   1   2
BRANCH   1  25
ATOM     25  C   UNL A   1      35.582  21.033  25.679  1.00  0.00     0.023 C 
BRANCH  25  26
ATOM     26  C   UNL A   1      37.022  21.434  25.376  1.00  0.00     0.116 C 
BRANCH  26  27
ATOM     27  N   UNL A   1      37.967  20.334  25.537  1.00  0.00    -0.352 N 
ATOM     28  C   UNL A   1      39.259  20.400  25.993  1.00  0.00     0.251 C 
ATOM     29  H   UNL A   1      37.638  19.440  25.291  1.00  0.00     0.163 HD
ATOM     30  O   UNL A   1      39.988  19.411  25.964  1.00  0.00    -0.269 OA
BRANCH  28  31
ATOM     31  C   UNL A   1      39.758  21.695  26.483  1.00  0.00     0.039 A 
ATOM     32  C   UNL A   1      40.762  21.712  27.452  1.00  0.00     0.014 A 
ATOM     33  C   UNL A   1      39.292  22.880  25.908  1.00  0.00     0.014 A 
ATOM     34  C   UNL A   1      41.344  22.928  27.806  1.00  0.00     0.010 A 
ATOM     35  C   UNL A   1      39.930  24.077  26.203  1.00  0.00     0.010 A 
ATOM     36  C   UNL A   1      40.955  24.115  27.160  1.00  0.00    -0.014 A 
BRANCH  36  37
ATOM     37  C   UNL A   1      41.602  25.411  27.474  1.00  0.00     0.031 A 
ATOM     38  C   UNL A   1      40.840  26.460  28.235  1.00  0.00     0.074 A 
ATOM     39  C   UNL A   1      42.834  25.676  26.996  1.00  0.00     0.049 A 
ATOM     40  N   UNL A   1      41.197  27.679  28.541  1.00  0.00    -0.248 NA
ATOM     41  C   UNL A   1      39.483  26.101  28.688  1.00  0.00     0.031 C 
ATOM     42  C   UNL A   1      43.642  24.768  26.179  1.00  0.00     0.029 A 
ATOM     43  N   UNL A   1      43.612  26.801  27.106  1.00  0.00    -0.354 N 
ATOM     44  C   UNL A   1      40.102  28.244  29.184  1.00  0.00     0.074 A 
ATOM     45  C   UNL A   1      39.054  27.249  29.191  1.00  0.00     0.031 C 
ATOM     46  C   UNL A   1      44.802  25.369  25.867  1.00  0.00     0.029 A 
ATOM     47  C   UNL A   1      44.807  26.716  26.430  1.00  0.00     0.049 A 
ATOM     48  H   UNL A   1      43.341  27.596  27.621  1.00  0.00     0.167 HD
ATOM     49  C   UNL A   1      39.990  29.470  29.746  1.00  0.00     0.034 A 
ATOM     50  C   UNL A   1      45.789  27.624  26.271  1.00  0.00     0.034 A 
ATOM     51  C   UNL A   1      41.052  30.438  29.774  1.00  0.00     0.049 A 
ATOM     52  C   UNL A   1      45.652  28.968  26.935  1.00  0.00     0.074 A 
ATOM     53  C   UNL A   1      41.069  31.676  30.391  1.00  0.00     0.029 A 
ATOM     54  N   UNL A   1      42.280  30.281  29.152  1.00  0.00    -0.354 N 
ATOM     55  N   UNL A   1      44.669  29.428  27.670  1.00  0.00    -0.248 NA
ATOM     56  C   UNL A   1      46.774  29.905  26.781  1.00  0.00     0.031 C 
ATOM     57  C   UNL A   1      42.299  32.280  30.118  1.00  0.00     0.029 A 
ATOM     58  C   UNL A   1      43.062  31.403  29.364  1.00  0.00     0.049 A 
ATOM     59  H   UNL A   1      42.556  29.489  28.638  1.00  0.00     0.167 HD
ATOM     60  C   UNL A   1      45.071  30.687  28.101  1.00  0.00     0.074 A 
ATOM     61  C   UNL A   1      46.394  30.911  27.557  1.00  0.00     0.031 C 
ATOM     62  C   UNL A   1      44.402  31.582  28.867  1.00  0.00     0.034 A 
BRANCH  49  63
ATOM     63  C   UNL A   1      38.690  29.815  30.424  1.00  0.00     0.023 A 
ATOM     64  C   UNL A   1      38.401  29.275  31.695  1.00  0.00     0.012 A 
ATOM     65  C   UNL A   1      37.784  30.717  29.834  1.00  0.00     0.148 A 
ATOM     66  C   UNL A   1      37.215  29.600  32.352  1.00  0.00     0.002 A 
ATOM     67  C   UNL A   1      36.628  31.073  30.517  1.00  0.00     0.091 A 
ATOM     68  F   UNL A   1      38.067  31.203  28.617  1.00  0.00    -0.205 F 
ATOM     69  C   UNL A   1      36.335  30.507  31.768  1.00  0.00     0.022 A 
BRANCH  67  70
ATOM     70  S   UNL A   1      35.470  32.296  29.892  1.00  0.00     0.127 S 
ATOM     71  O   UNL A   1      34.473  32.332  30.960  1.00  0.00    -0.237 OA
ATOM     72  O   UNL A   1      36.309  33.493  29.801  1.00  0.00    -0.237 OA
ATOM     73  O   UNL A   1      34.996  31.787  28.613  1.00  0.00    -0.744 OA
ENDBRANCH  67  70
ENDBRANCH  49  63
BRANCH  50  74
ATOM     74  C   UNL A   1      47.016  27.276  25.499  1.00  0.00     0.023 A 
ATOM     75  C   UNL A   1      48.033  26.522  26.116  1.00  0.00     0.012 A 
ATOM     76  C   UNL A   1      47.178  27.679  24.160  1.00  0.00     0.148 A 
ATOM     77  C   UNL A   1      49.207  26.211  25.429  1.00  0.00     0.002 A 
ATOM     78  C   UNL A   1      48.325  27.316  23.461  1.00  0.00     0.091 A 
ATOM     79  F   UNL A   1      46.204  28.402  23.592  1.00  0.00    -0.205 F 
ATOM     80  C   UNL A   1      49.349  26.599  24.099  1.00  0.00     0.022 A 
BRANCH  78  81
ATOM     81  S   UNL A   1      48.536  27.661  21.711  1.00  0.00     0.127 S 
ATOM     82  O   UNL A   1      49.567  28.695  21.733  1.00  0.00    -0.237 OA
ATOM     83  O   UNL A   1      48.975  26.361  21.200  1.00  0.00    -0.237 OA
ATOM     84  O   UNL A   1      47.226  28.081  21.233  1.00  0.00    -0.744 OA
ENDBRANCH  78  81
ENDBRANCH  50  74
BRANCH  62  85
ATOM     85  C   UNL A   1      45.103  32.868  29.221  1.00  0.00     0.023 A 
ATOM     86  C   UNL A   1      45.923  32.935  30.364  1.00  0.00     0.012 A 
ATOM     87  C   UNL A   1      45.016  33.983  28.364  1.00  0.00     0.148 A 
ATOM     88  C   UNL A   1      46.620  34.105  30.667  1.00  0.00     0.002 A 
ATOM     89  C   UNL A   1      45.755  35.125  28.642  1.00  0.00     0.091 A 
ATOM     90  F   UNL A   1      44.216  33.903  27.290  1.00  0.00    -0.205 F 
ATOM     91  C   UNL A   1      46.547  35.193  29.800  1.00  0.00     0.022 A 
BRANCH  89  92
ATOM     92  S   UNL A   1      45.803  36.536  27.531  1.00  0.00     0.127 S 
ATOM     93  O   UNL A   1      46.500  35.980  26.373  1.00  0.00    -0.237 OA
ATOM     94  O   UNL A   1      44.382  36.808  27.316  1.00  0.00    -0.237 OA
ATOM     95  O   UNL A   1      46.520  37.585  28.245  1.00  0.00    -0.744 OA
ENDBRANCH  89  92
ENDBRANCH  62  85
ENDBRANCH  36  37
ENDBRANCH  28  31
ENDBRANCH  26  27
ENDBRANCH  25  26
ENDBRANCH   1  25
TORSDOF 19
ENDMDL
