MODEL 1
REMARK VINA RESULT:     -12.0      0.000      0.000
REMARK SMILES CCS(=O)(=O)/N=c1/[nH]c(C)c(C(=O)NCCCCNC(=O)c2ccc(-c3c4nc(c(-c5cccc(S(=O)(=O)[O-])c5F)c5ccc([nH]5)c(-c5cccc(S(=O)(=O)[O-])c5F)c5nc(c(-c6cccc(S(=O)(=O)[O-])c6F)c6ccc3[nH]6)C=C5)C=C4)cc2)s1
REMARK SMILES IDX 17 1 16 2 15 3 14 4 12 5 13 6 11 8 6 9 7 10 8 11 85 12 9 13
REMARK SMILES IDX 10 15 3 16 4 17 5 18 2 19 1 20 18 21 19 22 20 23 21 25 22 26
REMARK SMILES IDX 23 27 84 28 24 29 83 30 25 31 26 32 27 33 77 34 28 35 82 36
REMARK SMILES IDX 76 37 78 38 29 39 81 40 75 41 74 42 30 44 62 45 42 46 61 47
REMARK SMILES IDX 43 48 46 49 60 50 79 51 44 52 45 53 59 55 80 56 47 57 31 58
REMARK SMILES IDX 32 59 40 60 33 61 35 62 41 63 34 64 36 65 37 66 38 67 39 68
REMARK SMILES IDX 63 69 64 70 72 71 65 72 67 73 73 74 66 75 68 76 69 77 70 78
REMARK SMILES IDX 71 79 48 80 49 81 57 82 50 83 52 84 58 85 51 86 53 87 54 88
REMARK SMILES IDX 55 89 56 90
REMARK H PARENT 14 7 8 14 19 24 78 43 46 54
REMARK Flexibility Score: inf
ROOT
ATOM      1  C   UNL A   1      31.404  29.471  26.881  1.00  0.00     0.023 C 
ENDROOT
BRANCH   1   2
ATOM      2  C   UNL A   1      32.066  28.203  27.396  1.00  0.00     0.023 C 
BRANCH   2   3
ATOM      3  C   UNL A   1      32.874  27.391  26.400  1.00  0.00     0.116 C 
BRANCH   3   4
ATOM      4  N   UNL A   1      32.186  26.327  25.717  1.00  0.00    -0.351 N 
ATOM      5  C   UNL A   1      31.673  26.291  24.450  1.00  0.00     0.263 C 
ATOM      6  O   UNL A   1      31.233  25.207  24.061  1.00  0.00    -0.268 OA
ATOM      7  H   UNL A   1      32.068  25.501  26.239  1.00  0.00     0.163 HD
BRANCH   5   8
ATOM      8  C   UNL A   1      31.568  27.514  23.574  1.00  0.00     0.114 A 
ATOM      9  N   UNL A   1      29.771  30.321  21.666  1.00  0.00    -0.135 NA
ATOM     10  C   UNL A   1      30.441  29.432  22.309  1.00  0.00     0.199 A 
ATOM     11  N   UNL A   1      31.791  29.306  22.171  1.00  0.00    -0.333 N 
ATOM     12  S   UNL A   1      29.906  28.185  23.430  1.00  0.00    -0.091 S 
ATOM     13  C   UNL A   1      32.410  28.236  22.793  1.00  0.00     0.037 A 
ATOM     14  H   UNL A   1      32.311  29.957  21.646  1.00  0.00     0.169 HD
ATOM     15  C   UNL A   1      33.846  28.033  22.431  1.00  0.00     0.066 C 
BRANCH   9  16
ATOM     16  S   UNL A   1      28.168  30.414  21.759  1.00  0.00     0.255 S 
ATOM     17  O   UNL A   1      27.611  29.160  22.214  1.00  0.00    -0.205 OA
ATOM     18  O   UNL A   1      27.653  31.086  20.580  1.00  0.00    -0.205 OA
BRANCH  16  19
ATOM     19  C   UNL A   1      28.026  31.581  23.104  1.00  0.00     0.159 C 
ATOM     20  C   UNL A   1      28.673  32.917  22.795  1.00  0.00     0.023 C 
ENDBRANCH  16  19
ENDBRANCH   9  16
ENDBRANCH   5   8
ENDBRANCH   3   4
ENDBRANCH   2   3
ENDBRANCH   1   2
BRANCH   1  21
ATOM     21  C   UNL A   1      32.310  30.466  26.166  1.00  0.00     0.116 C 
BRANCH  21  22
ATOM     22  N   UNL A   1      32.118  31.853  26.577  1.00  0.00    -0.352 N 
ATOM     23  C   UNL A   1      32.935  32.662  27.336  1.00  0.00     0.251 C 
ATOM     24  H   UNL A   1      31.283  32.272  26.266  1.00  0.00     0.163 HD
ATOM     25  O   UNL A   1      32.564  33.791  27.649  1.00  0.00    -0.269 OA
BRANCH  23  26
ATOM     26  C   UNL A   1      34.238  32.147  27.807  1.00  0.00     0.039 A 
ATOM     27  C   UNL A   1      35.304  33.036  27.965  1.00  0.00     0.014 A 
ATOM     28  C   UNL A   1      34.382  30.805  28.162  1.00  0.00     0.014 A 
ATOM     29  C   UNL A   1      36.481  32.597  28.577  1.00  0.00     0.010 A 
ATOM     30  C   UNL A   1      35.511  30.400  28.864  1.00  0.00     0.010 A 
ATOM     31  C   UNL A   1      36.573  31.289  29.082  1.00  0.00    -0.014 A 
BRANCH  31  32
ATOM     32  C   UNL A   1      37.761  30.838  29.856  1.00  0.00     0.031 A 
ATOM     33  C   UNL A   1      38.737  29.867  29.246  1.00  0.00     0.074 A 
ATOM     34  C   UNL A   1      37.915  31.229  31.138  1.00  0.00     0.049 A 
ATOM     35  N   UNL A   1      39.798  29.320  29.781  1.00  0.00    -0.248 NA
ATOM     36  C   UNL A   1      38.472  29.429  27.866  1.00  0.00     0.031 C 
ATOM     37  C   UNL A   1      36.994  32.098  31.875  1.00  0.00     0.029 A 
ATOM     38  N   UNL A   1      38.888  30.927  32.058  1.00  0.00    -0.354 N 
ATOM     39  C   UNL A   1      40.302  28.450  28.822  1.00  0.00     0.074 A 
ATOM     40  C   UNL A   1      39.408  28.510  27.687  1.00  0.00     0.031 C 
ATOM     41  C   UNL A   1      37.453  32.268  33.126  1.00  0.00     0.029 A 
ATOM     42  C   UNL A   1      38.677  31.492  33.294  1.00  0.00     0.049 A 
ATOM     43  H   UNL A   1      39.665  30.357  31.852  1.00  0.00     0.167 HD
ATOM     44  C   UNL A   1      41.424  27.694  28.865  1.00  0.00     0.034 A 
ATOM     45  C   UNL A   1      39.383  31.391  34.438  1.00  0.00     0.034 A 
ATOM     46  C   UNL A   1      42.331  27.664  29.979  1.00  0.00     0.049 A 
ATOM     47  C   UNL A   1      40.641  30.565  34.451  1.00  0.00     0.074 A 
ATOM     48  C   UNL A   1      43.541  27.001  30.084  1.00  0.00     0.029 A 
ATOM     49  N   UNL A   1      42.122  28.309  31.188  1.00  0.00    -0.354 N 
ATOM     50  N   UNL A   1      41.189  29.881  33.476  1.00  0.00    -0.248 NA
ATOM     51  C   UNL A   1      41.395  30.523  35.712  1.00  0.00     0.031 C 
ATOM     52  C   UNL A   1      44.046  27.216  31.370  1.00  0.00     0.029 A 
ATOM     53  C   UNL A   1      43.172  28.047  32.052  1.00  0.00     0.049 A 
ATOM     54  H   UNL A   1      41.343  28.871  31.401  1.00  0.00     0.167 HD
ATOM     55  C   UNL A   1      42.369  29.357  33.994  1.00  0.00     0.074 A 
ATOM     56  C   UNL A   1      42.466  29.823  35.362  1.00  0.00     0.031 C 
ATOM     57  C   UNL A   1      43.282  28.553  33.396  1.00  0.00     0.034 A 
BRANCH  44  58
ATOM     58  C   UNL A   1      41.757  26.867  27.650  1.00  0.00     0.023 A 
ATOM     59  C   UNL A   1      42.372  27.476  26.536  1.00  0.00     0.012 A 
ATOM     60  C   UNL A   1      41.512  25.481  27.630  1.00  0.00     0.148 A 
ATOM     61  C   UNL A   1      42.701  26.727  25.407  1.00  0.00     0.002 A 
ATOM     62  C   UNL A   1      41.889  24.732  26.521  1.00  0.00     0.091 A 
ATOM     63  F   UNL A   1      40.909  24.922  28.688  1.00  0.00    -0.205 F 
ATOM     64  C   UNL A   1      42.469  25.355  25.405  1.00  0.00     0.022 A 
BRANCH  62  65
ATOM     65  S   UNL A   1      41.711  22.946  26.450  1.00  0.00     0.127 S 
ATOM     66  O   UNL A   1      42.395  22.533  27.674  1.00  0.00    -0.237 OA
ATOM     67  O   UNL A   1      40.258  22.783  26.478  1.00  0.00    -0.237 OA
ATOM     68  O   UNL A   1      42.347  22.526  25.209  1.00  0.00    -0.744 OA
ENDBRANCH  62  65
ENDBRANCH  44  58
BRANCH  45  69
ATOM     69  C   UNL A   1      38.946  32.132  35.657  1.00  0.00     0.023 A 
ATOM     70  C   UNL A   1      39.219  33.510  35.769  1.00  0.00     0.012 A 
ATOM     71  C   UNL A   1      38.253  31.484  36.698  1.00  0.00     0.148 A 
ATOM     72  C   UNL A   1      38.843  34.220  36.909  1.00  0.00     0.002 A 
ATOM     73  C   UNL A   1      37.830  32.210  37.804  1.00  0.00     0.091 A 
ATOM     74  F   UNL A   1      38.011  30.171  36.577  1.00  0.00    -0.205 F 
ATOM     75  C   UNL A   1      38.142  33.573  37.923  1.00  0.00     0.022 A 
BRANCH  73  76
ATOM     76  S   UNL A   1      36.808  31.491  39.096  1.00  0.00     0.127 S 
ATOM     77  O   UNL A   1      37.734  31.456  40.225  1.00  0.00    -0.237 OA
ATOM     78  O   UNL A   1      35.733  32.478  39.210  1.00  0.00    -0.237 OA
ATOM     79  O   UNL A   1      36.382  30.196  38.586  1.00  0.00    -0.744 OA
ENDBRANCH  73  76
ENDBRANCH  45  69
BRANCH  57  80
ATOM     80  C   UNL A   1      44.492  28.150  34.197  1.00  0.00     0.023 A 
ATOM     81  C   UNL A   1      45.640  28.967  34.201  1.00  0.00     0.012 A 
ATOM     82  C   UNL A   1      44.463  26.996  35.005  1.00  0.00     0.148 A 
ATOM     83  C   UNL A   1      46.753  28.622  34.967  1.00  0.00     0.002 A 
ATOM     84  C   UNL A   1      45.555  26.687  35.807  1.00  0.00     0.091 A 
ATOM     85  F   UNL A   1      43.368  26.223  34.976  1.00  0.00    -0.205 F 
ATOM     86  C   UNL A   1      46.706  27.490  35.777  1.00  0.00     0.022 A 
BRANCH  84  87
ATOM     87  S   UNL A   1      45.548  25.308  36.957  1.00  0.00     0.127 S 
ATOM     88  O   UNL A   1      44.410  25.638  37.812  1.00  0.00    -0.237 OA
ATOM     89  O   UNL A   1      45.333  24.166  36.067  1.00  0.00    -0.237 OA
ATOM     90  O   UNL A   1      46.847  25.325  37.615  1.00  0.00    -0.744 OA
ENDBRANCH  84  87
ENDBRANCH  57  80
ENDBRANCH  31  32
ENDBRANCH  23  26
ENDBRANCH  21  22
ENDBRANCH   1  21
TORSDOF 16
ENDMDL
MODEL 2
REMARK VINA RESULT:     -12.0      1.028      7.742
REMARK SMILES CCS(=O)(=O)/N=c1/[nH]c(C)c(C(=O)NCCCCNC(=O)c2ccc(-c3c4nc(c(-c5cccc(S(=O)(=O)[O-])c5F)c5ccc([nH]5)c(-c5cccc(S(=O)(=O)[O-])c5F)c5nc(c(-c6cccc(S(=O)(=O)[O-])c6F)c6ccc3[nH]6)C=C5)C=C4)cc2)s1
REMARK SMILES IDX 17 1 16 2 15 3 14 4 12 5 13 6 11 8 6 9 7 10 8 11 85 12 9 13
REMARK SMILES IDX 10 15 3 16 4 17 5 18 2 19 1 20 18 21 19 22 20 23 21 25 22 26
REMARK SMILES IDX 23 27 84 28 24 29 83 30 25 31 26 32 27 33 77 34 28 35 82 36
REMARK SMILES IDX 76 37 78 38 29 39 81 40 75 41 74 42 30 44 62 45 42 46 61 47
REMARK SMILES IDX 43 48 46 49 60 50 79 51 44 52 45 53 59 55 80 56 47 57 31 58
REMARK SMILES IDX 32 59 40 60 33 61 35 62 41 63 34 64 36 65 37 66 38 67 39 68
REMARK SMILES IDX 63 69 64 70 72 71 65 72 67 73 73 74 66 75 68 76 69 77 70 78
REMARK SMILES IDX 71 79 48 80 49 81 57 82 50 83 52 84 58 85 51 86 53 87 54 88
REMARK SMILES IDX 55 89 56 90
REMARK H PARENT 14 7 8 14 19 24 78 43 46 54
REMARK Flexibility Score: inf
ROOT
ATOM      1  C   UNL A   1      31.756  29.215  27.005  1.00  0.00     0.023 C 
ENDROOT
BRANCH   1   2
ATOM      2  C   UNL A   1      32.192  27.832  27.463  1.00  0.00     0.023 C 
BRANCH   2   3
ATOM      3  C   UNL A   1      32.744  26.896  26.404  1.00  0.00     0.116 C 
BRANCH   3   4
ATOM      4  N   UNL A   1      31.803  26.025  25.749  1.00  0.00    -0.351 N 
ATOM      5  C   UNL A   1      31.166  26.173  24.548  1.00  0.00     0.263 C 
ATOM      6  O   UNL A   1      30.493  25.217  24.157  1.00  0.00    -0.268 OA
ATOM      7  H   UNL A   1      31.587  25.198  26.238  1.00  0.00     0.163 HD
BRANCH   5   8
ATOM      8  C   UNL A   1      31.201  27.455  23.755  1.00  0.00     0.114 A 
ATOM      9  N   UNL A   1      29.729  30.448  21.853  1.00  0.00    -0.135 NA
ATOM     10  C   UNL A   1      30.291  29.494  22.505  1.00  0.00     0.199 A 
ATOM     11  N   UNL A   1      31.643  29.327  22.518  1.00  0.00    -0.333 N 
ATOM     12  S   UNL A   1      29.589  28.196  23.465  1.00  0.00    -0.091 S 
ATOM     13  C   UNL A   1      32.152  28.195  23.131  1.00  0.00     0.037 A 
ATOM     14  H   UNL A   1      32.241  29.991  22.105  1.00  0.00     0.169 HD
ATOM     15  C   UNL A   1      33.615  27.963  22.926  1.00  0.00     0.066 C 
BRANCH   9  16
ATOM     16  S   UNL A   1      28.129  30.595  21.764  1.00  0.00     0.255 S 
ATOM     17  O   UNL A   1      27.512  30.198  23.010  1.00  0.00    -0.205 OA
ATOM     18  O   UNL A   1      27.666  30.076  20.491  1.00  0.00    -0.205 OA
BRANCH  16  19
ATOM     19  C   UNL A   1      28.010  32.374  21.654  1.00  0.00     0.159 C 
ATOM     20  C   UNL A   1      28.777  33.084  22.753  1.00  0.00     0.023 C 
ENDBRANCH  16  19
ENDBRANCH   9  16
ENDBRANCH   5   8
ENDBRANCH   3   4
ENDBRANCH   2   3
ENDBRANCH   1   2
BRANCH   1  21
ATOM     21  C   UNL A   1      32.843  30.108  26.418  1.00  0.00     0.116 C 
BRANCH  21  22
ATOM     22  N   UNL A   1      32.790  31.493  26.874  1.00  0.00    -0.352 N 
ATOM     23  C   UNL A   1      33.701  32.203  27.624  1.00  0.00     0.251 C 
ATOM     24  H   UNL A   1      31.986  31.994  26.604  1.00  0.00     0.163 HD
ATOM     25  O   UNL A   1      33.444  33.351  27.980  1.00  0.00    -0.269 OA
BRANCH  23  26
ATOM     26  C   UNL A   1      34.968  31.561  28.034  1.00  0.00     0.039 A 
ATOM     27  C   UNL A   1      36.122  32.340  28.147  1.00  0.00     0.014 A 
ATOM     28  C   UNL A   1      34.996  30.208  28.378  1.00  0.00     0.014 A 
ATOM     29  C   UNL A   1      37.276  31.784  28.704  1.00  0.00     0.010 A 
ATOM     30  C   UNL A   1      36.110  29.690  29.028  1.00  0.00     0.010 A 
ATOM     31  C   UNL A   1      37.263  30.470  29.201  1.00  0.00    -0.014 A 
BRANCH  31  32
ATOM     32  C   UNL A   1      38.434  29.899  29.918  1.00  0.00     0.031 A 
ATOM     33  C   UNL A   1      38.777  30.374  31.305  1.00  0.00     0.074 A 
ATOM     34  C   UNL A   1      39.243  29.021  29.290  1.00  0.00     0.049 A 
ATOM     35  N   UNL A   1      39.785  30.036  32.066  1.00  0.00    -0.248 NA
ATOM     36  C   UNL A   1      37.889  31.384  31.906  1.00  0.00     0.031 C 
ATOM     37  C   UNL A   1      39.073  28.546  27.915  1.00  0.00     0.029 A 
ATOM     38  N   UNL A   1      40.386  28.391  29.716  1.00  0.00    -0.354 N 
ATOM     39  C   UNL A   1      39.675  30.814  33.212  1.00  0.00     0.074 A 
ATOM     40  C   UNL A   1      38.525  31.672  33.030  1.00  0.00     0.031 C 
ATOM     41  C   UNL A   1      40.065  27.691  27.617  1.00  0.00     0.029 A 
ATOM     42  C   UNL A   1      40.963  27.586  28.761  1.00  0.00     0.049 A 
ATOM     43  H   UNL A   1      40.758  28.505  30.621  1.00  0.00     0.167 HD
ATOM     44  C   UNL A   1      40.438  30.795  34.329  1.00  0.00     0.034 A 
ATOM     45  C   UNL A   1      42.094  26.852  28.798  1.00  0.00     0.034 A 
ATOM     46  C   UNL A   1      41.558  29.916  34.525  1.00  0.00     0.049 A 
ATOM     47  C   UNL A   1      42.910  26.829  30.062  1.00  0.00     0.074 A 
ATOM     48  C   UNL A   1      42.338  29.756  35.655  1.00  0.00     0.029 A 
ATOM     49  N   UNL A   1      42.069  29.059  33.562  1.00  0.00    -0.354 N 
ATOM     50  N   UNL A   1      42.693  27.448  31.197  1.00  0.00    -0.248 NA
ATOM     51  C   UNL A   1      44.110  25.980  30.063  1.00  0.00     0.031 C 
ATOM     52  C   UNL A   1      43.345  28.830  35.363  1.00  0.00     0.029 A 
ATOM     53  C   UNL A   1      43.165  28.381  34.066  1.00  0.00     0.049 A 
ATOM     54  H   UNL A   1      41.705  28.949  32.654  1.00  0.00     0.167 HD
ATOM     55  C   UNL A   1      43.706  27.038  32.056  1.00  0.00     0.074 A 
ATOM     56  C   UNL A   1      44.523  26.097  31.317  1.00  0.00     0.031 C 
ATOM     57  C   UNL A   1      43.945  27.414  33.336  1.00  0.00     0.034 A 
BRANCH  44  58
ATOM     58  C   UNL A   1      40.060  31.729  35.451  1.00  0.00     0.023 A 
ATOM     59  C   UNL A   1      40.684  32.990  35.552  1.00  0.00     0.012 A 
ATOM     60  C   UNL A   1      39.051  31.383  36.370  1.00  0.00     0.148 A 
ATOM     61  C   UNL A   1      40.340  33.874  36.574  1.00  0.00     0.002 A 
ATOM     62  C   UNL A   1      38.677  32.290  37.354  1.00  0.00     0.091 A 
ATOM     63  F   UNL A   1      38.482  30.173  36.270  1.00  0.00    -0.205 F 
ATOM     64  C   UNL A   1      39.329  33.528  37.467  1.00  0.00     0.022 A 
BRANCH  62  65
ATOM     65  S   UNL A   1      37.331  31.977  38.502  1.00  0.00     0.127 S 
ATOM     66  O   UNL A   1      37.034  30.572  38.231  1.00  0.00    -0.237 OA
ATOM     67  O   UNL A   1      37.968  32.228  39.795  1.00  0.00    -0.237 OA
ATOM     68  O   UNL A   1      36.275  32.916  38.151  1.00  0.00    -0.744 OA
ENDBRANCH  62  65
ENDBRANCH  44  58
BRANCH  45  69
ATOM     69  C   UNL A   1      42.497  26.037  27.616  1.00  0.00     0.023 A 
ATOM     70  C   UNL A   1      43.327  26.604  26.628  1.00  0.00     0.012 A 
ATOM     71  C   UNL A   1      42.075  24.701  27.471  1.00  0.00     0.148 A 
ATOM     72  C   UNL A   1      43.697  25.870  25.502  1.00  0.00     0.002 A 
ATOM     73  C   UNL A   1      42.496  23.957  26.376  1.00  0.00     0.091 A 
ATOM     74  F   UNL A   1      41.279  24.181  28.417  1.00  0.00    -0.205 F 
ATOM     75  C   UNL A   1      43.290  24.545  25.379  1.00  0.00     0.022 A 
BRANCH  73  76
ATOM     76  S   UNL A   1      42.130  22.206  26.200  1.00  0.00     0.127 S 
ATOM     77  O   UNL A   1      42.888  21.861  25.001  1.00  0.00    -0.237 OA
ATOM     78  O   UNL A   1      42.667  21.662  27.448  1.00  0.00    -0.237 OA
ATOM     79  O   UNL A   1      40.681  22.117  26.081  1.00  0.00    -0.744 OA
ENDBRANCH  73  76
ENDBRANCH  45  69
BRANCH  57  80
ATOM     80  C   UNL A   1      45.116  26.784  34.045  1.00  0.00     0.023 A 
ATOM     81  C   UNL A   1      46.381  27.403  34.006  1.00  0.00     0.012 A 
ATOM     82  C   UNL A   1      44.943  25.613  34.809  1.00  0.00     0.148 A 
ATOM     83  C   UNL A   1      47.463  26.847  34.687  1.00  0.00     0.002 A 
ATOM     84  C   UNL A   1      46.012  25.095  35.529  1.00  0.00     0.091 A 
ATOM     85  F   UNL A   1      43.736  25.030  34.822  1.00  0.00    -0.205 F 
ATOM     86  C   UNL A   1      47.277  25.702  35.457  1.00  0.00     0.022 A 
BRANCH  84  87
ATOM     87  S   UNL A   1      45.844  23.684  36.627  1.00  0.00     0.127 S 
ATOM     88  O   UNL A   1      44.873  24.177  37.601  1.00  0.00    -0.237 OA
ATOM     89  O   UNL A   1      45.333  22.651  35.724  1.00  0.00    -0.237 OA
ATOM     90  O   UNL A   1      47.176  23.421  37.154  1.00  0.00    -0.744 OA
ENDBRANCH  84  87
ENDBRANCH  57  80
ENDBRANCH  31  32
ENDBRANCH  23  26
ENDBRANCH  21  22
ENDBRANCH   1  21
TORSDOF 16
ENDMDL
MODEL 3
REMARK VINA RESULT:     -11.8      5.653      8.177
REMARK SMILES CCS(=O)(=O)/N=c1/[nH]c(C)c(C(=O)NCCCCNC(=O)c2ccc(-c3c4nc(c(-c5cccc(S(=O)(=O)[O-])c5F)c5ccc([nH]5)c(-c5cccc(S(=O)(=O)[O-])c5F)c5nc(c(-c6cccc(S(=O)(=O)[O-])c6F)c6ccc3[nH]6)C=C5)C=C4)cc2)s1
REMARK SMILES IDX 17 1 16 2 15 3 14 4 12 5 13 6 11 8 6 9 7 10 8 11 85 12 9 13
REMARK SMILES IDX 10 15 3 16 4 17 5 18 2 19 1 20 18 21 19 22 20 23 21 25 22 26
REMARK SMILES IDX 23 27 84 28 24 29 83 30 25 31 26 32 27 33 77 34 28 35 82 36
REMARK SMILES IDX 76 37 78 38 29 39 81 40 75 41 74 42 30 44 62 45 42 46 61 47
REMARK SMILES IDX 43 48 46 49 60 50 79 51 44 52 45 53 59 55 80 56 47 57 31 58
REMARK SMILES IDX 32 59 40 60 33 61 35 62 41 63 34 64 36 65 37 66 38 67 39 68
REMARK SMILES IDX 63 69 64 70 72 71 65 72 67 73 73 74 66 75 68 76 69 77 70 78
REMARK SMILES IDX 71 79 48 80 49 81 57 82 50 83 52 84 58 85 51 86 53 87 54 88
REMARK SMILES IDX 55 89 56 90
REMARK H PARENT 14 7 8 14 19 24 78 43 46 54
REMARK Flexibility Score: inf
ROOT
ATOM      1  C   UNL A   1      35.942  21.380  25.354  1.00  0.00     0.023 C 
ENDROOT
BRANCH   1   2
ATOM      2  C   UNL A   1      35.277  22.281  26.383  1.00  0.00     0.023 C 
BRANCH   2   3
ATOM      3  C   UNL A   1      34.070  21.722  27.113  1.00  0.00     0.116 C 
BRANCH   3   4
ATOM      4  N   UNL A   1      33.275  20.750  26.410  1.00  0.00    -0.351 N 
ATOM      5  C   UNL A   1      32.207  20.934  25.575  1.00  0.00     0.263 C 
ATOM      6  O   UNL A   1      31.774  19.932  25.001  1.00  0.00    -0.268 OA
ATOM      7  H   UNL A   1      33.539  19.812  26.550  1.00  0.00     0.163 HD
BRANCH   5   8
ATOM      8  C   UNL A   1      31.525  22.267  25.400  1.00  0.00     0.114 A 
ATOM      9  N   UNL A   1      31.033  25.799  23.974  1.00  0.00    -0.135 NA
ATOM     10  C   UNL A   1      31.113  24.614  24.466  1.00  0.00     0.199 A 
ATOM     11  N   UNL A   1      30.275  24.182  25.450  1.00  0.00    -0.333 N 
ATOM     12  S   UNL A   1      32.231  23.301  24.109  1.00  0.00    -0.091 S 
ATOM     13  C   UNL A   1      30.522  22.943  26.015  1.00  0.00     0.037 A 
ATOM     14  H   UNL A   1      29.517  24.733  25.750  1.00  0.00     0.169 HD
ATOM     15  C   UNL A   1      29.705  22.621  27.225  1.00  0.00     0.066 C 
BRANCH   9  16
ATOM     16  S   UNL A   1      32.076  26.340  22.876  1.00  0.00     0.255 S 
ATOM     17  O   UNL A   1      31.809  25.747  21.585  1.00  0.00    -0.205 OA
ATOM     18  O   UNL A   1      33.412  26.349  23.442  1.00  0.00    -0.205 OA
BRANCH  16  19
ATOM     19  C   UNL A   1      31.552  28.046  22.798  1.00  0.00     0.159 C 
ATOM     20  C   UNL A   1      30.249  28.294  23.533  1.00  0.00     0.023 C 
ENDBRANCH  16  19
ENDBRANCH   9  16
ENDBRANCH   5   8
ENDBRANCH   3   4
ENDBRANCH   2   3
ENDBRANCH   1   2
BRANCH   1  21
ATOM     21  C   UNL A   1      37.378  21.726  24.978  1.00  0.00     0.116 C 
BRANCH  21  22
ATOM     22  N   UNL A   1      38.361  20.727  25.386  1.00  0.00    -0.352 N 
ATOM     23  C   UNL A   1      39.514  20.883  26.124  1.00  0.00     0.251 C 
ATOM     24  H   UNL A   1      38.171  19.807  25.093  1.00  0.00     0.163 HD
ATOM     25  O   UNL A   1      40.264  19.927  26.303  1.00  0.00    -0.269 OA
BRANCH  23  26
ATOM     26  C   UNL A   1      39.862  22.216  26.660  1.00  0.00     0.039 A 
ATOM     27  C   UNL A   1      40.896  22.326  27.594  1.00  0.00     0.014 A 
ATOM     28  C   UNL A   1      39.219  23.360  26.184  1.00  0.00     0.014 A 
ATOM     29  C   UNL A   1      41.352  23.591  27.970  1.00  0.00     0.010 A 
ATOM     30  C   UNL A   1      39.745  24.614  26.478  1.00  0.00     0.010 A 
ATOM     31  C   UNL A   1      40.817  24.746  27.373  1.00  0.00    -0.014 A 
BRANCH  31  32
ATOM     32  C   UNL A   1      41.375  26.095  27.655  1.00  0.00     0.031 A 
ATOM     33  C   UNL A   1      42.779  26.437  27.233  1.00  0.00     0.074 A 
ATOM     34  C   UNL A   1      40.653  26.983  28.370  1.00  0.00     0.049 A 
ATOM     35  N   UNL A   1      43.456  27.537  27.437  1.00  0.00    -0.248 NA
ATOM     36  C   UNL A   1      43.535  25.397  26.515  1.00  0.00     0.031 C 
ATOM     37  C   UNL A   1      39.314  26.746  28.914  1.00  0.00     0.029 A 
ATOM     38  N   UNL A   1      40.954  28.257  28.785  1.00  0.00    -0.354 N 
ATOM     39  C   UNL A   1      44.721  27.309  26.908  1.00  0.00     0.074 A 
ATOM     40  C   UNL A   1      44.732  25.951  26.412  1.00  0.00     0.031 C 
ATOM     41  C   UNL A   1      38.906  27.840  29.577  1.00  0.00     0.029 A 
ATOM     42  C   UNL A   1      39.965  28.842  29.541  1.00  0.00     0.049 A 
ATOM     43  H   UNL A   1      41.801  28.709  28.562  1.00  0.00     0.167 HD
ATOM     44  C   UNL A   1      45.769  28.161  26.813  1.00  0.00     0.034 A 
ATOM     45  C   UNL A   1      39.919  30.046  30.147  1.00  0.00     0.034 A 
ATOM     46  C   UNL A   1      45.744  29.522  27.273  1.00  0.00     0.049 A 
ATOM     47  C   UNL A   1      41.087  30.983  30.003  1.00  0.00     0.074 A 
ATOM     48  C   UNL A   1      46.722  30.492  27.141  1.00  0.00     0.029 A 
ATOM     49  N   UNL A   1      44.696  30.103  27.969  1.00  0.00    -0.354 N 
ATOM     50  N   UNL A   1      42.212  30.806  29.354  1.00  0.00    -0.248 NA
ATOM     51  C   UNL A   1      40.967  32.299  30.647  1.00  0.00     0.031 C 
ATOM     52  C   UNL A   1      46.279  31.648  27.790  1.00  0.00     0.029 A 
ATOM     53  C   UNL A   1      45.009  31.413  28.289  1.00  0.00     0.049 A 
ATOM     54  H   UNL A   1      43.853  29.652  28.202  1.00  0.00     0.167 HD
ATOM     55  C   UNL A   1      42.918  31.997  29.481  1.00  0.00     0.074 A 
ATOM     56  C   UNL A   1      42.081  32.897  30.249  1.00  0.00     0.031 C 
ATOM     57  C   UNL A   1      44.151  32.314  29.015  1.00  0.00     0.034 A 
BRANCH  44  58
ATOM     58  C   UNL A   1      47.022  27.655  26.145  1.00  0.00     0.023 A 
ATOM     59  C   UNL A   1      47.969  26.927  26.896  1.00  0.00     0.012 A 
ATOM     60  C   UNL A   1      47.237  27.852  24.768  1.00  0.00     0.148 A 
ATOM     61  C   UNL A   1      49.129  26.438  26.295  1.00  0.00     0.002 A 
ATOM     62  C   UNL A   1      48.370  27.318  24.166  1.00  0.00     0.091 A 
ATOM     63  F   UNL A   1      46.336  28.563  24.075  1.00  0.00    -0.205 F 
ATOM     64  C   UNL A   1      49.323  26.625  24.929  1.00  0.00     0.022 A 
BRANCH  62  65
ATOM     65  S   UNL A   1      48.674  27.430  22.399  1.00  0.00     0.127 S 
ATOM     66  O   UNL A   1      49.993  28.059  22.366  1.00  0.00    -0.237 OA
ATOM     67  O   UNL A   1      48.658  26.023  21.997  1.00  0.00    -0.237 OA
ATOM     68  O   UNL A   1      47.588  28.231  21.853  1.00  0.00    -0.744 OA
ENDBRANCH  62  65
ENDBRANCH  44  58
BRANCH  45  69
ATOM     69  C   UNL A   1      38.701  30.457  30.904  1.00  0.00     0.023 A 
ATOM     70  C   UNL A   1      38.595  30.146  32.274  1.00  0.00     0.012 A 
ATOM     71  C   UNL A   1      37.655  31.164  30.279  1.00  0.00     0.148 A 
ATOM     72  C   UNL A   1      37.456  30.498  32.998  1.00  0.00     0.002 A 
ATOM     73  C   UNL A   1      36.550  31.563  31.020  1.00  0.00     0.091 A 
ATOM     74  F   UNL A   1      37.771  31.443  28.973  1.00  0.00    -0.205 F 
ATOM     75  C   UNL A   1      36.438  31.213  32.375  1.00  0.00     0.022 A 
BRANCH  73  76
ATOM     76  S   UNL A   1      35.252  32.600  30.335  1.00  0.00     0.127 S 
ATOM     77  O   UNL A   1      34.768  31.780  29.228  1.00  0.00    -0.237 OA
ATOM     78  O   UNL A   1      34.332  32.715  31.467  1.00  0.00    -0.237 OA
ATOM     79  O   UNL A   1      35.902  33.848  29.961  1.00  0.00    -0.744 OA
ENDBRANCH  73  76
ENDBRANCH  45  69
BRANCH  57  80
ATOM     80  C   UNL A   1      44.666  33.704  29.285  1.00  0.00     0.023 A 
ATOM     81  C   UNL A   1      45.304  33.996  30.506  1.00  0.00     0.012 A 
ATOM     82  C   UNL A   1      44.579  34.703  28.294  1.00  0.00     0.148 A 
ATOM     83  C   UNL A   1      45.816  35.270  30.752  1.00  0.00     0.002 A 
ATOM     84  C   UNL A   1      45.139  35.953  28.525  1.00  0.00     0.091 A 
ATOM     85  F   UNL A   1      43.955  34.411  27.144  1.00  0.00    -0.205 F 
ATOM     86  C   UNL A   1      45.744  36.243  29.758  1.00  0.00     0.022 A 
BRANCH  84  87
ATOM     87  S   UNL A   1      45.184  37.237  27.270  1.00  0.00     0.127 S 
ATOM     88  O   UNL A   1      46.027  36.623  26.245  1.00  0.00    -0.237 OA
ATOM     89  O   UNL A   1      43.772  37.361  26.905  1.00  0.00    -0.237 OA
ATOM     90  O   UNL A   1      45.748  38.414  27.916  1.00  0.00    -0.744 OA
ENDBRANCH  84  87
ENDBRANCH  57  80
ENDBRANCH  31  32
ENDBRANCH  23  26
ENDBRANCH  21  22
ENDBRANCH   1  21
TORSDOF 16
ENDMDL
