MODEL 1
REMARK VINA RESULT:     -12.6      0.000      0.000
REMARK SMILES CS(=O)(=O)c1ccc(N2N=C(C(=O)NCCCCNC(=O)c3ccc(-c4c5nc(c(-c6cccc(S(=O)(=O)[O-])c6F)c6ccc([nH]6)c(-c6cccc(S(=O)(=O)[O-])c6F)c6nc(c(-c7cccc(S(=O)(=O)[O-])c7F)c7ccc4[nH]7)C=C6)C=C5)cc3)C[C@H]2c2ccco2)cc1
REMARK SMILES IDX 17 1 16 2 15 3 14 4 12 5 13 6 11 8 9 9 10 10 86 11 85 12
REMARK SMILES IDX 8 13 5 14 6 15 93 16 7 17 92 18 2 19 1 20 3 21 4 22 87 23
REMARK SMILES IDX 88 24 91 25 89 26 90 27 18 28 19 29 20 30 21 32 22 33 23 34
REMARK SMILES IDX 84 35 24 36 83 37 25 38 26 39 27 40 77 41 28 42 82 43 76 44
REMARK SMILES IDX 78 45 29 46 81 47 75 48 74 49 30 51 62 52 42 53 61 54 43 55
REMARK SMILES IDX 46 56 60 57 79 58 44 59 45 60 59 62 80 63 47 64 31 65 32 66
REMARK SMILES IDX 40 67 33 68 35 69 41 70 34 71 36 72 37 73 38 74 39 75 63 76
REMARK SMILES IDX 64 77 72 78 65 79 67 80 73 81 66 82 68 83 69 84 70 85 71 86
REMARK SMILES IDX 48 87 49 88 57 89 50 90 52 91 58 92 51 93 53 94 54 95 55 96
REMARK SMILES IDX 56 97
REMARK H PARENT 14 7 19 31 78 50 46 61
REMARK Flexibility Score: inf
ROOT
ATOM      1  C   UNL A   1      36.941  21.542  24.177  1.00  0.00     0.023 C 
ENDROOT
BRANCH   1   2
ATOM      2  C   UNL A   1      36.670  22.840  23.419  1.00  0.00     0.023 C 
BRANCH   2   3
ATOM      3  C   UNL A   1      35.375  23.539  23.821  1.00  0.00     0.116 C 
BRANCH   3   4
ATOM      4  N   UNL A   1      34.217  22.901  23.226  1.00  0.00    -0.351 N 
ATOM      5  C   UNL A   1      32.871  23.173  23.206  1.00  0.00     0.267 C 
ATOM      6  O   UNL A   1      32.134  22.371  22.637  1.00  0.00    -0.268 OA
ATOM      7  H   UNL A   1      34.448  22.088  22.722  1.00  0.00     0.163 HD
BRANCH   5   8
ATOM      8  C   UNL A   1      32.243  24.422  23.807  1.00  0.00     0.128 C 
ATOM      9  N   UNL A   1      31.312  26.339  23.861  1.00  0.00    -0.254 N 
ATOM     10  N   UNL A   1      31.602  25.278  23.064  1.00  0.00    -0.171 NA
ATOM     11  C   UNL A   1      31.584  26.111  25.280  1.00  0.00     0.180 C 
ATOM     12  C   UNL A   1      32.340  24.781  25.250  1.00  0.00     0.099 C 
BRANCH   9  13
ATOM     13  C   UNL A   1      30.512  27.371  23.397  1.00  0.00     0.060 A 
ATOM     14  C   UNL A   1      28.957  29.528  22.513  1.00  0.00     0.067 A 
ATOM     15  C   UNL A   1      28.341  28.451  23.153  1.00  0.00     0.022 A 
ATOM     16  C   UNL A   1      30.329  29.519  22.263  1.00  0.00     0.022 A 
ATOM     17  C   UNL A   1      29.123  27.373  23.584  1.00  0.00     0.029 A 
ATOM     18  C   UNL A   1      31.093  28.444  22.708  1.00  0.00     0.029 A 
BRANCH  14  19
ATOM     19  S   UNL A   1      28.010  30.934  21.991  1.00  0.00     0.175 S 
ATOM     20  C   UNL A   1      29.075  32.297  22.384  1.00  0.00     0.163 C 
ATOM     21  O   UNL A   1      26.838  31.036  22.841  1.00  0.00    -0.224 OA
ATOM     22  O   UNL A   1      27.883  30.867  20.548  1.00  0.00    -0.224 OA
ENDBRANCH  14  19
ENDBRANCH   9  13
BRANCH  11  23
ATOM     23  C   UNL A   1      32.324  27.185  26.027  1.00  0.00     0.128 A 
ATOM     24  C   UNL A   1      33.670  27.435  26.219  1.00  0.00     0.048 A 
ATOM     25  O   UNL A   1      31.592  28.139  26.676  1.00  0.00    -0.467 OA
ATOM     26  C   UNL A   1      33.757  28.586  27.039  1.00  0.00     0.042 A 
ATOM     27  C   UNL A   1      32.463  28.984  27.278  1.00  0.00     0.195 A 
ENDBRANCH  11  23
ENDBRANCH   5   8
ENDBRANCH   3   4
ENDBRANCH   2   3
ENDBRANCH   1   2
BRANCH   1  28
ATOM     28  C   UNL A   1      37.603  21.711  25.543  1.00  0.00     0.116 C 
BRANCH  28  29
ATOM     29  N   UNL A   1      38.691  20.771  25.784  1.00  0.00    -0.352 N 
ATOM     30  C   UNL A   1      39.916  21.009  26.362  1.00  0.00     0.251 C 
ATOM     31  H   UNL A   1      38.526  19.843  25.496  1.00  0.00     0.163 HD
ATOM     32  O   UNL A   1      40.766  20.127  26.407  1.00  0.00    -0.269 OA
BRANCH  30  33
ATOM     33  C   UNL A   1      40.202  22.357  26.893  1.00  0.00     0.039 A 
ATOM     34  C   UNL A   1      41.212  22.509  27.846  1.00  0.00     0.014 A 
ATOM     35  C   UNL A   1      39.531  23.470  26.380  1.00  0.00     0.014 A 
ATOM     36  C   UNL A   1      41.611  23.793  28.223  1.00  0.00     0.010 A 
ATOM     37  C   UNL A   1      39.978  24.745  26.704  1.00  0.00     0.010 A 
ATOM     38  C   UNL A   1      41.030  24.920  27.617  1.00  0.00    -0.014 A 
BRANCH  38  39
ATOM     39  C   UNL A   1      41.529  26.292  27.888  1.00  0.00     0.031 A 
ATOM     40  C   UNL A   1      42.946  26.660  27.546  1.00  0.00     0.074 A 
ATOM     41  C   UNL A   1      40.743  27.165  28.549  1.00  0.00     0.049 A 
ATOM     42  N   UNL A   1      43.592  27.768  27.797  1.00  0.00    -0.248 NA
ATOM     43  C   UNL A   1      43.751  25.637  26.857  1.00  0.00     0.031 C 
ATOM     44  C   UNL A   1      39.378  26.898  29.008  1.00  0.00     0.029 A 
ATOM     45  N   UNL A   1      40.992  28.445  28.982  1.00  0.00    -0.354 N 
ATOM     46  C   UNL A   1      44.887  27.564  27.336  1.00  0.00     0.074 A 
ATOM     47  C   UNL A   1      44.943  26.214  26.817  1.00  0.00     0.031 C 
ATOM     48  C   UNL A   1      38.911  27.977  29.657  1.00  0.00     0.029 A 
ATOM     49  C   UNL A   1      39.951  29.001  29.690  1.00  0.00     0.049 A 
ATOM     50  H   UNL A   1      41.836  28.919  28.802  1.00  0.00     0.167 HD
ATOM     51  C   UNL A   1      45.926  28.431  27.318  1.00  0.00     0.034 A 
ATOM     52  C   UNL A   1      39.850  30.194  30.305  1.00  0.00     0.034 A 
ATOM     53  C   UNL A   1      45.851  29.787  27.787  1.00  0.00     0.049 A 
ATOM     54  C   UNL A   1      41.007  31.153  30.237  1.00  0.00     0.074 A 
ATOM     55  C   UNL A   1      46.818  30.774  27.722  1.00  0.00     0.029 A 
ATOM     56  N   UNL A   1      44.749  30.346  28.417  1.00  0.00    -0.354 N 
ATOM     57  N   UNL A   1      42.169  31.001  29.648  1.00  0.00    -0.248 NA
ATOM     58  C   UNL A   1      40.832  32.458  30.891  1.00  0.00     0.031 C 
ATOM     59  C   UNL A   1      46.306  31.927  28.327  1.00  0.00     0.029 A 
ATOM     60  C   UNL A   1      45.015  31.663  28.753  1.00  0.00     0.049 A 
ATOM     61  H   UNL A   1      43.903  29.877  28.597  1.00  0.00     0.167 HD
ATOM     62  C   UNL A   1      42.848  32.201  29.829  1.00  0.00     0.074 A 
ATOM     63  C   UNL A   1      41.960  33.076  30.568  1.00  0.00     0.031 C 
ATOM     64  C   UNL A   1      44.101  32.541  29.436  1.00  0.00     0.034 A 
BRANCH  51  65
ATOM     65  C   UNL A   1      47.219  27.957  26.710  1.00  0.00     0.023 A 
ATOM     66  C   UNL A   1      48.263  27.525  27.556  1.00  0.00     0.012 A 
ATOM     67  C   UNL A   1      47.386  27.885  25.314  1.00  0.00     0.148 A 
ATOM     68  C   UNL A   1      49.464  27.063  27.022  1.00  0.00     0.002 A 
ATOM     69  C   UNL A   1      48.572  27.382  24.790  1.00  0.00     0.091 A 
ATOM     70  F   UNL A   1      46.393  28.322  24.526  1.00  0.00    -0.205 F 
ATOM     71  C   UNL A   1      49.615  26.981  25.641  1.00  0.00     0.022 A 
BRANCH  69  72
ATOM     72  S   UNL A   1      48.834  27.167  23.025  1.00  0.00     0.127 S 
ATOM     73  O   UNL A   1      50.294  27.195  22.940  1.00  0.00    -0.237 OA
ATOM     74  O   UNL A   1      48.235  25.854  22.782  1.00  0.00    -0.237 OA
ATOM     75  O   UNL A   1      48.146  28.275  22.380  1.00  0.00    -0.744 OA
ENDBRANCH  69  72
ENDBRANCH  51  65
BRANCH  52  76
ATOM     76  C   UNL A   1      38.577  30.579  30.981  1.00  0.00     0.023 A 
ATOM     77  C   UNL A   1      38.419  30.305  32.353  1.00  0.00     0.012 A 
ATOM     78  C   UNL A   1      37.545  31.240  30.289  1.00  0.00     0.148 A 
ATOM     79  C   UNL A   1      37.242  30.654  33.017  1.00  0.00     0.002 A 
ATOM     80  C   UNL A   1      36.398  31.633  30.968  1.00  0.00     0.091 A 
ATOM     81  F   UNL A   1      37.708  31.480  28.979  1.00  0.00    -0.205 F 
ATOM     82  C   UNL A   1      36.237  31.327  32.329  1.00  0.00     0.022 A 
BRANCH  80  83
ATOM     83  S   UNL A   1      35.112  32.621  30.194  1.00  0.00     0.127 S 
ATOM     84  O   UNL A   1      34.165  32.794  31.293  1.00  0.00    -0.237 OA
ATOM     85  O   UNL A   1      35.845  33.830  29.815  1.00  0.00    -0.237 OA
ATOM     86  O   UNL A   1      34.640  31.830  29.065  1.00  0.00    -0.744 OA
ENDBRANCH  80  83
ENDBRANCH  52  76
BRANCH  64  87
ATOM     87  C   UNL A   1      44.586  33.927  29.765  1.00  0.00     0.023 A 
ATOM     88  C   UNL A   1      45.324  34.145  30.945  1.00  0.00     0.012 A 
ATOM     89  C   UNL A   1      44.391  34.992  28.864  1.00  0.00     0.148 A 
ATOM     90  C   UNL A   1      45.839  35.408  31.235  1.00  0.00     0.002 A 
ATOM     91  C   UNL A   1      44.946  36.236  29.136  1.00  0.00     0.091 A 
ATOM     92  F   UNL A   1      43.670  34.766  27.755  1.00  0.00    -0.205 F 
ATOM     93  C   UNL A   1      45.662  36.449  30.326  1.00  0.00     0.022 A 
BRANCH  91  94
ATOM     94  S   UNL A   1      44.850  37.608  27.980  1.00  0.00     0.127 S 
ATOM     95  O   UNL A   1      45.566  38.657  28.705  1.00  0.00    -0.237 OA
ATOM     96  O   UNL A   1      45.559  37.081  26.814  1.00  0.00    -0.237 OA
ATOM     97  O   UNL A   1      43.431  37.854  27.766  1.00  0.00    -0.744 OA
ENDBRANCH  91  94
ENDBRANCH  64  87
ENDBRANCH  38  39
ENDBRANCH  30  33
ENDBRANCH  28  29
ENDBRANCH   1  28
TORSDOF 17
ENDMDL
MODEL 2
REMARK VINA RESULT:     -12.4      2.300      2.718
REMARK SMILES CS(=O)(=O)c1ccc(N2N=C(C(=O)NCCCCNC(=O)c3ccc(-c4c5nc(c(-c6cccc(S(=O)(=O)[O-])c6F)c6ccc([nH]6)c(-c6cccc(S(=O)(=O)[O-])c6F)c6nc(c(-c7cccc(S(=O)(=O)[O-])c7F)c7ccc4[nH]7)C=C6)C=C5)cc3)C[C@H]2c2ccco2)cc1
REMARK SMILES IDX 17 1 16 2 15 3 14 4 12 5 13 6 11 8 9 9 10 10 86 11 85 12
REMARK SMILES IDX 8 13 5 14 6 15 93 16 7 17 92 18 2 19 1 20 3 21 4 22 87 23
REMARK SMILES IDX 88 24 91 25 89 26 90 27 18 28 19 29 20 30 21 32 22 33 23 34
REMARK SMILES IDX 84 35 24 36 83 37 25 38 26 39 27 40 77 41 28 42 82 43 76 44
REMARK SMILES IDX 78 45 29 46 81 47 75 48 74 49 30 51 62 52 42 53 61 54 43 55
REMARK SMILES IDX 46 56 60 57 79 58 44 59 45 60 59 62 80 63 47 64 31 65 32 66
REMARK SMILES IDX 40 67 33 68 35 69 41 70 34 71 36 72 37 73 38 74 39 75 63 76
REMARK SMILES IDX 64 77 72 78 65 79 67 80 73 81 66 82 68 83 69 84 70 85 71 86
REMARK SMILES IDX 48 87 49 88 57 89 50 90 52 91 58 92 51 93 53 94 54 95 55 96
REMARK SMILES IDX 56 97
REMARK H PARENT 14 7 19 31 78 50 46 61
REMARK Flexibility Score: inf
ROOT
ATOM      1  C   UNL A   1      35.674  23.405  25.577  1.00  0.00     0.023 C 
ENDROOT
BRANCH   1   2
ATOM      2  C   UNL A   1      35.676  22.855  24.152  1.00  0.00     0.023 C 
BRANCH   2   3
ATOM      3  C   UNL A   1      34.796  23.635  23.181  1.00  0.00     0.116 C 
BRANCH   3   4
ATOM      4  N   UNL A   1      33.527  22.970  22.957  1.00  0.00    -0.351 N 
ATOM      5  C   UNL A   1      32.223  23.242  23.290  1.00  0.00     0.267 C 
ATOM      6  O   UNL A   1      31.369  22.414  22.986  1.00  0.00    -0.268 OA
ATOM      7  H   UNL A   1      33.622  22.130  22.451  1.00  0.00     0.163 HD
BRANCH   5   8
ATOM      8  C   UNL A   1      31.768  24.523  23.975  1.00  0.00     0.128 C 
ATOM      9  N   UNL A   1      31.038  26.517  24.160  1.00  0.00    -0.254 N 
ATOM     10  N   UNL A   1      31.163  25.464  23.310  1.00  0.00    -0.171 NA
ATOM     11  C   UNL A   1      31.389  26.211  25.546  1.00  0.00     0.180 C 
ATOM     12  C   UNL A   1      32.006  24.816  25.417  1.00  0.00     0.099 C 
BRANCH   9  13
ATOM     13  C   UNL A   1      30.312  27.638  23.789  1.00  0.00     0.060 A 
ATOM     14  C   UNL A   1      28.865  29.949  23.139  1.00  0.00     0.067 A 
ATOM     15  C   UNL A   1      28.258  28.698  23.015  1.00  0.00     0.022 A 
ATOM     16  C   UNL A   1      30.198  30.058  23.534  1.00  0.00     0.022 A 
ATOM     17  C   UNL A   1      28.990  27.547  23.333  1.00  0.00     0.029 A 
ATOM     18  C   UNL A   1      30.908  28.905  23.858  1.00  0.00     0.029 A 
BRANCH  14  19
ATOM     19  S   UNL A   1      27.960  31.433  22.790  1.00  0.00     0.175 S 
ATOM     20  C   UNL A   1      29.146  32.709  23.129  1.00  0.00     0.163 C 
ATOM     21  O   UNL A   1      26.893  31.557  23.766  1.00  0.00    -0.224 OA
ATOM     22  O   UNL A   1      27.678  31.451  21.368  1.00  0.00    -0.224 OA
ENDBRANCH  14  19
ENDBRANCH   9  13
BRANCH  11  23
ATOM     23  C   UNL A   1      32.284  27.179  26.266  1.00  0.00     0.128 A 
ATOM     24  C   UNL A   1      32.065  28.062  27.307  1.00  0.00     0.048 A 
ATOM     25  O   UNL A   1      33.589  27.269  25.868  1.00  0.00    -0.467 OA
ATOM     26  C   UNL A   1      33.292  28.730  27.539  1.00  0.00     0.042 A 
ATOM     27  C   UNL A   1      34.191  28.201  26.645  1.00  0.00     0.195 A 
ENDBRANCH  11  23
ENDBRANCH   5   8
ENDBRANCH   3   4
ENDBRANCH   2   3
ENDBRANCH   1   2
BRANCH   1  28
ATOM     28  C   UNL A   1      37.051  23.728  26.153  1.00  0.00     0.116 C 
BRANCH  28  29
ATOM     29  N   UNL A   1      37.955  22.583  26.181  1.00  0.00    -0.352 N 
ATOM     30  C   UNL A   1      39.304  22.564  26.445  1.00  0.00     0.251 C 
ATOM     31  H   UNL A   1      37.543  21.709  25.987  1.00  0.00     0.163 HD
ATOM     32  O   UNL A   1      39.946  21.525  26.335  1.00  0.00    -0.269 OA
BRANCH  30  33
ATOM     33  C   UNL A   1      39.973  23.824  26.824  1.00  0.00     0.039 A 
ATOM     34  C   UNL A   1      40.221  24.783  25.839  1.00  0.00     0.014 A 
ATOM     35  C   UNL A   1      40.269  24.086  28.164  1.00  0.00     0.014 A 
ATOM     36  C   UNL A   1      40.689  26.044  26.212  1.00  0.00     0.010 A 
ATOM     37  C   UNL A   1      40.665  25.363  28.539  1.00  0.00     0.010 A 
ATOM     38  C   UNL A   1      40.868  26.359  27.570  1.00  0.00    -0.014 A 
BRANCH  38  39
ATOM     39  C   UNL A   1      41.224  27.731  28.010  1.00  0.00     0.031 A 
ATOM     40  C   UNL A   1      42.667  28.145  28.091  1.00  0.00     0.074 A 
ATOM     41  C   UNL A   1      40.256  28.561  28.447  1.00  0.00     0.049 A 
ATOM     42  N   UNL A   1      43.180  29.258  28.546  1.00  0.00    -0.248 NA
ATOM     43  C   UNL A   1      43.667  27.168  27.629  1.00  0.00     0.031 C 
ATOM     44  C   UNL A   1      38.827  28.244  28.495  1.00  0.00     0.029 A 
ATOM     45  N   UNL A   1      40.331  29.829  28.969  1.00  0.00    -0.354 N 
ATOM     46  C   UNL A   1      44.558  29.102  28.463  1.00  0.00     0.074 A 
ATOM     47  C   UNL A   1      44.803  27.775  27.942  1.00  0.00     0.031 C 
ATOM     48  C   UNL A   1      38.161  29.287  29.017  1.00  0.00     0.029 A 
ATOM     49  C   UNL A   1      39.115  30.333  29.371  1.00  0.00     0.049 A 
ATOM     50  H   UNL A   1      41.175  30.329  29.048  1.00  0.00     0.167 HD
ATOM     51  C   UNL A   1      45.531  29.995  28.763  1.00  0.00     0.034 A 
ATOM     52  C   UNL A   1      38.805  31.501  29.967  1.00  0.00     0.034 A 
ATOM     53  C   UNL A   1      45.282  31.330  29.231  1.00  0.00     0.049 A 
ATOM     54  C   UNL A   1      39.903  32.488  30.255  1.00  0.00     0.074 A 
ATOM     55  C   UNL A   1      46.195  32.341  29.469  1.00  0.00     0.029 A 
ATOM     56  N   UNL A   1      44.030  31.839  29.540  1.00  0.00    -0.354 N 
ATOM     57  N   UNL A   1      41.187  32.387  30.012  1.00  0.00    -0.248 NA
ATOM     58  C   UNL A   1      39.507  33.764  30.869  1.00  0.00     0.031 C 
ATOM     59  C   UNL A   1      45.496  33.459  29.938  1.00  0.00     0.029 A 
ATOM     60  C   UNL A   1      44.147  33.149  29.975  1.00  0.00     0.049 A 
ATOM     61  H   UNL A   1      43.184  31.344  29.461  1.00  0.00     0.167 HD
ATOM     62  C   UNL A   1      41.748  33.594  30.412  1.00  0.00     0.074 A 
ATOM     63  C   UNL A   1      40.660  34.420  30.895  1.00  0.00     0.031 C 
ATOM     64  C   UNL A   1      43.048  33.979  30.398  1.00  0.00     0.034 A 
BRANCH  51  65
ATOM     65  C   UNL A   1      46.958  29.574  28.530  1.00  0.00     0.023 A 
ATOM     66  C   UNL A   1      47.549  29.802  27.269  1.00  0.00     0.012 A 
ATOM     67  C   UNL A   1      47.729  29.008  29.564  1.00  0.00     0.148 A 
ATOM     68  C   UNL A   1      48.873  29.441  27.030  1.00  0.00     0.002 A 
ATOM     69  C   UNL A   1      49.062  28.691  29.329  1.00  0.00     0.091 A 
ATOM     70  F   UNL A   1      47.144  28.777  30.747  1.00  0.00    -0.205 F 
ATOM     71  C   UNL A   1      49.633  28.896  28.062  1.00  0.00     0.022 A 
BRANCH  69  72
ATOM     72  S   UNL A   1      50.145  28.054  30.614  1.00  0.00     0.127 S 
ATOM     73  O   UNL A   1      50.016  29.085  31.644  1.00  0.00    -0.237 OA
ATOM     74  O   UNL A   1      49.512  26.777  30.947  1.00  0.00    -0.237 OA
ATOM     75  O   UNL A   1      51.462  27.937  30.005  1.00  0.00    -0.744 OA
ENDBRANCH  69  72
ENDBRANCH  51  65
BRANCH  52  76
ATOM     76  C   UNL A   1      37.382  31.830  30.267  1.00  0.00     0.023 A 
ATOM     77  C   UNL A   1      36.903  31.669  31.582  1.00  0.00     0.012 A 
ATOM     78  C   UNL A   1      36.515  32.329  29.277  1.00  0.00     0.148 A 
ATOM     79  C   UNL A   1      35.578  31.971  31.898  1.00  0.00     0.002 A 
ATOM     80  C   UNL A   1      35.212  32.678  29.611  1.00  0.00     0.091 A 
ATOM     81  F   UNL A   1      36.986  32.462  28.028  1.00  0.00    -0.205 F 
ATOM     82  C   UNL A   1      34.736  32.485  30.917  1.00  0.00     0.022 A 
BRANCH  80  83
ATOM     83  S   UNL A   1      34.100  33.472  28.443  1.00  0.00     0.127 S 
ATOM     84  O   UNL A   1      33.483  32.322  27.788  1.00  0.00    -0.237 OA
ATOM     85  O   UNL A   1      33.214  34.225  29.332  1.00  0.00    -0.237 OA
ATOM     86  O   UNL A   1      34.949  34.305  27.601  1.00  0.00    -0.744 OA
ENDBRANCH  80  83
ENDBRANCH  52  76
BRANCH  64  87
ATOM     87  C   UNL A   1      43.376  35.363  30.890  1.00  0.00     0.023 A 
ATOM     88  C   UNL A   1      43.723  35.559  32.241  1.00  0.00     0.012 A 
ATOM     89  C   UNL A   1      43.428  36.451  29.997  1.00  0.00     0.148 A 
ATOM     90  C   UNL A   1      44.093  36.821  32.701  1.00  0.00     0.002 A 
ATOM     91  C   UNL A   1      43.843  37.696  30.452  1.00  0.00     0.091 A 
ATOM     92  F   UNL A   1      43.076  36.246  28.718  1.00  0.00    -0.205 F 
ATOM     93  C   UNL A   1      44.166  37.886  31.806  1.00  0.00     0.022 A 
BRANCH  91  94
ATOM     94  S   UNL A   1      44.058  39.102  29.354  1.00  0.00     0.127 S 
ATOM     95  O   UNL A   1      44.998  38.569  28.369  1.00  0.00    -0.237 OA
ATOM     96  O   UNL A   1      42.701  39.311  28.849  1.00  0.00    -0.237 OA
ATOM     97  O   UNL A   1      44.569  40.185  30.182  1.00  0.00    -0.744 OA
ENDBRANCH  91  94
ENDBRANCH  64  87
ENDBRANCH  38  39
ENDBRANCH  30  33
ENDBRANCH  28  29
ENDBRANCH   1  28
TORSDOF 17
ENDMDL
MODEL 3
REMARK VINA RESULT:     -11.4      4.652      8.160
REMARK SMILES CS(=O)(=O)c1ccc(N2N=C(C(=O)NCCCCNC(=O)c3ccc(-c4c5nc(c(-c6cccc(S(=O)(=O)[O-])c6F)c6ccc([nH]6)c(-c6cccc(S(=O)(=O)[O-])c6F)c6nc(c(-c7cccc(S(=O)(=O)[O-])c7F)c7ccc4[nH]7)C=C6)C=C5)cc3)C[C@H]2c2ccco2)cc1
REMARK SMILES IDX 17 1 16 2 15 3 14 4 12 5 13 6 11 8 9 9 10 10 86 11 85 12
REMARK SMILES IDX 8 13 5 14 6 15 93 16 7 17 92 18 2 19 1 20 3 21 4 22 87 23
REMARK SMILES IDX 88 24 91 25 89 26 90 27 18 28 19 29 20 30 21 32 22 33 23 34
REMARK SMILES IDX 84 35 24 36 83 37 25 38 26 39 27 40 77 41 28 42 82 43 76 44
REMARK SMILES IDX 78 45 29 46 81 47 75 48 74 49 30 51 62 52 42 53 61 54 43 55
REMARK SMILES IDX 46 56 60 57 79 58 44 59 45 60 59 62 80 63 47 64 31 65 32 66
REMARK SMILES IDX 40 67 33 68 35 69 41 70 34 71 36 72 37 73 38 74 39 75 63 76
REMARK SMILES IDX 64 77 72 78 65 79 67 80 73 81 66 82 68 83 69 84 70 85 71 86
REMARK SMILES IDX 48 87 49 88 57 89 50 90 52 91 58 92 51 93 53 94 54 95 55 96
REMARK SMILES IDX 56 97
REMARK H PARENT 14 7 19 31 78 50 46 61
REMARK Flexibility Score: inf
ROOT
ATOM      1  C   UNL A   1      42.506  20.034  25.854  1.00  0.00     0.023 C 
ENDROOT
BRANCH   1   2
ATOM      2  C   UNL A   1      43.537  21.132  25.599  1.00  0.00     0.023 C 
BRANCH   2   3
ATOM      3  C   UNL A   1      43.630  22.172  26.711  1.00  0.00     0.116 C 
BRANCH   3   4
ATOM      4  N   UNL A   1      44.983  22.669  26.866  1.00  0.00    -0.351 N 
ATOM      5  C   UNL A   1      45.631  23.426  27.811  1.00  0.00     0.267 C 
ATOM      6  O   UNL A   1      46.804  23.724  27.601  1.00  0.00    -0.268 OA
ATOM      7  H   UNL A   1      45.573  22.403  26.124  1.00  0.00     0.163 HD
BRANCH   5   8
ATOM      8  C   UNL A   1      44.998  23.884  29.117  1.00  0.00     0.128 C 
ATOM      9  N   UNL A   1      44.530  25.182  30.741  1.00  0.00    -0.254 N 
ATOM     10  N   UNL A   1      45.025  25.134  29.477  1.00  0.00    -0.171 NA
ATOM     11  C   UNL A   1      43.937  23.926  31.198  1.00  0.00     0.180 C 
ATOM     12  C   UNL A   1      44.348  22.958  30.087  1.00  0.00     0.099 C 
BRANCH   9  13
ATOM     13  C   UNL A   1      44.304  26.401  31.363  1.00  0.00     0.060 A 
ATOM     14  C   UNL A   1      43.831  28.810  32.715  1.00  0.00     0.067 A 
ATOM     15  C   UNL A   1      43.085  28.500  31.576  1.00  0.00     0.022 A 
ATOM     16  C   UNL A   1      44.843  27.958  33.157  1.00  0.00     0.022 A 
ATOM     17  C   UNL A   1      43.333  27.299  30.901  1.00  0.00     0.029 A 
ATOM     18  C   UNL A   1      45.068  26.762  32.480  1.00  0.00     0.029 A 
BRANCH  14  19
ATOM     19  S   UNL A   1      43.519  30.299  33.625  1.00  0.00     0.175 S 
ATOM     20  C   UNL A   1      44.774  30.267  34.879  1.00  0.00     0.163 C 
ATOM     21  O   UNL A   1      42.234  30.167  34.289  1.00  0.00    -0.224 OA
ATOM     22  O   UNL A   1      43.794  31.418  32.745  1.00  0.00    -0.224 OA
ENDBRANCH  14  19
ENDBRANCH   9  13
BRANCH  11  23
ATOM     23  C   UNL A   1      44.315  23.437  32.567  1.00  0.00     0.128 A 
ATOM     24  C   UNL A   1      45.523  23.361  33.235  1.00  0.00     0.048 A 
ATOM     25  O   UNL A   1      43.325  22.949  33.374  1.00  0.00    -0.467 OA
ATOM     26  C   UNL A   1      45.255  22.784  34.499  1.00  0.00     0.042 A 
ATOM     27  C   UNL A   1      43.899  22.564  34.538  1.00  0.00     0.195 A 
ENDBRANCH  11  23
ENDBRANCH   5   8
ENDBRANCH   3   4
ENDBRANCH   2   3
ENDBRANCH   1   2
BRANCH   1  28
ATOM     28  C   UNL A   1      41.399  20.397  26.841  1.00  0.00     0.116 C 
BRANCH  28  29
ATOM     29  N   UNL A   1      40.063  20.361  26.258  1.00  0.00    -0.352 N 
ATOM     30  C   UNL A   1      39.140  21.377  26.168  1.00  0.00     0.251 C 
ATOM     31  H   UNL A   1      39.785  19.495  25.878  1.00  0.00     0.163 HD
ATOM     32  O   UNL A   1      38.015  21.160  25.731  1.00  0.00    -0.269 OA
BRANCH  30  33
ATOM     33  C   UNL A   1      39.516  22.723  26.643  1.00  0.00     0.039 A 
ATOM     34  C   UNL A   1      40.391  22.840  27.725  1.00  0.00     0.014 A 
ATOM     35  C   UNL A   1      39.071  23.858  25.960  1.00  0.00     0.014 A 
ATOM     36  C   UNL A   1      40.892  24.097  28.070  1.00  0.00     0.010 A 
ATOM     37  C   UNL A   1      39.625  25.096  26.259  1.00  0.00     0.010 A 
ATOM     38  C   UNL A   1      40.550  25.227  27.308  1.00  0.00    -0.014 A 
BRANCH  38  39
ATOM     39  C   UNL A   1      41.175  26.550  27.557  1.00  0.00     0.031 A 
ATOM     40  C   UNL A   1      42.588  26.812  27.115  1.00  0.00     0.074 A 
ATOM     41  C   UNL A   1      40.511  27.471  28.284  1.00  0.00     0.049 A 
ATOM     42  N   UNL A   1      43.337  27.861  27.330  1.00  0.00    -0.248 NA
ATOM     43  C   UNL A   1      43.257  25.741  26.357  1.00  0.00     0.031 C 
ATOM     44  C   UNL A   1      39.166  27.304  28.839  1.00  0.00     0.029 A 
ATOM     45  N   UNL A   1      40.892  28.719  28.712  1.00  0.00    -0.354 N 
ATOM     46  C   UNL A   1      44.574  27.564  26.773  1.00  0.00     0.074 A 
ATOM     47  C   UNL A   1      44.485  26.224  26.235  1.00  0.00     0.031 C 
ATOM     48  C   UNL A   1      38.835  28.404  29.534  1.00  0.00     0.029 A 
ATOM     49  C   UNL A   1      39.953  29.343  29.501  1.00  0.00     0.049 A 
ATOM     50  H   UNL A   1      41.755  29.129  28.476  1.00  0.00     0.167 HD
ATOM     51  C   UNL A   1      45.675  28.348  26.687  1.00  0.00     0.034 A 
ATOM     52  C   UNL A   1      39.992  30.530  30.137  1.00  0.00     0.034 A 
ATOM     53  C   UNL A   1      45.742  29.697  27.177  1.00  0.00     0.049 A 
ATOM     54  C   UNL A   1      41.214  31.395  29.994  1.00  0.00     0.074 A 
ATOM     55  C   UNL A   1      46.778  30.605  27.052  1.00  0.00     0.029 A 
ATOM     56  N   UNL A   1      44.737  30.330  27.893  1.00  0.00    -0.354 N 
ATOM     57  N   UNL A   1      42.314  31.164  29.318  1.00  0.00    -0.248 NA
ATOM     58  C   UNL A   1      41.191  32.699  30.674  1.00  0.00     0.031 C 
ATOM     59  C   UNL A   1      46.404  31.784  27.706  1.00  0.00     0.029 A 
ATOM     60  C   UNL A   1      45.131  31.615  28.223  1.00  0.00     0.049 A 
ATOM     61  H   UNL A   1      43.872  29.925  28.129  1.00  0.00     0.167 HD
ATOM     62  C   UNL A   1      43.098  32.303  29.463  1.00  0.00     0.074 A 
ATOM     63  C   UNL A   1      42.339  33.232  30.275  1.00  0.00     0.031 C 
ATOM     64  C   UNL A   1      44.341  32.551  28.983  1.00  0.00     0.034 A 
BRANCH  51  65
ATOM     65  C   UNL A   1      46.879  27.784  25.980  1.00  0.00     0.023 A 
ATOM     66  C   UNL A   1      47.783  26.972  26.696  1.00  0.00     0.012 A 
ATOM     67  C   UNL A   1      47.088  28.007  24.606  1.00  0.00     0.148 A 
ATOM     68  C   UNL A   1      48.896  26.420  26.064  1.00  0.00     0.002 A 
ATOM     69  C   UNL A   1      48.177  27.418  23.974  1.00  0.00     0.091 A 
ATOM     70  F   UNL A   1      46.232  28.800  23.947  1.00  0.00    -0.205 F 
ATOM     71  C   UNL A   1      49.087  26.634  24.702  1.00  0.00     0.022 A 
BRANCH  69  72
ATOM     72  S   UNL A   1      48.469  27.571  22.207  1.00  0.00     0.127 S 
ATOM     73  O   UNL A   1      49.637  28.451  22.178  1.00  0.00    -0.237 OA
ATOM     74  O   UNL A   1      48.739  26.187  21.817  1.00  0.00    -0.237 OA
ATOM     75  O   UNL A   1      47.247  28.131  21.647  1.00  0.00    -0.744 OA
ENDBRANCH  69  72
ENDBRANCH  51  65
BRANCH  52  76
ATOM     76  C   UNL A   1      38.807  31.002  30.909  1.00  0.00     0.023 A 
ATOM     77  C   UNL A   1      38.812  30.887  32.313  1.00  0.00     0.012 A 
ATOM     78  C   UNL A   1      37.697  31.589  30.272  1.00  0.00     0.148 A 
ATOM     79  C   UNL A   1      37.721  31.321  33.066  1.00  0.00     0.002 A 
ATOM     80  C   UNL A   1      36.637  32.068  31.033  1.00  0.00     0.091 A 
ATOM     81  F   UNL A   1      37.704  31.676  28.934  1.00  0.00    -0.205 F 
ATOM     82  C   UNL A   1      36.639  31.921  32.429  1.00  0.00     0.022 A 
BRANCH  80  83
ATOM     83  S   UNL A   1      35.265  32.974  30.307  1.00  0.00     0.127 S 
ATOM     84  O   UNL A   1      35.954  34.072  29.635  1.00  0.00    -0.237 OA
ATOM     85  O   UNL A   1      34.679  31.973  29.414  1.00  0.00    -0.237 OA
ATOM     86  O   UNL A   1      34.410  33.349  31.427  1.00  0.00    -0.744 OA
ENDBRANCH  80  83
ENDBRANCH  52  76
BRANCH  64  87
ATOM     87  C   UNL A   1      44.959  33.889  29.291  1.00  0.00     0.023 A 
ATOM     88  C   UNL A   1      45.602  34.091  30.528  1.00  0.00     0.012 A 
ATOM     89  C   UNL A   1      44.981  34.911  28.323  1.00  0.00     0.148 A 
ATOM     90  C   UNL A   1      46.236  35.300  30.805  1.00  0.00     0.002 A 
ATOM     91  C   UNL A   1      45.655  36.097  28.588  1.00  0.00     0.091 A 
ATOM     92  F   UNL A   1      44.346  34.704  27.159  1.00  0.00    -0.205 F 
ATOM     93  C   UNL A   1      46.274  36.297  29.833  1.00  0.00     0.022 A 
BRANCH  91  94
ATOM     94  S   UNL A   1      45.837  37.398  27.363  1.00  0.00     0.127 S 
ATOM     95  O   UNL A   1      44.475  37.925  27.285  1.00  0.00    -0.237 OA
ATOM     96  O   UNL A   1      46.802  38.293  28.002  1.00  0.00    -0.237 OA
ATOM     97  O   UNL A   1      46.324  36.746  26.155  1.00  0.00    -0.744 OA
ENDBRANCH  91  94
ENDBRANCH  64  87
ENDBRANCH  38  39
ENDBRANCH  30  33
ENDBRANCH  28  29
ENDBRANCH   1  28
TORSDOF 17
ENDMDL
