MODEL 1
REMARK VINA RESULT:     -11.5      0.000      0.000
REMARK SMILES COc1cc(/C=C/C(=O)NCCCCNC(=O)c2ccc(-c3c4nc(c(-c5cccc(S(=O)(=O)[O-])c5F)c5ccc([nH]5)c(-c5cccc(S(=O)(=O)[O-])c5F)c5nc(c(-c6cccc(S(=O)(=O)[O-])c6F)c6ccc3[nH]6)C=C5)C=C4)cc2)cc(OC)c1O
REMARK SMILES IDX 13 1 12 2 11 3 10 4 8 5 9 6 7 8 6 9 5 10 3 11 4 12 85 13
REMARK SMILES IDX 82 14 81 15 2 16 1 17 86 18 83 20 84 21 14 22 15 23 16 24
REMARK SMILES IDX 17 26 18 27 19 28 80 29 20 30 79 31 21 32 22 33 23 34 73 35
REMARK SMILES IDX 24 36 78 37 72 38 74 39 25 40 77 41 71 42 70 43 26 45 58 46
REMARK SMILES IDX 38 47 57 48 39 49 42 50 56 51 75 52 40 53 41 54 55 56 76 57
REMARK SMILES IDX 43 58 27 59 28 60 36 61 29 62 31 63 37 64 30 65 32 66 33 67
REMARK SMILES IDX 34 68 35 69 59 70 60 71 68 72 61 73 63 74 69 75 62 76 64 77
REMARK SMILES IDX 65 78 66 79 67 80 44 81 45 82 53 83 46 84 48 85 54 86 47 87
REMARK SMILES IDX 49 88 50 89 51 90 52 91
REMARK H PARENT 10 7 86 19 15 25 74 44 42 55
REMARK Flexibility Score: inf
ROOT
ATOM      1  C   UNL A   1      35.616  21.475  24.608  1.00  0.00     0.023 C 
ENDROOT
BRANCH   1   2
ATOM      2  C   UNL A   1      34.621  20.361  24.949  1.00  0.00     0.023 C 
BRANCH   2   3
ATOM      3  C   UNL A   1      33.191  20.839  25.200  1.00  0.00     0.116 C 
BRANCH   3   4
ATOM      4  N   UNL A   1      32.989  21.184  26.596  1.00  0.00    -0.353 N 
ATOM      5  C   UNL A   1      33.113  22.373  27.241  1.00  0.00     0.243 C 
ATOM      6  O   UNL A   1      32.785  22.467  28.422  1.00  0.00    -0.270 OA
ATOM      7  H   UNL A   1      32.719  20.431  27.169  1.00  0.00     0.163 HD
BRANCH   5   8
ATOM      8  C   UNL A   1      33.563  23.594  26.532  1.00  0.00     0.072 C 
ATOM      9  C   UNL A   1      32.763  24.398  25.818  1.00  0.00     0.014 C 
BRANCH   9  10
ATOM     10  C   UNL A   1      33.234  25.565  25.062  1.00  0.00    -0.018 A 
ATOM     11  C   UNL A   1      33.705  26.703  22.966  1.00  0.00     0.165 A 
ATOM     12  C   UNL A   1      33.375  25.541  23.671  1.00  0.00     0.058 A 
ATOM     13  C   UNL A   1      33.865  27.915  23.657  1.00  0.00     0.200 A 
ATOM     14  C   UNL A   1      33.775  27.950  25.055  1.00  0.00     0.165 A 
ATOM     15  C   UNL A   1      33.451  26.770  25.740  1.00  0.00     0.058 A 
BRANCH  11  16
ATOM     16  O   UNL A   1      33.733  26.555  21.603  1.00  0.00    -0.493 OA
ATOM     17  C   UNL A   1      32.729  25.719  21.033  1.00  0.00     0.278 C 
ENDBRANCH  11  16
BRANCH  13  18
ATOM     18  O   UNL A   1      34.001  29.077  22.946  1.00  0.00    -0.502 OA
ATOM     19  H   UNL A   1      34.856  29.414  22.758  1.00  0.00     0.293 HD
ENDBRANCH  13  18
BRANCH  14  20
ATOM     20  O   UNL A   1      33.901  29.027  25.891  1.00  0.00    -0.493 OA
ATOM     21  C   UNL A   1      34.076  28.793  27.280  1.00  0.00     0.278 C 
ENDBRANCH  14  20
ENDBRANCH   9  10
ENDBRANCH   5   8
ENDBRANCH   3   4
ENDBRANCH   2   3
ENDBRANCH   1   2
BRANCH   1  22
ATOM     22  C   UNL A   1      36.719  21.707  25.637  1.00  0.00     0.116 C 
BRANCH  22  23
ATOM     23  N   UNL A   1      37.747  20.675  25.626  1.00  0.00    -0.352 N 
ATOM     24  C   UNL A   1      39.072  20.778  25.984  1.00  0.00     0.251 C 
ATOM     25  H   UNL A   1      37.455  19.786  25.322  1.00  0.00     0.163 HD
ATOM     26  O   UNL A   1      39.829  19.831  25.824  1.00  0.00    -0.269 OA
BRANCH  24  27
ATOM     27  C   UNL A   1      39.577  22.058  26.528  1.00  0.00     0.039 A 
ATOM     28  C   UNL A   1      40.577  22.024  27.503  1.00  0.00     0.014 A 
ATOM     29  C   UNL A   1      39.095  23.278  26.049  1.00  0.00     0.014 A 
ATOM     30  C   UNL A   1      41.148  23.219  27.946  1.00  0.00     0.010 A 
ATOM     31  C   UNL A   1      39.708  24.464  26.446  1.00  0.00     0.010 A 
ATOM     32  C   UNL A   1      40.745  24.445  27.390  1.00  0.00    -0.014 A 
BRANCH  32  33
ATOM     33  C   UNL A   1      41.429  25.713  27.749  1.00  0.00     0.031 A 
ATOM     34  C   UNL A   1      40.699  26.786  28.507  1.00  0.00     0.074 A 
ATOM     35  C   UNL A   1      42.678  25.938  27.296  1.00  0.00     0.049 A 
ATOM     36  N   UNL A   1      41.113  27.976  28.854  1.00  0.00    -0.248 NA
ATOM     37  C   UNL A   1      39.311  26.494  28.905  1.00  0.00     0.031 C 
ATOM     38  C   UNL A   1      43.459  25.011  26.472  1.00  0.00     0.029 A 
ATOM     39  N   UNL A   1      43.501  27.028  27.436  1.00  0.00    -0.354 N 
ATOM     40  C   UNL A   1      40.034  28.589  29.478  1.00  0.00     0.074 A 
ATOM     41  C   UNL A   1      38.934  27.648  29.437  1.00  0.00     0.031 C 
ATOM     42  C   UNL A   1      44.643  25.571  26.181  1.00  0.00     0.029 A 
ATOM     43  C   UNL A   1      44.700  26.903  26.775  1.00  0.00     0.049 A 
ATOM     44  H   UNL A   1      43.255  27.825  27.960  1.00  0.00     0.167 HD
ATOM     45  C   UNL A   1      39.972  29.809  30.060  1.00  0.00     0.034 A 
ATOM     46  C   UNL A   1      45.730  27.764  26.657  1.00  0.00     0.034 A 
ATOM     47  C   UNL A   1      41.081  30.721  30.142  1.00  0.00     0.049 A 
ATOM     48  C   UNL A   1      45.655  29.092  27.360  1.00  0.00     0.074 A 
ATOM     49  C   UNL A   1      41.148  31.938  30.797  1.00  0.00     0.029 A 
ATOM     50  N   UNL A   1      42.317  30.519  29.547  1.00  0.00    -0.354 N 
ATOM     51  N   UNL A   1      44.687  29.581  28.096  1.00  0.00    -0.248 NA
ATOM     52  C   UNL A   1      46.828  29.971  27.248  1.00  0.00     0.031 C 
ATOM     53  C   UNL A   1      42.422  32.478  30.586  1.00  0.00     0.029 A 
ATOM     54  C   UNL A   1      43.152  31.590  29.812  1.00  0.00     0.049 A 
ATOM     55  H   UNL A   1      42.564  29.729  29.014  1.00  0.00     0.167 HD
ATOM     56  C   UNL A   1      45.145  30.809  28.563  1.00  0.00     0.074 A 
ATOM     57  C   UNL A   1      46.487  30.977  28.044  1.00  0.00     0.031 C 
ATOM     58  C   UNL A   1      44.505  31.720  29.335  1.00  0.00     0.034 A 
BRANCH  45  59
ATOM     59  C   UNL A   1      38.676  30.205  30.717  1.00  0.00     0.023 A 
ATOM     60  C   UNL A   1      38.433  29.820  32.052  1.00  0.00     0.012 A 
ATOM     61  C   UNL A   1      37.729  31.003  30.045  1.00  0.00     0.148 A 
ATOM     62  C   UNL A   1      37.255  30.194  32.697  1.00  0.00     0.002 A 
ATOM     63  C   UNL A   1      36.576  31.407  30.709  1.00  0.00     0.091 A 
ATOM     64  F   UNL A   1      37.966  31.341  28.770  1.00  0.00    -0.205 F 
ATOM     65  C   UNL A   1      36.333  30.995  32.030  1.00  0.00     0.022 A 
BRANCH  63  66
ATOM     66  S   UNL A   1      35.363  32.501  29.962  1.00  0.00     0.127 S 
ATOM     67  O   UNL A   1      34.377  32.625  31.034  1.00  0.00    -0.237 OA
ATOM     68  O   UNL A   1      36.147  33.711  29.714  1.00  0.00    -0.237 OA
ATOM     69  O   UNL A   1      34.900  31.823  28.760  1.00  0.00    -0.744 OA
ENDBRANCH  63  66
ENDBRANCH  45  59
BRANCH  46  70
ATOM     70  C   UNL A   1      46.953  27.362  25.907  1.00  0.00     0.023 A 
ATOM     71  C   UNL A   1      47.925  26.573  26.551  1.00  0.00     0.012 A 
ATOM     72  C   UNL A   1      47.142  27.719  24.559  1.00  0.00     0.148 A 
ATOM     73  C   UNL A   1      49.077  26.170  25.876  1.00  0.00     0.002 A 
ATOM     74  C   UNL A   1      48.266  27.270  23.874  1.00  0.00     0.091 A 
ATOM     75  F   UNL A   1      46.212  28.483  23.967  1.00  0.00    -0.205 F 
ATOM     76  C   UNL A   1      49.242  26.509  24.535  1.00  0.00     0.022 A 
BRANCH  74  77
ATOM     77  S   UNL A   1      48.492  27.547  22.114  1.00  0.00     0.127 S 
ATOM     78  O   UNL A   1      49.679  28.397  22.094  1.00  0.00    -0.237 OA
ATOM     79  O   UNL A   1      48.699  26.186  21.616  1.00  0.00    -0.237 OA
ATOM     80  O   UNL A   1      47.256  28.167  21.656  1.00  0.00    -0.744 OA
ENDBRANCH  74  77
ENDBRANCH  46  70
BRANCH  58  81
ATOM     81  C   UNL A   1      45.252  32.978  29.694  1.00  0.00     0.023 A 
ATOM     82  C   UNL A   1      46.066  32.999  30.843  1.00  0.00     0.012 A 
ATOM     83  C   UNL A   1      45.208  34.108  28.854  1.00  0.00     0.148 A 
ATOM     84  C   UNL A   1      46.805  34.137  31.167  1.00  0.00     0.002 A 
ATOM     85  C   UNL A   1      45.982  35.222  29.159  1.00  0.00     0.091 A 
ATOM     86  F   UNL A   1      44.411  34.075  27.777  1.00  0.00    -0.205 F 
ATOM     87  C   UNL A   1      46.772  35.243  30.319  1.00  0.00     0.022 A 
BRANCH  85  88
ATOM     88  S   UNL A   1      46.071  36.653  28.075  1.00  0.00     0.127 S 
ATOM     89  O   UNL A   1      47.028  37.502  28.781  1.00  0.00    -0.237 OA
ATOM     90  O   UNL A   1      46.575  36.071  26.830  1.00  0.00    -0.237 OA
ATOM     91  O   UNL A   1      44.713  37.172  27.989  1.00  0.00    -0.744 OA
ENDBRANCH  85  88
ENDBRANCH  58  81
ENDBRANCH  32  33
ENDBRANCH  24  27
ENDBRANCH  22  23
ENDBRANCH   1  22
TORSDOF 18
ENDMDL
MODEL 2
REMARK VINA RESULT:     -11.4      2.158      7.998
REMARK SMILES COc1cc(/C=C/C(=O)NCCCCNC(=O)c2ccc(-c3c4nc(c(-c5cccc(S(=O)(=O)[O-])c5F)c5ccc([nH]5)c(-c5cccc(S(=O)(=O)[O-])c5F)c5nc(c(-c6cccc(S(=O)(=O)[O-])c6F)c6ccc3[nH]6)C=C5)C=C4)cc2)cc(OC)c1O
REMARK SMILES IDX 13 1 12 2 11 3 10 4 8 5 9 6 7 8 6 9 5 10 3 11 4 12 85 13
REMARK SMILES IDX 82 14 81 15 2 16 1 17 86 18 83 20 84 21 14 22 15 23 16 24
REMARK SMILES IDX 17 26 18 27 19 28 80 29 20 30 79 31 21 32 22 33 23 34 73 35
REMARK SMILES IDX 24 36 78 37 72 38 74 39 25 40 77 41 71 42 70 43 26 45 58 46
REMARK SMILES IDX 38 47 57 48 39 49 42 50 56 51 75 52 40 53 41 54 55 56 76 57
REMARK SMILES IDX 43 58 27 59 28 60 36 61 29 62 31 63 37 64 30 65 32 66 33 67
REMARK SMILES IDX 34 68 35 69 59 70 60 71 68 72 61 73 63 74 69 75 62 76 64 77
REMARK SMILES IDX 65 78 66 79 67 80 44 81 45 82 53 83 46 84 48 85 54 86 47 87
REMARK SMILES IDX 49 88 50 89 51 90 52 91
REMARK H PARENT 10 7 86 19 15 25 74 44 42 55
REMARK Flexibility Score: inf
ROOT
ATOM      1  C   UNL A   1      36.099  22.405  24.554  1.00  0.00     0.023 C 
ENDROOT
BRANCH   1   2
ATOM      2  C   UNL A   1      35.451  21.094  25.010  1.00  0.00     0.023 C 
BRANCH   2   3
ATOM      3  C   UNL A   1      33.923  21.118  25.044  1.00  0.00     0.116 C 
BRANCH   3   4
ATOM      4  N   UNL A   1      33.431  21.421  26.375  1.00  0.00    -0.353 N 
ATOM      5  C   UNL A   1      32.925  22.572  26.892  1.00  0.00     0.243 C 
ATOM      6  O   UNL A   1      32.461  22.580  28.031  1.00  0.00    -0.270 OA
ATOM      7  H   UNL A   1      33.472  20.669  27.009  1.00  0.00     0.163 HD
BRANCH   5   8
ATOM      8  C   UNL A   1      32.845  23.811  26.084  1.00  0.00     0.072 C 
ATOM      9  C   UNL A   1      33.739  24.809  26.129  1.00  0.00     0.014 C 
BRANCH   9  10
ATOM     10  C   UNL A   1      33.609  26.062  25.376  1.00  0.00    -0.018 A 
ATOM     11  C   UNL A   1      33.622  28.490  25.251  1.00  0.00     0.165 A 
ATOM     12  C   UNL A   1      33.621  27.311  26.004  1.00  0.00     0.058 A 
ATOM     13  C   UNL A   1      33.645  28.421  23.848  1.00  0.00     0.200 A 
ATOM     14  C   UNL A   1      33.585  27.180  23.200  1.00  0.00     0.165 A 
ATOM     15  C   UNL A   1      33.577  26.013  23.977  1.00  0.00     0.058 A 
BRANCH  11  16
ATOM     16  O   UNL A   1      33.715  29.640  25.992  1.00  0.00    -0.493 OA
ATOM     17  C   UNL A   1      34.456  29.557  27.207  1.00  0.00     0.278 C 
ENDBRANCH  11  16
BRANCH  13  18
ATOM     18  O   UNL A   1      33.835  29.568  23.126  1.00  0.00    -0.502 OA
ATOM     19  H   UNL A   1      33.962  29.522  22.198  1.00  0.00     0.293 HD
ENDBRANCH  13  18
BRANCH  14  20
ATOM     20  O   UNL A   1      33.596  26.918  21.856  1.00  0.00    -0.493 OA
ATOM     21  C   UNL A   1      32.903  25.775  21.380  1.00  0.00     0.278 C 
ENDBRANCH  14  20
ENDBRANCH   9  10
ENDBRANCH   5   8
ENDBRANCH   3   4
ENDBRANCH   2   3
ENDBRANCH   1   2
BRANCH   1  22
ATOM     22  C   UNL A   1      37.047  23.052  25.562  1.00  0.00     0.116 C 
BRANCH  22  23
ATOM     23  N   UNL A   1      38.169  22.200  25.930  1.00  0.00    -0.352 N 
ATOM     24  C   UNL A   1      39.359  22.555  26.526  1.00  0.00     0.251 C 
ATOM     25  H   UNL A   1      38.064  21.243  25.725  1.00  0.00     0.163 HD
ATOM     26  O   UNL A   1      40.242  21.725  26.681  1.00  0.00    -0.269 OA
BRANCH  24  27
ATOM     27  C   UNL A   1      39.569  23.960  26.939  1.00  0.00     0.039 A 
ATOM     28  C   UNL A   1      39.307  24.315  28.264  1.00  0.00     0.014 A 
ATOM     29  C   UNL A   1      40.058  24.906  26.035  1.00  0.00     0.014 A 
ATOM     30  C   UNL A   1      39.607  25.606  28.705  1.00  0.00     0.010 A 
ATOM     31  C   UNL A   1      40.414  26.173  26.491  1.00  0.00     0.010 A 
ATOM     32  C   UNL A   1      40.201  26.532  27.830  1.00  0.00    -0.014 A 
BRANCH  32  33
ATOM     33  C   UNL A   1      40.649  27.864  28.309  1.00  0.00     0.031 A 
ATOM     34  C   UNL A   1      42.113  28.167  28.465  1.00  0.00     0.074 A 
ATOM     35  C   UNL A   1      39.727  28.765  28.703  1.00  0.00     0.049 A 
ATOM     36  N   UNL A   1      42.685  29.248  28.924  1.00  0.00    -0.248 NA
ATOM     37  C   UNL A   1      43.058  27.104  28.081  1.00  0.00     0.031 C 
ATOM     38  C   UNL A   1      38.277  28.554  28.686  1.00  0.00     0.029 A 
ATOM     39  N   UNL A   1      39.872  30.026  29.226  1.00  0.00    -0.354 N 
ATOM     40  C   UNL A   1      44.050  28.990  28.917  1.00  0.00     0.074 A 
ATOM     41  C   UNL A   1      44.220  27.635  28.435  1.00  0.00     0.031 C 
ATOM     42  C   UNL A   1      37.668  29.646  29.174  1.00  0.00     0.029 A 
ATOM     43  C   UNL A   1      38.680  30.625  29.561  1.00  0.00     0.049 A 
ATOM     44  H   UNL A   1      40.747  30.461  29.349  1.00  0.00     0.167 HD
ATOM     45  C   UNL A   1      45.071  29.814  29.251  1.00  0.00     0.034 A 
ATOM     46  C   UNL A   1      38.428  31.825  30.120  1.00  0.00     0.034 A 
ATOM     47  C   UNL A   1      44.900  31.175  29.683  1.00  0.00     0.049 A 
ATOM     48  C   UNL A   1      39.580  32.741  30.430  1.00  0.00     0.074 A 
ATOM     49  C   UNL A   1      45.874  32.122  29.949  1.00  0.00     0.029 A 
ATOM     50  N   UNL A   1      43.676  31.784  29.916  1.00  0.00    -0.354 N 
ATOM     51  N   UNL A   1      40.863  32.541  30.251  1.00  0.00    -0.248 NA
ATOM     52  C   UNL A   1      39.250  34.061  30.985  1.00  0.00     0.031 C 
ATOM     53  C   UNL A   1      45.238  33.300  30.357  1.00  0.00     0.029 A 
ATOM     54  C   UNL A   1      43.868  33.091  30.329  1.00  0.00     0.049 A 
ATOM     55  H   UNL A   1      42.800  31.350  29.804  1.00  0.00     0.167 HD
ATOM     56  C   UNL A   1      41.491  33.720  30.638  1.00  0.00     0.074 A 
ATOM     57  C   UNL A   1      40.444  34.637  31.040  1.00  0.00     0.031 C 
ATOM     58  C   UNL A   1      42.814  34.010  30.674  1.00  0.00     0.034 A 
BRANCH  45  59
ATOM     59  C   UNL A   1      46.473  29.287  29.099  1.00  0.00     0.023 A 
ATOM     60  C   UNL A   1      47.148  28.783  30.230  1.00  0.00     0.012 A 
ATOM     61  C   UNL A   1      47.101  29.232  27.839  1.00  0.00     0.148 A 
ATOM     62  C   UNL A   1      48.436  28.263  30.118  1.00  0.00     0.002 A 
ATOM     63  C   UNL A   1      48.370  28.674  27.727  1.00  0.00     0.091 A 
ATOM     64  F   UNL A   1      46.454  29.735  26.778  1.00  0.00    -0.205 F 
ATOM     65  C   UNL A   1      49.042  28.199  28.866  1.00  0.00     0.022 A 
BRANCH  63  66
ATOM     66  S   UNL A   1      49.205  28.477  26.149  1.00  0.00     0.127 S 
ATOM     67  O   UNL A   1      49.936  27.228  26.355  1.00  0.00    -0.237 OA
ATOM     68  O   UNL A   1      48.083  28.378  25.215  1.00  0.00    -0.237 OA
ATOM     69  O   UNL A   1      50.028  29.666  25.983  1.00  0.00    -0.744 OA
ENDBRANCH  63  66
ENDBRANCH  45  59
BRANCH  46  70
ATOM     70  C   UNL A   1      37.021  32.259  30.346  1.00  0.00     0.023 A 
ATOM     71  C   UNL A   1      36.428  32.042  31.604  1.00  0.00     0.012 A 
ATOM     72  C   UNL A   1      36.283  32.914  29.342  1.00  0.00     0.148 A 
ATOM     73  C   UNL A   1      35.115  32.444  31.852  1.00  0.00     0.002 A 
ATOM     74  C   UNL A   1      34.994  33.361  29.612  1.00  0.00     0.091 A 
ATOM     75  F   UNL A   1      36.859  33.099  28.146  1.00  0.00    -0.205 F 
ATOM     76  C   UNL A   1      34.403  33.113  30.860  1.00  0.00     0.022 A 
BRANCH  74  77
ATOM     77  S   UNL A   1      34.056  34.348  28.439  1.00  0.00     0.127 S 
ATOM     78  O   UNL A   1      34.029  33.476  27.268  1.00  0.00    -0.237 OA
ATOM     79  O   UNL A   1      32.772  34.497  29.126  1.00  0.00    -0.237 OA
ATOM     80  O   UNL A   1      34.801  35.590  28.293  1.00  0.00    -0.744 OA
ENDBRANCH  74  77
ENDBRANCH  46  70
BRANCH  58  81
ATOM     81  C   UNL A   1      43.215  35.385  31.141  1.00  0.00     0.023 A 
ATOM     82  C   UNL A   1      43.482  35.605  32.506  1.00  0.00     0.012 A 
ATOM     83  C   UNL A   1      43.400  36.435  30.220  1.00  0.00     0.148 A 
ATOM     84  C   UNL A   1      43.901  36.858  32.954  1.00  0.00     0.002 A 
ATOM     85  C   UNL A   1      43.862  37.669  30.667  1.00  0.00     0.091 A 
ATOM     86  F   UNL A   1      43.120  36.212  28.929  1.00  0.00    -0.205 F 
ATOM     87  C   UNL A   1      44.102  37.885  32.033  1.00  0.00     0.022 A 
BRANCH  85  88
ATOM     88  S   UNL A   1      44.236  39.017  29.540  1.00  0.00     0.127 S 
ATOM     89  O   UNL A   1      44.653  40.070  30.464  1.00  0.00    -0.237 OA
ATOM     90  O   UNL A   1      45.316  38.455  28.728  1.00  0.00    -0.237 OA
ATOM     91  O   UNL A   1      43.005  39.276  28.806  1.00  0.00    -0.744 OA
ENDBRANCH  85  88
ENDBRANCH  58  81
ENDBRANCH  32  33
ENDBRANCH  24  27
ENDBRANCH  22  23
ENDBRANCH   1  22
TORSDOF 18
ENDMDL
MODEL 3
REMARK VINA RESULT:     -11.3      5.232      7.981
REMARK SMILES COc1cc(/C=C/C(=O)NCCCCNC(=O)c2ccc(-c3c4nc(c(-c5cccc(S(=O)(=O)[O-])c5F)c5ccc([nH]5)c(-c5cccc(S(=O)(=O)[O-])c5F)c5nc(c(-c6cccc(S(=O)(=O)[O-])c6F)c6ccc3[nH]6)C=C5)C=C4)cc2)cc(OC)c1O
REMARK SMILES IDX 13 1 12 2 11 3 10 4 8 5 9 6 7 8 6 9 5 10 3 11 4 12 85 13
REMARK SMILES IDX 82 14 81 15 2 16 1 17 86 18 83 20 84 21 14 22 15 23 16 24
REMARK SMILES IDX 17 26 18 27 19 28 80 29 20 30 79 31 21 32 22 33 23 34 73 35
REMARK SMILES IDX 24 36 78 37 72 38 74 39 25 40 77 41 71 42 70 43 26 45 58 46
REMARK SMILES IDX 38 47 57 48 39 49 42 50 56 51 75 52 40 53 41 54 55 56 76 57
REMARK SMILES IDX 43 58 27 59 28 60 36 61 29 62 31 63 37 64 30 65 32 66 33 67
REMARK SMILES IDX 34 68 35 69 59 70 60 71 68 72 61 73 63 74 69 75 62 76 64 77
REMARK SMILES IDX 65 78 66 79 67 80 44 81 45 82 53 83 46 84 48 85 54 86 47 87
REMARK SMILES IDX 49 88 50 89 51 90 52 91
REMARK H PARENT 10 7 86 19 15 25 74 44 42 55
REMARK Flexibility Score: inf
ROOT
ATOM      1  C   UNL A   1      31.652  29.491  24.761  1.00  0.00     0.023 C 
ENDROOT
BRANCH   1   2
ATOM      2  C   UNL A   1      32.191  28.979  23.421  1.00  0.00     0.023 C 
BRANCH   2   3
ATOM      3  C   UNL A   1      31.635  27.622  22.990  1.00  0.00     0.116 C 
BRANCH   3   4
ATOM      4  N   UNL A   1      32.266  27.160  21.766  1.00  0.00    -0.353 N 
ATOM      5  C   UNL A   1      32.706  25.925  21.408  1.00  0.00     0.243 C 
ATOM      6  O   UNL A   1      33.117  25.729  20.266  1.00  0.00    -0.270 OA
ATOM      7  H   UNL A   1      32.398  27.858  21.085  1.00  0.00     0.163 HD
BRANCH   5   8
ATOM      8  C   UNL A   1      32.628  24.777  22.342  1.00  0.00     0.072 C 
ATOM      9  C   UNL A   1      33.680  24.053  22.748  1.00  0.00     0.014 C 
BRANCH   9  10
ATOM     10  C   UNL A   1      33.580  22.874  23.617  1.00  0.00    -0.018 A 
ATOM     11  C   UNL A   1      34.587  21.026  24.833  1.00  0.00     0.165 A 
ATOM     12  C   UNL A   1      34.685  22.067  23.904  1.00  0.00     0.058 A 
ATOM     13  C   UNL A   1      33.375  20.808  25.510  1.00  0.00     0.200 A 
ATOM     14  C   UNL A   1      32.244  21.574  25.200  1.00  0.00     0.165 A 
ATOM     15  C   UNL A   1      32.365  22.607  24.260  1.00  0.00     0.058 A 
BRANCH  11  16
ATOM     16  O   UNL A   1      35.764  20.367  25.078  1.00  0.00    -0.493 OA
ATOM     17  C   UNL A   1      36.872  21.169  25.479  1.00  0.00     0.278 C 
ENDBRANCH  11  16
BRANCH  13  18
ATOM     18  O   UNL A   1      33.341  19.914  26.546  1.00  0.00    -0.502 OA
ATOM     19  H   UNL A   1      32.882  20.129  27.335  1.00  0.00     0.293 HD
ENDBRANCH  13  18
BRANCH  14  20
ATOM     20  O   UNL A   1      30.991  21.506  25.749  1.00  0.00    -0.493 OA
ATOM     21  C   UNL A   1      30.411  22.692  26.270  1.00  0.00     0.278 C 
ENDBRANCH  14  20
ENDBRANCH   9  10
ENDBRANCH   5   8
ENDBRANCH   3   4
ENDBRANCH   2   3
ENDBRANCH   1   2
BRANCH   1  22
ATOM     22  C   UNL A   1      32.710  29.978  25.749  1.00  0.00     0.116 C 
BRANCH  22  23
ATOM     23  N   UNL A   1      32.436  31.305  26.283  1.00  0.00    -0.352 N 
ATOM     24  C   UNL A   1      33.153  32.022  27.215  1.00  0.00     0.251 C 
ATOM     25  H   UNL A   1      31.631  31.748  25.931  1.00  0.00     0.163 HD
ATOM     26  O   UNL A   1      32.730  33.091  27.628  1.00  0.00    -0.269 OA
BRANCH  24  27
ATOM     27  C   UNL A   1      34.420  31.464  27.738  1.00  0.00     0.039 A 
ATOM     28  C   UNL A   1      35.501  32.326  27.934  1.00  0.00     0.014 A 
ATOM     29  C   UNL A   1      34.523  30.110  28.067  1.00  0.00     0.014 A 
ATOM     30  C   UNL A   1      36.667  31.844  28.533  1.00  0.00     0.010 A 
ATOM     31  C   UNL A   1      35.662  29.646  28.720  1.00  0.00     0.010 A 
ATOM     32  C   UNL A   1      36.740  30.510  28.967  1.00  0.00    -0.014 A 
BRANCH  32  33
ATOM     33  C   UNL A   1      37.916  30.010  29.723  1.00  0.00     0.031 A 
ATOM     34  C   UNL A   1      38.190  30.496  31.119  1.00  0.00     0.074 A 
ATOM     35  C   UNL A   1      38.797  29.196  29.107  1.00  0.00     0.049 A 
ATOM     36  N   UNL A   1      39.196  30.218  31.905  1.00  0.00    -0.248 NA
ATOM     37  C   UNL A   1      37.220  31.442  31.697  1.00  0.00     0.031 C 
ATOM     38  C   UNL A   1      38.689  28.727  27.723  1.00  0.00     0.029 A 
ATOM     39  N   UNL A   1      39.972  28.644  29.553  1.00  0.00    -0.354 N 
ATOM     40  C   UNL A   1      39.003  30.974  33.054  1.00  0.00     0.074 A 
ATOM     41  C   UNL A   1      37.796  31.748  32.851  1.00  0.00     0.031 C 
ATOM     42  C   UNL A   1      39.752  27.960  27.435  1.00  0.00     0.029 A 
ATOM     43  C   UNL A   1      40.628  27.900  28.601  1.00  0.00     0.049 A 
ATOM     44  H   UNL A   1      40.312  28.769  30.469  1.00  0.00     0.167 HD
ATOM     45  C   UNL A   1      39.743  31.000  34.187  1.00  0.00     0.034 A 
ATOM     46  C   UNL A   1      41.805  27.245  28.658  1.00  0.00     0.034 A 
ATOM     47  C   UNL A   1      40.914  30.193  34.404  1.00  0.00     0.049 A 
ATOM     48  C   UNL A   1      42.579  27.246  29.947  1.00  0.00     0.074 A 
ATOM     49  C   UNL A   1      41.675  30.072  35.553  1.00  0.00     0.029 A 
ATOM     50  N   UNL A   1      41.496  29.371  33.451  1.00  0.00    -0.354 N 
ATOM     51  N   UNL A   1      42.285  27.830  31.084  1.00  0.00    -0.248 NA
ATOM     52  C   UNL A   1      43.827  26.470  29.975  1.00  0.00     0.031 C 
ATOM     53  C   UNL A   1      42.727  29.187  35.289  1.00  0.00     0.029 A 
ATOM     54  C   UNL A   1      42.610  28.745  33.981  1.00  0.00     0.049 A 
ATOM     55  H   UNL A   1      41.165  29.251  32.532  1.00  0.00     0.167 HD
ATOM     56  C   UNL A   1      43.292  27.465  31.972  1.00  0.00     0.074 A 
ATOM     57  C   UNL A   1      44.191  26.591  31.245  1.00  0.00     0.031 C 
ATOM     58  C   UNL A   1      43.465  27.834  33.264  1.00  0.00     0.034 A 
BRANCH  45  59
ATOM     59  C   UNL A   1      39.270  31.883  35.311  1.00  0.00     0.023 A 
ATOM     60  C   UNL A   1      38.370  31.364  36.265  1.00  0.00     0.012 A 
ATOM     61  C   UNL A   1      39.756  33.197  35.463  1.00  0.00     0.148 A 
ATOM     62  C   UNL A   1      37.935  32.148  37.332  1.00  0.00     0.002 A 
ATOM     63  C   UNL A   1      39.349  33.958  36.554  1.00  0.00     0.091 A 
ATOM     64  F   UNL A   1      40.593  33.681  34.535  1.00  0.00    -0.205 F 
ATOM     65  C   UNL A   1      38.432  33.439  37.482  1.00  0.00     0.022 A 
BRANCH  63  66
ATOM     66  S   UNL A   1      39.990  35.605  36.876  1.00  0.00     0.127 S 
ATOM     67  O   UNL A   1      39.330  35.936  38.138  1.00  0.00    -0.237 OA
ATOM     68  O   UNL A   1      41.428  35.362  36.987  1.00  0.00    -0.237 OA
ATOM     69  O   UNL A   1      39.599  36.416  35.732  1.00  0.00    -0.744 OA
ENDBRANCH  63  66
ENDBRANCH  45  59
BRANCH  46  70
ATOM     70  C   UNL A   1      42.279  26.467  27.479  1.00  0.00     0.023 A 
ATOM     71  C   UNL A   1      43.056  27.111  26.498  1.00  0.00     0.012 A 
ATOM     72  C   UNL A   1      42.001  25.094  27.342  1.00  0.00     0.148 A 
ATOM     73  C   UNL A   1      43.525  26.410  25.386  1.00  0.00     0.002 A 
ATOM     74  C   UNL A   1      42.515  24.388  26.260  1.00  0.00     0.091 A 
ATOM     75  F   UNL A   1      41.247  24.501  28.280  1.00  0.00    -0.205 F 
ATOM     76  C   UNL A   1      43.263  25.047  25.273  1.00  0.00     0.022 A 
BRANCH  74  77
ATOM     77  S   UNL A   1      42.341  22.606  26.107  1.00  0.00     0.127 S 
ATOM     78  O   UNL A   1      40.888  22.447  26.104  1.00  0.00    -0.237 OA
ATOM     79  O   UNL A   1      42.993  22.346  24.823  1.00  0.00    -0.237 OA
ATOM     80  O   UNL A   1      43.041  22.047  27.255  1.00  0.00    -0.744 OA
ENDBRANCH  74  77
ENDBRANCH  46  70
BRANCH  58  81
ATOM     81  C   UNL A   1      44.659  27.278  33.994  1.00  0.00     0.023 A 
ATOM     82  C   UNL A   1      45.880  27.979  33.966  1.00  0.00     0.012 A 
ATOM     83  C   UNL A   1      44.550  26.106  34.769  1.00  0.00     0.148 A 
ATOM     84  C   UNL A   1      46.985  27.508  34.675  1.00  0.00     0.002 A 
ATOM     85  C   UNL A   1      45.642  25.666  35.509  1.00  0.00     0.091 A 
ATOM     86  F   UNL A   1      43.386  25.442  34.765  1.00  0.00    -0.205 F 
ATOM     87  C   UNL A   1      46.862  26.359  35.455  1.00  0.00     0.022 A 
BRANCH  85  88
ATOM     88  S   UNL A   1      45.546  24.251  36.612  1.00  0.00     0.127 S 
ATOM     89  O   UNL A   1      44.534  24.689  37.571  1.00  0.00    -0.237 OA
ATOM     90  O   UNL A   1      45.110  23.182  35.711  1.00  0.00    -0.237 OA
ATOM     91  O   UNL A   1      46.888  24.073  37.149  1.00  0.00    -0.744 OA
ENDBRANCH  85  88
ENDBRANCH  58  81
ENDBRANCH  32  33
ENDBRANCH  24  27
ENDBRANCH  22  23
ENDBRANCH   1  22
TORSDOF 18
ENDMDL
