MODEL 1
REMARK VINA RESULT:     -12.0      0.000      0.000
REMARK SMILES Cc1ccc2nc(CC3(CC(=O)NCCCCNC(=O)c4ccc(-c5c6nc(c(-c7cccc(S(=O)(=O)[O-])c7F)c7ccc([nH]7)c(-c7cccc(S(=O)(=O)[O-])c7F)c7nc(c(-c8cccc(S(=O)(=O)[O-])c8F)c8ccc5[nH]8)C=C7)C=C6)cc4)CCCCC3)sc2c1
REMARK SMILES IDX 15 1 14 2 13 3 11 4 12 5 10 7 9 8 84 9 88 10 85 11 87 12
REMARK SMILES IDX 86 13 8 14 7 15 1 16 2 17 3 18 91 19 4 20 90 21 5 22 89 23
REMARK SMILES IDX 6 24 16 25 17 26 18 27 19 28 20 30 21 31 22 32 83 33 23 34
REMARK SMILES IDX 82 35 24 36 25 37 26 38 76 39 27 40 81 41 75 42 77 43 28 44
REMARK SMILES IDX 80 45 74 46 73 47 29 49 61 50 41 51 60 52 42 53 45 54 59 55
REMARK SMILES IDX 78 56 43 57 44 58 58 60 79 61 46 62 30 63 31 64 39 65 32 66
REMARK SMILES IDX 34 67 40 68 33 69 35 70 36 71 37 72 38 73 62 74 63 75 71 76
REMARK SMILES IDX 64 77 66 78 72 79 65 80 67 81 68 82 69 83 70 84 47 85 48 86
REMARK SMILES IDX 56 87 49 88 51 89 57 90 50 91 52 92 53 93 54 94 55 95
REMARK H PARENT 13 6 18 29 77 48 45 59
REMARK Flexibility Score: inf
ROOT
ATOM      1  C   UNL A   1      32.075  28.561  27.410  1.00  0.00     0.023 C 
ENDROOT
BRANCH   1   2
ATOM      2  C   UNL A   1      31.385  27.588  26.451  1.00  0.00     0.116 C 
BRANCH   2   3
ATOM      3  N   UNL A   1      31.294  26.261  27.023  1.00  0.00    -0.356 N 
ATOM      4  C   UNL A   1      31.468  25.045  26.442  1.00  0.00     0.220 C 
ATOM      5  O   UNL A   1      31.297  24.037  27.133  1.00  0.00    -0.275 OA
ATOM      6  H   UNL A   1      31.073  26.235  27.982  1.00  0.00     0.163 HD
BRANCH   4   7
ATOM      7  C   UNL A   1      31.861  24.905  24.975  1.00  0.00     0.107 C 
BRANCH   7   8
ATOM      8  C   UNL A   1      33.387  24.762  24.627  1.00  0.00    -0.015 C 
ATOM      9  C   UNL A   1      34.038  26.181  24.671  1.00  0.00     0.008 C 
ATOM     10  C   UNL A   1      33.623  24.263  23.176  1.00  0.00     0.008 C 
ATOM     11  C   UNL A   1      33.514  27.130  23.583  1.00  0.00     0.001 C 
ATOM     12  C   UNL A   1      33.045  25.153  22.082  1.00  0.00     0.001 C 
ATOM     13  C   UNL A   1      33.643  26.549  22.177  1.00  0.00     0.000 C 
BRANCH   8  14
ATOM     14  C   UNL A   1      34.072  23.841  25.700  1.00  0.00     0.075 C 
BRANCH  14  15
ATOM     15  C   UNL A   1      34.038  22.372  25.397  1.00  0.00     0.094 A 
ATOM     16  C   UNL A   1      34.382  16.422  23.768  1.00  0.00     0.044 C 
ATOM     17  C   UNL A   1      33.960  17.807  24.165  1.00  0.00    -0.050 A 
ATOM     18  C   UNL A   1      32.605  18.146  24.215  1.00  0.00     0.006 A 
ATOM     19  C   UNL A   1      34.938  18.761  24.494  1.00  0.00     0.024 A 
ATOM     20  C   UNL A   1      32.203  19.430  24.590  1.00  0.00     0.030 A 
ATOM     21  C   UNL A   1      34.523  20.057  24.842  1.00  0.00     0.055 A 
ATOM     22  C   UNL A   1      33.172  20.399  24.905  1.00  0.00     0.082 A 
ATOM     23  S   UNL A   1      35.470  21.445  25.233  1.00  0.00    -0.119 S 
ATOM     24  N   UNL A   1      32.912  21.703  25.267  1.00  0.00    -0.241 NA
ENDBRANCH  14  15
ENDBRANCH   8  14
ENDBRANCH   7   8
ENDBRANCH   4   7
ENDBRANCH   2   3
ENDBRANCH   1   2
BRANCH   1  25
ATOM     25  C   UNL A   1      33.582  28.687  27.256  1.00  0.00     0.023 C 
BRANCH  25  26
ATOM     26  C   UNL A   1      34.055  30.040  26.750  1.00  0.00     0.116 C 
BRANCH  26  27
ATOM     27  N   UNL A   1      33.810  31.149  27.665  1.00  0.00    -0.352 N 
ATOM     28  C   UNL A   1      34.608  31.591  28.699  1.00  0.00     0.251 C 
ATOM     29  H   UNL A   1      32.970  31.644  27.527  1.00  0.00     0.163 HD
ATOM     30  O   UNL A   1      34.241  32.500  29.425  1.00  0.00    -0.269 OA
BRANCH  28  31
ATOM     31  C   UNL A   1      35.899  30.906  28.937  1.00  0.00     0.039 A 
ATOM     32  C   UNL A   1      37.064  31.450  28.395  1.00  0.00     0.014 A 
ATOM     33  C   UNL A   1      35.959  29.780  29.761  1.00  0.00     0.014 A 
ATOM     34  C   UNL A   1      38.299  30.897  28.736  1.00  0.00     0.010 A 
ATOM     35  C   UNL A   1      37.192  29.305  30.185  1.00  0.00     0.010 A 
ATOM     36  C   UNL A   1      38.375  29.841  29.659  1.00  0.00    -0.014 A 
BRANCH  36  37
ATOM     37  C   UNL A   1      39.681  29.261  30.062  1.00  0.00     0.031 A 
ATOM     38  C   UNL A   1      40.459  29.883  31.193  1.00  0.00     0.074 A 
ATOM     39  C   UNL A   1      40.204  28.232  29.366  1.00  0.00     0.049 A 
ATOM     40  N   UNL A   1      41.618  29.532  31.686  1.00  0.00    -0.248 NA
ATOM     41  C   UNL A   1      39.882  31.082  31.828  1.00  0.00     0.031 C 
ATOM     42  C   UNL A   1      39.607  27.621  28.176  1.00  0.00     0.029 A 
ATOM     43  N   UNL A   1      41.369  27.531  29.548  1.00  0.00    -0.354 N 
ATOM     44  C   UNL A   1      41.925  30.487  32.649  1.00  0.00     0.074 A 
ATOM     45  C   UNL A   1      40.859  31.460  32.637  1.00  0.00     0.031 C 
ATOM     46  C   UNL A   1      40.401  26.625  27.747  1.00  0.00     0.029 A 
ATOM     47  C   UNL A   1      41.566  26.535  28.619  1.00  0.00     0.049 A 
ATOM     48  H   UNL A   1      42.004  27.722  30.276  1.00  0.00     0.167 HD
ATOM     49  C   UNL A   1      42.977  30.527  33.499  1.00  0.00     0.034 A 
ATOM     50  C   UNL A   1      42.568  25.642  28.499  1.00  0.00     0.034 A 
ATOM     51  C   UNL A   1      43.990  29.511  33.563  1.00  0.00     0.049 A 
ATOM     52  C   UNL A   1      43.664  25.638  29.532  1.00  0.00     0.074 A 
ATOM     53  C   UNL A   1      45.030  29.388  34.467  1.00  0.00     0.029 A 
ATOM     54  N   UNL A   1      44.086  28.440  32.691  1.00  0.00    -0.354 N 
ATOM     55  N   UNL A   1      43.832  26.432  30.561  1.00  0.00    -0.248 NA
ATOM     56  C   UNL A   1      44.681  24.582  29.417  1.00  0.00     0.031 C 
ATOM     57  C   UNL A   1      45.762  28.244  34.133  1.00  0.00     0.029 A 
ATOM     58  C   UNL A   1      45.168  27.648  33.032  1.00  0.00     0.049 A 
ATOM     59  H   UNL A   1      43.475  28.267  31.938  1.00  0.00     0.167 HD
ATOM     60  C   UNL A   1      44.951  25.956  31.233  1.00  0.00     0.074 A 
ATOM     61  C   UNL A   1      45.402  24.783  30.512  1.00  0.00     0.031 C 
ATOM     62  C   UNL A   1      45.566  26.453  32.334  1.00  0.00     0.034 A 
BRANCH  49  63
ATOM     63  C   UNL A   1      43.037  31.665  34.485  1.00  0.00     0.023 A 
ATOM     64  C   UNL A   1      43.645  32.879  34.105  1.00  0.00     0.012 A 
ATOM     65  C   UNL A   1      42.452  31.553  35.760  1.00  0.00     0.148 A 
ATOM     66  C   UNL A   1      43.701  33.954  34.991  1.00  0.00     0.002 A 
ATOM     67  C   UNL A   1      42.471  32.645  36.622  1.00  0.00     0.091 A 
ATOM     68  F   UNL A   1      41.899  30.383  36.111  1.00  0.00    -0.205 F 
ATOM     69  C   UNL A   1      43.105  33.840  36.244  1.00  0.00     0.022 A 
BRANCH  67  70
ATOM     70  S   UNL A   1      41.665  32.629  38.227  1.00  0.00     0.127 S 
ATOM     71  O   UNL A   1      41.898  33.998  38.686  1.00  0.00    -0.237 OA
ATOM     72  O   UNL A   1      40.277  32.334  37.870  1.00  0.00    -0.237 OA
ATOM     73  O   UNL A   1      42.329  31.590  39.001  1.00  0.00    -0.744 OA
ENDBRANCH  67  70
ENDBRANCH  49  63
BRANCH  50  74
ATOM     74  C   UNL A   1      42.530  24.614  27.419  1.00  0.00     0.023 A 
ATOM     75  C   UNL A   1      43.360  24.767  26.291  1.00  0.00     0.012 A 
ATOM     76  C   UNL A   1      41.696  23.484  27.507  1.00  0.00     0.148 A 
ATOM     77  C   UNL A   1      43.331  23.836  25.252  1.00  0.00     0.002 A 
ATOM     78  C   UNL A   1      41.710  22.532  26.493  1.00  0.00     0.091 A 
ATOM     79  F   UNL A   1      40.903  23.360  28.581  1.00  0.00    -0.205 F 
ATOM     80  C   UNL A   1      42.513  22.715  25.357  1.00  0.00     0.022 A 
BRANCH  78  81
ATOM     81  S   UNL A   1      40.788  20.995  26.610  1.00  0.00     0.127 S 
ATOM     82  O   UNL A   1      39.478  21.392  26.101  1.00  0.00    -0.237 OA
ATOM     83  O   UNL A   1      41.550  20.112  25.727  1.00  0.00    -0.237 OA
ATOM     84  O   UNL A   1      40.840  20.620  28.017  1.00  0.00    -0.744 OA
ENDBRANCH  78  81
ENDBRANCH  50  74
BRANCH  62  85
ATOM     85  C   UNL A   1      46.779  25.721  32.844  1.00  0.00     0.023 A 
ATOM     86  C   UNL A   1      46.642  24.797  33.899  1.00  0.00     0.012 A 
ATOM     87  C   UNL A   1      48.037  25.898  32.237  1.00  0.00     0.148 A 
ATOM     88  C   UNL A   1      47.747  24.089  34.368  1.00  0.00     0.002 A 
ATOM     89  C   UNL A   1      49.124  25.152  32.677  1.00  0.00     0.091 A 
ATOM     90  F   UNL A   1      48.153  26.796  31.248  1.00  0.00    -0.205 F 
ATOM     91  C   UNL A   1      48.984  24.257  33.751  1.00  0.00     0.022 A 
BRANCH  89  92
ATOM     92  S   UNL A   1      50.726  25.237  31.869  1.00  0.00     0.127 S 
ATOM     93  O   UNL A   1      51.480  24.213  32.590  1.00  0.00    -0.237 OA
ATOM     94  O   UNL A   1      50.400  24.895  30.484  1.00  0.00    -0.237 OA
ATOM     95  O   UNL A   1      51.187  26.607  32.054  1.00  0.00    -0.744 OA
ENDBRANCH  89  92
ENDBRANCH  62  85
ENDBRANCH  36  37
ENDBRANCH  28  31
ENDBRANCH  26  27
ENDBRANCH  25  26
ENDBRANCH   1  25
TORSDOF 17
ENDMDL
MODEL 2
REMARK VINA RESULT:     -11.9      2.730      3.461
REMARK SMILES Cc1ccc2nc(CC3(CC(=O)NCCCCNC(=O)c4ccc(-c5c6nc(c(-c7cccc(S(=O)(=O)[O-])c7F)c7ccc([nH]7)c(-c7cccc(S(=O)(=O)[O-])c7F)c7nc(c(-c8cccc(S(=O)(=O)[O-])c8F)c8ccc5[nH]8)C=C7)C=C6)cc4)CCCCC3)sc2c1
REMARK SMILES IDX 15 1 14 2 13 3 11 4 12 5 10 7 9 8 84 9 88 10 85 11 87 12
REMARK SMILES IDX 86 13 8 14 7 15 1 16 2 17 3 18 91 19 4 20 90 21 5 22 89 23
REMARK SMILES IDX 6 24 16 25 17 26 18 27 19 28 20 30 21 31 22 32 83 33 23 34
REMARK SMILES IDX 82 35 24 36 25 37 26 38 76 39 27 40 81 41 75 42 77 43 28 44
REMARK SMILES IDX 80 45 74 46 73 47 29 49 61 50 41 51 60 52 42 53 45 54 59 55
REMARK SMILES IDX 78 56 43 57 44 58 58 60 79 61 46 62 30 63 31 64 39 65 32 66
REMARK SMILES IDX 34 67 40 68 33 69 35 70 36 71 37 72 38 73 62 74 63 75 71 76
REMARK SMILES IDX 64 77 66 78 72 79 65 80 67 81 68 82 69 83 70 84 47 85 48 86
REMARK SMILES IDX 56 87 49 88 51 89 57 90 50 91 52 92 53 93 54 94 55 95
REMARK H PARENT 13 6 18 29 77 48 45 59
REMARK Flexibility Score: inf
ROOT
ATOM      1  C   UNL A   1      33.358  29.182  23.670  1.00  0.00     0.023 C 
ENDROOT
BRANCH   1   2
ATOM      2  C   UNL A   1      33.720  28.019  22.743  1.00  0.00     0.116 C 
BRANCH   2   3
ATOM      3  N   UNL A   1      32.537  27.309  22.304  1.00  0.00    -0.356 N 
ATOM      4  C   UNL A   1      32.343  25.981  22.091  1.00  0.00     0.220 C 
ATOM      5  O   UNL A   1      31.243  25.610  21.673  1.00  0.00    -0.275 OA
ATOM      6  H   UNL A   1      31.750  27.876  22.135  1.00  0.00     0.163 HD
BRANCH   4   7
ATOM      7  C   UNL A   1      33.443  24.957  22.351  1.00  0.00     0.107 C 
BRANCH   7   8
ATOM      8  C   UNL A   1      33.224  23.910  23.502  1.00  0.00    -0.015 C 
ATOM      9  C   UNL A   1      32.896  24.684  24.818  1.00  0.00     0.008 C 
ATOM     10  C   UNL A   1      34.510  23.104  23.827  1.00  0.00     0.008 C 
ATOM     11  C   UNL A   1      34.064  25.538  25.333  1.00  0.00     0.001 C 
ATOM     12  C   UNL A   1      35.705  23.940  24.270  1.00  0.00     0.001 C 
ATOM     13  C   UNL A   1      35.350  24.736  25.516  1.00  0.00     0.000 C 
BRANCH   8  14
ATOM     14  C   UNL A   1      32.011  22.984  23.126  1.00  0.00     0.075 C 
BRANCH  14  15
ATOM     15  C   UNL A   1      32.157  21.545  23.526  1.00  0.00     0.094 A 
ATOM     16  C   UNL A   1      33.142  15.818  25.625  1.00  0.00     0.044 C 
ATOM     17  C   UNL A   1      32.902  17.055  24.808  1.00  0.00    -0.050 A 
ATOM     18  C   UNL A   1      32.914  16.992  23.413  1.00  0.00     0.006 A 
ATOM     19  C   UNL A   1      32.658  18.277  25.457  1.00  0.00     0.024 A 
ATOM     20  C   UNL A   1      32.683  18.136  22.644  1.00  0.00     0.030 A 
ATOM     21  C   UNL A   1      32.456  19.426  24.675  1.00  0.00     0.055 A 
ATOM     22  C   UNL A   1      32.455  19.369  23.281  1.00  0.00     0.082 A 
ATOM     23  S   UNL A   1      32.196  21.058  25.169  1.00  0.00    -0.119 S 
ATOM     24  N   UNL A   1      32.237  20.572  22.644  1.00  0.00    -0.241 NA
ENDBRANCH  14  15
ENDBRANCH   8  14
ENDBRANCH   7   8
ENDBRANCH   4   7
ENDBRANCH   2   3
ENDBRANCH   1   2
BRANCH   1  25
ATOM     25  C   UNL A   1      32.367  28.863  24.778  1.00  0.00     0.023 C 
BRANCH  25  26
ATOM     26  C   UNL A   1      32.794  29.327  26.161  1.00  0.00     0.116 C 
BRANCH  26  27
ATOM     27  N   UNL A   1      32.494  30.724  26.451  1.00  0.00    -0.352 N 
ATOM     28  C   UNL A   1      33.254  31.628  27.164  1.00  0.00     0.251 C 
ATOM     29  H   UNL A   1      31.643  31.066  26.092  1.00  0.00     0.163 HD
ATOM     30  O   UNL A   1      32.842  32.756  27.378  1.00  0.00    -0.269 OA
BRANCH  28  31
ATOM     31  C   UNL A   1      34.558  31.183  27.703  1.00  0.00     0.039 A 
ATOM     32  C   UNL A   1      35.557  32.132  27.929  1.00  0.00     0.014 A 
ATOM     33  C   UNL A   1      34.758  29.847  28.057  1.00  0.00     0.014 A 
ATOM     34  C   UNL A   1      36.733  31.746  28.574  1.00  0.00     0.010 A 
ATOM     35  C   UNL A   1      35.877  29.492  28.796  1.00  0.00     0.010 A 
ATOM     36  C   UNL A   1      36.889  30.430  29.042  1.00  0.00    -0.014 A 
BRANCH  36  37
ATOM     37  C   UNL A   1      38.117  30.008  29.760  1.00  0.00     0.031 A 
ATOM     38  C   UNL A   1      38.363  30.487  31.168  1.00  0.00     0.074 A 
ATOM     39  C   UNL A   1      39.045  29.263  29.126  1.00  0.00     0.049 A 
ATOM     40  N   UNL A   1      39.376  30.239  31.957  1.00  0.00    -0.248 NA
ATOM     41  C   UNL A   1      37.364  31.399  31.753  1.00  0.00     0.031 C 
ATOM     42  C   UNL A   1      38.982  28.838  27.726  1.00  0.00     0.029 A 
ATOM     43  N   UNL A   1      40.235  28.749  29.574  1.00  0.00    -0.354 N 
ATOM     44  C   UNL A   1      39.157  30.994  33.103  1.00  0.00     0.074 A 
ATOM     45  C   UNL A   1      37.945  31.749  32.890  1.00  0.00     0.031 C 
ATOM     46  C   UNL A   1      40.076  28.113  27.435  1.00  0.00     0.029 A 
ATOM     47  C   UNL A   1      40.922  28.032  28.621  1.00  0.00     0.049 A 
ATOM     48  H   UNL A   1      40.567  28.879  30.492  1.00  0.00     0.167 HD
ATOM     49  C   UNL A   1      39.875  31.024  34.250  1.00  0.00     0.034 A 
ATOM     50  C   UNL A   1      42.094  27.373  28.703  1.00  0.00     0.034 A 
ATOM     51  C   UNL A   1      41.032  30.208  34.488  1.00  0.00     0.049 A 
ATOM     52  C   UNL A   1      42.809  27.327  30.027  1.00  0.00     0.074 A 
ATOM     53  C   UNL A   1      41.761  30.067  35.655  1.00  0.00     0.029 A 
ATOM     54  N   UNL A   1      41.626  29.389  33.542  1.00  0.00    -0.354 N 
ATOM     55  N   UNL A   1      42.479  27.890  31.164  1.00  0.00    -0.248 NA
ATOM     56  C   UNL A   1      44.033  26.513  30.094  1.00  0.00     0.031 C 
ATOM     57  C   UNL A   1      42.804  29.167  35.410  1.00  0.00     0.029 A 
ATOM     58  C   UNL A   1      42.714  28.739  34.095  1.00  0.00     0.049 A 
ATOM     59  H   UNL A   1      41.319  29.286  32.612  1.00  0.00     0.167 HD
ATOM     60  C   UNL A   1      43.433  27.475  32.087  1.00  0.00     0.074 A 
ATOM     61  C   UNL A   1      44.334  26.587  31.383  1.00  0.00     0.031 C 
ATOM     62  C   UNL A   1      43.565  27.814  33.393  1.00  0.00     0.034 A 
BRANCH  49  63
ATOM     63  C   UNL A   1      39.377  31.908  35.364  1.00  0.00     0.023 A 
ATOM     64  C   UNL A   1      38.468  31.389  36.308  1.00  0.00     0.012 A 
ATOM     65  C   UNL A   1      39.844  33.228  35.507  1.00  0.00     0.148 A 
ATOM     66  C   UNL A   1      38.003  32.179  37.357  1.00  0.00     0.002 A 
ATOM     67  C   UNL A   1      39.411  33.996  36.582  1.00  0.00     0.091 A 
ATOM     68  F   UNL A   1      40.690  33.712  34.586  1.00  0.00    -0.205 F 
ATOM     69  C   UNL A   1      38.482  33.478  37.500  1.00  0.00     0.022 A 
BRANCH  67  70
ATOM     70  S   UNL A   1      40.026  35.653  36.902  1.00  0.00     0.127 S 
ATOM     71  O   UNL A   1      41.469  35.424  36.968  1.00  0.00    -0.237 OA
ATOM     72  O   UNL A   1      39.579  36.381  35.714  1.00  0.00    -0.237 OA
ATOM     73  O   UNL A   1      39.404  36.081  38.147  1.00  0.00    -0.744 OA
ENDBRANCH  67  70
ENDBRANCH  49  63
BRANCH  50  74
ATOM     74  C   UNL A   1      42.614  26.619  27.525  1.00  0.00     0.023 A 
ATOM     75  C   UNL A   1      43.447  27.275  26.598  1.00  0.00     0.012 A 
ATOM     76  C   UNL A   1      42.306  25.260  27.326  1.00  0.00     0.148 A 
ATOM     77  C   UNL A   1      43.931  26.606  25.474  1.00  0.00     0.002 A 
ATOM     78  C   UNL A   1      42.833  24.584  26.232  1.00  0.00     0.091 A 
ATOM     79  F   UNL A   1      41.500  24.654  28.211  1.00  0.00    -0.205 F 
ATOM     80  C   UNL A   1      43.632  25.258  25.295  1.00  0.00     0.022 A 
BRANCH  78  81
ATOM     81  S   UNL A   1      42.606  22.817  25.998  1.00  0.00     0.127 S 
ATOM     82  O   UNL A   1      43.131  22.623  24.650  1.00  0.00    -0.237 OA
ATOM     83  O   UNL A   1      43.433  22.257  27.068  1.00  0.00    -0.237 OA
ATOM     84  O   UNL A   1      41.177  22.586  26.167  1.00  0.00    -0.744 OA
ENDBRANCH  78  81
ENDBRANCH  50  74
BRANCH  62  85
ATOM     85  C   UNL A   1      44.711  27.206  34.156  1.00  0.00     0.023 A 
ATOM     86  C   UNL A   1      45.967  27.845  34.154  1.00  0.00     0.012 A 
ATOM     87  C   UNL A   1      44.528  26.041  34.927  1.00  0.00     0.148 A 
ATOM     88  C   UNL A   1      47.033  27.314  34.877  1.00  0.00     0.002 A 
ATOM     89  C   UNL A   1      45.582  25.545  35.684  1.00  0.00     0.091 A 
ATOM     90  F   UNL A   1      43.332  25.435  34.901  1.00  0.00    -0.205 F 
ATOM     91  C   UNL A   1      46.838  26.172  35.651  1.00  0.00     0.022 A 
BRANCH  89  92
ATOM     92  S   UNL A   1      45.384  24.138  36.783  1.00  0.00     0.127 S 
ATOM     93  O   UNL A   1      44.354  24.619  37.703  1.00  0.00    -0.237 OA
ATOM     94  O   UNL A   1      44.942  23.084  35.870  1.00  0.00    -0.237 OA
ATOM     95  O   UNL A   1      46.698  23.909  37.370  1.00  0.00    -0.744 OA
ENDBRANCH  89  92
ENDBRANCH  62  85
ENDBRANCH  36  37
ENDBRANCH  28  31
ENDBRANCH  26  27
ENDBRANCH  25  26
ENDBRANCH   1  25
TORSDOF 17
ENDMDL
MODEL 3
REMARK VINA RESULT:     -11.7      2.172      2.661
REMARK SMILES Cc1ccc2nc(CC3(CC(=O)NCCCCNC(=O)c4ccc(-c5c6nc(c(-c7cccc(S(=O)(=O)[O-])c7F)c7ccc([nH]7)c(-c7cccc(S(=O)(=O)[O-])c7F)c7nc(c(-c8cccc(S(=O)(=O)[O-])c8F)c8ccc5[nH]8)C=C7)C=C6)cc4)CCCCC3)sc2c1
REMARK SMILES IDX 15 1 14 2 13 3 11 4 12 5 10 7 9 8 84 9 88 10 85 11 87 12
REMARK SMILES IDX 86 13 8 14 7 15 1 16 2 17 3 18 91 19 4 20 90 21 5 22 89 23
REMARK SMILES IDX 6 24 16 25 17 26 18 27 19 28 20 30 21 31 22 32 83 33 23 34
REMARK SMILES IDX 82 35 24 36 25 37 26 38 76 39 27 40 81 41 75 42 77 43 28 44
REMARK SMILES IDX 80 45 74 46 73 47 29 49 61 50 41 51 60 52 42 53 45 54 59 55
REMARK SMILES IDX 78 56 43 57 44 58 58 60 79 61 46 62 30 63 31 64 39 65 32 66
REMARK SMILES IDX 34 67 40 68 33 69 35 70 36 71 37 72 38 73 62 74 63 75 71 76
REMARK SMILES IDX 64 77 66 78 72 79 65 80 67 81 68 82 69 83 70 84 47 85 48 86
REMARK SMILES IDX 56 87 49 88 51 89 57 90 50 91 52 92 53 93 54 94 55 95
REMARK H PARENT 13 6 18 29 77 48 45 59
REMARK Flexibility Score: inf
ROOT
ATOM      1  C   UNL A   1      33.532  28.739  24.663  1.00  0.00     0.023 C 
ENDROOT
BRANCH   1   2
ATOM      2  C   UNL A   1      33.791  27.723  23.548  1.00  0.00     0.116 C 
BRANCH   2   3
ATOM      3  N   UNL A   1      32.574  27.033  23.172  1.00  0.00    -0.356 N 
ATOM      4  C   UNL A   1      32.383  25.746  22.782  1.00  0.00     0.220 C 
ATOM      5  O   UNL A   1      31.243  25.392  22.468  1.00  0.00    -0.275 OA
ATOM      6  H   UNL A   1      31.757  27.583  23.205  1.00  0.00     0.163 HD
BRANCH   4   7
ATOM      7  C   UNL A   1      33.534  24.747  22.722  1.00  0.00     0.107 C 
BRANCH   7   8
ATOM      8  C   UNL A   1      33.538  23.559  23.751  1.00  0.00    -0.015 C 
ATOM      9  C   UNL A   1      33.600  24.155  25.193  1.00  0.00     0.008 C 
ATOM     10  C   UNL A   1      34.807  22.673  23.634  1.00  0.00     0.008 C 
ATOM     11  C   UNL A   1      34.914  24.891  25.496  1.00  0.00     0.001 C 
ATOM     12  C   UNL A   1      36.128  23.400  23.858  1.00  0.00     0.001 C 
ATOM     13  C   UNL A   1      36.149  24.028  25.243  1.00  0.00     0.000 C 
BRANCH   8  14
ATOM     14  C   UNL A   1      32.210  22.735  23.586  1.00  0.00     0.075 C 
BRANCH  14  15
ATOM     15  C   UNL A   1      32.328  21.267  23.878  1.00  0.00     0.094 A 
ATOM     16  C   UNL A   1      33.169  15.384  25.569  1.00  0.00     0.044 C 
ATOM     17  C   UNL A   1      32.982  16.684  24.840  1.00  0.00    -0.050 A 
ATOM     18  C   UNL A   1      33.077  16.732  23.448  1.00  0.00     0.006 A 
ATOM     19  C   UNL A   1      32.702  17.852  25.569  1.00  0.00     0.024 A 
ATOM     20  C   UNL A   1      32.897  17.935  22.760  1.00  0.00     0.030 A 
ATOM     21  C   UNL A   1      32.551  19.061  24.870  1.00  0.00     0.055 A 
ATOM     22  C   UNL A   1      32.634  19.115  23.479  1.00  0.00     0.082 A 
ATOM     23  S   UNL A   1      32.266  20.651  25.476  1.00  0.00    -0.119 S 
ATOM     24  N   UNL A   1      32.459  20.366  22.928  1.00  0.00    -0.241 NA
ENDBRANCH  14  15
ENDBRANCH   8  14
ENDBRANCH   7   8
ENDBRANCH   4   7
ENDBRANCH   2   3
ENDBRANCH   1   2
BRANCH   1  25
ATOM     25  C   UNL A   1      32.782  28.216  25.876  1.00  0.00     0.023 C 
BRANCH  25  26
ATOM     26  C   UNL A   1      33.315  28.709  27.211  1.00  0.00     0.116 C 
BRANCH  26  27
ATOM     27  N   UNL A   1      33.417  30.160  27.324  1.00  0.00    -0.352 N 
ATOM     28  C   UNL A   1      34.481  30.905  27.787  1.00  0.00     0.251 C 
ATOM     29  H   UNL A   1      32.628  30.671  27.031  1.00  0.00     0.163 HD
ATOM     30  O   UNL A   1      34.398  32.118  27.881  1.00  0.00    -0.269 OA
BRANCH  28  31
ATOM     31  C   UNL A   1      35.708  30.195  28.213  1.00  0.00     0.039 A 
ATOM     32  C   UNL A   1      36.819  30.196  27.368  1.00  0.00     0.014 A 
ATOM     33  C   UNL A   1      35.779  29.603  29.476  1.00  0.00     0.014 A 
ATOM     34  C   UNL A   1      38.024  29.659  27.823  1.00  0.00     0.010 A 
ATOM     35  C   UNL A   1      37.004  29.172  29.964  1.00  0.00     0.010 A 
ATOM     36  C   UNL A   1      38.135  29.172  29.136  1.00  0.00    -0.014 A 
BRANCH  36  37
ATOM     37  C   UNL A   1      39.416  28.628  29.651  1.00  0.00     0.031 A 
ATOM     38  C   UNL A   1      40.061  29.251  30.862  1.00  0.00     0.074 A 
ATOM     39  C   UNL A   1      40.039  27.632  28.989  1.00  0.00     0.049 A 
ATOM     40  N   UNL A   1      41.181  28.929  31.456  1.00  0.00    -0.248 NA
ATOM     41  C   UNL A   1      39.386  30.416  31.461  1.00  0.00     0.031 C 
ATOM     42  C   UNL A   1      39.579  27.026  27.737  1.00  0.00     0.029 A 
ATOM     43  N   UNL A   1      41.205  26.966  29.268  1.00  0.00    -0.354 N 
ATOM     44  C   UNL A   1      41.361  29.872  32.461  1.00  0.00     0.074 A 
ATOM     45  C   UNL A   1      40.267  30.809  32.366  1.00  0.00     0.031 C 
ATOM     46  C   UNL A   1      40.445  26.068  27.367  1.00  0.00     0.029 A 
ATOM     47  C   UNL A   1      41.525  25.998  28.345  1.00  0.00     0.049 A 
ATOM     48  H   UNL A   1      41.762  27.163  30.057  1.00  0.00     0.167 HD
ATOM     49  C   UNL A   1      42.326  29.929  33.409  1.00  0.00     0.034 A 
ATOM     50  C   UNL A   1      42.565  25.142  28.304  1.00  0.00     0.034 A 
ATOM     51  C   UNL A   1      43.364  28.947  33.550  1.00  0.00     0.049 A 
ATOM     52  C   UNL A   1      43.558  25.153  29.436  1.00  0.00     0.074 A 
ATOM     53  C   UNL A   1      44.317  28.840  34.546  1.00  0.00     0.029 A 
ATOM     54  N   UNL A   1      43.580  27.898  32.671  1.00  0.00    -0.354 N 
ATOM     55  N   UNL A   1      43.599  25.930  30.491  1.00  0.00    -0.248 NA
ATOM     56  C   UNL A   1      44.618  24.134  29.399  1.00  0.00     0.031 C 
ATOM     57  C   UNL A   1      45.118  27.728  34.263  1.00  0.00     0.029 A 
ATOM     58  C   UNL A   1      44.652  27.137  33.099  1.00  0.00     0.049 A 
ATOM     59  H   UNL A   1      43.049  27.721  31.861  1.00  0.00     0.167 HD
ATOM     60  C   UNL A   1      44.667  25.476  31.258  1.00  0.00     0.074 A 
ATOM     61  C   UNL A   1      45.225  24.336  30.561  1.00  0.00     0.031 C 
ATOM     62  C   UNL A   1      45.157  25.971  32.421  1.00  0.00     0.034 A 
BRANCH  49  63
ATOM     63  C   UNL A   1      42.252  31.047  34.416  1.00  0.00     0.023 A 
ATOM     64  C   UNL A   1      41.566  30.842  35.630  1.00  0.00     0.012 A 
ATOM     65  C   UNL A   1      42.900  32.275  34.187  1.00  0.00     0.148 A 
ATOM     66  C   UNL A   1      41.494  31.853  36.587  1.00  0.00     0.002 A 
ATOM     67  C   UNL A   1      42.863  33.263  35.165  1.00  0.00     0.091 A 
ATOM     68  F   UNL A   1      43.528  32.460  33.017  1.00  0.00    -0.205 F 
ATOM     69  C   UNL A   1      42.151  33.058  36.358  1.00  0.00     0.022 A 
BRANCH  67  70
ATOM     70  S   UNL A   1      43.741  34.822  35.004  1.00  0.00     0.127 S 
ATOM     71  O   UNL A   1      43.399  35.483  36.263  1.00  0.00    -0.237 OA
ATOM     72  O   UNL A   1      45.132  34.382  34.905  1.00  0.00    -0.237 OA
ATOM     73  O   UNL A   1      43.217  35.457  33.803  1.00  0.00    -0.744 OA
ENDBRANCH  67  70
ENDBRANCH  49  63
BRANCH  50  74
ATOM     74  C   UNL A   1      42.666  24.137  27.207  1.00  0.00     0.023 A 
ATOM     75  C   UNL A   1      43.366  24.467  26.030  1.00  0.00     0.012 A 
ATOM     76  C   UNL A   1      42.092  22.857  27.325  1.00  0.00     0.148 A 
ATOM     77  C   UNL A   1      43.458  23.559  24.975  1.00  0.00     0.002 A 
ATOM     78  C   UNL A   1      42.232  21.937  26.292  1.00  0.00     0.091 A 
ATOM     79  F   UNL A   1      41.418  22.563  28.447  1.00  0.00    -0.205 F 
ATOM     80  C   UNL A   1      42.900  22.291  25.109  1.00  0.00     0.022 A 
BRANCH  78  81
ATOM     81  S   UNL A   1      41.658  20.241  26.436  1.00  0.00     0.127 S 
ATOM     82  O   UNL A   1      40.213  20.402  26.308  1.00  0.00    -0.237 OA
ATOM     83  O   UNL A   1      42.309  19.598  25.294  1.00  0.00    -0.237 OA
ATOM     84  O   UNL A   1      42.138  19.780  27.733  1.00  0.00    -0.744 OA
ENDBRANCH  78  81
ENDBRANCH  50  74
BRANCH  62  85
ATOM     85  C   UNL A   1      46.341  25.269  33.031  1.00  0.00     0.023 A 
ATOM     86  C   UNL A   1      47.640  25.761  32.793  1.00  0.00     0.012 A 
ATOM     87  C   UNL A   1      46.164  24.167  33.890  1.00  0.00     0.148 A 
ATOM     88  C   UNL A   1      48.748  25.143  33.371  1.00  0.00     0.002 A 
ATOM     89  C   UNL A   1      47.269  23.587  34.501  1.00  0.00     0.091 A 
ATOM     90  F   UNL A   1      44.923  23.701  34.088  1.00  0.00    -0.205 F 
ATOM     91  C   UNL A   1      48.562  24.065  34.233  1.00  0.00     0.022 A 
BRANCH  89  92
ATOM     92  S   UNL A   1      47.105  22.260  35.701  1.00  0.00     0.127 S 
ATOM     93  O   UNL A   1      46.593  21.170  34.872  1.00  0.00    -0.237 OA
ATOM     94  O   UNL A   1      48.482  22.081  36.163  1.00  0.00    -0.237 OA
ATOM     95  O   UNL A   1      46.192  22.762  36.719  1.00  0.00    -0.744 OA
ENDBRANCH  89  92
ENDBRANCH  62  85
ENDBRANCH  36  37
ENDBRANCH  28  31
ENDBRANCH  26  27
ENDBRANCH  25  26
ENDBRANCH   1  25
TORSDOF 17
ENDMDL
