MODEL 1
REMARK VINA RESULT:     -12.0      0.000      0.000
REMARK SMILES C[C@@H](C(=O)NCCCCNC(=O)c1ccc(-c2c3nc(c(-c4cccc(S(=O)(=O)[O-])c4F)c4ccc([nH]4)c(-c4cccc(S(=O)(=O)[O-])c4F)c4nc(c(-c5cccc(S(=O)(=O)[O-])c5F)c5ccc2[nH]5)C=C4)C=C3)cc1)c1ccc2c3cc(Cl)ccc3n(C(=O)c3cocn3)c2c1
REMARK SMILES IDX 7 1 6 2 5 3 3 4 4 5 2 7 1 8 76 9 77 10 96 11 78 12 95 13
REMARK SMILES IDX 79 14 87 15 80 16 86 17 81 18 85 19 82 20 84 21 83 22 88 23
REMARK SMILES IDX 89 24 90 25 91 26 94 27 92 28 93 29 8 30 9 31 10 32 11 33
REMARK SMILES IDX 12 35 13 36 14 37 75 38 15 39 74 40 16 41 17 42 18 43 68 44
REMARK SMILES IDX 19 45 73 46 67 47 69 48 20 49 72 50 66 51 65 52 21 54 53 55
REMARK SMILES IDX 33 56 52 57 34 58 37 59 51 60 70 61 35 62 36 63 50 65 71 66
REMARK SMILES IDX 38 67 22 68 23 69 31 70 24 71 26 72 32 73 25 74 27 75 28 76
REMARK SMILES IDX 29 77 30 78 54 79 55 80 63 81 56 82 58 83 64 84 57 85 59 86
REMARK SMILES IDX 60 87 61 88 62 89 39 90 40 91 48 92 41 93 43 94 49 95 42 96
REMARK SMILES IDX 44 97 45 98 46 99 47 100
REMARK H PARENT 5 6 10 34 69 53 37 64
REMARK Flexibility Score: inf
ROOT
ATOM      1  C   UNL A   1      36.302  22.686  23.561  1.00  0.00     0.023 C 
ENDROOT
BRANCH   1   2
ATOM      2  C   UNL A   1      34.789  22.795  23.357  1.00  0.00     0.116 C 
BRANCH   2   3
ATOM      3  N   UNL A   1      34.100  21.709  24.021  1.00  0.00    -0.356 N 
ATOM      4  C   UNL A   1      33.627  21.627  25.299  1.00  0.00     0.227 C 
ATOM      5  O   UNL A   1      33.244  20.522  25.684  1.00  0.00    -0.274 OA
ATOM      6  H   UNL A   1      33.950  20.909  23.467  1.00  0.00     0.163 HD
BRANCH   4   7
ATOM      7  C   UNL A   1      33.553  22.891  26.177  1.00  0.00     0.105 C 
ATOM      8  C   UNL A   1      33.283  22.548  27.647  1.00  0.00     0.023 C 
BRANCH   7   9
ATOM      9  C   UNL A   1      32.551  23.905  25.615  1.00  0.00    -0.034 A 
ATOM     10  C   UNL A   1      31.276  23.536  25.183  1.00  0.00     0.005 A 
ATOM     11  C   UNL A   1      32.951  25.251  25.496  1.00  0.00     0.032 A 
ATOM     12  C   UNL A   1      30.372  24.490  24.711  1.00  0.00     0.011 A 
ATOM     13  C   UNL A   1      32.061  26.203  24.953  1.00  0.00     0.058 A 
ATOM     14  C   UNL A   1      30.764  25.838  24.607  1.00  0.00     0.008 A 
ATOM     15  N   UNL A   1      32.221  27.573  24.677  1.00  0.00    -0.274 N 
ATOM     16  C   UNL A   1      30.086  27.005  24.171  1.00  0.00     0.009 A 
ATOM     17  C   UNL A   1      31.012  28.055  24.141  1.00  0.00     0.057 A 
ATOM     18  C   UNL A   1      28.756  27.225  23.750  1.00  0.00     0.031 A 
ATOM     19  C   UNL A   1      30.649  29.294  23.573  1.00  0.00     0.029 A 
ATOM     20  C   UNL A   1      28.386  28.476  23.268  1.00  0.00     0.041 A 
ATOM     21  C   UNL A   1      29.323  29.492  23.160  1.00  0.00     0.023 A 
ATOM     22  Cl  UNL A   1      26.761  28.746  22.770  1.00  0.00    -0.084 Cl
BRANCH  15  23
ATOM     23  C   UNL A   1      33.428  28.300  24.897  1.00  0.00     0.284 C 
ATOM     24  O   UNL A   1      34.295  28.196  24.026  1.00  0.00    -0.266 OA
BRANCH  23  25
ATOM     25  C   UNL A   1      33.720  29.104  26.079  1.00  0.00     0.167 A 
ATOM     26  C   UNL A   1      34.801  29.023  26.932  1.00  0.00     0.231 A 
ATOM     27  N   UNL A   1      32.962  30.208  26.440  1.00  0.00    -0.211 NA
ATOM     28  O   UNL A   1      34.715  30.039  27.838  1.00  0.00    -0.451 OA
ATOM     29  C   UNL A   1      33.595  30.716  27.468  1.00  0.00     0.308 A 
ENDBRANCH  23  25
ENDBRANCH  15  23
ENDBRANCH   7   9
ENDBRANCH   4   7
ENDBRANCH   2   3
ENDBRANCH   1   2
BRANCH   1  30
ATOM     30  C   UNL A   1      36.881  23.661  24.589  1.00  0.00     0.023 C 
BRANCH  30  31
ATOM     31  C   UNL A   1      37.112  23.076  25.976  1.00  0.00     0.116 C 
BRANCH  31  32
ATOM     32  N   UNL A   1      38.319  22.267  26.053  1.00  0.00    -0.352 N 
ATOM     33  C   UNL A   1      39.588  22.653  26.412  1.00  0.00     0.251 C 
ATOM     34  H   UNL A   1      38.213  21.317  25.819  1.00  0.00     0.163 HD
ATOM     35  O   UNL A   1      40.523  21.865  26.306  1.00  0.00    -0.269 OA
BRANCH  33  36
ATOM     36  C   UNL A   1      39.820  24.030  26.892  1.00  0.00     0.039 A 
ATOM     37  C   UNL A   1      39.658  24.306  28.253  1.00  0.00     0.014 A 
ATOM     38  C   UNL A   1      40.222  25.037  26.011  1.00  0.00     0.014 A 
ATOM     39  C   UNL A   1      39.959  25.580  28.739  1.00  0.00     0.010 A 
ATOM     40  C   UNL A   1      40.583  26.285  26.506  1.00  0.00     0.010 A 
ATOM     41  C   UNL A   1      40.453  26.570  27.874  1.00  0.00    -0.014 A 
BRANCH  41  42
ATOM     42  C   UNL A   1      40.856  27.905  28.379  1.00  0.00     0.031 A 
ATOM     43  C   UNL A   1      42.311  28.237  28.563  1.00  0.00     0.074 A 
ATOM     44  C   UNL A   1      39.908  28.781  28.766  1.00  0.00     0.049 A 
ATOM     45  N   UNL A   1      42.852  29.322  29.049  1.00  0.00    -0.248 NA
ATOM     46  C   UNL A   1      43.285  27.201  28.177  1.00  0.00     0.031 C 
ATOM     47  C   UNL A   1      38.464  28.540  28.722  1.00  0.00     0.029 A 
ATOM     48  N   UNL A   1      40.017  30.039  29.303  1.00  0.00    -0.354 N 
ATOM     49  C   UNL A   1      44.222  29.088  29.065  1.00  0.00     0.074 A 
ATOM     50  C   UNL A   1      44.428  27.746  28.567  1.00  0.00     0.031 C 
ATOM     51  C   UNL A   1      37.823  29.613  29.211  1.00  0.00     0.029 A 
ATOM     52  C   UNL A   1      38.808  30.610  29.623  1.00  0.00     0.049 A 
ATOM     53  H   UNL A   1      40.880  30.490  29.447  1.00  0.00     0.167 HD
ATOM     54  C   UNL A   1      45.221  29.926  29.431  1.00  0.00     0.034 A 
ATOM     55  C   UNL A   1      38.523  31.800  30.186  1.00  0.00     0.034 A 
ATOM     56  C   UNL A   1      45.016  31.280  29.868  1.00  0.00     0.049 A 
ATOM     57  C   UNL A   1      39.651  32.738  30.519  1.00  0.00     0.074 A 
ATOM     58  C   UNL A   1      45.965  32.243  30.162  1.00  0.00     0.029 A 
ATOM     59  N   UNL A   1      43.775  31.864  30.076  1.00  0.00    -0.354 N 
ATOM     60  N   UNL A   1      40.941  32.565  30.360  1.00  0.00    -0.248 NA
ATOM     61  C   UNL A   1      39.285  34.051  31.071  1.00  0.00     0.031 C 
ATOM     62  C   UNL A   1      45.298  33.409  30.555  1.00  0.00     0.029 A 
ATOM     63  C   UNL A   1      43.933  33.173  30.497  1.00  0.00     0.049 A 
ATOM     64  H   UNL A   1      42.910  31.414  29.944  1.00  0.00     0.167 HD
ATOM     65  C   UNL A   1      41.538  33.754  30.761  1.00  0.00     0.074 A 
ATOM     66  C   UNL A   1      40.466  34.650  31.149  1.00  0.00     0.031 C 
ATOM     67  C   UNL A   1      42.855  34.071  30.821  1.00  0.00     0.034 A 
BRANCH  54  68
ATOM     68  C   UNL A   1      46.634  29.425  29.304  1.00  0.00     0.023 A 
ATOM     69  C   UNL A   1      47.280  28.890  30.438  1.00  0.00     0.012 A 
ATOM     70  C   UNL A   1      47.302  29.427  28.065  1.00  0.00     0.148 A 
ATOM     71  C   UNL A   1      48.580  28.395  30.349  1.00  0.00     0.002 A 
ATOM     72  C   UNL A   1      48.584  28.896  27.975  1.00  0.00     0.091 A 
ATOM     73  F   UNL A   1      46.682  29.962  27.003  1.00  0.00    -0.205 F 
ATOM     74  C   UNL A   1      49.227  28.389  29.115  1.00  0.00     0.022 A 
BRANCH  72  75
ATOM     75  S   UNL A   1      49.472  28.776  26.417  1.00  0.00     0.127 S 
ATOM     76  O   UNL A   1      48.382  28.519  25.476  1.00  0.00    -0.237 OA
ATOM     77  O   UNL A   1      50.076  30.103  26.300  1.00  0.00    -0.237 OA
ATOM     78  O   UNL A   1      50.428  27.690  26.585  1.00  0.00    -0.744 OA
ENDBRANCH  72  75
ENDBRANCH  54  68
BRANCH  55  79
ATOM     79  C   UNL A   1      37.103  32.206  30.384  1.00  0.00     0.023 A 
ATOM     80  C   UNL A   1      36.459  31.879  31.593  1.00  0.00     0.012 A 
ATOM     81  C   UNL A   1      36.403  32.943  29.410  1.00  0.00     0.148 A 
ATOM     82  C   UNL A   1      35.135  32.256  31.818  1.00  0.00     0.002 A 
ATOM     83  C   UNL A   1      35.100  33.359  29.661  1.00  0.00     0.091 A 
ATOM     84  F   UNL A   1      37.029  33.232  28.259  1.00  0.00    -0.205 F 
ATOM     85  C   UNL A   1      34.460  33.004  30.859  1.00  0.00     0.022 A 
BRANCH  83  86
ATOM     86  S   UNL A   1      34.205  34.438  28.538  1.00  0.00     0.127 S 
ATOM     87  O   UNL A   1      32.912  34.558  29.206  1.00  0.00    -0.237 OA
ATOM     88  O   UNL A   1      35.024  35.651  28.561  1.00  0.00    -0.237 OA
ATOM     89  O   UNL A   1      34.200  33.747  27.256  1.00  0.00    -0.744 OA
ENDBRANCH  83  86
ENDBRANCH  55  79
BRANCH  67  90
ATOM     90  C   UNL A   1      43.221  35.451  31.299  1.00  0.00     0.023 A 
ATOM     91  C   UNL A   1      43.401  35.684  32.676  1.00  0.00     0.012 A 
ATOM     92  C   UNL A   1      43.467  36.491  30.381  1.00  0.00     0.148 A 
ATOM     93  C   UNL A   1      43.796  36.939  33.136  1.00  0.00     0.002 A 
ATOM     94  C   UNL A   1      43.903  37.728  30.844  1.00  0.00     0.091 A 
ATOM     95  F   UNL A   1      43.269  36.257  29.076  1.00  0.00    -0.205 F 
ATOM     96  C   UNL A   1      44.060  37.956  32.221  1.00  0.00     0.022 A 
BRANCH  94  97
ATOM     97  S   UNL A   1      44.353  39.062  29.728  1.00  0.00     0.127 S 
ATOM     98  O   UNL A   1      43.079  39.339  29.065  1.00  0.00    -0.237 OA
ATOM     99  O   UNL A   1      44.799  40.107  30.651  1.00  0.00    -0.237 OA
ATOM    100  O   UNL A   1      45.405  38.528  28.874  1.00  0.00    -0.744 OA
ENDBRANCH  94  97
ENDBRANCH  67  90
ENDBRANCH  41  42
ENDBRANCH  33  36
ENDBRANCH  31  32
ENDBRANCH  30  31
ENDBRANCH   1  30
TORSDOF 17
ENDMDL
MODEL 2
REMARK VINA RESULT:     -11.9      4.267      9.571
REMARK SMILES C[C@@H](C(=O)NCCCCNC(=O)c1ccc(-c2c3nc(c(-c4cccc(S(=O)(=O)[O-])c4F)c4ccc([nH]4)c(-c4cccc(S(=O)(=O)[O-])c4F)c4nc(c(-c5cccc(S(=O)(=O)[O-])c5F)c5ccc2[nH]5)C=C4)C=C3)cc1)c1ccc2c3cc(Cl)ccc3n(C(=O)c3cocn3)c2c1
REMARK SMILES IDX 7 1 6 2 5 3 3 4 4 5 2 7 1 8 76 9 77 10 96 11 78 12 95 13
REMARK SMILES IDX 79 14 87 15 80 16 86 17 81 18 85 19 82 20 84 21 83 22 88 23
REMARK SMILES IDX 89 24 90 25 91 26 94 27 92 28 93 29 8 30 9 31 10 32 11 33
REMARK SMILES IDX 12 35 13 36 14 37 75 38 15 39 74 40 16 41 17 42 18 43 68 44
REMARK SMILES IDX 19 45 73 46 67 47 69 48 20 49 72 50 66 51 65 52 21 54 53 55
REMARK SMILES IDX 33 56 52 57 34 58 37 59 51 60 70 61 35 62 36 63 50 65 71 66
REMARK SMILES IDX 38 67 22 68 23 69 31 70 24 71 26 72 32 73 25 74 27 75 28 76
REMARK SMILES IDX 29 77 30 78 54 79 55 80 63 81 56 82 58 83 64 84 57 85 59 86
REMARK SMILES IDX 60 87 61 88 62 89 39 90 40 91 48 92 41 93 43 94 49 95 42 96
REMARK SMILES IDX 44 97 45 98 46 99 47 100
REMARK H PARENT 5 6 10 34 69 53 37 64
REMARK Flexibility Score: inf
ROOT
ATOM      1  C   UNL A   1      31.559  28.427  26.294  1.00  0.00     0.023 C 
ENDROOT
BRANCH   1   2
ATOM      2  C   UNL A   1      31.472  29.432  25.143  1.00  0.00     0.116 C 
BRANCH   2   3
ATOM      3  N   UNL A   1      30.854  28.832  23.981  1.00  0.00    -0.356 N 
ATOM      4  C   UNL A   1      31.393  28.011  23.031  1.00  0.00     0.227 C 
ATOM      5  O   UNL A   1      30.707  27.785  22.033  1.00  0.00    -0.274 OA
ATOM      6  H   UNL A   1      29.902  29.048  23.855  1.00  0.00     0.163 HD
BRANCH   4   7
ATOM      7  C   UNL A   1      32.781  27.381  23.254  1.00  0.00     0.105 C 
ATOM      8  C   UNL A   1      33.819  27.932  22.269  1.00  0.00     0.023 C 
BRANCH   7   9
ATOM      9  C   UNL A   1      32.710  25.851  23.240  1.00  0.00    -0.034 A 
ATOM     10  C   UNL A   1      31.825  25.149  22.420  1.00  0.00     0.005 A 
ATOM     11  C   UNL A   1      33.545  25.132  24.119  1.00  0.00     0.032 A 
ATOM     12  C   UNL A   1      31.812  23.753  22.403  1.00  0.00     0.011 A 
ATOM     13  C   UNL A   1      33.480  23.721  24.153  1.00  0.00     0.058 A 
ATOM     14  C   UNL A   1      32.656  23.032  23.269  1.00  0.00     0.008 A 
ATOM     15  N   UNL A   1      34.148  22.780  24.957  1.00  0.00    -0.274 N 
ATOM     16  C   UNL A   1      32.859  21.644  23.478  1.00  0.00     0.009 A 
ATOM     17  C   UNL A   1      33.719  21.495  24.573  1.00  0.00     0.057 A 
ATOM     18  C   UNL A   1      32.324  20.504  22.840  1.00  0.00     0.031 A 
ATOM     19  C   UNL A   1      33.950  20.213  25.114  1.00  0.00     0.029 A 
ATOM     20  C   UNL A   1      32.625  19.238  23.330  1.00  0.00     0.041 A 
ATOM     21  C   UNL A   1      33.410  19.093  24.465  1.00  0.00     0.023 A 
ATOM     22  Cl  UNL A   1      31.987  17.848  22.542  1.00  0.00    -0.084 Cl
BRANCH  15  23
ATOM     23  C   UNL A   1      35.074  23.118  25.988  1.00  0.00     0.284 C 
ATOM     24  O   UNL A   1      34.593  23.590  27.021  1.00  0.00    -0.266 OA
BRANCH  23  25
ATOM     25  C   UNL A   1      36.524  22.989  25.889  1.00  0.00     0.167 A 
ATOM     26  C   UNL A   1      37.497  23.904  26.232  1.00  0.00     0.231 A 
ATOM     27  N   UNL A   1      37.148  21.802  25.535  1.00  0.00    -0.211 NA
ATOM     28  O   UNL A   1      38.719  23.320  26.070  1.00  0.00    -0.451 OA
ATOM     29  C   UNL A   1      38.427  22.055  25.666  1.00  0.00     0.308 A 
ENDBRANCH  23  25
ENDBRANCH  15  23
ENDBRANCH   7   9
ENDBRANCH   4   7
ENDBRANCH   2   3
ENDBRANCH   1   2
BRANCH   1  30
ATOM     30  C   UNL A   1      32.957  28.262  26.896  1.00  0.00     0.023 C 
BRANCH  30  31
ATOM     31  C   UNL A   1      34.000  29.247  26.384  1.00  0.00     0.116 C 
BRANCH  31  32
ATOM     32  N   UNL A   1      33.889  30.560  27.003  1.00  0.00    -0.352 N 
ATOM     33  C   UNL A   1      34.714  31.140  27.936  1.00  0.00     0.251 C 
ATOM     34  H   UNL A   1      33.122  31.105  26.714  1.00  0.00     0.163 HD
ATOM     35  O   UNL A   1      34.406  32.212  28.447  1.00  0.00    -0.269 OA
BRANCH  33  36
ATOM     36  C   UNL A   1      35.953  30.446  28.342  1.00  0.00     0.039 A 
ATOM     37  C   UNL A   1      37.099  30.600  27.556  1.00  0.00     0.014 A 
ATOM     38  C   UNL A   1      35.992  29.671  29.503  1.00  0.00     0.014 A 
ATOM     39  C   UNL A   1      38.302  30.025  27.972  1.00  0.00     0.010 A 
ATOM     40  C   UNL A   1      37.204  29.155  29.949  1.00  0.00     0.010 A 
ATOM     41  C   UNL A   1      38.370  29.324  29.186  1.00  0.00    -0.014 A 
BRANCH  41  42
ATOM     42  C   UNL A   1      39.652  28.773  29.689  1.00  0.00     0.031 A 
ATOM     43  C   UNL A   1      40.393  29.470  30.796  1.00  0.00     0.074 A 
ATOM     44  C   UNL A   1      40.198  27.702  29.080  1.00  0.00     0.049 A 
ATOM     45  N   UNL A   1      41.552  29.176  31.324  1.00  0.00    -0.248 NA
ATOM     46  C   UNL A   1      39.761  30.672  31.367  1.00  0.00     0.031 C 
ATOM     47  C   UNL A   1      39.619  26.993  27.936  1.00  0.00     0.029 A 
ATOM     48  N   UNL A   1      41.376  27.041  29.317  1.00  0.00    -0.354 N 
ATOM     49  C   UNL A   1      41.808  30.173  32.256  1.00  0.00     0.074 A 
ATOM     50  C   UNL A   1      40.697  31.098  32.203  1.00  0.00     0.031 C 
ATOM     51  C   UNL A   1      40.443  25.999  27.571  1.00  0.00     0.029 A 
ATOM     52  C   UNL A   1      41.618  26.011  28.439  1.00  0.00     0.049 A 
ATOM     53  H   UNL A   1      41.991  27.282  30.046  1.00  0.00     0.167 HD
ATOM     54  C   UNL A   1      42.858  30.293  33.103  1.00  0.00     0.034 A 
ATOM     55  C   UNL A   1      42.667  25.170  28.342  1.00  0.00     0.034 A 
ATOM     56  C   UNL A   1      43.930  29.339  33.195  1.00  0.00     0.049 A 
ATOM     57  C   UNL A   1      43.787  25.283  29.340  1.00  0.00     0.074 A 
ATOM     58  C   UNL A   1      44.984  29.314  34.089  1.00  0.00     0.029 A 
ATOM     59  N   UNL A   1      44.086  28.243  32.361  1.00  0.00    -0.354 N 
ATOM     60  N   UNL A   1      43.924  26.129  30.332  1.00  0.00    -0.248 NA
ATOM     61  C   UNL A   1      44.877  24.303  29.233  1.00  0.00     0.031 C 
ATOM     62  C   UNL A   1      45.784  28.204  33.792  1.00  0.00     0.029 A 
ATOM     63  C   UNL A   1      45.220  27.534  32.717  1.00  0.00     0.049 A 
ATOM     64  H   UNL A   1      43.479  28.003  31.623  1.00  0.00     0.167 HD
ATOM     65  C   UNL A   1      45.095  25.766  30.986  1.00  0.00     0.074 A 
ATOM     66  C   UNL A   1      45.618  24.606  30.290  1.00  0.00     0.031 C 
ATOM     67  C   UNL A   1      45.694  26.348  32.053  1.00  0.00     0.034 A 
BRANCH  54  68
ATOM     68  C   UNL A   1      42.861  31.461  34.052  1.00  0.00     0.023 A 
ATOM     69  C   UNL A   1      43.447  32.678  33.645  1.00  0.00     0.012 A 
ATOM     70  C   UNL A   1      42.240  31.380  35.312  1.00  0.00     0.148 A 
ATOM     71  C   UNL A   1      43.444  33.786  34.490  1.00  0.00     0.002 A 
ATOM     72  C   UNL A   1      42.207  32.501  36.135  1.00  0.00     0.091 A 
ATOM     73  F   UNL A   1      41.710  30.209  35.693  1.00  0.00    -0.205 F 
ATOM     74  C   UNL A   1      42.815  33.700  35.730  1.00  0.00     0.022 A 
BRANCH  72  75
ATOM     75  S   UNL A   1      41.357  32.512  37.718  1.00  0.00     0.127 S 
ATOM     76  O   UNL A   1      40.027  32.037  37.341  1.00  0.00    -0.237 OA
ATOM     77  O   UNL A   1      42.144  31.559  38.500  1.00  0.00    -0.237 OA
ATOM     78  O   UNL A   1      41.422  33.886  38.197  1.00  0.00    -0.744 OA
ENDBRANCH  72  75
ENDBRANCH  54  68
BRANCH  55  79
ATOM     79  C   UNL A   1      42.660  24.092  27.314  1.00  0.00     0.023 A 
ATOM     80  C   UNL A   1      43.244  24.339  26.057  1.00  0.00     0.012 A 
ATOM     81  C   UNL A   1      42.121  22.819  27.583  1.00  0.00     0.148 A 
ATOM     82  C   UNL A   1      43.268  23.346  25.076  1.00  0.00     0.002 A 
ATOM     83  C   UNL A   1      42.194  21.819  26.620  1.00  0.00     0.091 A 
ATOM     84  F   UNL A   1      41.556  22.607  28.782  1.00  0.00    -0.205 F 
ATOM     85  C   UNL A   1      42.754  22.085  25.361  1.00  0.00     0.022 A 
BRANCH  83  86
ATOM     86  S   UNL A   1      41.677  20.130  26.950  1.00  0.00     0.127 S 
ATOM     87  O   UNL A   1      40.378  20.334  27.586  1.00  0.00    -0.237 OA
ATOM     88  O   UNL A   1      41.619  19.560  25.603  1.00  0.00    -0.237 OA
ATOM     89  O   UNL A   1      42.719  19.563  27.793  1.00  0.00    -0.744 OA
ENDBRANCH  83  86
ENDBRANCH  55  79
BRANCH  67  90
ATOM     90  C   UNL A   1      46.972  25.733  32.559  1.00  0.00     0.023 A 
ATOM     91  C   UNL A   1      46.927  24.822  33.632  1.00  0.00     0.012 A 
ATOM     92  C   UNL A   1      48.201  25.993  31.921  1.00  0.00     0.148 A 
ATOM     93  C   UNL A   1      48.090  24.197  34.080  1.00  0.00     0.002 A 
ATOM     94  C   UNL A   1      49.350  25.333  32.345  1.00  0.00     0.091 A 
ATOM     95  F   UNL A   1      48.228  26.880  30.916  1.00  0.00    -0.205 F 
ATOM     96  C   UNL A   1      49.297  24.442  33.429  1.00  0.00     0.022 A 
BRANCH  94  97
ATOM     97  S   UNL A   1      50.926  25.522  31.504  1.00  0.00     0.127 S 
ATOM     98  O   UNL A   1      51.788  24.633  32.282  1.00  0.00    -0.237 OA
ATOM     99  O   UNL A   1      50.621  25.046  30.154  1.00  0.00    -0.237 OA
ATOM    100  O   UNL A   1      51.250  26.940  31.581  1.00  0.00    -0.744 OA
ENDBRANCH  94  97
ENDBRANCH  67  90
ENDBRANCH  41  42
ENDBRANCH  33  36
ENDBRANCH  31  32
ENDBRANCH  30  31
ENDBRANCH   1  30
TORSDOF 17
ENDMDL
MODEL 3
REMARK VINA RESULT:     -11.7      3.325      8.490
REMARK SMILES C[C@@H](C(=O)NCCCCNC(=O)c1ccc(-c2c3nc(c(-c4cccc(S(=O)(=O)[O-])c4F)c4ccc([nH]4)c(-c4cccc(S(=O)(=O)[O-])c4F)c4nc(c(-c5cccc(S(=O)(=O)[O-])c5F)c5ccc2[nH]5)C=C4)C=C3)cc1)c1ccc2c3cc(Cl)ccc3n(C(=O)c3cocn3)c2c1
REMARK SMILES IDX 7 1 6 2 5 3 3 4 4 5 2 7 1 8 76 9 77 10 96 11 78 12 95 13
REMARK SMILES IDX 79 14 87 15 80 16 86 17 81 18 85 19 82 20 84 21 83 22 88 23
REMARK SMILES IDX 89 24 90 25 91 26 94 27 92 28 93 29 8 30 9 31 10 32 11 33
REMARK SMILES IDX 12 35 13 36 14 37 75 38 15 39 74 40 16 41 17 42 18 43 68 44
REMARK SMILES IDX 19 45 73 46 67 47 69 48 20 49 72 50 66 51 65 52 21 54 53 55
REMARK SMILES IDX 33 56 52 57 34 58 37 59 51 60 70 61 35 62 36 63 50 65 71 66
REMARK SMILES IDX 38 67 22 68 23 69 31 70 24 71 26 72 32 73 25 74 27 75 28 76
REMARK SMILES IDX 29 77 30 78 54 79 55 80 63 81 56 82 58 83 64 84 57 85 59 86
REMARK SMILES IDX 60 87 61 88 62 89 39 90 40 91 48 92 41 93 43 94 49 95 42 96
REMARK SMILES IDX 44 97 45 98 46 99 47 100
REMARK H PARENT 5 6 10 34 69 53 37 64
REMARK Flexibility Score: inf
ROOT
ATOM      1  C   UNL A   1      36.484  20.929  25.145  1.00  0.00     0.023 C 
ENDROOT
BRANCH   1   2
ATOM      2  C   UNL A   1      36.378  22.447  24.978  1.00  0.00     0.116 C 
BRANCH   2   3
ATOM      3  N   UNL A   1      35.873  22.787  23.665  1.00  0.00    -0.356 N 
ATOM      4  C   UNL A   1      34.593  23.029  23.257  1.00  0.00     0.227 C 
ATOM      5  O   UNL A   1      34.398  23.112  22.044  1.00  0.00    -0.274 OA
ATOM      6  H   UNL A   1      36.556  22.852  22.959  1.00  0.00     0.163 HD
BRANCH   4   7
ATOM      7  C   UNL A   1      33.476  23.227  24.300  1.00  0.00     0.105 C 
ATOM      8  C   UNL A   1      32.107  22.805  23.752  1.00  0.00     0.023 C 
BRANCH   7   9
ATOM      9  C   UNL A   1      33.474  24.655  24.855  1.00  0.00    -0.034 A 
ATOM     10  C   UNL A   1      34.448  25.115  25.743  1.00  0.00     0.005 A 
ATOM     11  C   UNL A   1      32.426  25.520  24.481  1.00  0.00     0.032 A 
ATOM     12  C   UNL A   1      34.440  26.433  26.200  1.00  0.00     0.011 A 
ATOM     13  C   UNL A   1      32.380  26.832  25.001  1.00  0.00     0.058 A 
ATOM     14  C   UNL A   1      33.403  27.304  25.816  1.00  0.00     0.008 A 
ATOM     15  N   UNL A   1      31.435  27.861  24.839  1.00  0.00    -0.274 N 
ATOM     16  C   UNL A   1      33.129  28.664  26.114  1.00  0.00     0.009 A 
ATOM     17  C   UNL A   1      31.875  28.978  25.576  1.00  0.00     0.057 A 
ATOM     18  C   UNL A   1      33.842  29.632  26.854  1.00  0.00     0.031 A 
ATOM     19  C   UNL A   1      31.273  30.217  25.878  1.00  0.00     0.029 A 
ATOM     20  C   UNL A   1      33.275  30.882  27.076  1.00  0.00     0.041 A 
ATOM     21  C   UNL A   1      31.999  31.166  26.613  1.00  0.00     0.023 A 
ATOM     22  Cl  UNL A   1      34.153  32.067  27.963  1.00  0.00    -0.084 Cl
BRANCH  15  23
ATOM     23  C   UNL A   1      30.239  27.741  24.070  1.00  0.00     0.284 C 
ATOM     24  O   UNL A   1      29.580  26.713  24.244  1.00  0.00    -0.266 OA
BRANCH  23  25
ATOM     25  C   UNL A   1      29.777  28.708  23.081  1.00  0.00     0.167 A 
ATOM     26  C   UNL A   1      30.490  29.315  22.068  1.00  0.00     0.231 A 
ATOM     27  N   UNL A   1      28.442  29.062  22.946  1.00  0.00    -0.211 NA
ATOM     28  O   UNL A   1      29.631  30.066  21.321  1.00  0.00    -0.451 OA
ATOM     29  C   UNL A   1      28.419  29.850  21.899  1.00  0.00     0.308 A 
ENDBRANCH  23  25
ENDBRANCH  15  23
ENDBRANCH   7   9
ENDBRANCH   4   7
ENDBRANCH   2   3
ENDBRANCH   1   2
BRANCH   1  30
ATOM     30  C   UNL A   1      37.850  20.340  24.782  1.00  0.00     0.023 C 
BRANCH  30  31
ATOM     31  C   UNL A   1      38.943  20.561  25.819  1.00  0.00     0.116 C 
BRANCH  31  32
ATOM     32  N   UNL A   1      39.887  19.455  25.887  1.00  0.00    -0.352 N 
ATOM     33  C   UNL A   1      41.245  19.499  26.097  1.00  0.00     0.251 C 
ATOM     34  H   UNL A   1      39.503  18.557  25.770  1.00  0.00     0.163 HD
ATOM     35  O   UNL A   1      41.914  18.474  26.003  1.00  0.00    -0.269 OA
BRANCH  33  36
ATOM     36  C   UNL A   1      41.892  20.791  26.400  1.00  0.00     0.039 A 
ATOM     37  C   UNL A   1      42.400  21.554  25.345  1.00  0.00     0.014 A 
ATOM     38  C   UNL A   1      41.972  21.260  27.713  1.00  0.00     0.014 A 
ATOM     39  C   UNL A   1      42.935  22.818  25.603  1.00  0.00     0.010 A 
ATOM     40  C   UNL A   1      42.445  22.544  27.960  1.00  0.00     0.010 A 
ATOM     41  C   UNL A   1      42.933  23.335  26.908  1.00  0.00    -0.014 A 
BRANCH  41  42
ATOM     42  C   UNL A   1      43.421  24.706  27.197  1.00  0.00     0.031 A 
ATOM     43  C   UNL A   1      42.472  25.755  27.705  1.00  0.00     0.074 A 
ATOM     44  C   UNL A   1      44.696  25.031  26.904  1.00  0.00     0.049 A 
ATOM     45  N   UNL A   1      42.698  27.018  27.954  1.00  0.00    -0.248 NA
ATOM     46  C   UNL A   1      41.079  25.337  27.938  1.00  0.00     0.031 C 
ATOM     47  C   UNL A   1      45.688  24.124  26.322  1.00  0.00     0.029 A 
ATOM     48  N   UNL A   1      45.367  26.221  27.028  1.00  0.00    -0.354 N 
ATOM     49  C   UNL A   1      41.474  27.555  28.332  1.00  0.00     0.074 A 
ATOM     50  C   UNL A   1      40.501  26.488  28.253  1.00  0.00     0.031 C 
ATOM     51  C   UNL A   1      46.839  24.790  26.139  1.00  0.00     0.029 A 
ATOM     52  C   UNL A   1      46.662  26.175  26.569  1.00  0.00     0.049 A 
ATOM     53  H   UNL A   1      44.960  27.032  27.408  1.00  0.00     0.167 HD
ATOM     54  C   UNL A   1      41.190  28.815  28.739  1.00  0.00     0.034 A 
ATOM     55  C   UNL A   1      47.602  27.138  26.502  1.00  0.00     0.034 A 
ATOM     56  C   UNL A   1      42.171  29.857  28.874  1.00  0.00     0.049 A 
ATOM     57  C   UNL A   1      47.279  28.511  27.026  1.00  0.00     0.074 A 
ATOM     58  C   UNL A   1      42.005  31.135  29.377  1.00  0.00     0.029 A 
ATOM     59  N   UNL A   1      43.502  29.742  28.503  1.00  0.00    -0.354 N 
ATOM     60  N   UNL A   1      46.160  28.951  27.547  1.00  0.00    -0.248 NA
ATOM     61  C   UNL A   1      48.358  29.509  26.989  1.00  0.00     0.031 C 
ATOM     62  C   UNL A   1      43.236  31.797  29.304  1.00  0.00     0.029 A 
ATOM     63  C   UNL A   1      44.169  30.926  28.763  1.00  0.00     0.049 A 
ATOM     64  H   UNL A   1      43.912  28.937  28.113  1.00  0.00     0.167 HD
ATOM     65  C   UNL A   1      46.408  30.264  27.930  1.00  0.00     0.074 A 
ATOM     66  C   UNL A   1      47.793  30.541  27.601  1.00  0.00     0.031 C 
ATOM     67  C   UNL A   1      45.562  31.166  28.486  1.00  0.00     0.034 A 
BRANCH  54  68
ATOM     68  C   UNL A   1      39.771  29.116  29.140  1.00  0.00     0.023 A 
ATOM     69  C   UNL A   1      38.786  29.252  28.140  1.00  0.00     0.012 A 
ATOM     70  C   UNL A   1      39.398  29.209  30.494  1.00  0.00     0.148 A 
ATOM     71  C   UNL A   1      37.459  29.507  28.479  1.00  0.00     0.002 A 
ATOM     72  C   UNL A   1      38.064  29.424  30.826  1.00  0.00     0.091 A 
ATOM     73  F   UNL A   1      40.351  29.102  31.431  1.00  0.00    -0.205 F 
ATOM     74  C   UNL A   1      37.097  29.582  29.821  1.00  0.00     0.022 A 
BRANCH  72  75
ATOM     75  S   UNL A   1      37.487  29.464  32.527  1.00  0.00     0.127 S 
ATOM     76  O   UNL A   1      38.443  30.383  33.142  1.00  0.00    -0.237 OA
ATOM     77  O   UNL A   1      36.133  30.001  32.384  1.00  0.00    -0.237 OA
ATOM     78  O   UNL A   1      37.543  28.087  33.000  1.00  0.00    -0.744 OA
ENDBRANCH  72  75
ENDBRANCH  54  68
BRANCH  55  79
ATOM     79  C   UNL A   1      48.966  26.809  25.999  1.00  0.00     0.023 A 
ATOM     80  C   UNL A   1      49.805  25.990  26.778  1.00  0.00     0.012 A 
ATOM     81  C   UNL A   1      49.420  27.263  24.746  1.00  0.00     0.148 A 
ATOM     82  C   UNL A   1      51.083  25.650  26.331  1.00  0.00     0.002 A 
ATOM     83  C   UNL A   1      50.673  26.879  24.283  1.00  0.00     0.091 A 
ATOM     84  F   UNL A   1      48.611  28.053  24.025  1.00  0.00    -0.205 F 
ATOM     85  C   UNL A   1      51.512  26.084  25.081  1.00  0.00     0.022 A 
BRANCH  83  86
ATOM     86  S   UNL A   1      51.251  27.283  22.631  1.00  0.00     0.127 S 
ATOM     87  O   UNL A   1      51.299  28.741  22.680  1.00  0.00    -0.237 OA
ATOM     88  O   UNL A   1      52.558  26.625  22.595  1.00  0.00    -0.237 OA
ATOM     89  O   UNL A   1      50.268  26.706  21.724  1.00  0.00    -0.744 OA
ENDBRANCH  83  86
ENDBRANCH  55  79
BRANCH  67  90
ATOM     90  C   UNL A   1      46.107  32.533  28.802  1.00  0.00     0.023 A 
ATOM     91  C   UNL A   1      46.782  32.747  30.020  1.00  0.00     0.012 A 
ATOM     92  C   UNL A   1      46.024  33.579  27.862  1.00  0.00     0.148 A 
ATOM     93  C   UNL A   1      47.344  33.990  30.309  1.00  0.00     0.002 A 
ATOM     94  C   UNL A   1      46.626  34.802  28.138  1.00  0.00     0.091 A 
ATOM     95  F   UNL A   1      45.359  33.363  26.718  1.00  0.00    -0.205 F 
ATOM     96  C   UNL A   1      47.278  35.012  29.364  1.00  0.00     0.022 A 
BRANCH  94  97
ATOM     97  S   UNL A   1      46.666  36.140  26.940  1.00  0.00     0.127 S 
ATOM     98  O   UNL A   1      47.472  37.142  27.638  1.00  0.00    -0.237 OA
ATOM     99  O   UNL A   1      47.329  35.516  25.794  1.00  0.00    -0.237 OA
ATOM    100  O   UNL A   1      45.275  36.503  26.704  1.00  0.00    -0.744 OA
ENDBRANCH  94  97
ENDBRANCH  67  90
ENDBRANCH  41  42
ENDBRANCH  33  36
ENDBRANCH  31  32
ENDBRANCH  30  31
ENDBRANCH   1  30
TORSDOF 17
ENDMDL
