MODEL 1
REMARK VINA RESULT:     -10.8      0.000      0.000
REMARK SMILES Cc1ccccc1NC(=S)NN1C(=O)CS[C@H]1c1ccccc1C(=O)NCCCCNC(=O)c1ccc(-c2c3nc(c(-c4cccc(S(=O)(=O)[O-])c4F)c4ccc([nH]4)c(-c4cccc(S(=O)(=O)[O-])c4F)c4nc(c(-c5cccc(S(=O)(=O)[O-])c5F)c5ccc2[nH]5)C=C4)C=C3)cc1
REMARK SMILES IDX 27 1 26 2 24 3 25 4 23 6 18 7 19 8 20 9 22 10 21 11 17 12
REMARK SMILES IDX 12 13 13 14 14 15 15 16 16 17 11 18 9 20 10 21 8 22 7 24
REMARK SMILES IDX 1 25 2 26 3 27 4 28 6 29 5 30 28 31 29 32 30 33 31 34 32 35
REMARK SMILES IDX 33 37 34 38 35 39 96 40 36 41 95 42 37 43 38 44 39 45 89 46
REMARK SMILES IDX 40 47 94 48 88 49 90 50 41 51 93 52 87 53 86 54 42 56 74 57
REMARK SMILES IDX 54 58 73 59 55 60 58 61 72 62 91 63 56 64 57 65 71 67 92 68
REMARK SMILES IDX 59 69 43 70 44 71 52 72 45 73 47 74 53 75 46 76 48 77 49 78
REMARK SMILES IDX 50 79 51 80 75 81 76 82 84 83 77 84 79 85 85 86 78 87 80 88
REMARK SMILES IDX 81 89 82 90 83 91 60 92 61 93 69 94 62 95 64 96 70 97 63 98
REMARK SMILES IDX 65 99 66 100 67 101 68 102
REMARK H PARENT 26 5 11 19 8 23 31 36 90 55 58 66
REMARK Flexibility Score: inf
ROOT
ATOM      1  C   UNL A   1      40.962  27.355  28.764  1.00  0.00     0.116 C 
ENDROOT
BRANCH   1   2
ATOM      2  N   UNL A   1      41.964  27.167  30.086  1.00  0.00    -0.352 N 
ATOM      3  C   UNL A   1      43.212  27.671  30.303  1.00  0.00     0.251 C 
ATOM      4  O   UNL A   1      43.919  27.314  31.235  1.00  0.00    -0.269 OA
ATOM      5  H   UNL A   1      41.601  26.615  30.815  1.00  0.00     0.163 HD
BRANCH   3   6
ATOM      6  C   UNL A   1      43.619  28.746  29.397  1.00  0.00     0.046 A 
ATOM      7  C   UNL A   1      44.187  28.467  28.143  1.00  0.00    -0.001 A 
ATOM      8  C   UNL A   1      44.010  29.457  27.158  1.00  0.00     0.007 A 
ATOM      9  C   UNL A   1      43.390  30.684  27.458  1.00  0.00     0.000 A 
ATOM     10  C   UNL A   1      43.120  30.013  29.737  1.00  0.00     0.014 A 
ATOM     11  C   UNL A   1      43.007  30.988  28.761  1.00  0.00     0.001 A 
BRANCH   7  12
ATOM     12  C   UNL A   1      44.867  27.096  27.809  1.00  0.00     0.197 C 
ATOM     13  N   UNL A   1      45.188  26.718  26.042  1.00  0.00    -0.236 N 
ATOM     14  C   UNL A   1      46.823  26.857  25.446  1.00  0.00     0.252 C 
ATOM     15  O   UNL A   1      46.655  26.347  24.433  1.00  0.00    -0.272 OA
ATOM     16  C   UNL A   1      48.252  27.103  26.891  1.00  0.00     0.174 C 
ATOM     17  S   UNL A   1      46.961  27.267  28.896  1.00  0.00    -0.120 SA
BRANCH  13  18
ATOM     18  N   UNL A   1      44.224  26.094  24.983  1.00  0.00    -0.270 N 
ATOM     19  H   UNL A   1      44.177  26.565  24.120  1.00  0.00     0.191 HD
BRANCH  18  20
ATOM     20  C   UNL A   1      43.382  24.907  25.101  1.00  0.00     0.189 C 
ATOM     21  S   UNL A   1      41.953  25.115  25.997  1.00  0.00    -0.039 S 
BRANCH  20  22
ATOM     22  N   UNL A   1      43.585  23.573  24.580  1.00  0.00    -0.331 N 
ATOM     23  H   UNL A   1      43.761  23.530  23.611  1.00  0.00     0.169 HD
BRANCH  22  24
ATOM     24  C   UNL A   1      43.568  22.169  25.311  1.00  0.00     0.043 A 
ATOM     25  C   UNL A   1      46.135  21.817  24.716  1.00  0.00     0.046 C 
ATOM     26  C   UNL A   1      44.798  21.112  24.679  1.00  0.00    -0.028 A 
ATOM     27  C   UNL A   1      44.637  19.323  24.776  1.00  0.00     0.005 A 
ATOM     28  C   UNL A   1      43.251  18.544  25.634  1.00  0.00     0.000 A 
ATOM     29  C   UNL A   1      42.130  21.400  26.232  1.00  0.00     0.026 A 
ATOM     30  C   UNL A   1      41.928  19.583  26.306  1.00  0.00     0.002 A 
ENDBRANCH  22  24
ENDBRANCH  20  22
ENDBRANCH  18  20
ENDBRANCH  13  18
ENDBRANCH   7  12
ENDBRANCH   3   6
ENDBRANCH   1   2
BRANCH   1  31
ATOM     31  C   UNL A   1      39.837  29.201  28.213  1.00  0.00     0.023 C 
BRANCH  31  32
ATOM     32  C   UNL A   1      37.921  29.789  27.946  1.00  0.00     0.023 C 
BRANCH  32  33
ATOM     33  C   UNL A   1      36.320  31.319  28.033  1.00  0.00     0.116 C 
BRANCH  33  34
ATOM     34  N   UNL A   1      36.140  32.754  28.855  1.00  0.00    -0.352 N 
ATOM     35  C   UNL A   1      35.621  32.736  30.159  1.00  0.00     0.251 C 
ATOM     36  H   UNL A   1      36.393  33.606  28.432  1.00  0.00     0.163 HD
ATOM     37  O   UNL A   1      34.473  32.469  30.474  1.00  0.00    -0.269 OA
BRANCH  35  38
ATOM     38  C   UNL A   1      36.726  32.833  31.152  1.00  0.00     0.039 A 
ATOM     39  C   UNL A   1      37.000  34.069  31.738  1.00  0.00     0.014 A 
ATOM     40  C   UNL A   1      37.752  31.936  30.854  1.00  0.00     0.014 A 
ATOM     41  C   UNL A   1      38.322  34.498  31.806  1.00  0.00     0.010 A 
ATOM     42  C   UNL A   1      39.009  32.449  30.691  1.00  0.00     0.010 A 
ATOM     43  C   UNL A   1      39.288  33.736  31.161  1.00  0.00    -0.014 A 
BRANCH  43  44
ATOM     44  C   UNL A   1      40.705  34.010  31.163  1.00  0.00     0.031 A 
ATOM     45  C   UNL A   1      41.207  34.647  29.924  1.00  0.00     0.074 A 
ATOM     46  C   UNL A   1      41.379  34.005  32.335  1.00  0.00     0.049 A 
ATOM     47  N   UNL A   1      42.448  34.832  29.660  1.00  0.00    -0.248 NA
ATOM     48  C   UNL A   1      40.317  35.130  28.856  1.00  0.00     0.031 C 
ATOM     49  C   UNL A   1      42.625  34.702  32.634  1.00  0.00     0.029 A 
ATOM     50  N   UNL A   1      41.167  33.219  33.479  1.00  0.00    -0.354 N 
ATOM     51  C   UNL A   1      42.482  35.778  28.659  1.00  0.00     0.074 A 
ATOM     52  C   UNL A   1      41.173  35.785  28.071  1.00  0.00     0.031 C 
ATOM     53  C   UNL A   1      43.213  34.107  33.685  1.00  0.00     0.029 A 
ATOM     54  C   UNL A   1      42.458  32.892  33.941  1.00  0.00     0.049 A 
ATOM     55  H   UNL A   1      40.304  32.954  33.871  1.00  0.00     0.167 HD
ATOM     56  C   UNL A   1      43.558  36.600  28.591  1.00  0.00     0.034 A 
ATOM     57  C   UNL A   1      42.977  31.627  33.852  1.00  0.00     0.034 A 
ATOM     58  C   UNL A   1      44.641  36.092  29.438  1.00  0.00     0.049 A 
ATOM     59  C   UNL A   1      44.206  31.540  32.947  1.00  0.00     0.074 A 
ATOM     60  C   UNL A   1      45.169  36.487  30.654  1.00  0.00     0.029 A 
ATOM     61  N   UNL A   1      45.101  34.794  29.218  1.00  0.00    -0.354 N 
ATOM     62  N   UNL A   1      44.658  32.534  32.227  1.00  0.00    -0.248 NA
ATOM     63  C   UNL A   1      45.022  30.338  32.773  1.00  0.00     0.031 C 
ATOM     64  C   UNL A   1      45.806  35.347  31.235  1.00  0.00     0.029 A 
ATOM     65  C   UNL A   1      45.719  34.282  30.350  1.00  0.00     0.049 A 
ATOM     66  H   UNL A   1      45.000  34.305  28.369  1.00  0.00     0.167 HD
ATOM     67  C   UNL A   1      45.665  32.109  31.401  1.00  0.00     0.074 A 
ATOM     68  C   UNL A   1      45.917  30.750  31.855  1.00  0.00     0.031 C 
ATOM     69  C   UNL A   1      46.150  32.881  30.374  1.00  0.00     0.034 A 
BRANCH  56  70
ATOM     70  C   UNL A   1      43.570  37.950  27.904  1.00  0.00     0.023 A 
ATOM     71  C   UNL A   1      42.432  38.762  28.078  1.00  0.00     0.012 A 
ATOM     72  C   UNL A   1      44.568  38.449  27.023  1.00  0.00     0.148 A 
ATOM     73  C   UNL A   1      42.296  40.002  27.441  1.00  0.00     0.002 A 
ATOM     74  C   UNL A   1      44.471  39.724  26.457  1.00  0.00     0.091 A 
ATOM     75  F   UNL A   1      45.574  37.660  26.628  1.00  0.00    -0.205 F 
ATOM     76  C   UNL A   1      43.326  40.497  26.652  1.00  0.00     0.022 A 
BRANCH  74  77
ATOM     77  S   UNL A   1      45.806  40.464  25.493  1.00  0.00     0.127 S 
ATOM     78  O   UNL A   1      45.080  41.343  24.579  1.00  0.00    -0.237 OA
ATOM     79  O   UNL A   1      46.583  41.162  26.518  1.00  0.00    -0.237 OA
ATOM     80  O   UNL A   1      46.511  39.354  24.863  1.00  0.00    -0.744 OA
ENDBRANCH  74  77
ENDBRANCH  56  70
BRANCH  57  81
ATOM     81  C   UNL A   1      41.943  30.563  34.056  1.00  0.00     0.023 A 
ATOM     82  C   UNL A   1      41.150  30.258  32.921  1.00  0.00     0.012 A 
ATOM     83  C   UNL A   1      42.056  29.605  35.080  1.00  0.00     0.148 A 
ATOM     84  C   UNL A   1      40.658  28.969  32.714  1.00  0.00     0.002 A 
ATOM     85  C   UNL A   1      41.543  28.323  34.873  1.00  0.00     0.091 A 
ATOM     86  F   UNL A   1      42.734  29.928  36.188  1.00  0.00    -0.205 F 
ATOM     87  C   UNL A   1      40.899  27.990  33.668  1.00  0.00     0.022 A 
BRANCH  85  88
ATOM     88  S   UNL A   1      41.781  26.977  36.042  1.00  0.00     0.127 S 
ATOM     89  O   UNL A   1      41.251  25.842  35.293  1.00  0.00    -0.237 OA
ATOM     90  O   UNL A   1      43.234  26.979  36.208  1.00  0.00    -0.237 OA
ATOM     91  O   UNL A   1      41.035  27.363  37.229  1.00  0.00    -0.744 OA
ENDBRANCH  85  88
ENDBRANCH  57  81
BRANCH  69  92
ATOM     92  C   UNL A   1      47.050  32.368  29.253  1.00  0.00     0.023 A 
ATOM     93  C   UNL A   1      46.786  31.174  28.554  1.00  0.00     0.012 A 
ATOM     94  C   UNL A   1      48.120  33.161  28.754  1.00  0.00     0.148 A 
ATOM     95  C   UNL A   1      47.578  30.746  27.480  1.00  0.00     0.002 A 
ATOM     96  C   UNL A   1      48.816  32.797  27.604  1.00  0.00     0.091 A 
ATOM     97  F   UNL A   1      48.487  34.276  29.403  1.00  0.00    -0.205 F 
ATOM     98  C   UNL A   1      48.578  31.569  26.989  1.00  0.00     0.022 A 
BRANCH  96  99
ATOM     99  S   UNL A   1      49.905  33.967  26.775  1.00  0.00     0.127 S 
ATOM    100  O   UNL A   1      49.197  35.229  26.963  1.00  0.00    -0.237 OA
ATOM    101  O   UNL A   1      51.145  33.843  27.545  1.00  0.00    -0.237 OA
ATOM    102  O   UNL A   1      50.007  33.478  25.406  1.00  0.00    -0.744 OA
ENDBRANCH  96  99
ENDBRANCH  69  92
ENDBRANCH  43  44
ENDBRANCH  35  38
ENDBRANCH  33  34
ENDBRANCH  32  33
ENDBRANCH  31  32
ENDBRANCH   1  31
TORSDOF 19
ENDMDL
MODEL 2
REMARK VINA RESULT:     -10.1      4.904     11.082
REMARK SMILES Cc1ccccc1NC(=S)NN1C(=O)CS[C@H]1c1ccccc1C(=O)NCCCCNC(=O)c1ccc(-c2c3nc(c(-c4cccc(S(=O)(=O)[O-])c4F)c4ccc([nH]4)c(-c4cccc(S(=O)(=O)[O-])c4F)c4nc(c(-c5cccc(S(=O)(=O)[O-])c5F)c5ccc2[nH]5)C=C4)C=C3)cc1
REMARK SMILES IDX 27 1 26 2 24 3 25 4 23 6 18 7 19 8 20 9 22 10 21 11 17 12
REMARK SMILES IDX 12 13 13 14 14 15 15 16 16 17 11 18 9 20 10 21 8 22 7 24
REMARK SMILES IDX 1 25 2 26 3 27 4 28 6 29 5 30 28 31 29 32 30 33 31 34 32 35
REMARK SMILES IDX 33 37 34 38 35 39 96 40 36 41 95 42 37 43 38 44 39 45 89 46
REMARK SMILES IDX 40 47 94 48 88 49 90 50 41 51 93 52 87 53 86 54 42 56 74 57
REMARK SMILES IDX 54 58 73 59 55 60 58 61 72 62 91 63 56 64 57 65 71 67 92 68
REMARK SMILES IDX 59 69 43 70 44 71 52 72 45 73 47 74 53 75 46 76 48 77 49 78
REMARK SMILES IDX 50 79 51 80 75 81 76 82 84 83 77 84 79 85 85 86 78 87 80 88
REMARK SMILES IDX 81 89 82 90 83 91 60 92 61 93 69 94 62 95 64 96 70 97 63 98
REMARK SMILES IDX 65 99 66 100 67 101 68 102
REMARK H PARENT 26 5 11 19 8 23 31 36 90 55 58 66
REMARK Flexibility Score: inf
ROOT
ATOM      1  C   UNL A   1      44.269  31.721  31.625  1.00  0.00     0.116 C 
ENDROOT
BRANCH   1   2
ATOM      2  N   UNL A   1      43.584  32.516  32.923  1.00  0.00    -0.352 N 
ATOM      3  C   UNL A   1      42.427  33.236  32.983  1.00  0.00     0.251 C 
ATOM      4  O   UNL A   1      42.123  33.923  33.948  1.00  0.00    -0.269 OA
ATOM      5  H   UNL A   1      44.086  32.455  33.768  1.00  0.00     0.163 HD
BRANCH   3   6
ATOM      6  C   UNL A   1      41.520  33.058  31.850  1.00  0.00     0.046 A 
ATOM      7  C   UNL A   1      40.303  32.371  31.990  1.00  0.00    -0.001 A 
ATOM      8  C   UNL A   1      39.288  32.732  31.084  1.00  0.00     0.007 A 
ATOM      9  C   UNL A   1      39.528  33.651  30.046  1.00  0.00     0.000 A 
ATOM     10  C   UNL A   1      41.806  33.873  30.742  1.00  0.00     0.014 A 
ATOM     11  C   UNL A   1      40.804  34.170  29.835  1.00  0.00     0.001 A 
BRANCH   7  12
ATOM     12  C   UNL A   1      40.035  31.356  33.153  1.00  0.00     0.197 C 
ATOM     13  N   UNL A   1      38.362  30.609  33.256  1.00  0.00    -0.236 N 
ATOM     14  C   UNL A   1      38.155  28.957  32.730  1.00  0.00     0.252 C 
ATOM     15  O   UNL A   1      37.097  28.802  33.145  1.00  0.00    -0.272 OA
ATOM     16  C   UNL A   1      39.894  27.939  32.373  1.00  0.00     0.174 C 
ATOM     17  S   UNL A   1      41.569  29.614  32.696  1.00  0.00    -0.120 SA
BRANCH  13  18
ATOM     18  N   UNL A   1      37.075  31.180  33.934  1.00  0.00    -0.270 N 
ATOM     19  H   UNL A   1      36.613  30.570  34.552  1.00  0.00     0.191 HD
BRANCH  18  20
ATOM     20  C   UNL A   1      36.463  32.496  33.771  1.00  0.00     0.189 C 
ATOM     21  S   UNL A   1      37.303  33.782  34.496  1.00  0.00    -0.039 S 
BRANCH  20  22
ATOM     22  N   UNL A   1      35.241  32.871  33.093  1.00  0.00    -0.331 N 
ATOM     23  H   UNL A   1      34.420  32.495  33.486  1.00  0.00     0.169 HD
BRANCH  22  24
ATOM     24  C   UNL A   1      35.008  33.787  31.823  1.00  0.00     0.043 A 
ATOM     25  C   UNL A   1      34.409  35.841  33.401  1.00  0.00     0.046 C 
ATOM     26  C   UNL A   1      33.919  35.097  32.180  1.00  0.00    -0.028 A 
ATOM     27  C   UNL A   1      32.942  35.881  30.889  1.00  0.00     0.005 A 
ATOM     28  C   UNL A   1      33.130  35.424  29.151  1.00  0.00     0.000 A 
ATOM     29  C   UNL A   1      35.251  33.303  30.031  1.00  0.00     0.026 A 
ATOM     30  C   UNL A   1      34.237  34.060  28.710  1.00  0.00     0.002 A 
ENDBRANCH  22  24
ENDBRANCH  20  22
ENDBRANCH  18  20
ENDBRANCH  13  18
ENDBRANCH   7  12
ENDBRANCH   3   6
ENDBRANCH   1   2
BRANCH   1  31
ATOM     31  C   UNL A   1      43.192  30.952  29.830  1.00  0.00     0.023 C 
BRANCH  31  32
ATOM     32  C   UNL A   1      42.401  29.215  29.162  1.00  0.00     0.023 C 
BRANCH  32  33
ATOM     33  C   UNL A   1      40.675  27.882  28.764  1.00  0.00     0.116 C 
BRANCH  33  34
ATOM     34  N   UNL A   1      40.501  26.235  28.615  1.00  0.00    -0.352 N 
ATOM     35  C   UNL A   1      40.815  25.620  27.393  1.00  0.00     0.251 C 
ATOM     36  H   UNL A   1      40.180  25.697  29.375  1.00  0.00     0.163 HD
ATOM     37  O   UNL A   1      40.192  25.731  26.350  1.00  0.00    -0.269 OA
BRANCH  35  38
ATOM     38  C   UNL A   1      42.172  25.011  27.460  1.00  0.00     0.039 A 
ATOM     39  C   UNL A   1      42.478  24.160  28.522  1.00  0.00     0.014 A 
ATOM     40  C   UNL A   1      43.135  25.865  26.923  1.00  0.00     0.014 A 
ATOM     41  C   UNL A   1      43.682  24.339  29.195  1.00  0.00     0.010 A 
ATOM     42  C   UNL A   1      44.191  26.206  27.723  1.00  0.00     0.010 A 
ATOM     43  C   UNL A   1      44.456  25.444  28.865  1.00  0.00    -0.014 A 
BRANCH  43  44
ATOM     44  C   UNL A   1      45.745  25.760  29.432  1.00  0.00     0.031 A 
ATOM     45  C   UNL A   1      46.896  25.220  28.674  1.00  0.00     0.074 A 
ATOM     46  C   UNL A   1      45.841  26.753  30.345  1.00  0.00     0.049 A 
ATOM     47  N   UNL A   1      48.111  25.254  29.086  1.00  0.00    -0.248 NA
ATOM     48  C   UNL A   1      46.756  24.576  27.358  1.00  0.00     0.031 C 
ATOM     49  C   UNL A   1      47.027  27.541  30.662  1.00  0.00     0.029 A 
ATOM     50  N   UNL A   1      44.915  27.158  31.318  1.00  0.00    -0.354 N 
ATOM     51  C   UNL A   1      48.891  25.039  27.970  1.00  0.00     0.074 A 
ATOM     52  C   UNL A   1      48.030  24.442  26.989  1.00  0.00     0.031 C 
ATOM     53  C   UNL A   1      46.879  28.073  31.886  1.00  0.00     0.029 A 
ATOM     54  C   UNL A   1      45.691  27.461  32.456  1.00  0.00     0.049 A 
ATOM     55  H   UNL A   1      43.936  27.217  31.226  1.00  0.00     0.167 HD
ATOM     56  C   UNL A   1      50.127  25.595  27.936  1.00  0.00     0.034 A 
ATOM     57  C   UNL A   1      45.688  26.680  33.583  1.00  0.00     0.034 A 
ATOM     58  C   UNL A   1      50.507  26.071  29.271  1.00  0.00     0.049 A 
ATOM     59  C   UNL A   1      47.046  26.042  33.879  1.00  0.00     0.074 A 
ATOM     60  C   UNL A   1      50.613  27.324  29.844  1.00  0.00     0.029 A 
ATOM     61  N   UNL A   1      50.495  25.160  30.327  1.00  0.00    -0.354 N 
ATOM     62  N   UNL A   1      48.082  26.122  33.085  1.00  0.00    -0.248 NA
ATOM     63  C   UNL A   1      47.349  25.263  35.080  1.00  0.00     0.031 C 
ATOM     64  C   UNL A   1      50.490  27.160  31.259  1.00  0.00     0.029 A 
ATOM     65  C   UNL A   1      50.371  25.809  31.547  1.00  0.00     0.049 A 
ATOM     66  H   UNL A   1      50.565  24.183  30.220  1.00  0.00     0.167 HD
ATOM     67  C   UNL A   1      49.095  25.318  33.537  1.00  0.00     0.074 A 
ATOM     68  C   UNL A   1      48.618  24.881  34.840  1.00  0.00     0.031 C 
ATOM     69  C   UNL A   1      50.199  25.025  32.774  1.00  0.00     0.034 A 
BRANCH  56  70
ATOM     70  C   UNL A   1      50.915  25.871  26.673  1.00  0.00     0.023 A 
ATOM     71  C   UNL A   1      51.995  25.008  26.397  1.00  0.00     0.012 A 
ATOM     72  C   UNL A   1      50.742  26.965  25.782  1.00  0.00     0.148 A 
ATOM     73  C   UNL A   1      52.839  25.200  25.296  1.00  0.00     0.002 A 
ATOM     74  C   UNL A   1      51.531  27.105  24.636  1.00  0.00     0.091 A 
ATOM     75  F   UNL A   1      49.889  27.951  26.083  1.00  0.00    -0.205 F 
ATOM     76  C   UNL A   1      52.593  26.231  24.399  1.00  0.00     0.022 A 
BRANCH  74  77
ATOM     77  S   UNL A   1      51.213  28.367  23.386  1.00  0.00     0.127 S 
ATOM     78  O   UNL A   1      49.833  28.083  22.999  1.00  0.00    -0.237 OA
ATOM     79  O   UNL A   1      51.389  29.608  24.141  1.00  0.00    -0.237 OA
ATOM     80  O   UNL A   1      52.209  28.160  22.341  1.00  0.00    -0.744 OA
ENDBRANCH  74  77
ENDBRANCH  56  70
BRANCH  57  81
ATOM     81  C   UNL A   1      44.343  26.089  33.872  1.00  0.00     0.023 A 
ATOM     82  C   UNL A   1      44.188  24.723  33.520  1.00  0.00     0.012 A 
ATOM     83  C   UNL A   1      43.482  26.641  34.838  1.00  0.00     0.148 A 
ATOM     84  C   UNL A   1      43.348  23.885  34.253  1.00  0.00     0.002 A 
ATOM     85  C   UNL A   1      42.630  25.797  35.553  1.00  0.00     0.091 A 
ATOM     86  F   UNL A   1      43.574  27.949  35.106  1.00  0.00    -0.205 F 
ATOM     87  C   UNL A   1      42.607  24.413  35.302  1.00  0.00     0.022 A 
BRANCH  85  88
ATOM     88  S   UNL A   1      41.615  26.368  36.922  1.00  0.00     0.127 S 
ATOM     89  O   UNL A   1      41.161  27.664  36.430  1.00  0.00    -0.237 OA
ATOM     90  O   UNL A   1      40.580  25.336  36.978  1.00  0.00    -0.237 OA
ATOM     91  O   UNL A   1      42.503  26.399  38.074  1.00  0.00    -0.744 OA
ENDBRANCH  85  88
ENDBRANCH  57  81
BRANCH  69  92
ATOM     92  C   UNL A   1      51.207  23.925  33.093  1.00  0.00     0.023 A 
ATOM     93  C   UNL A   1      52.582  24.182  33.261  1.00  0.00     0.012 A 
ATOM     94  C   UNL A   1      50.777  22.603  33.391  1.00  0.00     0.148 A 
ATOM     95  C   UNL A   1      53.491  23.178  33.621  1.00  0.00     0.002 A 
ATOM     96  C   UNL A   1      51.663  21.646  33.879  1.00  0.00     0.091 A 
ATOM     97  F   UNL A   1      49.498  22.252  33.187  1.00  0.00    -0.205 F 
ATOM     98  C   UNL A   1      53.029  21.915  33.955  1.00  0.00     0.022 A 
BRANCH  96  99
ATOM     99  S   UNL A   1      51.058  20.109  34.595  1.00  0.00     0.127 S 
ATOM    100  O   UNL A   1      52.129  19.175  34.261  1.00  0.00    -0.237 OA
ATOM    101  O   UNL A   1      50.961  20.440  36.018  1.00  0.00    -0.237 OA
ATOM    102  O   UNL A   1      49.771  19.877  33.952  1.00  0.00    -0.744 OA
ENDBRANCH  96  99
ENDBRANCH  69  92
ENDBRANCH  43  44
ENDBRANCH  35  38
ENDBRANCH  33  34
ENDBRANCH  32  33
ENDBRANCH  31  32
ENDBRANCH   1  31
TORSDOF 19
ENDMDL
MODEL 3
REMARK VINA RESULT:     -10.1      5.112      9.918
REMARK SMILES Cc1ccccc1NC(=S)NN1C(=O)CS[C@H]1c1ccccc1C(=O)NCCCCNC(=O)c1ccc(-c2c3nc(c(-c4cccc(S(=O)(=O)[O-])c4F)c4ccc([nH]4)c(-c4cccc(S(=O)(=O)[O-])c4F)c4nc(c(-c5cccc(S(=O)(=O)[O-])c5F)c5ccc2[nH]5)C=C4)C=C3)cc1
REMARK SMILES IDX 27 1 26 2 24 3 25 4 23 6 18 7 19 8 20 9 22 10 21 11 17 12
REMARK SMILES IDX 12 13 13 14 14 15 15 16 16 17 11 18 9 20 10 21 8 22 7 24
REMARK SMILES IDX 1 25 2 26 3 27 4 28 6 29 5 30 28 31 29 32 30 33 31 34 32 35
REMARK SMILES IDX 33 37 34 38 35 39 96 40 36 41 95 42 37 43 38 44 39 45 89 46
REMARK SMILES IDX 40 47 94 48 88 49 90 50 41 51 93 52 87 53 86 54 42 56 74 57
REMARK SMILES IDX 54 58 73 59 55 60 58 61 72 62 91 63 56 64 57 65 71 67 92 68
REMARK SMILES IDX 59 69 43 70 44 71 52 72 45 73 47 74 53 75 46 76 48 77 49 78
REMARK SMILES IDX 50 79 51 80 75 81 76 82 84 83 77 84 79 85 85 86 78 87 80 88
REMARK SMILES IDX 81 89 82 90 83 91 60 92 61 93 69 94 62 95 64 96 70 97 63 98
REMARK SMILES IDX 65 99 66 100 67 101 68 102
REMARK H PARENT 26 5 11 19 8 23 31 36 90 55 58 66
REMARK Flexibility Score: inf
ROOT
ATOM      1  C   UNL A   1      42.673  32.561  30.980  1.00  0.00     0.116 C 
ENDROOT
BRANCH   1   2
ATOM      2  N   UNL A   1      41.226  32.881  30.213  1.00  0.00    -0.352 N 
ATOM      3  C   UNL A   1      40.054  32.184  30.253  1.00  0.00     0.251 C 
ATOM      4  O   UNL A   1      39.116  32.420  29.503  1.00  0.00    -0.269 OA
ATOM      5  H   UNL A   1      41.215  33.689  29.651  1.00  0.00     0.163 HD
BRANCH   3   6
ATOM      6  C   UNL A   1      39.952  31.192  31.322  1.00  0.00     0.046 A 
ATOM      7  C   UNL A   1      39.115  31.398  32.431  1.00  0.00    -0.001 A 
ATOM      8  C   UNL A   1      38.644  30.233  33.067  1.00  0.00     0.007 A 
ATOM      9  C   UNL A   1      39.077  28.955  32.666  1.00  0.00     0.000 A 
ATOM     10  C   UNL A   1      40.489  29.935  31.002  1.00  0.00     0.014 A 
ATOM     11  C   UNL A   1      40.050  28.810  31.680  1.00  0.00     0.001 A 
BRANCH   7  12
ATOM     12  C   UNL A   1      38.626  32.820  32.869  1.00  0.00     0.197 C 
ATOM     13  N   UNL A   1      37.157  32.910  33.965  1.00  0.00    -0.236 N 
ATOM     14  C   UNL A   1      37.402  33.261  35.657  1.00  0.00     0.252 C 
ATOM     15  O   UNL A   1      36.304  33.450  35.930  1.00  0.00    -0.272 OA
ATOM     16  C   UNL A   1      39.294  33.867  36.150  1.00  0.00     0.174 C 
ATOM     17  S   UNL A   1      40.475  33.663  34.081  1.00  0.00    -0.120 SA
BRANCH  13  18
ATOM     18  N   UNL A   1      35.643  32.899  33.577  1.00  0.00    -0.270 N 
ATOM     19  H   UNL A   1      35.076  32.283  34.093  1.00  0.00     0.191 HD
BRANCH  18  20
ATOM     20  C   UNL A   1      34.958  33.678  32.550  1.00  0.00     0.189 C 
ATOM     21  S   UNL A   1      34.772  35.332  32.895  1.00  0.00    -0.039 S 
BRANCH  20  22
ATOM     22  N   UNL A   1      34.399  33.254  31.284  1.00  0.00    -0.331 N 
ATOM     23  H   UNL A   1      33.472  33.547  31.124  1.00  0.00     0.169 HD
BRANCH  22  24
ATOM     24  C   UNL A   1      35.034  32.395  30.116  1.00  0.00     0.043 A 
ATOM     25  C   UNL A   1      33.750  33.874  28.318  1.00  0.00     0.046 C 
ATOM     26  C   UNL A   1      34.038  32.437  28.689  1.00  0.00    -0.028 A 
ATOM     27  C   UNL A   1      34.082  31.108  27.476  1.00  0.00     0.005 A 
ATOM     28  C   UNL A   1      35.240  29.730  27.625  1.00  0.00     0.000 A 
ATOM     29  C   UNL A   1      36.267  30.997  30.293  1.00  0.00     0.026 A 
ATOM     30  C   UNL A   1      36.297  29.617  29.093  1.00  0.00     0.002 A 
ENDBRANCH  22  24
ENDBRANCH  20  22
ENDBRANCH  18  20
ENDBRANCH  13  18
ENDBRANCH   7  12
ENDBRANCH   3   6
ENDBRANCH   1   2
BRANCH   1  31
ATOM     31  C   UNL A   1      44.552  31.852  30.010  1.00  0.00     0.023 C 
BRANCH  31  32
ATOM     32  C   UNL A   1      45.595  32.167  28.307  1.00  0.00     0.023 C 
BRANCH  32  33
ATOM     33  C   UNL A   1      47.501  32.315  27.185  1.00  0.00     0.116 C 
BRANCH  33  34
ATOM     34  N   UNL A   1      48.906  33.176  27.409  1.00  0.00    -0.352 N 
ATOM     35  C   UNL A   1      49.487  33.837  26.315  1.00  0.00     0.251 C 
ATOM     36  H   UNL A   1      49.326  33.222  28.298  1.00  0.00     0.163 HD
ATOM     37  O   UNL A   1      50.022  33.306  25.355  1.00  0.00    -0.269 OA
BRANCH  35  38
ATOM     38  C   UNL A   1      49.135  35.283  26.343  1.00  0.00     0.039 A 
ATOM     39  C   UNL A   1      49.463  36.035  27.471  1.00  0.00     0.014 A 
ATOM     40  C   UNL A   1      47.961  35.530  25.630  1.00  0.00     0.014 A 
ATOM     41  C   UNL A   1      48.498  36.875  28.018  1.00  0.00     0.010 A 
ATOM     42  C   UNL A   1      46.941  36.152  26.295  1.00  0.00     0.010 A 
ATOM     43  C   UNL A   1      47.212  36.817  27.495  1.00  0.00    -0.014 A 
BRANCH  43  44
ATOM     44  C   UNL A   1      46.104  37.642  27.913  1.00  0.00     0.031 A 
ATOM     45  C   UNL A   1      46.171  39.044  27.441  1.00  0.00     0.074 A 
ATOM     46  C   UNL A   1      44.975  37.053  28.369  1.00  0.00     0.049 A 
ATOM     47  N   UNL A   1      45.375  39.973  27.825  1.00  0.00    -0.248 NA
ATOM     48  C   UNL A   1      47.179  39.515  26.478  1.00  0.00     0.031 C 
ATOM     49  C   UNL A   1      43.631  37.617  28.371  1.00  0.00     0.029 A 
ATOM     50  N   UNL A   1      44.826  35.861  29.095  1.00  0.00    -0.354 N 
ATOM     51  C   UNL A   1      45.497  40.980  26.892  1.00  0.00     0.074 A 
ATOM     52  C   UNL A   1      46.736  40.744  26.208  1.00  0.00     0.031 C 
ATOM     53  C   UNL A   1      42.892  36.974  29.290  1.00  0.00     0.029 A 
ATOM     54  C   UNL A   1      43.812  36.132  30.036  1.00  0.00     0.049 A 
ATOM     55  H   UNL A   1      45.323  35.019  28.973  1.00  0.00     0.167 HD
ATOM     56  C   UNL A   1      44.422  41.774  26.662  1.00  0.00     0.034 A 
ATOM     57  C   UNL A   1      44.063  36.260  31.378  1.00  0.00     0.034 A 
ATOM     58  C   UNL A   1      43.416  41.583  27.712  1.00  0.00     0.049 A 
ATOM     59  C   UNL A   1      43.758  37.658  31.918  1.00  0.00     0.074 A 
ATOM     60  C   UNL A   1      42.187  40.950  27.754  1.00  0.00     0.029 A 
ATOM     61  N   UNL A   1      43.796  41.781  29.038  1.00  0.00    -0.354 N 
ATOM     62  N   UNL A   1      43.409  38.672  31.171  1.00  0.00    -0.248 NA
ATOM     63  C   UNL A   1      43.822  38.030  33.331  1.00  0.00     0.031 C 
ATOM     64  C   UNL A   1      41.922  40.620  29.119  1.00  0.00     0.029 A 
ATOM     65  C   UNL A   1      42.955  41.103  29.908  1.00  0.00     0.049 A 
ATOM     66  H   UNL A   1      44.563  42.331  29.321  1.00  0.00     0.167 HD
ATOM     67  C   UNL A   1      43.364  39.822  31.914  1.00  0.00     0.074 A 
ATOM     68  C   UNL A   1      43.536  39.345  33.278  1.00  0.00     0.031 C 
ATOM     69  C   UNL A   1      43.264  41.067  31.341  1.00  0.00     0.034 A 
BRANCH  56  70
ATOM     70  C   UNL A   1      44.202  42.585  25.403  1.00  0.00     0.023 A 
ATOM     71  C   UNL A   1      44.933  43.784  25.282  1.00  0.00     0.012 A 
ATOM     72  C   UNL A   1      43.264  42.316  24.368  1.00  0.00     0.148 A 
ATOM     73  C   UNL A   1      44.767  44.653  24.197  1.00  0.00     0.002 A 
ATOM     74  C   UNL A   1      43.162  43.139  23.243  1.00  0.00     0.091 A 
ATOM     75  F   UNL A   1      42.377  41.324  24.504  1.00  0.00    -0.205 F 
ATOM     76  C   UNL A   1      43.903  44.320  23.162  1.00  0.00     0.022 A 
BRANCH  74  77
ATOM     77  S   UNL A   1      42.125  42.724  21.825  1.00  0.00     0.127 S 
ATOM     78  O   UNL A   1      40.778  42.830  22.383  1.00  0.00    -0.237 OA
ATOM     79  O   UNL A   1      42.470  43.773  20.866  1.00  0.00    -0.237 OA
ATOM     80  O   UNL A   1      42.525  41.384  21.412  1.00  0.00    -0.744 OA
ENDBRANCH  74  77
ENDBRANCH  56  70
BRANCH  57  81
ATOM     81  C   UNL A   1      45.140  35.335  31.855  1.00  0.00     0.023 A 
ATOM     82  C   UNL A   1      46.443  35.615  31.370  1.00  0.00     0.012 A 
ATOM     83  C   UNL A   1      45.003  34.585  33.037  1.00  0.00     0.148 A 
ATOM     84  C   UNL A   1      47.570  35.340  32.144  1.00  0.00     0.002 A 
ATOM     85  C   UNL A   1      46.140  34.298  33.796  1.00  0.00     0.091 A 
ATOM     86  F   UNL A   1      43.774  34.251  33.446  1.00  0.00    -0.205 F 
ATOM     87  C   UNL A   1      47.413  34.726  33.379  1.00  0.00     0.022 A 
BRANCH  85  88
ATOM     88  S   UNL A   1      46.062  33.496  35.404  1.00  0.00     0.127 S 
ATOM     89  O   UNL A   1      45.576  32.168  35.046  1.00  0.00    -0.237 OA
ATOM     90  O   UNL A   1      47.460  33.545  35.829  1.00  0.00    -0.237 OA
ATOM     91  O   UNL A   1      45.158  34.314  36.197  1.00  0.00    -0.744 OA
ENDBRANCH  85  88
ENDBRANCH  57  81
BRANCH  69  92
ATOM     92  C   UNL A   1      43.498  42.383  32.077  1.00  0.00     0.023 A 
ATOM     93  C   UNL A   1      42.464  43.305  32.330  1.00  0.00     0.012 A 
ATOM     94  C   UNL A   1      44.752  42.668  32.683  1.00  0.00     0.148 A 
ATOM     95  C   UNL A   1      42.673  44.479  33.067  1.00  0.00     0.002 A 
ATOM     96  C   UNL A   1      44.917  43.765  33.525  1.00  0.00     0.091 A 
ATOM     97  F   UNL A   1      45.811  41.883  32.434  1.00  0.00    -0.205 F 
ATOM     98  C   UNL A   1      43.893  44.697  33.686  1.00  0.00     0.022 A 
BRANCH  96  99
ATOM     99  S   UNL A   1      46.376  43.917  34.568  1.00  0.00     0.127 S 
ATOM    100  O   UNL A   1      46.028  45.051  35.417  1.00  0.00    -0.237 OA
ATOM    101  O   UNL A   1      46.407  42.625  35.259  1.00  0.00    -0.237 OA
ATOM    102  O   UNL A   1      47.481  44.118  33.639  1.00  0.00    -0.744 OA
ENDBRANCH  96  99
ENDBRANCH  69  92
ENDBRANCH  43  44
ENDBRANCH  35  38
ENDBRANCH  33  34
ENDBRANCH  32  33
ENDBRANCH  31  32
ENDBRANCH   1  31
TORSDOF 19
ENDMDL
