MODEL 1
REMARK VINA RESULT:     -11.7      0.000      0.000
REMARK SMILES O=C(NCCCCNC(=O)[C@H]1C[C@H]2CCCC[C@@H]2[N@@H+]1CC[C@@H]1CCCO1)c1ccc(-c2c3nc(c(-c4cccc(S(=O)(=O)[O-])c4F)c4ccc([nH]4)c(-c4cccc(S(=O)(=O)[O-])c4F)c4nc(c(-c5cccc(S(=O)(=O)[O-])c5F)c5ccc2[nH]5)C=C4)C=C3)cc1
REMARK SMILES IDX 5 1 4 2 3 3 1 4 2 5 27 7 28 8 89 9 29 10 88 11 30 12 31 13
REMARK SMILES IDX 32 14 82 15 33 16 87 17 81 18 83 19 34 20 86 21 80 22 79 23
REMARK SMILES IDX 35 25 67 26 47 27 66 28 48 29 51 30 65 31 84 32 49 33 50 34
REMARK SMILES IDX 64 36 85 37 52 38 36 39 37 40 45 41 38 42 40 43 46 44 39 45
REMARK SMILES IDX 41 46 42 47 43 48 44 49 68 50 69 51 77 52 70 53 72 54 78 55
REMARK SMILES IDX 71 56 73 57 74 58 75 59 76 60 53 61 54 62 62 63 55 64 57 65
REMARK SMILES IDX 63 66 56 67 58 68 59 69 60 70 61 71 6 72 7 73 8 74 9 75
REMARK SMILES IDX 10 77 11 78 12 79 19 80 13 81 18 82 14 84 17 85 15 86 16 87
REMARK SMILES IDX 20 88 21 89 22 90 23 91 26 92 24 93 25 94
REMARK H PARENT 3 6 83 24 51 35 8 76 19 83
REMARK Flexibility Score: inf
ROOT
ATOM      1  C   UNL A   1      31.982  28.779  24.677  1.00  0.00     0.023 C 
ENDROOT
BRANCH   1   2
ATOM      2  C   UNL A   1      32.893  29.521  25.630  1.00  0.00     0.116 C 
BRANCH   2   3
ATOM      3  N   UNL A   1      32.371  30.772  26.167  1.00  0.00    -0.352 N 
ATOM      4  O   UNL A   1      32.494  32.630  27.479  1.00  0.00    -0.269 OA
ATOM      5  C   UNL A   1      33.026  31.611  27.054  1.00  0.00     0.251 C 
ATOM      6  H   UNL A   1      31.471  31.046  25.873  1.00  0.00     0.163 HD
BRANCH   5   7
ATOM      7  C   UNL A   1      34.369  31.193  27.509  1.00  0.00     0.039 A 
ATOM      8  C   UNL A   1      34.539  29.893  27.990  1.00  0.00     0.014 A 
ATOM      9  C   UNL A   1      35.376  32.148  27.661  1.00  0.00     0.014 A 
ATOM     10  C   UNL A   1      35.613  29.619  28.819  1.00  0.00     0.010 A 
ATOM     11  C   UNL A   1      36.530  31.817  28.380  1.00  0.00     0.010 A 
ATOM     12  C   UNL A   1      36.636  30.565  29.006  1.00  0.00    -0.014 A 
BRANCH  12  13
ATOM     13  C   UNL A   1      37.841  30.164  29.778  1.00  0.00     0.031 A 
ATOM     14  C   UNL A   1      38.079  30.618  31.193  1.00  0.00     0.074 A 
ATOM     15  C   UNL A   1      38.722  29.345  29.168  1.00  0.00     0.049 A 
ATOM     16  N   UNL A   1      39.084  30.335  31.983  1.00  0.00    -0.248 NA
ATOM     17  C   UNL A   1      37.078  31.508  31.802  1.00  0.00     0.031 C 
ATOM     18  C   UNL A   1      38.608  28.878  27.782  1.00  0.00     0.029 A 
ATOM     19  N   UNL A   1      39.868  28.750  29.622  1.00  0.00    -0.354 N 
ATOM     20  C   UNL A   1      38.868  31.047  33.157  1.00  0.00     0.074 A 
ATOM     21  C   UNL A   1      37.628  31.774  32.982  1.00  0.00     0.031 C 
ATOM     22  C   UNL A   1      39.607  28.029  27.516  1.00  0.00     0.029 A 
ATOM     23  C   UNL A   1      40.481  27.959  28.678  1.00  0.00     0.049 A 
ATOM     24  H   UNL A   1      40.218  28.875  30.533  1.00  0.00     0.167 HD
ATOM     25  C   UNL A   1      39.633  31.083  34.276  1.00  0.00     0.034 A 
ATOM     26  C   UNL A   1      41.637  27.274  28.723  1.00  0.00     0.034 A 
ATOM     27  C   UNL A   1      40.841  30.318  34.451  1.00  0.00     0.049 A 
ATOM     28  C   UNL A   1      42.437  27.306  29.988  1.00  0.00     0.074 A 
ATOM     29  C   UNL A   1      41.657  30.242  35.568  1.00  0.00     0.029 A 
ATOM     30  N   UNL A   1      41.411  29.500  33.487  1.00  0.00    -0.354 N 
ATOM     31  N   UNL A   1      42.160  27.906  31.119  1.00  0.00    -0.248 NA
ATOM     32  C   UNL A   1      43.698  26.556  29.990  1.00  0.00     0.031 C 
ATOM     33  C   UNL A   1      42.727  29.390  35.272  1.00  0.00     0.029 A 
ATOM     34  C   UNL A   1      42.570  28.920  33.978  1.00  0.00     0.049 A 
ATOM     35  H   UNL A   1      41.046  29.352  32.585  1.00  0.00     0.167 HD
ATOM     36  C   UNL A   1      43.208  27.600  31.975  1.00  0.00     0.074 A 
ATOM     37  C   UNL A   1      44.104  26.726  31.242  1.00  0.00     0.031 C 
ATOM     38  C   UNL A   1      43.425  28.023  33.244  1.00  0.00     0.034 A 
BRANCH  25  39
ATOM     39  C   UNL A   1      39.177  31.949  35.425  1.00  0.00     0.023 A 
ATOM     40  C   UNL A   1      38.307  31.414  36.397  1.00  0.00     0.012 A 
ATOM     41  C   UNL A   1      39.681  33.255  35.595  1.00  0.00     0.148 A 
ATOM     42  C   UNL A   1      37.932  32.170  37.508  1.00  0.00     0.002 A 
ATOM     43  C   UNL A   1      39.331  33.989  36.723  1.00  0.00     0.091 A 
ATOM     44  F   UNL A   1      40.493  33.754  34.652  1.00  0.00    -0.205 F 
ATOM     45  C   UNL A   1      38.451  33.452  37.677  1.00  0.00     0.022 A 
BRANCH  43  46
ATOM     46  S   UNL A   1      40.004  35.620  37.069  1.00  0.00     0.127 S 
ATOM     47  O   UNL A   1      39.332  35.956  38.323  1.00  0.00    -0.237 OA
ATOM     48  O   UNL A   1      41.435  35.343  37.200  1.00  0.00    -0.237 OA
ATOM     49  O   UNL A   1      39.649  36.450  35.926  1.00  0.00    -0.744 OA
ENDBRANCH  43  46
ENDBRANCH  25  39
BRANCH  26  50
ATOM     50  C   UNL A   1      42.070  26.488  27.535  1.00  0.00     0.023 A 
ATOM     51  C   UNL A   1      42.897  27.089  26.569  1.00  0.00     0.012 A 
ATOM     52  C   UNL A   1      41.734  25.127  27.401  1.00  0.00     0.148 A 
ATOM     53  C   UNL A   1      43.367  26.353  25.481  1.00  0.00     0.002 A 
ATOM     54  C   UNL A   1      42.260  24.382  26.353  1.00  0.00     0.091 A 
ATOM     55  F   UNL A   1      40.930  24.574  28.322  1.00  0.00    -0.205 F 
ATOM     56  C   UNL A   1      43.062  24.998  25.382  1.00  0.00     0.022 A 
BRANCH  54  57
ATOM     57  S   UNL A   1      42.051  22.601  26.262  1.00  0.00     0.127 S 
ATOM     58  O   UNL A   1      42.716  22.158  27.483  1.00  0.00    -0.237 OA
ATOM     59  O   UNL A   1      40.594  22.459  26.266  1.00  0.00    -0.237 OA
ATOM     60  O   UNL A   1      42.680  22.206  25.008  1.00  0.00    -0.744 OA
ENDBRANCH  54  57
ENDBRANCH  26  50
BRANCH  38  61
ATOM     61  C   UNL A   1      44.678  27.535  33.918  1.00  0.00     0.023 A 
ATOM     62  C   UNL A   1      45.853  28.308  33.840  1.00  0.00     0.012 A 
ATOM     63  C   UNL A   1      44.682  26.337  34.657  1.00  0.00     0.148 A 
ATOM     64  C   UNL A   1      47.026  27.878  34.459  1.00  0.00     0.002 A 
ATOM     65  C   UNL A   1      45.842  25.938  35.309  1.00  0.00     0.091 A 
ATOM     66  F   UNL A   1      43.558  25.605  34.697  1.00  0.00    -0.205 F 
ATOM     67  C   UNL A   1      47.016  26.699  35.201  1.00  0.00     0.022 A 
BRANCH  65  68
ATOM     68  S   UNL A   1      45.894  24.480  36.356  1.00  0.00     0.127 S 
ATOM     69  O   UNL A   1      47.081  24.740  37.169  1.00  0.00    -0.237 OA
ATOM     70  O   UNL A   1      44.626  24.570  37.081  1.00  0.00    -0.237 OA
ATOM     71  O   UNL A   1      45.989  23.343  35.451  1.00  0.00    -0.744 OA
ENDBRANCH  65  68
ENDBRANCH  38  61
ENDBRANCH  12  13
ENDBRANCH   5   7
ENDBRANCH   2   3
ENDBRANCH   1   2
BRANCH   1  72
ATOM     72  C   UNL A   1      31.771  27.315  25.001  1.00  0.00     0.023 C 
BRANCH  72  73
ATOM     73  C   UNL A   1      31.465  26.947  26.460  1.00  0.00     0.116 C 
BRANCH  73  74
ATOM     74  N   UNL A   1      30.842  25.646  26.649  1.00  0.00    -0.351 N 
ATOM     75  C   UNL A   1      31.321  24.372  26.742  1.00  0.00     0.278 C 
ATOM     76  H   UNL A   1      29.862  25.696  26.726  1.00  0.00     0.163 HD
ATOM     77  O   UNL A   1      30.533  23.557  27.246  1.00  0.00    -0.268 OA
BRANCH  75  78
ATOM     78  C   UNL A   1      32.696  23.870  26.204  1.00  0.00     0.274 C 
ATOM     79  C   UNL A   1      33.105  22.433  26.443  1.00  0.00     0.085 C 
ATOM     80  N   UNL A   1      32.797  24.014  24.720  1.00  0.00    -0.322 N 
ATOM     81  C   UNL A   1      32.910  21.720  25.123  1.00  0.00     0.054 C 
ATOM     82  C   UNL A   1      32.335  22.744  24.170  1.00  0.00     0.188 C 
ATOM     83  H   UNL A   1      32.190  24.750  24.359  1.00  0.00     0.349 HD
ATOM     84  C   UNL A   1      32.195  20.387  24.996  1.00  0.00     0.010 C 
ATOM     85  C   UNL A   1      32.671  22.311  22.741  1.00  0.00     0.065 C 
ATOM     86  C   UNL A   1      32.480  19.858  23.581  1.00  0.00     0.001 C 
ATOM     87  C   UNL A   1      32.155  20.881  22.475  1.00  0.00     0.006 C 
BRANCH  80  88
ATOM     88  C   UNL A   1      34.052  24.601  24.224  1.00  0.00     0.265 C 
BRANCH  88  89
ATOM     89  C   UNL A   1      35.360  24.753  25.054  1.00  0.00     0.093 C 
BRANCH  89  90
ATOM     90  C   UNL A   1      36.477  23.703  24.898  1.00  0.00     0.123 C 
ATOM     91  C   UNL A   1      36.311  22.670  23.791  1.00  0.00     0.034 C 
ATOM     92  O   UNL A   1      36.540  22.900  26.102  1.00  0.00    -0.378 OA
ATOM     93  C   UNL A   1      36.582  21.315  24.387  1.00  0.00     0.031 C 
ATOM     94  C   UNL A   1      37.129  21.643  25.746  1.00  0.00     0.160 C 
ENDBRANCH  89  90
ENDBRANCH  88  89
ENDBRANCH  80  88
ENDBRANCH  75  78
ENDBRANCH  73  74
ENDBRANCH  72  73
ENDBRANCH   1  72
TORSDOF 17
ENDMDL
MODEL 2
REMARK VINA RESULT:     -11.6      1.631      7.935
REMARK SMILES O=C(NCCCCNC(=O)[C@H]1C[C@H]2CCCC[C@@H]2[N@@H+]1CC[C@@H]1CCCO1)c1ccc(-c2c3nc(c(-c4cccc(S(=O)(=O)[O-])c4F)c4ccc([nH]4)c(-c4cccc(S(=O)(=O)[O-])c4F)c4nc(c(-c5cccc(S(=O)(=O)[O-])c5F)c5ccc2[nH]5)C=C4)C=C3)cc1
REMARK SMILES IDX 5 1 4 2 3 3 1 4 2 5 27 7 28 8 89 9 29 10 88 11 30 12 31 13
REMARK SMILES IDX 32 14 82 15 33 16 87 17 81 18 83 19 34 20 86 21 80 22 79 23
REMARK SMILES IDX 35 25 67 26 47 27 66 28 48 29 51 30 65 31 84 32 49 33 50 34
REMARK SMILES IDX 64 36 85 37 52 38 36 39 37 40 45 41 38 42 40 43 46 44 39 45
REMARK SMILES IDX 41 46 42 47 43 48 44 49 68 50 69 51 77 52 70 53 72 54 78 55
REMARK SMILES IDX 71 56 73 57 74 58 75 59 76 60 53 61 54 62 62 63 55 64 57 65
REMARK SMILES IDX 63 66 56 67 58 68 59 69 60 70 61 71 6 72 7 73 8 74 9 75
REMARK SMILES IDX 10 77 11 78 12 79 19 80 13 81 18 82 14 84 17 85 15 86 16 87
REMARK SMILES IDX 20 88 21 89 22 90 23 91 26 92 24 93 25 94
REMARK H PARENT 3 6 83 24 51 35 8 76 19 83
REMARK Flexibility Score: inf
ROOT
ATOM      1  C   UNL A   1      31.798  29.292  25.840  1.00  0.00     0.023 C 
ENDROOT
BRANCH   1   2
ATOM      2  C   UNL A   1      32.971  30.058  26.411  1.00  0.00     0.116 C 
BRANCH   2   3
ATOM      3  N   UNL A   1      32.680  31.402  26.896  1.00  0.00    -0.352 N 
ATOM      4  O   UNL A   1      33.199  33.315  28.017  1.00  0.00    -0.269 OA
ATOM      5  C   UNL A   1      33.543  32.208  27.621  1.00  0.00     0.251 C 
ATOM      6  H   UNL A   1      31.790  31.769  26.691  1.00  0.00     0.163 HD
BRANCH   5   7
ATOM      7  C   UNL A   1      34.874  31.651  27.944  1.00  0.00     0.039 A 
ATOM      8  C   UNL A   1      34.955  30.336  28.406  1.00  0.00     0.014 A 
ATOM      9  C   UNL A   1      35.983  32.497  27.998  1.00  0.00     0.014 A 
ATOM     10  C   UNL A   1      36.070  29.945  29.127  1.00  0.00     0.010 A 
ATOM     11  C   UNL A   1      37.161  32.043  28.602  1.00  0.00     0.010 A 
ATOM     12  C   UNL A   1      37.198  30.780  29.215  1.00  0.00    -0.014 A 
BRANCH  12  13
ATOM     13  C   UNL A   1      38.424  30.250  29.866  1.00  0.00     0.031 A 
ATOM     14  C   UNL A   1      39.336  29.266  29.187  1.00  0.00     0.074 A 
ATOM     15  C   UNL A   1      38.714  30.706  31.102  1.00  0.00     0.049 A 
ATOM     16  N   UNL A   1      40.442  28.730  29.639  1.00  0.00    -0.248 NA
ATOM     17  C   UNL A   1      38.965  28.810  27.837  1.00  0.00     0.031 C 
ATOM     18  C   UNL A   1      37.874  31.632  31.870  1.00  0.00     0.029 A 
ATOM     19  N   UNL A   1      39.783  30.474  31.924  1.00  0.00    -0.354 N 
ATOM     20  C   UNL A   1      40.871  27.840  28.662  1.00  0.00     0.074 A 
ATOM     21  C   UNL A   1      39.909  27.911  27.581  1.00  0.00     0.031 C 
ATOM     22  C   UNL A   1      38.482  31.933  33.022  1.00  0.00     0.029 A 
ATOM     23  C   UNL A   1      39.709  31.155  33.118  1.00  0.00     0.049 A 
ATOM     24  H   UNL A   1      40.530  29.880  31.686  1.00  0.00     0.167 HD
ATOM     25  C   UNL A   1      41.969  27.045  28.666  1.00  0.00     0.034 A 
ATOM     26  C   UNL A   1      40.520  31.138  34.190  1.00  0.00     0.034 A 
ATOM     27  C   UNL A   1      42.941  27.020  29.730  1.00  0.00     0.049 A 
ATOM     28  C   UNL A   1      41.744  30.276  34.146  1.00  0.00     0.074 A 
ATOM     29  C   UNL A   1      44.117  26.291  29.804  1.00  0.00     0.029 A 
ATOM     30  N   UNL A   1      42.852  27.751  30.905  1.00  0.00    -0.354 N 
ATOM     31  N   UNL A   1      42.181  29.521  33.169  1.00  0.00    -0.248 NA
ATOM     32  C   UNL A   1      42.594  30.276  35.341  1.00  0.00     0.031 C 
ATOM     33  C   UNL A   1      44.730  26.572  31.031  1.00  0.00     0.029 A 
ATOM     34  C   UNL A   1      43.946  27.487  31.714  1.00  0.00     0.049 A 
ATOM     35  H   UNL A   1      42.119  28.367  31.133  1.00  0.00     0.167 HD
ATOM     36  C   UNL A   1      43.364  28.960  33.625  1.00  0.00     0.074 A 
ATOM     37  C   UNL A   1      43.595  29.497  34.953  1.00  0.00     0.031 C 
ATOM     38  C   UNL A   1      44.175  28.062  33.015  1.00  0.00     0.034 A 
BRANCH  25  39
ATOM     39  C   UNL A   1      42.213  26.156  27.472  1.00  0.00     0.023 A 
ATOM     40  C   UNL A   1      42.896  26.668  26.350  1.00  0.00     0.012 A 
ATOM     41  C   UNL A   1      41.853  24.793  27.495  1.00  0.00     0.148 A 
ATOM     42  C   UNL A   1      43.199  25.845  25.265  1.00  0.00     0.002 A 
ATOM     43  C   UNL A   1      42.190  23.970  26.426  1.00  0.00     0.091 A 
ATOM     44  F   UNL A   1      41.188  24.326  28.562  1.00  0.00    -0.205 F 
ATOM     45  C   UNL A   1      42.856  24.496  25.306  1.00  0.00     0.022 A 
BRANCH  43  46
ATOM     46  S   UNL A   1      41.858  22.204  26.416  1.00  0.00     0.127 S 
ATOM     47  O   UNL A   1      42.479  21.780  27.670  1.00  0.00    -0.237 OA
ATOM     48  O   UNL A   1      40.394  22.164  26.417  1.00  0.00    -0.237 OA
ATOM     49  O   UNL A   1      42.477  21.686  25.204  1.00  0.00    -0.744 OA
ENDBRANCH  43  46
ENDBRANCH  25  39
BRANCH  26  50
ATOM     50  C   UNL A   1      40.195  31.987  35.369  1.00  0.00     0.023 A 
ATOM     51  C   UNL A   1      40.842  33.226  35.531  1.00  0.00     0.012 A 
ATOM     52  C   UNL A   1      39.192  31.611  36.283  1.00  0.00     0.148 A 
ATOM     53  C   UNL A   1      40.507  34.066  36.593  1.00  0.00     0.002 A 
ATOM     54  C   UNL A   1      38.816  32.481  37.298  1.00  0.00     0.091 A 
ATOM     55  F   UNL A   1      38.599  30.418  36.124  1.00  0.00    -0.205 F 
ATOM     56  C   UNL A   1      39.485  33.702  37.466  1.00  0.00     0.022 A 
BRANCH  54  57
ATOM     57  S   UNL A   1      37.396  32.152  38.347  1.00  0.00     0.127 S 
ATOM     58  O   UNL A   1      36.364  32.970  37.720  1.00  0.00    -0.237 OA
ATOM     59  O   UNL A   1      37.221  30.707  38.188  1.00  0.00    -0.237 OA
ATOM     60  O   UNL A   1      37.809  32.554  39.686  1.00  0.00    -0.744 OA
ENDBRANCH  54  57
ENDBRANCH  26  50
BRANCH  38  61
ATOM     61  C   UNL A   1      45.390  27.615  33.779  1.00  0.00     0.023 A 
ATOM     62  C   UNL A   1      46.586  28.354  33.677  1.00  0.00     0.012 A 
ATOM     63  C   UNL A   1      45.339  26.490  34.624  1.00  0.00     0.148 A 
ATOM     64  C   UNL A   1      47.724  27.960  34.377  1.00  0.00     0.002 A 
ATOM     65  C   UNL A   1      46.465  26.130  35.355  1.00  0.00     0.091 A 
ATOM     66  F   UNL A   1      44.199  25.787  34.688  1.00  0.00    -0.205 F 
ATOM     67  C   UNL A   1      47.660  26.855  35.224  1.00  0.00     0.022 A 
BRANCH  65  68
ATOM     68  S   UNL A   1      46.444  24.774  36.533  1.00  0.00     0.127 S 
ATOM     69  O   UNL A   1      47.860  24.662  36.881  1.00  0.00    -0.237 OA
ATOM     70  O   UNL A   1      45.594  25.301  37.600  1.00  0.00    -0.237 OA
ATOM     71  O   UNL A   1      45.880  23.637  35.820  1.00  0.00    -0.744 OA
ENDBRANCH  65  68
ENDBRANCH  38  61
ENDBRANCH  12  13
ENDBRANCH   5   7
ENDBRANCH   2   3
ENDBRANCH   1   2
BRANCH   1  72
ATOM     72  C   UNL A   1      32.084  27.845  25.497  1.00  0.00     0.023 C 
BRANCH  72  73
ATOM     73  C   UNL A   1      31.566  27.316  24.153  1.00  0.00     0.116 C 
BRANCH  73  74
ATOM     74  N   UNL A   1      32.596  27.010  23.173  1.00  0.00    -0.351 N 
ATOM     75  C   UNL A   1      33.098  25.851  22.658  1.00  0.00     0.278 C 
ATOM     76  H   UNL A   1      33.023  27.815  22.800  1.00  0.00     0.163 HD
ATOM     77  O   UNL A   1      33.724  25.984  21.595  1.00  0.00    -0.268 OA
BRANCH  75  78
ATOM     78  C   UNL A   1      33.020  24.445  23.326  1.00  0.00     0.274 C 
ATOM     79  C   UNL A   1      33.816  23.300  22.739  1.00  0.00     0.085 C 
ATOM     80  N   UNL A   1      33.470  24.482  24.751  1.00  0.00    -0.322 N 
ATOM     81  C   UNL A   1      35.001  23.102  23.658  1.00  0.00     0.054 C 
ATOM     82  C   UNL A   1      34.897  24.175  24.720  1.00  0.00     0.188 C 
ATOM     83  H   UNL A   1      33.359  25.405  25.170  1.00  0.00     0.349 HD
ATOM     84  C   UNL A   1      36.427  22.960  23.158  1.00  0.00     0.010 C 
ATOM     85  C   UNL A   1      35.649  23.695  25.963  1.00  0.00     0.065 C 
ATOM     86  C   UNL A   1      37.272  22.468  24.344  1.00  0.00     0.001 C 
ATOM     87  C   UNL A   1      37.107  23.337  25.607  1.00  0.00     0.006 C 
BRANCH  80  88
ATOM     88  C   UNL A   1      32.603  23.778  25.709  1.00  0.00     0.265 C 
BRANCH  88  89
ATOM     89  C   UNL A   1      31.551  22.692  25.335  1.00  0.00     0.093 C 
BRANCH  89  90
ATOM     90  C   UNL A   1      31.968  21.208  25.337  1.00  0.00     0.123 C 
ATOM     91  C   UNL A   1      33.315  20.865  25.959  1.00  0.00     0.034 C 
ATOM     92  O   UNL A   1      32.103  20.755  23.968  1.00  0.00    -0.378 OA
ATOM     93  C   UNL A   1      34.047  19.969  24.997  1.00  0.00     0.031 C 
ATOM     94  C   UNL A   1      32.998  19.636  23.975  1.00  0.00     0.160 C 
ENDBRANCH  89  90
ENDBRANCH  88  89
ENDBRANCH  80  88
ENDBRANCH  75  78
ENDBRANCH  73  74
ENDBRANCH  72  73
ENDBRANCH   1  72
TORSDOF 17
ENDMDL
MODEL 3
REMARK VINA RESULT:     -11.6      1.104      2.229
REMARK SMILES O=C(NCCCCNC(=O)[C@H]1C[C@H]2CCCC[C@@H]2[N@@H+]1CC[C@@H]1CCCO1)c1ccc(-c2c3nc(c(-c4cccc(S(=O)(=O)[O-])c4F)c4ccc([nH]4)c(-c4cccc(S(=O)(=O)[O-])c4F)c4nc(c(-c5cccc(S(=O)(=O)[O-])c5F)c5ccc2[nH]5)C=C4)C=C3)cc1
REMARK SMILES IDX 5 1 4 2 3 3 1 4 2 5 27 7 28 8 89 9 29 10 88 11 30 12 31 13
REMARK SMILES IDX 32 14 82 15 33 16 87 17 81 18 83 19 34 20 86 21 80 22 79 23
REMARK SMILES IDX 35 25 67 26 47 27 66 28 48 29 51 30 65 31 84 32 49 33 50 34
REMARK SMILES IDX 64 36 85 37 52 38 36 39 37 40 45 41 38 42 40 43 46 44 39 45
REMARK SMILES IDX 41 46 42 47 43 48 44 49 68 50 69 51 77 52 70 53 72 54 78 55
REMARK SMILES IDX 71 56 73 57 74 58 75 59 76 60 53 61 54 62 62 63 55 64 57 65
REMARK SMILES IDX 63 66 56 67 58 68 59 69 60 70 61 71 6 72 7 73 8 74 9 75
REMARK SMILES IDX 10 77 11 78 12 79 19 80 13 81 18 82 14 84 17 85 15 86 16 87
REMARK SMILES IDX 20 88 21 89 22 90 23 91 26 92 24 93 25 94
REMARK H PARENT 3 6 83 24 51 35 8 76 19 83
REMARK Flexibility Score: inf
ROOT
ATOM      1  C   UNL A   1      31.722  28.680  25.963  1.00  0.00     0.023 C 
ENDROOT
BRANCH   1   2
ATOM      2  C   UNL A   1      32.807  29.725  26.108  1.00  0.00     0.116 C 
BRANCH   2   3
ATOM      3  N   UNL A   1      32.360  31.057  26.497  1.00  0.00    -0.352 N 
ATOM      4  O   UNL A   1      32.618  33.063  27.546  1.00  0.00    -0.269 OA
ATOM      5  C   UNL A   1      33.089  31.974  27.237  1.00  0.00     0.251 C 
ATOM      6  H   UNL A   1      31.459  31.331  26.207  1.00  0.00     0.163 HD
BRANCH   5   7
ATOM      7  C   UNL A   1      34.435  31.559  27.687  1.00  0.00     0.039 A 
ATOM      8  C   UNL A   1      34.645  30.220  28.022  1.00  0.00     0.014 A 
ATOM      9  C   UNL A   1      35.396  32.528  27.981  1.00  0.00     0.014 A 
ATOM     10  C   UNL A   1      35.706  29.893  28.850  1.00  0.00     0.010 A 
ATOM     11  C   UNL A   1      36.541  32.162  28.696  1.00  0.00     0.010 A 
ATOM     12  C   UNL A   1      36.682  30.850  29.178  1.00  0.00    -0.014 A 
BRANCH  12  13
ATOM     13  C   UNL A   1      37.880  30.410  29.940  1.00  0.00     0.031 A 
ATOM     14  C   UNL A   1      38.129  30.831  31.362  1.00  0.00     0.074 A 
ATOM     15  C   UNL A   1      38.743  29.586  29.312  1.00  0.00     0.049 A 
ATOM     16  N   UNL A   1      39.129  30.512  32.144  1.00  0.00    -0.248 NA
ATOM     17  C   UNL A   1      37.147  31.729  31.991  1.00  0.00     0.031 C 
ATOM     18  C   UNL A   1      38.617  29.149  27.917  1.00  0.00     0.029 A 
ATOM     19  N   UNL A   1      39.877  28.959  29.751  1.00  0.00    -0.354 N 
ATOM     20  C   UNL A   1      38.930  31.205  33.333  1.00  0.00     0.074 A 
ATOM     21  C   UNL A   1      37.704  31.960  33.175  1.00  0.00     0.031 C 
ATOM     22  C   UNL A   1      39.598  28.286  27.632  1.00  0.00     0.029 A 
ATOM     23  C   UNL A   1      40.473  28.175  28.790  1.00  0.00     0.049 A 
ATOM     24  H   UNL A   1      40.232  29.059  30.663  1.00  0.00     0.167 HD
ATOM     25  C   UNL A   1      39.697  31.204  34.451  1.00  0.00     0.034 A 
ATOM     26  C   UNL A   1      41.615  27.466  28.819  1.00  0.00     0.034 A 
ATOM     27  C   UNL A   1      40.890  30.411  34.608  1.00  0.00     0.049 A 
ATOM     28  C   UNL A   1      42.418  27.457  30.083  1.00  0.00     0.074 A 
ATOM     29  C   UNL A   1      41.706  30.296  35.722  1.00  0.00     0.029 A 
ATOM     30  N   UNL A   1      41.441  29.601  33.627  1.00  0.00    -0.354 N 
ATOM     31  N   UNL A   1      42.155  28.040  31.226  1.00  0.00    -0.248 NA
ATOM     32  C   UNL A   1      43.663  26.682  30.068  1.00  0.00     0.031 C 
ATOM     33  C   UNL A   1      42.758  29.428  35.407  1.00  0.00     0.029 A 
ATOM     34  C   UNL A   1      42.589  28.988  34.104  1.00  0.00     0.049 A 
ATOM     35  H   UNL A   1      41.072  29.478  32.723  1.00  0.00     0.167 HD
ATOM     36  C   UNL A   1      43.197  27.696  32.074  1.00  0.00     0.074 A 
ATOM     37  C   UNL A   1      44.074  26.819  31.321  1.00  0.00     0.031 C 
ATOM     38  C   UNL A   1      43.425  28.089  33.351  1.00  0.00     0.034 A 
BRANCH  25  39
ATOM     39  C   UNL A   1      39.260  32.055  35.618  1.00  0.00     0.023 A 
ATOM     40  C   UNL A   1      38.453  31.492  36.627  1.00  0.00     0.012 A 
ATOM     41  C   UNL A   1      39.725  33.378  35.765  1.00  0.00     0.148 A 
ATOM     42  C   UNL A   1      38.100  32.237  37.753  1.00  0.00     0.002 A 
ATOM     43  C   UNL A   1      39.398  34.103  36.907  1.00  0.00     0.091 A 
ATOM     44  F   UNL A   1      40.477  33.904  34.788  1.00  0.00    -0.205 F 
ATOM     45  C   UNL A   1      38.579  33.537  37.898  1.00  0.00     0.022 A 
BRANCH  43  46
ATOM     46  S   UNL A   1      40.026  35.757  37.221  1.00  0.00     0.127 S 
ATOM     47  O   UNL A   1      39.641  36.456  35.997  1.00  0.00    -0.237 OA
ATOM     48  O   UNL A   1      39.273  36.153  38.412  1.00  0.00    -0.237 OA
ATOM     49  O   UNL A   1      41.460  35.608  37.433  1.00  0.00    -0.744 OA
ENDBRANCH  43  46
ENDBRANCH  25  39
BRANCH  26  50
ATOM     50  C   UNL A   1      42.030  26.695  27.615  1.00  0.00     0.023 A 
ATOM     51  C   UNL A   1      42.740  27.343  26.588  1.00  0.00     0.012 A 
ATOM     52  C   UNL A   1      41.797  25.309  27.522  1.00  0.00     0.148 A 
ATOM     53  C   UNL A   1      43.194  26.626  25.480  1.00  0.00     0.002 A 
ATOM     54  C   UNL A   1      42.311  24.590  26.451  1.00  0.00     0.091 A 
ATOM     55  F   UNL A   1      41.103  24.712  28.502  1.00  0.00    -0.205 F 
ATOM     56  C   UNL A   1      42.994  25.249  25.419  1.00  0.00     0.022 A 
BRANCH  54  57
ATOM     57  S   UNL A   1      42.241  22.796  26.397  1.00  0.00     0.127 S 
ATOM     58  O   UNL A   1      40.847  22.540  26.748  1.00  0.00    -0.237 OA
ATOM     59  O   UNL A   1      42.589  22.513  25.004  1.00  0.00    -0.237 OA
ATOM     60  O   UNL A   1      43.238  22.346  27.360  1.00  0.00    -0.744 OA
ENDBRANCH  54  57
ENDBRANCH  26  50
BRANCH  38  61
ATOM     61  C   UNL A   1      44.669  27.563  34.012  1.00  0.00     0.023 A 
ATOM     62  C   UNL A   1      45.842  28.343  34.004  1.00  0.00     0.012 A 
ATOM     63  C   UNL A   1      44.666  26.319  34.672  1.00  0.00     0.148 A 
ATOM     64  C   UNL A   1      47.006  27.878  34.613  1.00  0.00     0.002 A 
ATOM     65  C   UNL A   1      45.817  25.882  35.315  1.00  0.00     0.091 A 
ATOM     66  F   UNL A   1      43.546  25.582  34.645  1.00  0.00    -0.205 F 
ATOM     67  C   UNL A   1      46.990  26.653  35.277  1.00  0.00     0.022 A 
BRANCH  65  68
ATOM     68  S   UNL A   1      45.859  24.359  36.266  1.00  0.00     0.127 S 
ATOM     69  O   UNL A   1      45.645  23.353  35.227  1.00  0.00    -0.237 OA
ATOM     70  O   UNL A   1      47.210  24.378  36.828  1.00  0.00    -0.237 OA
ATOM     71  O   UNL A   1      44.796  24.478  37.254  1.00  0.00    -0.744 OA
ENDBRANCH  65  68
ENDBRANCH  38  61
ENDBRANCH  12  13
ENDBRANCH   5   7
ENDBRANCH   2   3
ENDBRANCH   1   2
BRANCH   1  72
ATOM     72  C   UNL A   1      31.131  28.558  24.575  1.00  0.00     0.023 C 
BRANCH  72  73
ATOM     73  C   UNL A   1      31.167  27.178  23.904  1.00  0.00     0.116 C 
BRANCH  73  74
ATOM     74  N   UNL A   1      32.313  26.942  23.040  1.00  0.00    -0.351 N 
ATOM     75  C   UNL A   1      32.940  25.820  22.584  1.00  0.00     0.278 C 
ATOM     76  H   UNL A   1      32.726  27.774  22.714  1.00  0.00     0.163 HD
ATOM     77  O   UNL A   1      33.666  25.998  21.594  1.00  0.00    -0.268 OA
BRANCH  75  78
ATOM     78  C   UNL A   1      32.880  24.408  23.243  1.00  0.00     0.274 C 
ATOM     79  C   UNL A   1      33.686  23.276  22.644  1.00  0.00     0.085 C 
ATOM     80  N   UNL A   1      33.337  24.440  24.666  1.00  0.00    -0.322 N 
ATOM     81  C   UNL A   1      34.878  23.085  23.556  1.00  0.00     0.054 C 
ATOM     82  C   UNL A   1      34.768  24.149  24.625  1.00  0.00     0.188 C 
ATOM     83  H   UNL A   1      33.218  25.359  25.092  1.00  0.00     0.349 HD
ATOM     84  C   UNL A   1      36.302  22.962  23.047  1.00  0.00     0.010 C 
ATOM     85  C   UNL A   1      35.530  23.668  25.861  1.00  0.00     0.065 C 
ATOM     86  C   UNL A   1      37.159  22.471  24.226  1.00  0.00     0.001 C 
ATOM     87  C   UNL A   1      36.991  23.329  25.495  1.00  0.00     0.006 C 
BRANCH  80  88
ATOM     88  C   UNL A   1      32.483  23.720  25.623  1.00  0.00     0.265 C 
BRANCH  88  89
ATOM     89  C   UNL A   1      31.513  22.557  25.260  1.00  0.00     0.093 C 
BRANCH  89  90
ATOM     90  C   UNL A   1      32.005  21.101  25.383  1.00  0.00     0.123 C 
ATOM     91  C   UNL A   1      33.378  20.881  26.002  1.00  0.00     0.034 C 
ATOM     92  O   UNL A   1      32.138  20.536  24.056  1.00  0.00    -0.378 OA
ATOM     93  C   UNL A   1      34.137  19.940  25.105  1.00  0.00     0.031 C 
ATOM     94  C   UNL A   1      33.089  19.467  24.141  1.00  0.00     0.160 C 
ENDBRANCH  89  90
ENDBRANCH  88  89
ENDBRANCH  80  88
ENDBRANCH  75  78
ENDBRANCH  73  74
ENDBRANCH  72  73
ENDBRANCH   1  72
TORSDOF 17
ENDMDL
