MODEL 1
REMARK VINA RESULT:     -12.6      0.000      0.000
REMARK SMILES Cc1cc(C(=O)NCCCCNC(=O)c2ccc(-c3c4nc(c(-c5cccc(S(=O)(=O)[O-])c5F)c5ccc([nH]5)c(-c5cccc(S(=O)(=O)[O-])c5F)c5nc(c(-c6cccc(S(=O)(=O)[O-])c6F)c6ccc3[nH]6)C=C5)C=C4)cc2)ccc1NS(=O)(=O)c1c(F)cccc1F
REMARK SMILES IDX 9 1 8 2 7 3 5 4 6 5 4 7 1 8 2 9 3 10 80 11 79 12 78 13 81 14
REMARK SMILES IDX 82 16 83 17 84 18 85 19 86 20 91 21 87 22 88 23 90 24 92 25
REMARK SMILES IDX 89 26 10 27 11 28 12 29 13 30 14 32 15 33 16 34 77 35 17 36
REMARK SMILES IDX 76 37 18 38 19 39 20 40 70 41 21 42 75 43 69 44 71 45 22 46
REMARK SMILES IDX 74 47 68 48 67 49 23 51 55 52 35 53 54 54 36 55 39 56 53 57
REMARK SMILES IDX 72 58 37 59 38 60 52 62 73 63 40 64 24 65 25 66 33 67 26 68
REMARK SMILES IDX 28 69 34 70 27 71 29 72 30 73 31 74 32 75 56 76 57 77 65 78
REMARK SMILES IDX 58 79 60 80 66 81 59 82 61 83 62 84 63 85 64 86 41 87 42 88
REMARK SMILES IDX 50 89 43 90 45 91 51 92 44 93 46 94 47 95 48 96 49 97
REMARK H PARENT 7 6 81 15 12 31 71 50 39 61
REMARK Flexibility Score: inf
ROOT
ATOM      1  C   UNL A   1      32.899  29.778  25.380  1.00  0.00     0.023 C 
ENDROOT
BRANCH   1   2
ATOM      2  C   UNL A   1      31.445  30.266  25.394  1.00  0.00     0.116 C 
BRANCH   2   3
ATOM      3  N   UNL A   1      30.750  30.077  24.130  1.00  0.00    -0.352 N 
ATOM      4  C   UNL A   1      30.580  28.993  23.302  1.00  0.00     0.251 C 
ATOM      5  O   UNL A   1      30.023  29.174  22.219  1.00  0.00    -0.269 OA
ATOM      6  H   UNL A   1      30.312  30.894  23.798  1.00  0.00     0.163 HD
BRANCH   4   7
ATOM      7  C   UNL A   1      31.118  27.640  23.609  1.00  0.00     0.040 A 
ATOM      8  C   UNL A   1      30.286  24.928  26.123  1.00  0.00     0.046 C 
ATOM      9  C   UNL A   1      30.819  25.576  24.875  1.00  0.00    -0.026 A 
ATOM     10  C   UNL A   1      30.505  26.924  24.643  1.00  0.00     0.019 A 
ATOM     11  C   UNL A   1      31.673  24.923  23.973  1.00  0.00     0.052 A 
ATOM     12  C   UNL A   1      32.506  25.699  23.172  1.00  0.00     0.028 A 
ATOM     13  C   UNL A   1      32.225  27.062  22.990  1.00  0.00     0.016 A 
BRANCH  11  14
ATOM     14  N   UNL A   1      31.527  23.510  23.841  1.00  0.00    -0.279 N 
ATOM     15  H   UNL A   1      30.756  23.207  23.308  1.00  0.00     0.180 HD
BRANCH  14  16
ATOM     16  S   UNL A   1      32.492  22.299  24.475  1.00  0.00     0.267 S 
ATOM     17  O   UNL A   1      31.921  21.976  25.764  1.00  0.00    -0.201 OA
ATOM     18  O   UNL A   1      32.558  21.297  23.424  1.00  0.00    -0.201 OA
BRANCH  16  19
ATOM     19  C   UNL A   1      34.136  22.847  24.732  1.00  0.00     0.158 A 
ATOM     20  C   UNL A   1      34.946  22.991  23.609  1.00  0.00     0.146 A 
ATOM     21  C   UNL A   1      34.692  23.029  25.986  1.00  0.00     0.146 A 
ATOM     22  F   UNL A   1      34.432  22.953  22.372  1.00  0.00    -0.205 F 
ATOM     23  C   UNL A   1      36.319  23.198  23.734  1.00  0.00     0.041 A 
ATOM     24  C   UNL A   1      36.073  23.207  26.125  1.00  0.00     0.041 A 
ATOM     25  F   UNL A   1      33.945  23.003  27.097  1.00  0.00    -0.205 F 
ATOM     26  C   UNL A   1      36.893  23.266  24.999  1.00  0.00     0.006 A 
ENDBRANCH  16  19
ENDBRANCH  14  16
ENDBRANCH  11  14
ENDBRANCH   4   7
ENDBRANCH   2   3
ENDBRANCH   1   2
BRANCH   1  27
ATOM     27  C   UNL A   1      33.614  29.734  26.734  1.00  0.00     0.023 C 
BRANCH  27  28
ATOM     28  C   UNL A   1      33.369  30.963  27.596  1.00  0.00     0.116 C 
BRANCH  28  29
ATOM     29  N   UNL A   1      34.465  31.908  27.618  1.00  0.00    -0.352 N 
ATOM     30  C   UNL A   1      35.745  31.764  28.127  1.00  0.00     0.251 C 
ATOM     31  H   UNL A   1      34.274  32.784  27.210  1.00  0.00     0.163 HD
ATOM     32  O   UNL A   1      36.371  32.796  28.362  1.00  0.00    -0.269 OA
BRANCH  30  33
ATOM     33  C   UNL A   1      36.413  30.431  28.210  1.00  0.00     0.039 A 
ATOM     34  C   UNL A   1      36.464  29.826  29.477  1.00  0.00     0.014 A 
ATOM     35  C   UNL A   1      37.249  29.961  27.205  1.00  0.00     0.014 A 
ATOM     36  C   UNL A   1      37.559  29.047  29.831  1.00  0.00     0.010 A 
ATOM     37  C   UNL A   1      38.384  29.284  27.568  1.00  0.00     0.010 A 
ATOM     38  C   UNL A   1      38.579  28.930  28.905  1.00  0.00    -0.014 A 
BRANCH  38  39
ATOM     39  C   UNL A   1      39.934  28.502  29.186  1.00  0.00     0.031 A 
ATOM     40  C   UNL A   1      40.267  27.079  29.032  1.00  0.00     0.074 A 
ATOM     41  C   UNL A   1      40.858  29.486  29.093  1.00  0.00     0.049 A 
ATOM     42  N   UNL A   1      41.426  26.571  29.255  1.00  0.00    -0.248 NA
ATOM     43  C   UNL A   1      39.274  26.096  28.608  1.00  0.00     0.031 C 
ATOM     44  C   UNL A   1      42.236  29.369  28.644  1.00  0.00     0.029 A 
ATOM     45  N   UNL A   1      40.751  30.825  29.498  1.00  0.00    -0.354 N 
ATOM     46  C   UNL A   1      41.432  25.324  28.662  1.00  0.00     0.074 A 
ATOM     47  C   UNL A   1      40.043  25.017  28.440  1.00  0.00     0.031 C 
ATOM     48  C   UNL A   1      42.911  30.465  29.030  1.00  0.00     0.029 A 
ATOM     49  C   UNL A   1      42.035  31.198  29.929  1.00  0.00     0.049 A 
ATOM     50  H   UNL A   1      39.942  31.387  29.483  1.00  0.00     0.167 HD
ATOM     51  C   UNL A   1      42.628  24.807  28.258  1.00  0.00     0.034 A 
ATOM     52  C   UNL A   1      42.323  31.482  31.238  1.00  0.00     0.034 A 
ATOM     53  C   UNL A   1      43.734  25.658  28.744  1.00  0.00     0.049 A 
ATOM     54  C   UNL A   1      43.315  30.495  31.844  1.00  0.00     0.074 A 
ATOM     55  C   UNL A   1      44.549  26.592  28.127  1.00  0.00     0.029 A 
ATOM     56  N   UNL A   1      43.905  25.838  30.115  1.00  0.00    -0.354 N 
ATOM     57  N   UNL A   1      43.746  29.423  31.234  1.00  0.00    -0.248 NA
ATOM     58  C   UNL A   1      43.895  30.625  33.179  1.00  0.00     0.031 C 
ATOM     59  C   UNL A   1      45.107  27.423  29.142  1.00  0.00     0.029 A 
ATOM     60  C   UNL A   1      44.669  26.967  30.376  1.00  0.00     0.049 A 
ATOM     61  H   UNL A   1      43.534  25.244  30.805  1.00  0.00     0.167 HD
ATOM     62  C   UNL A   1      44.507  28.664  32.080  1.00  0.00     0.074 A 
ATOM     63  C   UNL A   1      44.638  29.504  33.260  1.00  0.00     0.031 C 
ATOM     64  C   UNL A   1      44.905  27.392  31.758  1.00  0.00     0.034 A 
BRANCH  51  65
ATOM     65  C   UNL A   1      42.840  23.712  27.209  1.00  0.00     0.023 A 
ATOM     66  C   UNL A   1      43.469  24.103  26.003  1.00  0.00     0.012 A 
ATOM     67  C   UNL A   1      42.409  22.362  27.253  1.00  0.00     0.148 A 
ATOM     68  C   UNL A   1      43.604  23.248  24.901  1.00  0.00     0.002 A 
ATOM     69  C   UNL A   1      42.551  21.499  26.158  1.00  0.00     0.091 A 
ATOM     70  F   UNL A   1      41.843  21.869  28.350  1.00  0.00    -0.205 F 
ATOM     71  C   UNL A   1      43.137  21.945  24.974  1.00  0.00     0.022 A 
BRANCH  69  72
ATOM     72  S   UNL A   1      41.973  19.787  26.180  1.00  0.00     0.127 S 
ATOM     73  O   UNL A   1      42.634  19.226  25.001  1.00  0.00    -0.237 OA
ATOM     74  O   UNL A   1      42.492  19.300  27.457  1.00  0.00    -0.237 OA
ATOM     75  O   UNL A   1      40.518  19.837  26.089  1.00  0.00    -0.744 OA
ENDBRANCH  69  72
ENDBRANCH  51  65
BRANCH  52  76
ATOM     76  C   UNL A   1      41.193  32.149  31.955  1.00  0.00     0.023 A 
ATOM     77  C   UNL A   1      40.682  33.329  31.360  1.00  0.00     0.012 A 
ATOM     78  C   UNL A   1      40.377  31.433  32.849  1.00  0.00     0.148 A 
ATOM     79  C   UNL A   1      39.342  33.688  31.517  1.00  0.00     0.002 A 
ATOM     80  C   UNL A   1      39.035  31.790  32.989  1.00  0.00     0.091 A 
ATOM     81  F   UNL A   1      40.892  30.360  33.462  1.00  0.00    -0.205 F 
ATOM     82  C   UNL A   1      38.508  32.889  32.291  1.00  0.00     0.022 A 
BRANCH  80  83
ATOM     83  S   UNL A   1      37.876  30.781  33.925  1.00  0.00     0.127 S 
ATOM     84  O   UNL A   1      37.051  31.799  34.565  1.00  0.00    -0.237 OA
ATOM     85  O   UNL A   1      37.205  30.020  32.873  1.00  0.00    -0.237 OA
ATOM     86  O   UNL A   1      38.705  29.974  34.807  1.00  0.00    -0.744 OA
ENDBRANCH  80  83
ENDBRANCH  52  76
BRANCH  64  87
ATOM     87  C   UNL A   1      45.535  26.404  32.722  1.00  0.00     0.023 A 
ATOM     88  C   UNL A   1      46.929  26.255  32.852  1.00  0.00     0.012 A 
ATOM     89  C   UNL A   1      44.733  25.699  33.658  1.00  0.00     0.148 A 
ATOM     90  C   UNL A   1      47.498  25.408  33.810  1.00  0.00     0.002 A 
ATOM     91  C   UNL A   1      45.307  24.963  34.690  1.00  0.00     0.091 A 
ATOM     92  F   UNL A   1      43.397  25.721  33.546  1.00  0.00    -0.205 F 
ATOM     93  C   UNL A   1      46.689  24.783  34.748  1.00  0.00     0.022 A 
BRANCH  91  94
ATOM     94  S   UNL A   1      44.311  24.380  36.070  1.00  0.00     0.127 S 
ATOM     95  O   UNL A   1      43.602  25.593  36.469  1.00  0.00    -0.237 OA
ATOM     96  O   UNL A   1      43.469  23.360  35.442  1.00  0.00    -0.237 OA
ATOM     97  O   UNL A   1      45.272  23.849  37.028  1.00  0.00    -0.744 OA
ENDBRANCH  91  94
ENDBRANCH  64  87
ENDBRANCH  38  39
ENDBRANCH  30  33
ENDBRANCH  28  29
ENDBRANCH  27  28
ENDBRANCH   1  27
TORSDOF 17
ENDMDL
MODEL 2
REMARK VINA RESULT:     -12.6      3.024      4.095
REMARK SMILES Cc1cc(C(=O)NCCCCNC(=O)c2ccc(-c3c4nc(c(-c5cccc(S(=O)(=O)[O-])c5F)c5ccc([nH]5)c(-c5cccc(S(=O)(=O)[O-])c5F)c5nc(c(-c6cccc(S(=O)(=O)[O-])c6F)c6ccc3[nH]6)C=C5)C=C4)cc2)ccc1NS(=O)(=O)c1c(F)cccc1F
REMARK SMILES IDX 9 1 8 2 7 3 5 4 6 5 4 7 1 8 2 9 3 10 80 11 79 12 78 13 81 14
REMARK SMILES IDX 82 16 83 17 84 18 85 19 86 20 91 21 87 22 88 23 90 24 92 25
REMARK SMILES IDX 89 26 10 27 11 28 12 29 13 30 14 32 15 33 16 34 77 35 17 36
REMARK SMILES IDX 76 37 18 38 19 39 20 40 70 41 21 42 75 43 69 44 71 45 22 46
REMARK SMILES IDX 74 47 68 48 67 49 23 51 55 52 35 53 54 54 36 55 39 56 53 57
REMARK SMILES IDX 72 58 37 59 38 60 52 62 73 63 40 64 24 65 25 66 33 67 26 68
REMARK SMILES IDX 28 69 34 70 27 71 29 72 30 73 31 74 32 75 56 76 57 77 65 78
REMARK SMILES IDX 58 79 60 80 66 81 59 82 61 83 62 84 63 85 64 86 41 87 42 88
REMARK SMILES IDX 50 89 43 90 45 91 51 92 44 93 46 94 47 95 48 96 49 97
REMARK H PARENT 7 6 81 15 12 31 71 50 39 61
REMARK Flexibility Score: inf
ROOT
ATOM      1  C   UNL A   1      34.939  29.272  27.497  1.00  0.00     0.023 C 
ENDROOT
BRANCH   1   2
ATOM      2  C   UNL A   1      34.138  28.409  26.513  1.00  0.00     0.116 C 
BRANCH   2   3
ATOM      3  N   UNL A   1      34.087  28.951  25.164  1.00  0.00    -0.352 N 
ATOM      4  C   UNL A   1      33.370  28.614  24.041  1.00  0.00     0.251 C 
ATOM      5  O   UNL A   1      33.631  29.202  22.990  1.00  0.00    -0.269 OA
ATOM      6  H   UNL A   1      34.690  29.717  25.027  1.00  0.00     0.163 HD
BRANCH   4   7
ATOM      7  C   UNL A   1      32.368  27.514  24.012  1.00  0.00     0.040 A 
ATOM      8  C   UNL A   1      32.244  24.036  22.509  1.00  0.00     0.046 C 
ATOM      9  C   UNL A   1      31.923  25.190  23.420  1.00  0.00    -0.026 A 
ATOM     10  C   UNL A   1      32.723  26.340  23.337  1.00  0.00     0.019 A 
ATOM     11  C   UNL A   1      30.821  25.201  24.290  1.00  0.00     0.052 A 
ATOM     12  C   UNL A   1      30.306  26.431  24.687  1.00  0.00     0.028 A 
ATOM     13  C   UNL A   1      31.084  27.591  24.547  1.00  0.00     0.016 A 
BRANCH  11  14
ATOM     14  N   UNL A   1      30.394  23.947  24.818  1.00  0.00    -0.279 N 
ATOM     15  H   UNL A   1      29.626  23.530  24.363  1.00  0.00     0.180 HD
BRANCH  14  16
ATOM     16  S   UNL A   1      31.024  23.092  26.112  1.00  0.00     0.267 S 
ATOM     17  O   UNL A   1      31.039  24.017  27.224  1.00  0.00    -0.201 OA
ATOM     18  O   UNL A   1      30.226  21.879  26.171  1.00  0.00    -0.201 OA
BRANCH  16  19
ATOM     19  C   UNL A   1      32.671  22.580  25.810  1.00  0.00     0.158 A 
ATOM     20  C   UNL A   1      33.670  23.545  25.901  1.00  0.00     0.146 A 
ATOM     21  C   UNL A   1      33.008  21.307  25.379  1.00  0.00     0.146 A 
ATOM     22  F   UNL A   1      33.424  24.750  26.433  1.00  0.00    -0.205 F 
ATOM     23  C   UNL A   1      34.966  23.285  25.458  1.00  0.00     0.041 A 
ATOM     24  C   UNL A   1      34.297  21.042  24.905  1.00  0.00     0.041 A 
ATOM     25  F   UNL A   1      32.114  20.310  25.367  1.00  0.00    -0.205 F 
ATOM     26  C   UNL A   1      35.272  22.039  24.919  1.00  0.00     0.006 A 
ENDBRANCH  16  19
ENDBRANCH  14  16
ENDBRANCH  11  14
ENDBRANCH   4   7
ENDBRANCH   2   3
ENDBRANCH   1   2
BRANCH   1  27
ATOM     27  C   UNL A   1      34.730  30.786  27.398  1.00  0.00     0.023 C 
BRANCH  27  28
ATOM     28  C   UNL A   1      34.851  31.510  28.731  1.00  0.00     0.116 C 
BRANCH  28  29
ATOM     29  N   UNL A   1      34.357  32.870  28.721  1.00  0.00    -0.352 N 
ATOM     30  C   UNL A   1      34.672  33.930  29.555  1.00  0.00     0.251 C 
ATOM     31  H   UNL A   1      33.699  33.074  28.018  1.00  0.00     0.163 HD
ATOM     32  O   UNL A   1      33.876  34.866  29.594  1.00  0.00    -0.269 OA
BRANCH  30  33
ATOM     33  C   UNL A   1      36.001  34.030  30.231  1.00  0.00     0.039 A 
ATOM     34  C   UNL A   1      37.123  34.183  29.399  1.00  0.00     0.014 A 
ATOM     35  C   UNL A   1      36.188  33.643  31.551  1.00  0.00     0.014 A 
ATOM     36  C   UNL A   1      38.338  33.612  29.760  1.00  0.00     0.010 A 
ATOM     37  C   UNL A   1      37.345  32.984  31.877  1.00  0.00     0.010 A 
ATOM     38  C   UNL A   1      38.370  32.880  30.933  1.00  0.00    -0.014 A 
BRANCH  38  39
ATOM     39  C   UNL A   1      39.384  31.914  31.302  1.00  0.00     0.031 A 
ATOM     40  C   UNL A   1      39.418  30.627  30.593  1.00  0.00     0.074 A 
ATOM     41  C   UNL A   1      40.473  32.451  31.899  1.00  0.00     0.049 A 
ATOM     42  N   UNL A   1      40.259  29.685  30.828  1.00  0.00    -0.248 NA
ATOM     43  C   UNL A   1      38.462  30.303  29.537  1.00  0.00     0.031 C 
ATOM     44  C   UNL A   1      41.853  32.005  31.794  1.00  0.00     0.029 A 
ATOM     45  N   UNL A   1      40.528  33.492  32.838  1.00  0.00    -0.354 N 
ATOM     46  C   UNL A   1      40.204  28.827  29.746  1.00  0.00     0.074 A 
ATOM     47  C   UNL A   1      38.971  29.156  29.080  1.00  0.00     0.031 C 
ATOM     48  C   UNL A   1      42.563  32.557  32.793  1.00  0.00     0.029 A 
ATOM     49  C   UNL A   1      41.604  33.184  33.688  1.00  0.00     0.049 A 
ATOM     50  H   UNL A   1      39.935  34.276  32.890  1.00  0.00     0.167 HD
ATOM     51  C   UNL A   1      41.313  28.089  29.451  1.00  0.00     0.034 A 
ATOM     52  C   UNL A   1      41.434  32.849  35.005  1.00  0.00     0.034 A 
ATOM     53  C   UNL A   1      42.316  28.237  30.526  1.00  0.00     0.049 A 
ATOM     54  C   UNL A   1      41.873  31.420  35.306  1.00  0.00     0.074 A 
ATOM     55  C   UNL A   1      43.493  28.959  30.627  1.00  0.00     0.029 A 
ATOM     56  N   UNL A   1      41.995  27.834  31.820  1.00  0.00    -0.354 N 
ATOM     57  N   UNL A   1      42.245  30.562  34.394  1.00  0.00    -0.248 NA
ATOM     58  C   UNL A   1      41.920  30.837  36.645  1.00  0.00     0.031 C 
ATOM     59  C   UNL A   1      43.801  29.100  32.012  1.00  0.00     0.029 A 
ATOM     60  C   UNL A   1      42.840  28.426  32.748  1.00  0.00     0.049 A 
ATOM     61  H   UNL A   1      41.266  27.212  32.045  1.00  0.00     0.167 HD
ATOM     62  C   UNL A   1      42.437  29.327  34.948  1.00  0.00     0.074 A 
ATOM     63  C   UNL A   1      42.302  29.574  36.375  1.00  0.00     0.031 C 
ATOM     64  C   UNL A   1      42.627  28.206  34.181  1.00  0.00     0.034 A 
BRANCH  51  65
ATOM     65  C   UNL A   1      41.649  27.451  28.101  1.00  0.00     0.023 A 
ATOM     66  C   UNL A   1      41.495  28.269  26.957  1.00  0.00     0.012 A 
ATOM     67  C   UNL A   1      42.019  26.107  27.835  1.00  0.00     0.148 A 
ATOM     68  C   UNL A   1      41.630  27.785  25.649  1.00  0.00     0.002 A 
ATOM     69  C   UNL A   1      42.166  25.621  26.529  1.00  0.00     0.091 A 
ATOM     70  F   UNL A   1      42.234  25.256  28.833  1.00  0.00    -0.205 F 
ATOM     71  C   UNL A   1      41.958  26.456  25.432  1.00  0.00     0.022 A 
BRANCH  69  72
ATOM     72  S   UNL A   1      42.597  23.904  26.168  1.00  0.00     0.127 S 
ATOM     73  O   UNL A   1      41.306  23.228  26.303  1.00  0.00    -0.237 OA
ATOM     74  O   UNL A   1      43.097  23.991  24.796  1.00  0.00    -0.237 OA
ATOM     75  O   UNL A   1      43.593  23.507  27.157  1.00  0.00    -0.744 OA
ENDBRANCH  69  72
ENDBRANCH  51  65
BRANCH  52  76
ATOM     76  C   UNL A   1      40.301  33.578  35.653  1.00  0.00     0.023 A 
ATOM     77  C   UNL A   1      39.054  32.906  35.678  1.00  0.00     0.012 A 
ATOM     78  C   UNL A   1      40.536  34.603  36.588  1.00  0.00     0.148 A 
ATOM     79  C   UNL A   1      38.139  33.128  36.709  1.00  0.00     0.002 A 
ATOM     80  C   UNL A   1      39.625  34.808  37.624  1.00  0.00     0.091 A 
ATOM     81  F   UNL A   1      41.687  35.282  36.512  1.00  0.00    -0.205 F 
ATOM     82  C   UNL A   1      38.449  34.044  37.709  1.00  0.00     0.022 A 
BRANCH  80  83
ATOM     83  S   UNL A   1      39.972  35.931  38.987  1.00  0.00     0.127 S 
ATOM     84  O   UNL A   1      40.022  37.218  38.302  1.00  0.00    -0.237 OA
ATOM     85  O   UNL A   1      38.808  35.742  39.850  1.00  0.00    -0.237 OA
ATOM     86  O   UNL A   1      41.222  35.455  39.559  1.00  0.00    -0.744 OA
ENDBRANCH  80  83
ENDBRANCH  52  76
BRANCH  64  87
ATOM     87  C   UNL A   1      42.605  26.779  34.699  1.00  0.00     0.023 A 
ATOM     88  C   UNL A   1      41.468  26.209  35.302  1.00  0.00     0.012 A 
ATOM     89  C   UNL A   1      43.694  25.904  34.444  1.00  0.00     0.148 A 
ATOM     90  C   UNL A   1      41.431  24.865  35.690  1.00  0.00     0.002 A 
ATOM     91  C   UNL A   1      43.601  24.541  34.712  1.00  0.00     0.091 A 
ATOM     92  F   UNL A   1      44.843  26.389  33.952  1.00  0.00    -0.205 F 
ATOM     93  C   UNL A   1      42.487  24.023  35.370  1.00  0.00     0.022 A 
BRANCH  91  94
ATOM     94  S   UNL A   1      44.821  23.390  34.061  1.00  0.00     0.127 S 
ATOM     95  O   UNL A   1      44.236  22.098  34.405  1.00  0.00    -0.237 OA
ATOM     96  O   UNL A   1      44.816  23.701  32.630  1.00  0.00    -0.237 OA
ATOM     97  O   UNL A   1      46.063  23.739  34.739  1.00  0.00    -0.744 OA
ENDBRANCH  91  94
ENDBRANCH  64  87
ENDBRANCH  38  39
ENDBRANCH  30  33
ENDBRANCH  28  29
ENDBRANCH  27  28
ENDBRANCH   1  27
TORSDOF 17
ENDMDL
MODEL 3
REMARK VINA RESULT:     -12.6      2.416      3.558
REMARK SMILES Cc1cc(C(=O)NCCCCNC(=O)c2ccc(-c3c4nc(c(-c5cccc(S(=O)(=O)[O-])c5F)c5ccc([nH]5)c(-c5cccc(S(=O)(=O)[O-])c5F)c5nc(c(-c6cccc(S(=O)(=O)[O-])c6F)c6ccc3[nH]6)C=C5)C=C4)cc2)ccc1NS(=O)(=O)c1c(F)cccc1F
REMARK SMILES IDX 9 1 8 2 7 3 5 4 6 5 4 7 1 8 2 9 3 10 80 11 79 12 78 13 81 14
REMARK SMILES IDX 82 16 83 17 84 18 85 19 86 20 91 21 87 22 88 23 90 24 92 25
REMARK SMILES IDX 89 26 10 27 11 28 12 29 13 30 14 32 15 33 16 34 77 35 17 36
REMARK SMILES IDX 76 37 18 38 19 39 20 40 70 41 21 42 75 43 69 44 71 45 22 46
REMARK SMILES IDX 74 47 68 48 67 49 23 51 55 52 35 53 54 54 36 55 39 56 53 57
REMARK SMILES IDX 72 58 37 59 38 60 52 62 73 63 40 64 24 65 25 66 33 67 26 68
REMARK SMILES IDX 28 69 34 70 27 71 29 72 30 73 31 74 32 75 56 76 57 77 65 78
REMARK SMILES IDX 58 79 60 80 66 81 59 82 61 83 62 84 63 85 64 86 41 87 42 88
REMARK SMILES IDX 50 89 43 90 45 91 51 92 44 93 46 94 47 95 48 96 49 97
REMARK H PARENT 7 6 81 15 12 31 71 50 39 61
REMARK Flexibility Score: inf
ROOT
ATOM      1  C   UNL A   1      34.979  29.559  27.029  1.00  0.00     0.023 C 
ENDROOT
BRANCH   1   2
ATOM      2  C   UNL A   1      33.670  30.143  26.482  1.00  0.00     0.116 C 
BRANCH   2   3
ATOM      3  N   UNL A   1      33.462  29.889  25.064  1.00  0.00    -0.352 N 
ATOM      4  C   UNL A   1      32.666  29.007  24.373  1.00  0.00     0.251 C 
ATOM      5  O   UNL A   1      32.792  28.951  23.149  1.00  0.00    -0.269 OA
ATOM      6  H   UNL A   1      34.002  30.469  24.479  1.00  0.00     0.163 HD
BRANCH   4   7
ATOM      7  C   UNL A   1      31.735  28.056  25.037  1.00  0.00     0.040 A 
ATOM      8  C   UNL A   1      28.587  26.217  23.999  1.00  0.00     0.046 C 
ATOM      9  C   UNL A   1      29.844  26.539  24.759  1.00  0.00    -0.026 A 
ATOM     10  C   UNL A   1      30.658  27.577  24.281  1.00  0.00     0.019 A 
ATOM     11  C   UNL A   1      30.202  25.906  25.960  1.00  0.00     0.052 A 
ATOM     12  C   UNL A   1      31.047  26.581  26.836  1.00  0.00     0.028 A 
ATOM     13  C   UNL A   1      31.817  27.659  26.370  1.00  0.00     0.016 A 
BRANCH  11  14
ATOM     14  N   UNL A   1      29.784  24.553  26.135  1.00  0.00    -0.279 N 
ATOM     15  H   UNL A   1      28.811  24.401  26.122  1.00  0.00     0.180 HD
BRANCH  14  16
ATOM     16  S   UNL A   1      30.731  23.192  26.362  1.00  0.00     0.267 S 
ATOM     17  O   UNL A   1      31.506  23.447  27.556  1.00  0.00    -0.201 OA
ATOM     18  O   UNL A   1      29.793  22.084  26.314  1.00  0.00    -0.201 OA
BRANCH  16  19
ATOM     19  C   UNL A   1      31.845  22.948  25.033  1.00  0.00     0.158 A 
ATOM     20  C   UNL A   1      33.140  22.544  25.348  1.00  0.00     0.146 A 
ATOM     21  C   UNL A   1      31.539  23.244  23.716  1.00  0.00     0.146 A 
ATOM     22  F   UNL A   1      33.455  22.123  26.581  1.00  0.00    -0.205 F 
ATOM     23  C   UNL A   1      34.149  22.547  24.387  1.00  0.00     0.041 A 
ATOM     24  C   UNL A   1      32.548  23.278  22.748  1.00  0.00     0.041 A 
ATOM     25  F   UNL A   1      30.289  23.539  23.334  1.00  0.00    -0.205 F 
ATOM     26  C   UNL A   1      33.861  22.954  23.088  1.00  0.00     0.006 A 
ENDBRANCH  16  19
ENDBRANCH  14  16
ENDBRANCH  11  14
ENDBRANCH   4   7
ENDBRANCH   2   3
ENDBRANCH   1   2
BRANCH   1  27
ATOM     27  C   UNL A   1      35.962  30.556  27.649  1.00  0.00     0.023 C 
BRANCH  27  28
ATOM     28  C   UNL A   1      35.363  31.388  28.773  1.00  0.00     0.116 C 
BRANCH  28  29
ATOM     29  N   UNL A   1      35.133  32.777  28.434  1.00  0.00    -0.352 N 
ATOM     30  C   UNL A   1      35.573  33.925  29.071  1.00  0.00     0.251 C 
ATOM     31  H   UNL A   1      34.583  32.929  27.632  1.00  0.00     0.163 HD
ATOM     32  O   UNL A   1      34.966  34.966  28.830  1.00  0.00    -0.269 OA
BRANCH  30  33
ATOM     33  C   UNL A   1      36.839  33.948  29.865  1.00  0.00     0.039 A 
ATOM     34  C   UNL A   1      38.034  34.110  29.144  1.00  0.00     0.014 A 
ATOM     35  C   UNL A   1      36.899  33.485  31.173  1.00  0.00     0.014 A 
ATOM     36  C   UNL A   1      39.197  33.483  29.577  1.00  0.00     0.010 A 
ATOM     37  C   UNL A   1      38.004  32.775  31.561  1.00  0.00     0.010 A 
ATOM     38  C   UNL A   1      39.106  32.689  30.706  1.00  0.00    -0.014 A 
BRANCH  38  39
ATOM     39  C   UNL A   1      40.057  31.673  31.107  1.00  0.00     0.031 A 
ATOM     40  C   UNL A   1      40.004  30.362  30.446  1.00  0.00     0.074 A 
ATOM     41  C   UNL A   1      41.181  32.161  31.681  1.00  0.00     0.049 A 
ATOM     42  N   UNL A   1      40.784  29.377  30.713  1.00  0.00    -0.248 NA
ATOM     43  C   UNL A   1      39.025  30.061  29.406  1.00  0.00     0.031 C 
ATOM     44  C   UNL A   1      42.529  31.623  31.589  1.00  0.00     0.029 A 
ATOM     45  N   UNL A   1      41.308  33.229  32.581  1.00  0.00    -0.354 N 
ATOM     46  C   UNL A   1      40.669  28.485  29.664  1.00  0.00     0.074 A 
ATOM     47  C   UNL A   1      39.456  28.868  28.990  1.00  0.00     0.031 C 
ATOM     48  C   UNL A   1      43.279  32.165  32.564  1.00  0.00     0.029 A 
ATOM     49  C   UNL A   1      42.366  32.884  33.439  1.00  0.00     0.049 A 
ATOM     50  H   UNL A   1      40.767  34.052  32.606  1.00  0.00     0.167 HD
ATOM     51  C   UNL A   1      41.727  27.667  29.393  1.00  0.00     0.034 A 
ATOM     52  C   UNL A   1      42.182  32.610  34.768  1.00  0.00     0.034 A 
ATOM     53  C   UNL A   1      42.743  27.789  30.459  1.00  0.00     0.049 A 
ATOM     54  C   UNL A   1      42.529  31.167  35.120  1.00  0.00     0.074 A 
ATOM     55  C   UNL A   1      43.965  28.437  30.530  1.00  0.00     0.029 A 
ATOM     56  N   UNL A   1      42.403  27.455  31.768  1.00  0.00    -0.354 N 
ATOM     57  N   UNL A   1      42.842  30.254  34.239  1.00  0.00    -0.248 NA
ATOM     58  C   UNL A   1      42.546  30.631  36.479  1.00  0.00     0.031 C 
ATOM     59  C   UNL A   1      44.287  28.609  31.908  1.00  0.00     0.029 A 
ATOM     60  C   UNL A   1      43.289  28.026  32.672  1.00  0.00     0.049 A 
ATOM     61  H   UNL A   1      41.637  26.891  32.018  1.00  0.00     0.167 HD
ATOM     62  C   UNL A   1      42.956  29.030  34.838  1.00  0.00     0.074 A 
ATOM     63  C   UNL A   1      42.844  29.337  36.255  1.00  0.00     0.031 C 
ATOM     64  C   UNL A   1      43.070  27.872  34.112  1.00  0.00     0.034 A 
BRANCH  51  65
ATOM     65  C   UNL A   1      42.014  26.960  28.067  1.00  0.00     0.023 A 
ATOM     66  C   UNL A   1      41.912  27.745  26.893  1.00  0.00     0.012 A 
ATOM     67  C   UNL A   1      42.291  25.586  27.848  1.00  0.00     0.148 A 
ATOM     68  C   UNL A   1      42.009  27.206  25.604  1.00  0.00     0.002 A 
ATOM     69  C   UNL A   1      42.400  25.043  26.561  1.00  0.00     0.091 A 
ATOM     70  F   UNL A   1      42.452  24.758  28.876  1.00  0.00    -0.205 F 
ATOM     71  C   UNL A   1      42.246  25.851  25.435  1.00  0.00     0.022 A 
BRANCH  69  72
ATOM     72  S   UNL A   1      42.713  23.289  26.261  1.00  0.00     0.127 S 
ATOM     73  O   UNL A   1      41.449  22.677  26.674  1.00  0.00    -0.237 OA
ATOM     74  O   UNL A   1      42.961  23.259  24.820  1.00  0.00    -0.237 OA
ATOM     75  O   UNL A   1      43.859  22.923  27.086  1.00  0.00    -0.744 OA
ENDBRANCH  69  72
ENDBRANCH  51  65
BRANCH  52  76
ATOM     76  C   UNL A   1      41.102  33.434  35.391  1.00  0.00     0.023 A 
ATOM     77  C   UNL A   1      41.312  34.835  35.408  1.00  0.00     0.012 A 
ATOM     78  C   UNL A   1      39.788  32.944  35.502  1.00  0.00     0.148 A 
ATOM     79  C   UNL A   1      40.235  35.722  35.363  1.00  0.00     0.002 A 
ATOM     80  C   UNL A   1      38.717  33.837  35.441  1.00  0.00     0.091 A 
ATOM     81  F   UNL A   1      39.604  31.620  35.558  1.00  0.00    -0.205 F 
ATOM     82  C   UNL A   1      38.938  35.219  35.328  1.00  0.00     0.022 A 
BRANCH  80  83
ATOM     83  S   UNL A   1      37.012  33.269  35.335  1.00  0.00     0.127 S 
ATOM     84  O   UNL A   1      37.171  31.979  34.676  1.00  0.00    -0.237 OA
ATOM     85  O   UNL A   1      36.621  33.195  36.741  1.00  0.00    -0.237 OA
ATOM     86  O   UNL A   1      36.318  34.300  34.577  1.00  0.00    -0.744 OA
ENDBRANCH  80  83
ENDBRANCH  52  76
BRANCH  64  87
ATOM     87  C   UNL A   1      42.959  26.470  34.682  1.00  0.00     0.023 A 
ATOM     88  C   UNL A   1      41.778  25.984  35.276  1.00  0.00     0.012 A 
ATOM     89  C   UNL A   1      44.005  25.529  34.489  1.00  0.00     0.148 A 
ATOM     90  C   UNL A   1      41.660  24.660  35.713  1.00  0.00     0.002 A 
ATOM     91  C   UNL A   1      43.833  24.184  34.805  1.00  0.00     0.091 A 
ATOM     92  F   UNL A   1      45.190  25.933  34.008  1.00  0.00    -0.205 F 
ATOM     93  C   UNL A   1      42.676  23.751  35.453  1.00  0.00     0.022 A 
BRANCH  91  94
ATOM     94  S   UNL A   1      45.004  22.946  34.229  1.00  0.00     0.127 S 
ATOM     95  O   UNL A   1      44.986  23.157  32.784  1.00  0.00    -0.237 OA
ATOM     96  O   UNL A   1      46.245  23.355  34.890  1.00  0.00    -0.237 OA
ATOM     97  O   UNL A   1      44.470  21.676  34.704  1.00  0.00    -0.744 OA
ENDBRANCH  91  94
ENDBRANCH  64  87
ENDBRANCH  38  39
ENDBRANCH  30  33
ENDBRANCH  28  29
ENDBRANCH  27  28
ENDBRANCH   1  27
TORSDOF 17
ENDMDL
