MODEL 1
REMARK VINA RESULT:     -12.5      0.000      0.000
REMARK SMILES O=C(COc1ccccc1C[NH+]1CCC2(CC[NH2+]CC2)CC1)NCCCCNC(=O)c1ccc(-c2c3nc(c(-c4cccc(S(=O)(=O)[O-])c4F)c4ccc([nH]4)c(-c4cccc(S(=O)(=O)[O-])c4F)c4nc(c(-c5cccc(S(=O)(=O)[O-])c5F)c5ccc2[nH]5)C=C4)C=C3)cc1
REMARK SMILES IDX 25 1 24 2 23 3 1 4 2 5 3 7 4 8 5 9 6 10 10 11 7 12 9 13 8 14
REMARK SMILES IDX 11 15 12 16 13 17 22 18 14 20 21 21 15 22 16 23 20 24 17 25
REMARK SMILES IDX 19 26 18 27 26 30 27 31 28 32 29 33 30 35 31 36 32 37 93 38
REMARK SMILES IDX 33 39 92 40 34 41 35 42 36 43 86 44 37 45 91 46 85 47 87 48
REMARK SMILES IDX 38 49 90 50 84 51 83 52 39 54 71 55 51 56 70 57 52 58 55 59
REMARK SMILES IDX 69 60 88 61 53 62 54 63 68 65 89 66 56 67 40 68 41 69 49 70
REMARK SMILES IDX 42 71 44 72 50 73 43 74 45 75 46 76 47 77 48 78 72 79 73 80
REMARK SMILES IDX 81 81 74 82 76 83 82 84 75 85 77 86 78 87 79 88 80 89 57 90
REMARK SMILES IDX 58 91 66 92 59 93 61 94 67 95 60 96 62 97 63 98 64 99 65 100
REMARK H PARENT 23 6 12 19 18 28 18 29 28 34 87 53 55 64
REMARK Flexibility Score: inf
ROOT
ATOM      1  C   UNL A   1      31.765  30.297  26.498  1.00  0.00     0.023 C 
ENDROOT
BRANCH   1   2
ATOM      2  C   UNL A   1      33.159  29.809  26.121  1.00  0.00     0.116 C 
BRANCH   2   3
ATOM      3  N   UNL A   1      33.428  29.667  24.698  1.00  0.00    -0.353 N 
ATOM      4  O   UNL A   1      34.004  27.434  24.755  1.00  0.00    -0.271 OA
ATOM      5  C   UNL A   1      33.606  28.413  24.127  1.00  0.00     0.257 C 
ATOM      6  H   UNL A   1      33.486  30.470  24.132  1.00  0.00     0.163 HD
BRANCH   5   7
ATOM      7  C   UNL A   1      33.174  28.307  22.654  1.00  0.00     0.329 C 
BRANCH   7   8
ATOM      8  O   UNL A   1      32.285  27.205  22.433  1.00  0.00    -0.483 OA
BRANCH   8   9
ATOM      9  C   UNL A   1      30.963  27.507  22.661  1.00  0.00     0.128 A 
ATOM     10  C   UNL A   1      30.548  28.813  22.370  1.00  0.00     0.047 A 
ATOM     11  C   UNL A   1      30.104  26.643  23.362  1.00  0.00     0.048 A 
ATOM     12  C   UNL A   1      29.263  29.241  22.717  1.00  0.00     0.004 A 
ATOM     13  C   UNL A   1      28.784  27.060  23.609  1.00  0.00     0.013 A 
ATOM     14  C   UNL A   1      28.371  28.356  23.311  1.00  0.00     0.001 A 
BRANCH  11  15
ATOM     15  C   UNL A   1      30.546  25.331  23.961  1.00  0.00     0.302 C 
BRANCH  15  16
ATOM     16  N   UNL A   1      31.966  24.970  23.870  1.00  0.00    -0.331 N 
ATOM     17  C   UNL A   1      32.626  24.522  25.089  1.00  0.00     0.263 C 
ATOM     18  C   UNL A   1      32.364  24.198  22.703  1.00  0.00     0.263 C 
ATOM     19  H   UNL A   1      32.345  25.904  23.715  1.00  0.00     0.348 HD
ATOM     20  C   UNL A   1      32.527  23.026  25.370  1.00  0.00     0.069 C 
ATOM     21  C   UNL A   1      32.271  22.682  22.875  1.00  0.00     0.069 C 
ATOM     22  C   UNL A   1      32.929  22.143  24.168  1.00  0.00    -0.008 C 
ATOM     23  C   UNL A   1      34.467  22.096  24.002  1.00  0.00     0.069 C 
ATOM     24  C   UNL A   1      32.422  20.698  24.406  1.00  0.00     0.069 C 
ATOM     25  C   UNL A   1      35.162  21.310  25.119  1.00  0.00     0.261 C 
ATOM     26  C   UNL A   1      33.174  19.996  25.534  1.00  0.00     0.261 C 
ATOM     27  N   UNL A   1      34.610  19.964  25.270  1.00  0.00    -0.346 N 
ATOM     28  H   UNL A   1      35.079  19.500  26.047  1.00  0.00     0.346 HD
ATOM     29  H   UNL A   1      34.761  19.459  24.396  1.00  0.00     0.346 HD
ENDBRANCH  15  16
ENDBRANCH  11  15
ENDBRANCH   8   9
ENDBRANCH   7   8
ENDBRANCH   5   7
ENDBRANCH   2   3
ENDBRANCH   1   2
BRANCH   1  30
ATOM     30  C   UNL A   1      31.602  31.806  26.691  1.00  0.00     0.023 C 
BRANCH  30  31
ATOM     31  C   UNL A   1      32.785  32.552  27.305  1.00  0.00     0.116 C 
BRANCH  31  32
ATOM     32  N   UNL A   1      32.503  33.941  27.636  1.00  0.00    -0.352 N 
ATOM     33  C   UNL A   1      33.098  34.770  28.564  1.00  0.00     0.251 C 
ATOM     34  H   UNL A   1      31.774  34.353  27.116  1.00  0.00     0.163 HD
ATOM     35  O   UNL A   1      32.640  35.889  28.762  1.00  0.00    -0.269 OA
BRANCH  33  36
ATOM     36  C   UNL A   1      34.270  34.309  29.348  1.00  0.00     0.039 A 
ATOM     37  C   UNL A   1      34.050  33.588  30.526  1.00  0.00     0.014 A 
ATOM     38  C   UNL A   1      35.577  34.587  28.940  1.00  0.00     0.014 A 
ATOM     39  C   UNL A   1      35.136  33.074  31.245  1.00  0.00     0.010 A 
ATOM     40  C   UNL A   1      36.656  34.013  29.618  1.00  0.00     0.010 A 
ATOM     41  C   UNL A   1      36.448  33.244  30.774  1.00  0.00    -0.014 A 
BRANCH  41  42
ATOM     42  C   UNL A   1      37.602  32.588  31.454  1.00  0.00     0.031 A 
ATOM     43  C   UNL A   1      38.315  31.425  30.815  1.00  0.00     0.074 A 
ATOM     44  C   UNL A   1      37.961  32.989  32.691  1.00  0.00     0.049 A 
ATOM     45  N   UNL A   1      39.304  30.707  31.285  1.00  0.00    -0.248 NA
ATOM     46  C   UNL A   1      37.846  31.002  29.487  1.00  0.00     0.031 C 
ATOM     47  C   UNL A   1      37.307  34.053  33.458  1.00  0.00     0.029 A 
ATOM     48  N   UNL A   1      38.945  32.532  33.534  1.00  0.00    -0.354 N 
ATOM     49  C   UNL A   1      39.555  29.730  30.328  1.00  0.00     0.074 A 
ATOM     50  C   UNL A   1      38.592  29.929  29.265  1.00  0.00     0.031 C 
ATOM     51  C   UNL A   1      37.906  34.165  34.654  1.00  0.00     0.029 A 
ATOM     52  C   UNL A   1      38.962  33.162  34.758  1.00  0.00     0.049 A 
ATOM     53  H   UNL A   1      39.578  31.819  33.288  1.00  0.00     0.167 HD
ATOM     54  C   UNL A   1      40.514  28.773  30.317  1.00  0.00     0.034 A 
ATOM     55  C   UNL A   1      39.726  32.951  35.849  1.00  0.00     0.034 A 
ATOM     56  C   UNL A   1      41.489  28.590  31.360  1.00  0.00     0.049 A 
ATOM     57  C   UNL A   1      40.796  31.894  35.805  1.00  0.00     0.074 A 
ATOM     58  C   UNL A   1      42.546  27.697  31.402  1.00  0.00     0.029 A 
ATOM     59  N   UNL A   1      41.521  29.299  32.550  1.00  0.00    -0.354 N 
ATOM     60  N   UNL A   1      41.115  31.083  34.826  1.00  0.00    -0.248 NA
ATOM     61  C   UNL A   1      41.636  31.746  37.003  1.00  0.00     0.031 C 
ATOM     62  C   UNL A   1      43.196  27.843  32.632  1.00  0.00     0.029 A 
ATOM     63  C   UNL A   1      42.570  28.855  33.339  1.00  0.00     0.049 A 
ATOM     64  H   UNL A   1      40.891  30.013  32.799  1.00  0.00     0.167 HD
ATOM     65  C   UNL A   1      42.213  30.357  35.273  1.00  0.00     0.074 A 
ATOM     66  C   UNL A   1      42.518  30.839  36.605  1.00  0.00     0.031 C 
ATOM     67  C   UNL A   1      42.899  29.372  34.644  1.00  0.00     0.034 A 
BRANCH  54  68
ATOM     68  C   UNL A   1      40.590  27.869  29.111  1.00  0.00     0.023 A 
ATOM     69  C   UNL A   1      39.683  26.795  28.989  1.00  0.00     0.012 A 
ATOM     70  C   UNL A   1      41.507  28.119  28.071  1.00  0.00     0.148 A 
ATOM     71  C   UNL A   1      39.713  25.963  27.871  1.00  0.00     0.002 A 
ATOM     72  C   UNL A   1      41.498  27.314  26.938  1.00  0.00     0.091 A 
ATOM     73  F   UNL A   1      42.369  29.135  28.209  1.00  0.00    -0.205 F 
ATOM     74  C   UNL A   1      40.613  26.227  26.843  1.00  0.00     0.022 A 
BRANCH  72  75
ATOM     75  S   UNL A   1      42.556  27.622  25.519  1.00  0.00     0.127 S 
ATOM     76  O   UNL A   1      42.005  28.875  25.006  1.00  0.00    -0.237 OA
ATOM     77  O   UNL A   1      43.875  27.746  26.140  1.00  0.00    -0.237 OA
ATOM     78  O   UNL A   1      42.402  26.469  24.643  1.00  0.00    -0.744 OA
ENDBRANCH  72  75
ENDBRANCH  54  68
BRANCH  55  79
ATOM     79  C   UNL A   1      39.535  33.790  37.067  1.00  0.00     0.023 A 
ATOM     80  C   UNL A   1      40.012  35.116  37.082  1.00  0.00     0.012 A 
ATOM     81  C   UNL A   1      38.871  33.287  38.202  1.00  0.00     0.148 A 
ATOM     82  C   UNL A   1      39.864  35.911  38.219  1.00  0.00     0.002 A 
ATOM     83  C   UNL A   1      38.675  34.105  39.309  1.00  0.00     0.091 A 
ATOM     84  F   UNL A   1      38.434  32.020  38.173  1.00  0.00    -0.205 F 
ATOM     85  C   UNL A   1      39.188  35.410  39.327  1.00  0.00     0.022 A 
BRANCH  83  86
ATOM     86  S   UNL A   1      37.702  33.587  40.727  1.00  0.00     0.127 S 
ATOM     87  O   UNL A   1      37.600  34.828  41.490  1.00  0.00    -0.237 OA
ATOM     88  O   UNL A   1      36.457  33.149  40.092  1.00  0.00    -0.237 OA
ATOM     89  O   UNL A   1      38.462  32.517  41.358  1.00  0.00    -0.744 OA
ENDBRANCH  83  86
ENDBRANCH  55  79
BRANCH  67  90
ATOM     90  C   UNL A   1      44.081  28.770  35.359  1.00  0.00     0.023 A 
ATOM     91  C   UNL A   1      45.376  29.278  35.138  1.00  0.00     0.012 A 
ATOM     92  C   UNL A   1      43.897  27.740  36.305  1.00  0.00     0.148 A 
ATOM     93  C   UNL A   1      46.472  28.750  35.819  1.00  0.00     0.002 A 
ATOM     94  C   UNL A   1      44.985  27.256  37.019  1.00  0.00     0.091 A 
ATOM     95  F   UNL A   1      42.659  27.257  36.490  1.00  0.00    -0.205 F 
ATOM     96  C   UNL A   1      46.276  27.749  36.767  1.00  0.00     0.022 A 
BRANCH  94  97
ATOM     97  S   UNL A   1      44.817  26.036  38.327  1.00  0.00     0.127 S 
ATOM     98  O   UNL A   1      46.197  25.907  38.793  1.00  0.00    -0.237 OA
ATOM     99  O   UNL A   1      43.917  26.709  39.263  1.00  0.00    -0.237 OA
ATOM    100  O   UNL A   1      44.257  24.846  37.699  1.00  0.00    -0.744 OA
ENDBRANCH  94  97
ENDBRANCH  67  90
ENDBRANCH  41  42
ENDBRANCH  33  36
ENDBRANCH  31  32
ENDBRANCH  30  31
ENDBRANCH   1  30
TORSDOF 18
ENDMDL
MODEL 2
REMARK VINA RESULT:     -12.2      1.277      1.915
REMARK SMILES O=C(COc1ccccc1C[NH+]1CCC2(CC[NH2+]CC2)CC1)NCCCCNC(=O)c1ccc(-c2c3nc(c(-c4cccc(S(=O)(=O)[O-])c4F)c4ccc([nH]4)c(-c4cccc(S(=O)(=O)[O-])c4F)c4nc(c(-c5cccc(S(=O)(=O)[O-])c5F)c5ccc2[nH]5)C=C4)C=C3)cc1
REMARK SMILES IDX 25 1 24 2 23 3 1 4 2 5 3 7 4 8 5 9 6 10 10 11 7 12 9 13 8 14
REMARK SMILES IDX 11 15 12 16 13 17 22 18 14 20 21 21 15 22 16 23 20 24 17 25
REMARK SMILES IDX 19 26 18 27 26 30 27 31 28 32 29 33 30 35 31 36 32 37 93 38
REMARK SMILES IDX 33 39 92 40 34 41 35 42 36 43 86 44 37 45 91 46 85 47 87 48
REMARK SMILES IDX 38 49 90 50 84 51 83 52 39 54 71 55 51 56 70 57 52 58 55 59
REMARK SMILES IDX 69 60 88 61 53 62 54 63 68 65 89 66 56 67 40 68 41 69 49 70
REMARK SMILES IDX 42 71 44 72 50 73 43 74 45 75 46 76 47 77 48 78 72 79 73 80
REMARK SMILES IDX 81 81 74 82 76 83 82 84 75 85 77 86 78 87 79 88 80 89 57 90
REMARK SMILES IDX 58 91 66 92 59 93 61 94 67 95 60 96 62 97 63 98 64 99 65 100
REMARK H PARENT 23 6 12 19 18 28 18 29 28 34 87 53 55 64
REMARK Flexibility Score: inf
ROOT
ATOM      1  C   UNL A   1      31.789  30.661  26.141  1.00  0.00     0.023 C 
ENDROOT
BRANCH   1   2
ATOM      2  C   UNL A   1      32.775  29.860  26.982  1.00  0.00     0.116 C 
BRANCH   2   3
ATOM      3  N   UNL A   1      32.866  28.438  26.690  1.00  0.00    -0.353 N 
ATOM      4  O   UNL A   1      31.077  27.781  27.990  1.00  0.00    -0.271 OA
ATOM      5  C   UNL A   1      31.847  27.568  27.054  1.00  0.00     0.257 C 
ATOM      6  H   UNL A   1      33.661  28.087  26.227  1.00  0.00     0.163 HD
BRANCH   5   7
ATOM      7  C   UNL A   1      31.682  26.344  26.137  1.00  0.00     0.329 C 
BRANCH   7   8
ATOM      8  O   UNL A   1      32.936  25.902  25.600  1.00  0.00    -0.483 OA
BRANCH   8   9
ATOM      9  C   UNL A   1      32.975  25.894  24.226  1.00  0.00     0.128 A 
ATOM     10  C   UNL A   1      33.258  27.108  23.587  1.00  0.00     0.047 A 
ATOM     11  C   UNL A   1      32.533  24.795  23.467  1.00  0.00     0.048 A 
ATOM     12  C   UNL A   1      33.166  27.216  22.197  1.00  0.00     0.004 A 
ATOM     13  C   UNL A   1      32.546  24.896  22.064  1.00  0.00     0.013 A 
ATOM     14  C   UNL A   1      32.837  26.102  21.432  1.00  0.00     0.001 A 
BRANCH  11  15
ATOM     15  C   UNL A   1      31.944  23.545  24.073  1.00  0.00     0.302 C 
BRANCH  15  16
ATOM     16  N   UNL A   1      32.836  22.406  24.317  1.00  0.00    -0.331 N 
ATOM     17  C   UNL A   1      34.032  22.297  23.492  1.00  0.00     0.263 C 
ATOM     18  C   UNL A   1      33.086  22.066  25.710  1.00  0.00     0.263 C 
ATOM     19  H   UNL A   1      32.228  21.666  23.966  1.00  0.00     0.348 HD
ATOM     20  C   UNL A   1      35.256  23.041  24.018  1.00  0.00     0.069 C 
ATOM     21  C   UNL A   1      34.279  22.785  26.340  1.00  0.00     0.069 C 
ATOM     22  C   UNL A   1      35.576  22.732  25.498  1.00  0.00    -0.008 C 
ATOM     23  C   UNL A   1      36.250  21.346  25.644  1.00  0.00     0.069 C 
ATOM     24  C   UNL A   1      36.552  23.806  26.041  1.00  0.00     0.069 C 
ATOM     25  C   UNL A   1      37.674  21.315  25.079  1.00  0.00     0.261 C 
ATOM     26  C   UNL A   1      37.945  23.693  25.423  1.00  0.00     0.261 C 
ATOM     27  N   UNL A   1      38.514  22.367  25.647  1.00  0.00    -0.346 N 
ATOM     28  H   UNL A   1      39.436  22.326  25.212  1.00  0.00     0.346 HD
ATOM     29  H   UNL A   1      38.578  22.215  26.654  1.00  0.00     0.346 HD
ENDBRANCH  15  16
ENDBRANCH  11  15
ENDBRANCH   8   9
ENDBRANCH   7   8
ENDBRANCH   5   7
ENDBRANCH   2   3
ENDBRANCH   1   2
BRANCH   1  30
ATOM     30  C   UNL A   1      31.562  32.115  26.559  1.00  0.00     0.023 C 
BRANCH  30  31
ATOM     31  C   UNL A   1      32.663  32.770  27.391  1.00  0.00     0.116 C 
BRANCH  31  32
ATOM     32  N   UNL A   1      32.397  34.160  27.736  1.00  0.00    -0.352 N 
ATOM     33  C   UNL A   1      33.022  34.980  28.652  1.00  0.00     0.251 C 
ATOM     34  H   UNL A   1      31.657  34.578  27.239  1.00  0.00     0.163 HD
ATOM     35  O   UNL A   1      32.576  36.101  28.868  1.00  0.00    -0.269 OA
BRANCH  33  36
ATOM     36  C   UNL A   1      34.212  34.509  29.401  1.00  0.00     0.039 A 
ATOM     37  C   UNL A   1      34.034  33.977  30.682  1.00  0.00     0.014 A 
ATOM     38  C   UNL A   1      35.498  34.593  28.860  1.00  0.00     0.014 A 
ATOM     39  C   UNL A   1      35.128  33.453  31.381  1.00  0.00     0.010 A 
ATOM     40  C   UNL A   1      36.576  34.007  29.528  1.00  0.00     0.010 A 
ATOM     41  C   UNL A   1      36.403  33.423  30.793  1.00  0.00    -0.014 A 
BRANCH  41  42
ATOM     42  C   UNL A   1      37.547  32.748  31.468  1.00  0.00     0.031 A 
ATOM     43  C   UNL A   1      38.246  31.580  30.821  1.00  0.00     0.074 A 
ATOM     44  C   UNL A   1      37.912  33.135  32.708  1.00  0.00     0.049 A 
ATOM     45  N   UNL A   1      39.225  30.845  31.286  1.00  0.00    -0.248 NA
ATOM     46  C   UNL A   1      37.771  31.171  29.490  1.00  0.00     0.031 C 
ATOM     47  C   UNL A   1      37.273  34.202  33.482  1.00  0.00     0.029 A 
ATOM     48  N   UNL A   1      38.890  32.660  33.548  1.00  0.00    -0.354 N 
ATOM     49  C   UNL A   1      39.464  29.872  30.322  1.00  0.00     0.074 A 
ATOM     50  C   UNL A   1      38.503  30.090  29.262  1.00  0.00     0.031 C 
ATOM     51  C   UNL A   1      37.873  34.299  34.679  1.00  0.00     0.029 A 
ATOM     52  C   UNL A   1      38.915  33.281  34.776  1.00  0.00     0.049 A 
ATOM     53  H   UNL A   1      39.514  31.940  33.296  1.00  0.00     0.167 HD
ATOM     54  C   UNL A   1      40.410  28.902  30.305  1.00  0.00     0.034 A 
ATOM     55  C   UNL A   1      39.676  33.053  35.865  1.00  0.00     0.034 A 
ATOM     56  C   UNL A   1      41.382  28.699  31.347  1.00  0.00     0.049 A 
ATOM     57  C   UNL A   1      40.732  31.982  35.814  1.00  0.00     0.074 A 
ATOM     58  C   UNL A   1      42.428  27.792  31.382  1.00  0.00     0.029 A 
ATOM     59  N   UNL A   1      41.423  29.399  32.542  1.00  0.00    -0.354 N 
ATOM     60  N   UNL A   1      41.041  31.174  34.829  1.00  0.00    -0.248 NA
ATOM     61  C   UNL A   1      41.571  31.815  37.011  1.00  0.00     0.031 C 
ATOM     62  C   UNL A   1      43.079  27.921  32.613  1.00  0.00     0.029 A 
ATOM     63  C   UNL A   1      42.466  28.937  33.327  1.00  0.00     0.049 A 
ATOM     64  H   UNL A   1      40.803  30.120  32.796  1.00  0.00     0.167 HD
ATOM     65  C   UNL A   1      42.129  30.431  35.272  1.00  0.00     0.074 A 
ATOM     66  C   UNL A   1      42.440  30.899  36.607  1.00  0.00     0.031 C 
ATOM     67  C   UNL A   1      42.802  29.441  34.636  1.00  0.00     0.034 A 
BRANCH  54  68
ATOM     68  C   UNL A   1      40.474  28.005  29.093  1.00  0.00     0.023 A 
ATOM     69  C   UNL A   1      39.532  26.965  28.947  1.00  0.00     0.012 A 
ATOM     70  C   UNL A   1      41.416  28.231  28.070  1.00  0.00     0.148 A 
ATOM     71  C   UNL A   1      39.551  26.141  27.823  1.00  0.00     0.002 A 
ATOM     72  C   UNL A   1      41.398  27.435  26.931  1.00  0.00     0.091 A 
ATOM     73  F   UNL A   1      42.311  29.215  28.231  1.00  0.00    -0.205 F 
ATOM     74  C   UNL A   1      40.476  26.381  26.812  1.00  0.00     0.022 A 
BRANCH  72  75
ATOM     75  S   UNL A   1      42.489  27.716  25.532  1.00  0.00     0.127 S 
ATOM     76  O   UNL A   1      41.989  28.991  25.019  1.00  0.00    -0.237 OA
ATOM     77  O   UNL A   1      43.801  27.791  26.175  1.00  0.00    -0.237 OA
ATOM     78  O   UNL A   1      42.311  26.575  24.645  1.00  0.00    -0.744 OA
ENDBRANCH  72  75
ENDBRANCH  54  68
BRANCH  55  79
ATOM     79  C   UNL A   1      39.496  33.886  37.089  1.00  0.00     0.023 A 
ATOM     80  C   UNL A   1      39.968  35.214  37.103  1.00  0.00     0.012 A 
ATOM     81  C   UNL A   1      38.849  33.375  38.230  1.00  0.00     0.148 A 
ATOM     82  C   UNL A   1      39.830  36.004  38.245  1.00  0.00     0.002 A 
ATOM     83  C   UNL A   1      38.662  34.187  39.342  1.00  0.00     0.091 A 
ATOM     84  F   UNL A   1      38.417  32.107  38.201  1.00  0.00    -0.205 F 
ATOM     85  C   UNL A   1      39.170  35.496  39.359  1.00  0.00     0.022 A 
BRANCH  83  86
ATOM     86  S   UNL A   1      37.709  33.660  40.770  1.00  0.00     0.127 S 
ATOM     87  O   UNL A   1      37.699  34.870  41.588  1.00  0.00    -0.237 OA
ATOM     88  O   UNL A   1      36.423  33.316  40.161  1.00  0.00    -0.237 OA
ATOM     89  O   UNL A   1      38.430  32.524  41.329  1.00  0.00    -0.744 OA
ENDBRANCH  83  86
ENDBRANCH  55  79
BRANCH  67  90
ATOM     90  C   UNL A   1      43.976  28.818  35.347  1.00  0.00     0.023 A 
ATOM     91  C   UNL A   1      45.271  29.346  35.171  1.00  0.00     0.012 A 
ATOM     92  C   UNL A   1      43.784  27.749  36.245  1.00  0.00     0.148 A 
ATOM     93  C   UNL A   1      46.359  28.798  35.850  1.00  0.00     0.002 A 
ATOM     94  C   UNL A   1      44.863  27.243  36.958  1.00  0.00     0.091 A 
ATOM     95  F   UNL A   1      42.547  27.248  36.387  1.00  0.00    -0.205 F 
ATOM     96  C   UNL A   1      46.154  27.756  36.751  1.00  0.00     0.022 A 
BRANCH  94  97
ATOM     97  S   UNL A   1      44.682  25.968  38.211  1.00  0.00     0.127 S 
ATOM     98  O   UNL A   1      46.061  25.800  38.666  1.00  0.00    -0.237 OA
ATOM     99  O   UNL A   1      43.793  26.610  39.179  1.00  0.00    -0.237 OA
ATOM    100  O   UNL A   1      44.105  24.815  37.532  1.00  0.00    -0.744 OA
ENDBRANCH  94  97
ENDBRANCH  67  90
ENDBRANCH  41  42
ENDBRANCH  33  36
ENDBRANCH  31  32
ENDBRANCH  30  31
ENDBRANCH   1  30
TORSDOF 18
ENDMDL
MODEL 3
REMARK VINA RESULT:     -12.1      2.505      7.981
REMARK SMILES O=C(COc1ccccc1C[NH+]1CCC2(CC[NH2+]CC2)CC1)NCCCCNC(=O)c1ccc(-c2c3nc(c(-c4cccc(S(=O)(=O)[O-])c4F)c4ccc([nH]4)c(-c4cccc(S(=O)(=O)[O-])c4F)c4nc(c(-c5cccc(S(=O)(=O)[O-])c5F)c5ccc2[nH]5)C=C4)C=C3)cc1
REMARK SMILES IDX 25 1 24 2 23 3 1 4 2 5 3 7 4 8 5 9 6 10 10 11 7 12 9 13 8 14
REMARK SMILES IDX 11 15 12 16 13 17 22 18 14 20 21 21 15 22 16 23 20 24 17 25
REMARK SMILES IDX 19 26 18 27 26 30 27 31 28 32 29 33 30 35 31 36 32 37 93 38
REMARK SMILES IDX 33 39 92 40 34 41 35 42 36 43 86 44 37 45 91 46 85 47 87 48
REMARK SMILES IDX 38 49 90 50 84 51 83 52 39 54 71 55 51 56 70 57 52 58 55 59
REMARK SMILES IDX 69 60 88 61 53 62 54 63 68 65 89 66 56 67 40 68 41 69 49 70
REMARK SMILES IDX 42 71 44 72 50 73 43 74 45 75 46 76 47 77 48 78 72 79 73 80
REMARK SMILES IDX 81 81 74 82 76 83 82 84 75 85 77 86 78 87 79 88 80 89 57 90
REMARK SMILES IDX 58 91 66 92 59 93 61 94 67 95 60 96 62 97 63 98 64 99 65 100
REMARK H PARENT 23 6 12 19 18 28 18 29 28 34 87 53 55 64
REMARK Flexibility Score: inf
ROOT
ATOM      1  C   UNL A   1      33.626  28.172  24.854  1.00  0.00     0.023 C 
ENDROOT
BRANCH   1   2
ATOM      2  C   UNL A   1      33.658  27.330  26.124  1.00  0.00     0.116 C 
BRANCH   2   3
ATOM      3  N   UNL A   1      32.921  26.076  26.084  1.00  0.00    -0.353 N 
ATOM      4  O   UNL A   1      30.955  26.890  26.975  1.00  0.00    -0.271 OA
ATOM      5  C   UNL A   1      31.551  26.045  26.308  1.00  0.00     0.257 C 
ATOM      6  H   UNL A   1      33.400  25.237  25.895  1.00  0.00     0.163 HD
BRANCH   5   7
ATOM      7  C   UNL A   1      30.801  24.919  25.576  1.00  0.00     0.329 C 
BRANCH   7   8
ATOM      8  O   UNL A   1      31.693  24.056  24.860  1.00  0.00    -0.483 OA
BRANCH   8   9
ATOM      9  C   UNL A   1      32.055  24.539  23.624  1.00  0.00     0.128 A 
ATOM     10  C   UNL A   1      31.270  25.566  23.085  1.00  0.00     0.047 A 
ATOM     11  C   UNL A   1      33.016  23.901  22.820  1.00  0.00     0.048 A 
ATOM     12  C   UNL A   1      31.480  26.004  21.774  1.00  0.00     0.004 A 
ATOM     13  C   UNL A   1      33.279  24.425  21.541  1.00  0.00     0.013 A 
ATOM     14  C   UNL A   1      32.503  25.452  21.011  1.00  0.00     0.001 A 
BRANCH  11  15
ATOM     15  C   UNL A   1      33.712  22.620  23.207  1.00  0.00     0.302 C 
BRANCH  15  16
ATOM     16  N   UNL A   1      33.101  21.787  24.249  1.00  0.00    -0.331 N 
ATOM     17  C   UNL A   1      32.136  20.780  23.827  1.00  0.00     0.263 C 
ATOM     18  C   UNL A   1      33.989  21.304  25.296  1.00  0.00     0.263 C 
ATOM     19  H   UNL A   1      32.528  22.504  24.694  1.00  0.00     0.348 HD
ATOM     20  C   UNL A   1      32.730  19.426  23.451  1.00  0.00     0.069 C 
ATOM     21  C   UNL A   1      34.659  19.963  25.000  1.00  0.00     0.069 C 
ATOM     22  C   UNL A   1      33.692  18.856  24.518  1.00  0.00    -0.008 C 
ATOM     23  C   UNL A   1      32.908  18.274  25.719  1.00  0.00     0.069 C 
ATOM     24  C   UNL A   1      34.532  17.717  23.888  1.00  0.00     0.069 C 
ATOM     25  C   UNL A   1      32.151  16.989  25.368  1.00  0.00     0.261 C 
ATOM     26  C   UNL A   1      33.693  16.479  23.576  1.00  0.00     0.261 C 
ATOM     27  N   UNL A   1      33.026  15.979  24.775  1.00  0.00    -0.346 N 
ATOM     28  H   UNL A   1      32.469  15.162  24.528  1.00  0.00     0.346 HD
ATOM     29  H   UNL A   1      33.744  15.738  25.460  1.00  0.00     0.346 HD
ENDBRANCH  15  16
ENDBRANCH  11  15
ENDBRANCH   8   9
ENDBRANCH   7   8
ENDBRANCH   5   7
ENDBRANCH   2   3
ENDBRANCH   1   2
BRANCH   1  30
ATOM     30  C   UNL A   1      32.855  29.491  24.931  1.00  0.00     0.023 C 
BRANCH  30  31
ATOM     31  C   UNL A   1      32.278  29.870  26.294  1.00  0.00     0.116 C 
BRANCH  31  32
ATOM     32  N   UNL A   1      32.245  31.303  26.546  1.00  0.00    -0.352 N 
ATOM     33  C   UNL A   1      33.122  32.099  27.252  1.00  0.00     0.251 C 
ATOM     34  H   UNL A   1      31.478  31.778  26.150  1.00  0.00     0.163 HD
ATOM     35  O   UNL A   1      32.857  33.282  27.436  1.00  0.00    -0.269 OA
BRANCH  33  36
ATOM     36  C   UNL A   1      34.369  31.531  27.820  1.00  0.00     0.039 A 
ATOM     37  C   UNL A   1      35.466  32.376  28.014  1.00  0.00     0.014 A 
ATOM     38  C   UNL A   1      34.470  30.178  28.153  1.00  0.00     0.014 A 
ATOM     39  C   UNL A   1      36.629  31.886  28.620  1.00  0.00     0.010 A 
ATOM     40  C   UNL A   1      35.604  29.707  28.821  1.00  0.00     0.010 A 
ATOM     41  C   UNL A   1      36.694  30.557  29.070  1.00  0.00    -0.014 A 
BRANCH  41  42
ATOM     42  C   UNL A   1      37.871  30.059  29.836  1.00  0.00     0.031 A 
ATOM     43  C   UNL A   1      38.159  30.566  31.225  1.00  0.00     0.074 A 
ATOM     44  C   UNL A   1      38.735  29.204  29.249  1.00  0.00     0.049 A 
ATOM     45  N   UNL A   1      39.162  30.279  32.016  1.00  0.00    -0.248 NA
ATOM     46  C   UNL A   1      37.208  31.534  31.793  1.00  0.00     0.031 C 
ATOM     47  C   UNL A   1      38.619  28.691  27.882  1.00  0.00     0.029 A 
ATOM     48  N   UNL A   1      39.896  28.637  29.716  1.00  0.00    -0.354 N 
ATOM     49  C   UNL A   1      38.983  31.050  33.158  1.00  0.00     0.074 A 
ATOM     50  C   UNL A   1      37.791  31.844  32.943  1.00  0.00     0.031 C 
ATOM     51  C   UNL A   1      39.662  27.889  27.622  1.00  0.00     0.029 A 
ATOM     52  C   UNL A   1      40.543  27.855  28.786  1.00  0.00     0.049 A 
ATOM     53  H   UNL A   1      40.235  28.777  30.630  1.00  0.00     0.167 HD
ATOM     54  C   UNL A   1      39.723  31.080  34.293  1.00  0.00     0.034 A 
ATOM     55  C   UNL A   1      41.717  27.195  28.851  1.00  0.00     0.034 A 
ATOM     56  C   UNL A   1      40.894  30.274  34.519  1.00  0.00     0.049 A 
ATOM     57  C   UNL A   1      42.510  27.229  30.129  1.00  0.00     0.074 A 
ATOM     58  C   UNL A   1      41.663  30.179  35.665  1.00  0.00     0.029 A 
ATOM     59  N   UNL A   1      41.474  29.436  33.580  1.00  0.00    -0.354 N 
ATOM     60  N   UNL A   1      42.239  27.847  31.253  1.00  0.00    -0.248 NA
ATOM     61  C   UNL A   1      43.756  26.446  30.162  1.00  0.00     0.031 C 
ATOM     62  C   UNL A   1      42.729  29.310  35.408  1.00  0.00     0.029 A 
ATOM     63  C   UNL A   1      42.599  28.831  34.115  1.00  0.00     0.049 A 
ATOM     64  H   UNL A   1      41.136  29.292  32.667  1.00  0.00     0.167 HD
ATOM     65  C   UNL A   1      43.255  27.498  32.136  1.00  0.00     0.074 A 
ATOM     66  C   UNL A   1      44.137  26.598  31.422  1.00  0.00     0.031 C 
ATOM     67  C   UNL A   1      43.446  27.897  33.417  1.00  0.00     0.034 A 
BRANCH  54  68
ATOM     68  C   UNL A   1      39.261  31.986  35.408  1.00  0.00     0.023 A 
ATOM     69  C   UNL A   1      38.345  31.501  36.364  1.00  0.00     0.012 A 
ATOM     70  C   UNL A   1      39.782  33.288  35.549  1.00  0.00     0.148 A 
ATOM     71  C   UNL A   1      37.924  32.309  37.420  1.00  0.00     0.002 A 
ATOM     72  C   UNL A   1      39.394  34.070  36.631  1.00  0.00     0.091 A 
ATOM     73  F   UNL A   1      40.641  33.738  34.624  1.00  0.00    -0.205 F 
ATOM     74  C   UNL A   1      38.455  33.588  37.559  1.00  0.00     0.022 A 
BRANCH  72  75
ATOM     75  S   UNL A   1      40.083  35.697  36.951  1.00  0.00     0.127 S 
ATOM     76  O   UNL A   1      41.515  35.407  36.998  1.00  0.00    -0.237 OA
ATOM     77  O   UNL A   1      39.653  36.451  35.772  1.00  0.00    -0.237 OA
ATOM     78  O   UNL A   1      39.497  36.145  38.206  1.00  0.00    -0.744 OA
ENDBRANCH  72  75
ENDBRANCH  54  68
BRANCH  55  79
ATOM     79  C   UNL A   1      42.196  26.408  27.679  1.00  0.00     0.023 A 
ATOM     80  C   UNL A   1      43.021  27.023  26.716  1.00  0.00     0.012 A 
ATOM     81  C   UNL A   1      41.853  25.052  27.522  1.00  0.00     0.148 A 
ATOM     82  C   UNL A   1      43.463  26.311  25.600  1.00  0.00     0.002 A 
ATOM     83  C   UNL A   1      42.345  24.333  26.439  1.00  0.00     0.091 A 
ATOM     84  F   UNL A   1      41.059  24.487  28.443  1.00  0.00    -0.205 F 
ATOM     85  C   UNL A   1      43.134  24.966  25.466  1.00  0.00     0.022 A 
BRANCH  83  86
ATOM     86  S   UNL A   1      42.082  22.566  26.256  1.00  0.00     0.127 S 
ATOM     87  O   UNL A   1      42.703  22.043  27.470  1.00  0.00    -0.237 OA
ATOM     88  O   UNL A   1      40.620  22.483  26.226  1.00  0.00    -0.237 OA
ATOM     89  O   UNL A   1      42.729  22.197  25.004  1.00  0.00    -0.744 OA
ENDBRANCH  83  86
ENDBRANCH  55  79
BRANCH  67  90
ATOM     90  C   UNL A   1      44.631  27.334  34.160  1.00  0.00     0.023 A 
ATOM     91  C   UNL A   1      45.847  28.043  34.194  1.00  0.00     0.012 A 
ATOM     92  C   UNL A   1      44.515  26.129  34.884  1.00  0.00     0.148 A 
ATOM     93  C   UNL A   1      46.939  27.547  34.906  1.00  0.00     0.002 A 
ATOM     94  C   UNL A   1      45.589  25.668  35.634  1.00  0.00     0.091 A 
ATOM     95  F   UNL A   1      43.354  25.458  34.826  1.00  0.00    -0.205 F 
ATOM     96  C   UNL A   1      46.806  26.368  35.635  1.00  0.00     0.022 A 
BRANCH  94  97
ATOM     97  S   UNL A   1      45.482  24.212  36.681  1.00  0.00     0.127 S 
ATOM     98  O   UNL A   1      44.782  24.738  37.852  1.00  0.00    -0.237 OA
ATOM     99  O   UNL A   1      44.693  23.296  35.858  1.00  0.00    -0.237 OA
ATOM    100  O   UNL A   1      46.855  23.784  36.916  1.00  0.00    -0.744 OA
ENDBRANCH  94  97
ENDBRANCH  67  90
ENDBRANCH  41  42
ENDBRANCH  33  36
ENDBRANCH  31  32
ENDBRANCH  30  31
ENDBRANCH   1  30
TORSDOF 18
ENDMDL
