MODEL 1
REMARK VINA RESULT:     -12.3      0.000      0.000
REMARK SMILES CC(C)(C)OC(=O)[C@H](C(=O)NCCCCNC(=O)c1ccc(-c2c3nc(c(-c4cccc(S(=O)(=O)[O-])c4F)c4ccc([nH]4)c(-c4cccc(S(=O)(=O)[O-])c4F)c4nc(c(-c5cccc(S(=O)(=O)[O-])c5F)c5ccc2[nH]5)C=C4)C=C3)cc1)[C@@H]([NH3+])c1ccc(Br)cc1
REMARK SMILES IDX 13 1 12 2 11 3 9 4 10 5 8 7 6 8 7 9 5 10 2 11 1 12 3 13 4 14
REMARK SMILES IDX 82 15 83 16 84 20 85 21 90 22 86 23 89 24 87 25 88 26 14 27
REMARK SMILES IDX 15 28 16 29 17 30 18 32 19 33 20 34 81 35 21 36 80 37 22 38
REMARK SMILES IDX 23 39 24 40 74 41 25 42 79 43 73 44 75 45 26 46 78 47 72 48
REMARK SMILES IDX 71 49 27 51 59 52 39 53 58 54 40 55 43 56 57 57 76 58 41 59
REMARK SMILES IDX 42 60 56 62 77 63 44 64 28 65 29 66 37 67 30 68 32 69 38 70
REMARK SMILES IDX 31 71 33 72 34 73 35 74 36 75 60 76 61 77 69 78 62 79 64 80
REMARK SMILES IDX 70 81 63 82 65 83 66 84 67 85 68 86 45 87 46 88 54 89 47 90
REMARK SMILES IDX 49 91 55 92 48 93 50 94 51 95 52 96 53 97
REMARK H PARENT 11 6 83 17 83 18 83 19 16 31 75 50 43 61
REMARK Flexibility Score: inf
ROOT
ATOM      1  C   UNL A   1      31.758  28.949  25.661  1.00  0.00     0.023 C 
ENDROOT
BRANCH   1   2
ATOM      2  C   UNL A   1      31.931  27.950  26.799  1.00  0.00     0.116 C 
BRANCH   2   3
ATOM      3  N   UNL A   1      30.883  26.941  26.855  1.00  0.00    -0.355 N 
ATOM      4  C   UNL A   1      30.296  26.084  25.979  1.00  0.00     0.240 C 
ATOM      5  O   UNL A   1      29.525  25.273  26.518  1.00  0.00    -0.274 OA
ATOM      6  H   UNL A   1      30.503  26.858  27.759  1.00  0.00     0.163 HD
BRANCH   4   7
ATOM      7  C   UNL A   1      30.464  26.013  24.444  1.00  0.00     0.250 C 
BRANCH   7   8
ATOM      8  C   UNL A   1      30.993  24.634  24.109  1.00  0.00     0.325 C 
ATOM      9  O   UNL A   1      31.117  23.751  24.951  1.00  0.00    -0.251 OA
BRANCH   8  10
ATOM     10  O   UNL A   1      31.336  24.515  22.800  1.00  0.00    -0.459 OA
BRANCH  10  11
ATOM     11  C   UNL A   1      32.692  24.762  22.321  1.00  0.00     0.104 C 
ATOM     12  C   UNL A   1      33.259  23.373  21.990  1.00  0.00     0.056 C 
ATOM     13  C   UNL A   1      33.633  25.424  23.338  1.00  0.00     0.056 C 
ATOM     14  C   UNL A   1      32.608  25.590  21.037  1.00  0.00     0.056 C 
ENDBRANCH  10  11
ENDBRANCH   8  10
ENDBRANCH   7   8
BRANCH   7  15
ATOM     15  C   UNL A   1      29.308  26.521  23.545  1.00  0.00     0.236 C 
BRANCH  15  16
ATOM     16  N   UNL A   1      28.046  26.094  24.219  1.00  0.00    -0.350 N 
ATOM     17  H   UNL A   1      28.272  25.625  25.096  1.00  0.00     0.345 HD
ATOM     18  H   UNL A   1      27.537  25.451  23.611  1.00  0.00     0.345 HD
ATOM     19  H   UNL A   1      27.468  26.912  24.409  1.00  0.00     0.345 HD
ENDBRANCH  15  16
BRANCH  15  20
ATOM     20  C   UNL A   1      29.111  27.983  23.082  1.00  0.00     0.011 A 
ATOM     21  C   UNL A   1      27.823  28.571  23.156  1.00  0.00     0.011 A 
ATOM     22  C   UNL A   1      30.086  28.753  22.437  1.00  0.00     0.011 A 
ATOM     23  C   UNL A   1      27.548  29.856  22.675  1.00  0.00     0.016 A 
ATOM     24  C   UNL A   1      29.823  30.043  21.951  1.00  0.00     0.016 A 
ATOM     25  C   UNL A   1      28.556  30.593  22.077  1.00  0.00     0.018 A 
ATOM     26  Br  UNL A   1      28.205  32.327  21.420  1.00  0.00    -0.051 Br
ENDBRANCH  15  20
ENDBRANCH   7  15
ENDBRANCH   4   7
ENDBRANCH   2   3
ENDBRANCH   1   2
BRANCH   1  27
ATOM     27  C   UNL A   1      31.748  30.420  26.062  1.00  0.00     0.023 C 
BRANCH  27  28
ATOM     28  C   UNL A   1      32.711  30.814  27.179  1.00  0.00     0.116 C 
BRANCH  28  29
ATOM     29  N   UNL A   1      32.879  32.254  27.331  1.00  0.00    -0.352 N 
ATOM     30  C   UNL A   1      33.942  32.967  27.837  1.00  0.00     0.251 C 
ATOM     31  H   UNL A   1      32.118  32.798  27.026  1.00  0.00     0.163 HD
ATOM     32  O   UNL A   1      33.855  34.182  27.955  1.00  0.00    -0.269 OA
BRANCH  30  33
ATOM     33  C   UNL A   1      35.169  32.260  28.273  1.00  0.00     0.039 A 
ATOM     34  C   UNL A   1      36.372  32.966  28.298  1.00  0.00     0.014 A 
ATOM     35  C   UNL A   1      35.128  30.927  28.686  1.00  0.00     0.014 A 
ATOM     36  C   UNL A   1      37.519  32.359  28.816  1.00  0.00     0.010 A 
ATOM     37  C   UNL A   1      36.249  30.353  29.283  1.00  0.00     0.010 A 
ATOM     38  C   UNL A   1      37.455  31.062  29.357  1.00  0.00    -0.014 A 
BRANCH  38  39
ATOM     39  C   UNL A   1      38.637  30.463  30.034  1.00  0.00     0.031 A 
ATOM     40  C   UNL A   1      39.016  30.872  31.431  1.00  0.00     0.074 A 
ATOM     41  C   UNL A   1      39.411  29.590  29.356  1.00  0.00     0.049 A 
ATOM     42  N   UNL A   1      40.002  30.442  32.175  1.00  0.00    -0.248 NA
ATOM     43  C   UNL A   1      38.200  31.919  32.071  1.00  0.00     0.031 C 
ATOM     44  C   UNL A   1      39.219  29.197  27.958  1.00  0.00     0.029 A 
ATOM     45  N   UNL A   1      40.526  28.889  29.745  1.00  0.00    -0.354 N 
ATOM     46  C   UNL A   1      39.939  31.173  33.355  1.00  0.00     0.074 A 
ATOM     47  C   UNL A   1      38.848  32.111  33.211  1.00  0.00     0.031 C 
ATOM     48  C   UNL A   1      40.173  28.317  27.612  1.00  0.00     0.029 A 
ATOM     49  C   UNL A   1      41.055  28.098  28.752  1.00  0.00     0.049 A 
ATOM     50  H   UNL A   1      40.911  28.948  30.649  1.00  0.00     0.167 HD
ATOM     51  C   UNL A   1      40.692  31.048  34.475  1.00  0.00     0.034 A 
ATOM     52  C   UNL A   1      42.126  27.281  28.760  1.00  0.00     0.034 A 
ATOM     53  C   UNL A   1      41.754  30.090  34.630  1.00  0.00     0.049 A 
ATOM     54  C   UNL A   1      42.903  27.111  30.038  1.00  0.00     0.074 A 
ATOM     55  C   UNL A   1      42.526  29.836  35.750  1.00  0.00     0.029 A 
ATOM     56  N   UNL A   1      42.195  29.229  33.638  1.00  0.00    -0.354 N 
ATOM     57  N   UNL A   1      42.715  27.688  31.200  1.00  0.00    -0.248 NA
ATOM     58  C   UNL A   1      44.009  26.144  30.020  1.00  0.00     0.031 C 
ATOM     59  C   UNL A   1      43.443  28.828  35.429  1.00  0.00     0.029 A 
ATOM     60  C   UNL A   1      43.228  28.441  34.117  1.00  0.00     0.049 A 
ATOM     61  H   UNL A   1      41.827  29.185  32.725  1.00  0.00     0.167 HD
ATOM     62  C   UNL A   1      43.660  27.136  32.056  1.00  0.00     0.074 A 
ATOM     63  C   UNL A   1      44.393  26.150  31.288  1.00  0.00     0.031 C 
ATOM     64  C   UNL A   1      43.918  27.434  33.355  1.00  0.00     0.034 A 
BRANCH  51  65
ATOM     65  C   UNL A   1      40.341  31.920  35.653  1.00  0.00     0.023 A 
ATOM     66  C   UNL A   1      41.136  33.052  35.930  1.00  0.00     0.012 A 
ATOM     67  C   UNL A   1      39.201  31.668  36.440  1.00  0.00     0.148 A 
ATOM     68  C   UNL A   1      40.820  33.903  36.988  1.00  0.00     0.002 A 
ATOM     69  C   UNL A   1      38.868  32.545  37.467  1.00  0.00     0.091 A 
ATOM     70  F   UNL A   1      38.468  30.577  36.174  1.00  0.00    -0.205 F 
ATOM     71  C   UNL A   1      39.681  33.656  37.748  1.00  0.00     0.022 A 
BRANCH  69  72
ATOM     72  S   UNL A   1      37.380  32.364  38.459  1.00  0.00     0.127 S 
ATOM     73  O   UNL A   1      37.764  33.051  39.691  1.00  0.00    -0.237 OA
ATOM     74  O   UNL A   1      36.387  33.071  37.651  1.00  0.00    -0.237 OA
ATOM     75  O   UNL A   1      37.155  30.932  38.589  1.00  0.00    -0.744 OA
ENDBRANCH  69  72
ENDBRANCH  51  65
BRANCH  52  76
ATOM     76  C   UNL A   1      42.486  26.506  27.538  1.00  0.00     0.023 A 
ATOM     77  C   UNL A   1      43.205  27.133  26.501  1.00  0.00     0.012 A 
ATOM     78  C   UNL A   1      42.136  25.148  27.405  1.00  0.00     0.148 A 
ATOM     79  C   UNL A   1      43.533  26.435  25.339  1.00  0.00     0.002 A 
ATOM     80  C   UNL A   1      42.519  24.443  26.271  1.00  0.00     0.091 A 
ATOM     81  F   UNL A   1      41.439  24.571  28.394  1.00  0.00    -0.205 F 
ATOM     82  C   UNL A   1      43.199  25.088  25.227  1.00  0.00     0.022 A 
BRANCH  80  83
ATOM     83  S   UNL A   1      42.255  22.672  26.115  1.00  0.00     0.127 S 
ATOM     84  O   UNL A   1      42.936  22.162  27.302  1.00  0.00    -0.237 OA
ATOM     85  O   UNL A   1      40.795  22.576  26.153  1.00  0.00    -0.237 OA
ATOM     86  O   UNL A   1      42.842  22.306  24.834  1.00  0.00    -0.744 OA
ENDBRANCH  80  83
ENDBRANCH  52  76
BRANCH  64  87
ATOM     87  C   UNL A   1      45.028  26.671  34.031  1.00  0.00     0.023 A 
ATOM     88  C   UNL A   1      46.365  27.085  33.856  1.00  0.00     0.012 A 
ATOM     89  C   UNL A   1      44.748  25.574  34.868  1.00  0.00     0.148 A 
ATOM     90  C   UNL A   1      47.407  26.389  34.466  1.00  0.00     0.002 A 
ATOM     91  C   UNL A   1      45.788  24.916  35.512  1.00  0.00     0.091 A 
ATOM     92  F   UNL A   1      43.472  25.182  35.006  1.00  0.00    -0.205 F 
ATOM     93  C   UNL A   1      47.119  25.313  35.302  1.00  0.00     0.022 A 
BRANCH  91  94
ATOM     94  S   UNL A   1      45.500  23.579  36.677  1.00  0.00     0.127 S 
ATOM     95  O   UNL A   1      44.558  24.194  37.610  1.00  0.00    -0.237 OA
ATOM     96  O   UNL A   1      44.923  22.539  35.824  1.00  0.00    -0.237 OA
ATOM     97  O   UNL A   1      46.807  23.246  37.228  1.00  0.00    -0.744 OA
ENDBRANCH  91  94
ENDBRANCH  64  87
ENDBRANCH  38  39
ENDBRANCH  30  33
ENDBRANCH  28  29
ENDBRANCH  27  28
ENDBRANCH   1  27
TORSDOF 20
ENDMDL
MODEL 2
REMARK VINA RESULT:     -11.5      1.363      7.649
REMARK SMILES CC(C)(C)OC(=O)[C@H](C(=O)NCCCCNC(=O)c1ccc(-c2c3nc(c(-c4cccc(S(=O)(=O)[O-])c4F)c4ccc([nH]4)c(-c4cccc(S(=O)(=O)[O-])c4F)c4nc(c(-c5cccc(S(=O)(=O)[O-])c5F)c5ccc2[nH]5)C=C4)C=C3)cc1)[C@@H]([NH3+])c1ccc(Br)cc1
REMARK SMILES IDX 13 1 12 2 11 3 9 4 10 5 8 7 6 8 7 9 5 10 2 11 1 12 3 13 4 14
REMARK SMILES IDX 82 15 83 16 84 20 85 21 90 22 86 23 89 24 87 25 88 26 14 27
REMARK SMILES IDX 15 28 16 29 17 30 18 32 19 33 20 34 81 35 21 36 80 37 22 38
REMARK SMILES IDX 23 39 24 40 74 41 25 42 79 43 73 44 75 45 26 46 78 47 72 48
REMARK SMILES IDX 71 49 27 51 59 52 39 53 58 54 40 55 43 56 57 57 76 58 41 59
REMARK SMILES IDX 42 60 56 62 77 63 44 64 28 65 29 66 37 67 30 68 32 69 38 70
REMARK SMILES IDX 31 71 33 72 34 73 35 74 36 75 60 76 61 77 69 78 62 79 64 80
REMARK SMILES IDX 70 81 63 82 65 83 66 84 67 85 68 86 45 87 46 88 54 89 47 90
REMARK SMILES IDX 49 91 55 92 48 93 50 94 51 95 52 96 53 97
REMARK H PARENT 11 6 83 17 83 18 83 19 16 31 75 50 43 61
REMARK Flexibility Score: inf
ROOT
ATOM      1  C   UNL A   1      31.824  29.294  25.795  1.00  0.00     0.023 C 
ENDROOT
BRANCH   1   2
ATOM      2  C   UNL A   1      32.189  28.202  26.793  1.00  0.00     0.116 C 
BRANCH   2   3
ATOM      3  N   UNL A   1      31.181  27.160  26.914  1.00  0.00    -0.355 N 
ATOM      4  C   UNL A   1      30.611  26.243  26.089  1.00  0.00     0.240 C 
ATOM      5  O   UNL A   1      29.880  25.429  26.678  1.00  0.00    -0.274 OA
ATOM      6  H   UNL A   1      30.819  27.104  27.828  1.00  0.00     0.163 HD
BRANCH   4   7
ATOM      7  C   UNL A   1      30.756  26.107  24.556  1.00  0.00     0.250 C 
BRANCH   7   8
ATOM      8  C   UNL A   1      31.344  24.740  24.275  1.00  0.00     0.325 C 
ATOM      9  O   UNL A   1      30.654  23.730  24.180  1.00  0.00    -0.251 OA
BRANCH   8  10
ATOM     10  O   UNL A   1      32.699  24.769  24.179  1.00  0.00    -0.459 OA
BRANCH  10  11
ATOM     11  C   UNL A   1      33.558  23.895  24.971  1.00  0.00     0.104 C 
ATOM     12  C   UNL A   1      34.771  24.759  25.348  1.00  0.00     0.056 C 
ATOM     13  C   UNL A   1      34.076  22.649  24.238  1.00  0.00     0.056 C 
ATOM     14  C   UNL A   1      32.806  23.504  26.245  1.00  0.00     0.056 C 
ENDBRANCH  10  11
ENDBRANCH   8  10
ENDBRANCH   7   8
BRANCH   7  15
ATOM     15  C   UNL A   1      29.563  26.518  23.657  1.00  0.00     0.236 C 
BRANCH  15  16
ATOM     16  N   UNL A   1      28.334  26.066  24.375  1.00  0.00    -0.350 N 
ATOM     17  H   UNL A   1      27.932  26.851  24.886  1.00  0.00     0.345 HD
ATOM     18  H   UNL A   1      28.578  25.323  25.029  1.00  0.00     0.345 HD
ATOM     19  H   UNL A   1      27.656  25.715  23.699  1.00  0.00     0.345 HD
ENDBRANCH  15  16
BRANCH  15  20
ATOM     20  C   UNL A   1      29.289  27.946  23.130  1.00  0.00     0.011 A 
ATOM     21  C   UNL A   1      27.973  28.470  23.182  1.00  0.00     0.011 A 
ATOM     22  C   UNL A   1      30.223  28.736  22.448  1.00  0.00     0.011 A 
ATOM     23  C   UNL A   1      27.630  29.716  22.645  1.00  0.00     0.016 A 
ATOM     24  C   UNL A   1      29.892  29.987  21.905  1.00  0.00     0.016 A 
ATOM     25  C   UNL A   1      28.599  30.476  22.011  1.00  0.00     0.018 A 
ATOM     26  Br  UNL A   1      28.157  32.159  21.279  1.00  0.00    -0.051 Br
ENDBRANCH  15  20
ENDBRANCH   7  15
ENDBRANCH   4   7
ENDBRANCH   2   3
ENDBRANCH   1   2
BRANCH   1  27
ATOM     27  C   UNL A   1      31.512  30.663  26.390  1.00  0.00     0.023 C 
BRANCH  27  28
ATOM     28  C   UNL A   1      32.711  31.460  26.897  1.00  0.00     0.116 C 
BRANCH  28  29
ATOM     29  N   UNL A   1      32.420  32.866  27.146  1.00  0.00    -0.352 N 
ATOM     30  C   UNL A   1      33.060  33.764  27.970  1.00  0.00     0.251 C 
ATOM     31  H   UNL A   1      31.651  33.228  26.650  1.00  0.00     0.163 HD
ATOM     32  O   UNL A   1      32.607  34.893  28.104  1.00  0.00    -0.269 OA
BRANCH  30  33
ATOM     33  C   UNL A   1      34.268  33.350  28.723  1.00  0.00     0.039 A 
ATOM     34  C   UNL A   1      34.105  32.803  29.996  1.00  0.00     0.014 A 
ATOM     35  C   UNL A   1      35.542  33.468  28.167  1.00  0.00     0.014 A 
ATOM     36  C   UNL A   1      35.214  32.297  30.678  1.00  0.00     0.010 A 
ATOM     37  C   UNL A   1      36.634  32.886  28.808  1.00  0.00     0.010 A 
ATOM     38  C   UNL A   1      36.482  32.292  30.069  1.00  0.00    -0.014 A 
BRANCH  38  39
ATOM     39  C   UNL A   1      37.639  31.631  30.731  1.00  0.00     0.031 A 
ATOM     40  C   UNL A   1      38.419  30.555  30.029  1.00  0.00     0.074 A 
ATOM     41  C   UNL A   1      37.947  31.964  32.002  1.00  0.00     0.049 A 
ATOM     42  N   UNL A   1      39.462  29.886  30.451  1.00  0.00    -0.248 NA
ATOM     43  C   UNL A   1      37.957  30.153  28.688  1.00  0.00     0.031 C 
ATOM     44  C   UNL A   1      37.200  32.910  32.835  1.00  0.00     0.029 A 
ATOM     45  N   UNL A   1      38.958  31.530  32.824  1.00  0.00    -0.354 N 
ATOM     46  C   UNL A   1      39.768  28.977  29.444  1.00  0.00     0.074 A 
ATOM     47  C   UNL A   1      38.770  29.144  28.410  1.00  0.00     0.031 C 
ATOM     48  C   UNL A   1      37.785  32.994  34.041  1.00  0.00     0.029 A 
ATOM     49  C   UNL A   1      38.934  32.097  34.077  1.00  0.00     0.049 A 
ATOM     50  H   UNL A   1      39.636  30.873  32.543  1.00  0.00     0.167 HD
ATOM     51  C   UNL A   1      40.807  28.112  29.365  1.00  0.00     0.034 A 
ATOM     52  C   UNL A   1      39.749  31.921  35.135  1.00  0.00     0.034 A 
ATOM     53  C   UNL A   1      41.819  27.972  30.379  1.00  0.00     0.049 A 
ATOM     54  C   UNL A   1      40.935  31.004  34.995  1.00  0.00     0.074 A 
ATOM     55  C   UNL A   1      42.951  27.177  30.360  1.00  0.00     0.029 A 
ATOM     56  N   UNL A   1      41.821  28.642  31.593  1.00  0.00    -0.354 N 
ATOM     57  N   UNL A   1      41.304  30.284  33.964  1.00  0.00    -0.248 NA
ATOM     58  C   UNL A   1      41.842  30.912  36.147  1.00  0.00     0.031 C 
ATOM     59  C   UNL A   1      43.632  27.357  31.570  1.00  0.00     0.029 A 
ATOM     60  C   UNL A   1      42.935  28.279  32.332  1.00  0.00     0.049 A 
ATOM     61  H   UNL A   1      41.132  29.281  31.886  1.00  0.00     0.167 HD
ATOM     62  C   UNL A   1      42.497  29.675  34.332  1.00  0.00     0.074 A 
ATOM     63  C   UNL A   1      42.809  30.142  35.667  1.00  0.00     0.031 C 
ATOM     64  C   UNL A   1      43.255  28.787  33.640  1.00  0.00     0.034 A 
BRANCH  51  65
ATOM     65  C   UNL A   1      40.947  27.301  28.103  1.00  0.00     0.023 A 
ATOM     66  C   UNL A   1      41.558  27.887  26.975  1.00  0.00     0.012 A 
ATOM     67  C   UNL A   1      40.544  25.953  28.047  1.00  0.00     0.148 A 
ATOM     68  C   UNL A   1      41.740  27.156  25.802  1.00  0.00     0.002 A 
ATOM     69  C   UNL A   1      40.768  25.217  26.888  1.00  0.00     0.091 A 
ATOM     70  F   UNL A   1      39.948  25.418  29.122  1.00  0.00    -0.205 F 
ATOM     71  C   UNL A   1      41.356  25.819  25.763  1.00  0.00     0.022 A 
BRANCH  69  72
ATOM     72  S   UNL A   1      40.381  23.467  26.756  1.00  0.00     0.127 S 
ATOM     73  O   UNL A   1      41.350  23.027  25.752  1.00  0.00    -0.237 OA
ATOM     74  O   UNL A   1      40.650  22.991  28.113  1.00  0.00    -0.237 OA
ATOM     75  O   UNL A   1      38.986  23.392  26.347  1.00  0.00    -0.744 OA
ENDBRANCH  69  72
ENDBRANCH  51  65
BRANCH  52  76
ATOM     76  C   UNL A   1      39.515  32.681  36.396  1.00  0.00     0.023 A 
ATOM     77  C   UNL A   1      40.192  33.896  36.614  1.00  0.00     0.012 A 
ATOM     78  C   UNL A   1      38.611  32.216  37.371  1.00  0.00     0.148 A 
ATOM     79  C   UNL A   1      40.006  34.613  37.796  1.00  0.00     0.002 A 
ATOM     80  C   UNL A   1      38.385  32.966  38.519  1.00  0.00     0.091 A 
ATOM     81  F   UNL A   1      37.985  31.050  37.155  1.00  0.00    -0.205 F 
ATOM     82  C   UNL A   1      39.097  34.154  38.744  1.00  0.00     0.022 A 
BRANCH  80  83
ATOM     83  S   UNL A   1      37.124  32.518  39.717  1.00  0.00     0.127 S 
ATOM     84  O   UNL A   1      37.593  31.211  40.173  1.00  0.00    -0.237 OA
ATOM     85  O   UNL A   1      37.242  33.593  40.703  1.00  0.00    -0.237 OA
ATOM     86  O   UNL A   1      35.869  32.524  38.978  1.00  0.00    -0.744 OA
ENDBRANCH  80  83
ENDBRANCH  52  76
BRANCH  64  87
ATOM     87  C   UNL A   1      44.506  28.279  34.309  1.00  0.00     0.023 A 
ATOM     88  C   UNL A   1      45.714  28.990  34.161  1.00  0.00     0.012 A 
ATOM     89  C   UNL A   1      44.479  27.125  35.115  1.00  0.00     0.148 A 
ATOM     90  C   UNL A   1      46.885  28.534  34.765  1.00  0.00     0.002 A 
ATOM     91  C   UNL A   1      45.639  26.704  35.754  1.00  0.00     0.091 A 
ATOM     92  F   UNL A   1      43.326  26.449  35.229  1.00  0.00    -0.205 F 
ATOM     93  C   UNL A   1      46.845  27.398  35.570  1.00  0.00     0.022 A 
BRANCH  91  94
ATOM     94  S   UNL A   1      45.656  25.305  36.881  1.00  0.00     0.127 S 
ATOM     95  O   UNL A   1      44.432  25.524  37.649  1.00  0.00    -0.237 OA
ATOM     96  O   UNL A   1      45.607  24.163  35.966  1.00  0.00    -0.237 OA
ATOM     97  O   UNL A   1      46.900  25.417  37.633  1.00  0.00    -0.744 OA
ENDBRANCH  91  94
ENDBRANCH  64  87
ENDBRANCH  38  39
ENDBRANCH  30  33
ENDBRANCH  28  29
ENDBRANCH  27  28
ENDBRANCH   1  27
TORSDOF 20
ENDMDL
MODEL 3
REMARK VINA RESULT:     -11.5      3.144      4.431
REMARK SMILES CC(C)(C)OC(=O)[C@H](C(=O)NCCCCNC(=O)c1ccc(-c2c3nc(c(-c4cccc(S(=O)(=O)[O-])c4F)c4ccc([nH]4)c(-c4cccc(S(=O)(=O)[O-])c4F)c4nc(c(-c5cccc(S(=O)(=O)[O-])c5F)c5ccc2[nH]5)C=C4)C=C3)cc1)[C@@H]([NH3+])c1ccc(Br)cc1
REMARK SMILES IDX 13 1 12 2 11 3 9 4 10 5 8 7 6 8 7 9 5 10 2 11 1 12 3 13 4 14
REMARK SMILES IDX 82 15 83 16 84 20 85 21 90 22 86 23 89 24 87 25 88 26 14 27
REMARK SMILES IDX 15 28 16 29 17 30 18 32 19 33 20 34 81 35 21 36 80 37 22 38
REMARK SMILES IDX 23 39 24 40 74 41 25 42 79 43 73 44 75 45 26 46 78 47 72 48
REMARK SMILES IDX 71 49 27 51 59 52 39 53 58 54 40 55 43 56 57 57 76 58 41 59
REMARK SMILES IDX 42 60 56 62 77 63 44 64 28 65 29 66 37 67 30 68 32 69 38 70
REMARK SMILES IDX 31 71 33 72 34 73 35 74 36 75 60 76 61 77 69 78 62 79 64 80
REMARK SMILES IDX 70 81 63 82 65 83 66 84 67 85 68 86 45 87 46 88 54 89 47 90
REMARK SMILES IDX 49 91 55 92 48 93 50 94 51 95 52 96 53 97
REMARK H PARENT 11 6 83 17 83 18 83 19 16 31 75 50 43 61
REMARK Flexibility Score: inf
ROOT
ATOM      1  C   UNL A   1      31.762  27.567  26.498  1.00  0.00     0.023 C 
ENDROOT
BRANCH   1   2
ATOM      2  C   UNL A   1      32.316  26.187  26.165  1.00  0.00     0.116 C 
BRANCH   2   3
ATOM      3  N   UNL A   1      32.691  26.029  24.768  1.00  0.00    -0.355 N 
ATOM      4  C   UNL A   1      33.043  24.999  23.955  1.00  0.00     0.240 C 
ATOM      5  O   UNL A   1      33.134  25.318  22.758  1.00  0.00    -0.274 OA
ATOM      6  H   UNL A   1      32.690  26.889  24.289  1.00  0.00     0.163 HD
BRANCH   4   7
ATOM      7  C   UNL A   1      33.341  23.531  24.337  1.00  0.00     0.250 C 
BRANCH   7   8
ATOM      8  C   UNL A   1      34.153  23.550  25.616  1.00  0.00     0.325 C 
ATOM      9  O   UNL A   1      33.666  23.295  26.712  1.00  0.00    -0.251 OA
BRANCH   8  10
ATOM     10  O   UNL A   1      35.445  23.911  25.402  1.00  0.00    -0.459 OA
BRANCH  10  11
ATOM     11  C   UNL A   1      36.496  22.935  25.133  1.00  0.00     0.104 C 
ATOM     12  C   UNL A   1      37.749  23.494  25.825  1.00  0.00     0.056 C 
ATOM     13  C   UNL A   1      36.831  22.727  23.649  1.00  0.00     0.056 C 
ATOM     14  C   UNL A   1      36.106  21.611  25.795  1.00  0.00     0.056 C 
ENDBRANCH  10  11
ENDBRANCH   8  10
ENDBRANCH   7   8
BRANCH   7  15
ATOM     15  C   UNL A   1      32.182  22.503  24.298  1.00  0.00     0.236 C 
BRANCH  15  16
ATOM     16  N   UNL A   1      31.338  22.880  23.127  1.00  0.00    -0.350 N 
ATOM     17  H   UNL A   1      31.904  23.393  22.452  1.00  0.00     0.345 HD
ATOM     18  H   UNL A   1      30.566  23.469  23.441  1.00  0.00     0.345 HD
ATOM     19  H   UNL A   1      30.967  22.037  22.689  1.00  0.00     0.345 HD
ENDBRANCH  15  16
BRANCH  15  20
ATOM     20  C   UNL A   1      32.350  20.966  24.269  1.00  0.00     0.011 A 
ATOM     21  C   UNL A   1      32.735  20.283  25.451  1.00  0.00     0.011 A 
ATOM     22  C   UNL A   1      32.300  20.180  23.112  1.00  0.00     0.011 A 
ATOM     23  C   UNL A   1      32.992  18.907  25.482  1.00  0.00     0.016 A 
ATOM     24  C   UNL A   1      32.556  18.800  23.130  1.00  0.00     0.016 A 
ATOM     25  C   UNL A   1      32.895  18.167  24.316  1.00  0.00     0.018 A 
ATOM     26  Br  UNL A   1      33.240  16.312  24.337  1.00  0.00    -0.051 Br
ENDBRANCH  15  20
ENDBRANCH   7  15
ENDBRANCH   4   7
ENDBRANCH   2   3
ENDBRANCH   1   2
BRANCH   1  27
ATOM     27  C   UNL A   1      32.621  28.424  27.421  1.00  0.00     0.023 C 
BRANCH  27  28
ATOM     28  C   UNL A   1      33.582  29.391  26.734  1.00  0.00     0.116 C 
BRANCH  28  29
ATOM     29  N   UNL A   1      33.600  30.723  27.326  1.00  0.00    -0.352 N 
ATOM     30  C   UNL A   1      34.548  31.316  28.127  1.00  0.00     0.251 C 
ATOM     31  H   UNL A   1      32.816  31.282  27.121  1.00  0.00     0.163 HD
ATOM     32  O   UNL A   1      34.337  32.428  28.594  1.00  0.00    -0.269 OA
BRANCH  30  33
ATOM     33  C   UNL A   1      35.800  30.594  28.455  1.00  0.00     0.039 A 
ATOM     34  C   UNL A   1      36.918  30.794  27.644  1.00  0.00     0.014 A 
ATOM     35  C   UNL A   1      35.881  29.756  29.568  1.00  0.00     0.014 A 
ATOM     36  C   UNL A   1      38.140  30.219  27.999  1.00  0.00     0.010 A 
ATOM     37  C   UNL A   1      37.118  29.255  29.968  1.00  0.00     0.010 A 
ATOM     38  C   UNL A   1      38.262  29.483  29.191  1.00  0.00    -0.014 A 
BRANCH  38  39
ATOM     39  C   UNL A   1      39.588  28.985  29.644  1.00  0.00     0.031 A 
ATOM     40  C   UNL A   1      40.340  29.681  30.745  1.00  0.00     0.074 A 
ATOM     41  C   UNL A   1      40.147  27.932  29.010  1.00  0.00     0.049 A 
ATOM     42  N   UNL A   1      41.497  29.375  31.272  1.00  0.00    -0.248 NA
ATOM     43  C   UNL A   1      39.730  30.896  31.312  1.00  0.00     0.031 C 
ATOM     44  C   UNL A   1      39.574  27.239  27.853  1.00  0.00     0.029 A 
ATOM     45  N   UNL A   1      41.329  27.273  29.237  1.00  0.00    -0.354 N 
ATOM     46  C   UNL A   1      41.762  30.362  32.214  1.00  0.00     0.074 A 
ATOM     47  C   UNL A   1      40.669  31.307  32.152  1.00  0.00     0.031 C 
ATOM     48  C   UNL A   1      40.398  26.245  27.482  1.00  0.00     0.029 A 
ATOM     49  C   UNL A   1      41.565  26.241  28.357  1.00  0.00     0.049 A 
ATOM     50  H   UNL A   1      41.951  27.515  29.961  1.00  0.00     0.167 HD
ATOM     51  C   UNL A   1      42.798  30.453  33.083  1.00  0.00     0.034 A 
ATOM     52  C   UNL A   1      42.600  25.383  28.269  1.00  0.00     0.034 A 
ATOM     53  C   UNL A   1      43.866  29.493  33.168  1.00  0.00     0.049 A 
ATOM     54  C   UNL A   1      43.703  25.467  29.289  1.00  0.00     0.074 A 
ATOM     55  C   UNL A   1      44.921  29.457  34.062  1.00  0.00     0.029 A 
ATOM     56  N   UNL A   1      44.017  28.400  32.329  1.00  0.00    -0.354 N 
ATOM     57  N   UNL A   1      43.844  26.307  30.286  1.00  0.00    -0.248 NA
ATOM     58  C   UNL A   1      44.765  24.455  29.203  1.00  0.00     0.031 C 
ATOM     59  C   UNL A   1      45.718  28.348  33.755  1.00  0.00     0.029 A 
ATOM     60  C   UNL A   1      45.147  27.682  32.684  1.00  0.00     0.049 A 
ATOM     61  H   UNL A   1      43.409  28.168  31.590  1.00  0.00     0.167 HD
ATOM     62  C   UNL A   1      44.993  25.910  30.958  1.00  0.00     0.074 A 
ATOM     63  C   UNL A   1      45.488  24.730  30.279  1.00  0.00     0.031 C 
ATOM     64  C   UNL A   1      45.602  26.485  32.027  1.00  0.00     0.034 A 
BRANCH  51  65
ATOM     65  C   UNL A   1      42.786  31.594  34.067  1.00  0.00     0.023 A 
ATOM     66  C   UNL A   1      43.318  32.841  33.679  1.00  0.00     0.012 A 
ATOM     67  C   UNL A   1      42.194  31.461  35.338  1.00  0.00     0.148 A 
ATOM     68  C   UNL A   1      43.289  33.930  34.549  1.00  0.00     0.002 A 
ATOM     69  C   UNL A   1      42.131  32.563  36.185  1.00  0.00     0.091 A 
ATOM     70  F   UNL A   1      41.711  30.263  35.697  1.00  0.00    -0.205 F 
ATOM     71  C   UNL A   1      42.686  33.794  35.796  1.00  0.00     0.022 A 
BRANCH  69  72
ATOM     72  S   UNL A   1      41.308  32.519  37.782  1.00  0.00     0.127 S 
ATOM     73  O   UNL A   1      41.384  33.921  38.190  1.00  0.00    -0.237 OA
ATOM     74  O   UNL A   1      39.967  32.060  37.422  1.00  0.00    -0.237 OA
ATOM     75  O   UNL A   1      42.072  31.590  38.602  1.00  0.00    -0.744 OA
ENDBRANCH  69  72
ENDBRANCH  51  65
BRANCH  52  76
ATOM     76  C   UNL A   1      42.608  24.326  27.218  1.00  0.00     0.023 A 
ATOM     77  C   UNL A   1      43.306  24.545  26.014  1.00  0.00     0.012 A 
ATOM     78  C   UNL A   1      41.945  23.099  27.412  1.00  0.00     0.148 A 
ATOM     79  C   UNL A   1      43.308  23.580  25.007  1.00  0.00     0.002 A 
ATOM     80  C   UNL A   1      42.003  22.118  26.429  1.00  0.00     0.091 A 
ATOM     81  F   UNL A   1      41.274  22.912  28.557  1.00  0.00    -0.205 F 
ATOM     82  C   UNL A   1      42.666  22.364  25.217  1.00  0.00     0.022 A 
BRANCH  80  83
ATOM     83  S   UNL A   1      41.326  20.473  26.682  1.00  0.00     0.127 S 
ATOM     84  O   UNL A   1      42.039  20.036  27.880  1.00  0.00    -0.237 OA
ATOM     85  O   UNL A   1      39.904  20.755  26.880  1.00  0.00    -0.237 OA
ATOM     86  O   UNL A   1      41.623  19.741  25.459  1.00  0.00    -0.744 OA
ENDBRANCH  80  83
ENDBRANCH  52  76
BRANCH  64  87
ATOM     87  C   UNL A   1      46.860  25.832  32.537  1.00  0.00     0.023 A 
ATOM     88  C   UNL A   1      48.104  26.177  31.970  1.00  0.00     0.012 A 
ATOM     89  C   UNL A   1      46.818  24.911  33.601  1.00  0.00     0.148 A 
ATOM     90  C   UNL A   1      49.280  25.579  32.422  1.00  0.00     0.002 A 
ATOM     91  C   UNL A   1      47.999  24.357  34.080  1.00  0.00     0.091 A 
ATOM     92  F   UNL A   1      45.624  24.579  34.116  1.00  0.00    -0.205 F 
ATOM     93  C   UNL A   1      49.229  24.679  33.483  1.00  0.00     0.022 A 
BRANCH  91  94
ATOM     94  S   UNL A   1      48.034  23.259  35.501  1.00  0.00     0.127 S 
ATOM     95  O   UNL A   1      49.445  22.879  35.550  1.00  0.00    -0.237 OA
ATOM     96  O   UNL A   1      47.601  24.139  36.588  1.00  0.00    -0.237 OA
ATOM     97  O   UNL A   1      47.102  22.182  35.194  1.00  0.00    -0.744 OA
ENDBRANCH  91  94
ENDBRANCH  64  87
ENDBRANCH  38  39
ENDBRANCH  30  33
ENDBRANCH  28  29
ENDBRANCH  27  28
ENDBRANCH   1  27
TORSDOF 20
ENDMDL
