MODEL 1
REMARK VINA RESULT:     -10.8      0.000      0.000
REMARK SMILES CC(C)(C)c1ccc(OCC(=O)N/N=C/c2ccc(C(=O)NCCCCNC(=O)c3ccc(-c4c5nc(c(-c6cccc(S(=O)(=O)[O-])c6F)c6ccc([nH]6)c(-c6cccc(S(=O)(=O)[O-])c6F)c6nc(c(-c7cccc(S(=O)(=O)[O-])c7F)c7ccc4[nH]7)C=C6)C=C5)cc3)cc2)cc1
REMARK SMILES IDX 23 1 22 2 20 3 21 4 19 6 16 7 17 8 94 9 18 10 93 11 15 12
REMARK SMILES IDX 14 13 13 14 11 15 12 16 10 18 9 19 8 20 5 21 6 22 96 23 7 24
REMARK SMILES IDX 95 25 2 26 1 27 3 28 4 29 24 30 25 31 26 32 27 33 28 34
REMARK SMILES IDX 29 36 30 37 31 38 92 39 32 40 91 41 33 42 34 43 35 44 85 45
REMARK SMILES IDX 36 46 90 47 84 48 86 49 37 50 89 51 83 52 82 53 38 55 70 56
REMARK SMILES IDX 50 57 69 58 51 59 54 60 68 61 87 62 52 63 53 64 67 66 88 67
REMARK SMILES IDX 55 68 39 69 40 70 48 71 41 72 43 73 49 74 42 75 44 76 45 77
REMARK SMILES IDX 46 78 47 79 71 80 72 81 80 82 73 83 75 84 81 85 74 86 76 87
REMARK SMILES IDX 77 88 78 89 79 90 56 91 57 92 65 93 58 94 60 95 66 96 59 97
REMARK SMILES IDX 61 98 62 99 63 100 64 101
REMARK H PARENT 22 5 13 17 27 35 86 54 54 65
REMARK Flexibility Score: inf
ROOT
ATOM      1  C   UNL A   1      34.829  31.539  27.982  1.00  0.00     0.116 C 
ENDROOT
BRANCH   1   2
ATOM      2  N   UNL A   1      33.436  31.706  27.622  1.00  0.00    -0.352 N 
ATOM      3  C   UNL A   1      32.529  30.828  27.089  1.00  0.00     0.251 C 
ATOM      4  O   UNL A   1      31.373  31.216  26.918  1.00  0.00    -0.269 OA
ATOM      5  H   UNL A   1      33.077  32.607  27.790  1.00  0.00     0.163 HD
BRANCH   3   6
ATOM      6  C   UNL A   1      32.867  29.419  26.739  1.00  0.00     0.039 A 
ATOM      7  C   UNL A   1      33.307  26.742  26.097  1.00  0.00    -0.005 A 
ATOM      8  C   UNL A   1      32.193  27.084  26.859  1.00  0.00     0.010 A 
ATOM      9  C   UNL A   1      34.197  27.704  25.641  1.00  0.00     0.010 A 
ATOM     10  C   UNL A   1      31.987  28.423  27.194  1.00  0.00     0.014 A 
ATOM     11  C   UNL A   1      33.951  29.041  25.935  1.00  0.00     0.014 A 
BRANCH   7  12
ATOM     12  C   UNL A   1      33.454  25.373  25.605  1.00  0.00     0.141 C 
ATOM     13  N   UNL A   1      32.730  24.416  26.066  1.00  0.00    -0.181 NA
BRANCH  13  14
ATOM     14  N   UNL A   1      32.844  23.129  25.642  1.00  0.00    -0.244 N 
ATOM     15  C   UNL A   1      32.613  22.468  24.465  1.00  0.00     0.277 C 
ATOM     16  O   UNL A   1      32.899  21.262  24.413  1.00  0.00    -0.269 OA
ATOM     17  H   UNL A   1      33.169  22.528  26.351  1.00  0.00     0.193 HD
BRANCH  15  18
ATOM     18  C   UNL A   1      32.060  23.154  23.218  1.00  0.00     0.331 C 
BRANCH  18  19
ATOM     19  O   UNL A   1      30.699  23.557  23.240  1.00  0.00    -0.484 OA
BRANCH  19  20
ATOM     20  C   UNL A   1      30.439  24.893  23.296  1.00  0.00     0.120 A 
ATOM     21  C   UNL A   1      30.017  27.691  23.153  1.00  0.00    -0.042 A 
ATOM     22  C   UNL A   1      31.080  27.081  22.467  1.00  0.00     0.008 A 
ATOM     23  C   UNL A   1      29.187  26.856  23.923  1.00  0.00     0.008 A 
ATOM     24  C   UNL A   1      31.282  25.699  22.534  1.00  0.00     0.047 A 
ATOM     25  C   UNL A   1      29.394  25.477  23.998  1.00  0.00     0.047 A 
BRANCH  21  26
ATOM     26  C   UNL A   1      29.689  29.184  23.003  1.00  0.00    -0.013 C 
ATOM     27  C   UNL A   1      28.181  29.501  23.106  1.00  0.00     0.016 C 
ATOM     28  C   UNL A   1      30.168  29.739  21.642  1.00  0.00     0.016 C 
ATOM     29  C   UNL A   1      30.416  29.932  24.139  1.00  0.00     0.016 C 
ENDBRANCH  21  26
ENDBRANCH  19  20
ENDBRANCH  18  19
ENDBRANCH  15  18
ENDBRANCH  13  14
ENDBRANCH   7  12
ENDBRANCH   3   6
ENDBRANCH   1   2
BRANCH   1  30
ATOM     30  C   UNL A   1      35.476  32.895  28.276  1.00  0.00     0.023 C 
BRANCH  30  31
ATOM     31  C   UNL A   1      34.631  34.099  27.863  1.00  0.00     0.023 C 
BRANCH  31  32
ATOM     32  C   UNL A   1      34.836  35.337  28.725  1.00  0.00     0.116 C 
BRANCH  32  33
ATOM     33  N   UNL A   1      33.744  35.576  29.657  1.00  0.00    -0.352 N 
ATOM     34  C   UNL A   1      33.625  35.120  30.950  1.00  0.00     0.251 C 
ATOM     35  H   UNL A   1      33.002  36.130  29.323  1.00  0.00     0.163 HD
ATOM     36  O   UNL A   1      32.601  35.312  31.587  1.00  0.00    -0.269 OA
BRANCH  34  37
ATOM     37  C   UNL A   1      34.748  34.356  31.531  1.00  0.00     0.039 A 
ATOM     38  C   UNL A   1      34.557  33.005  31.828  1.00  0.00     0.014 A 
ATOM     39  C   UNL A   1      35.995  34.957  31.710  1.00  0.00     0.014 A 
ATOM     40  C   UNL A   1      35.643  32.237  32.250  1.00  0.00     0.010 A 
ATOM     41  C   UNL A   1      37.090  34.175  32.060  1.00  0.00     0.010 A 
ATOM     42  C   UNL A   1      36.924  32.809  32.336  1.00  0.00    -0.014 A 
BRANCH  42  43
ATOM     43  C   UNL A   1      38.108  31.995  32.702  1.00  0.00     0.031 A 
ATOM     44  C   UNL A   1      38.862  32.290  33.970  1.00  0.00     0.074 A 
ATOM     45  C   UNL A   1      38.564  31.063  31.842  1.00  0.00     0.049 A 
ATOM     46  N   UNL A   1      39.950  31.731  34.428  1.00  0.00    -0.248 NA
ATOM     47  C   UNL A   1      38.346  33.379  34.817  1.00  0.00     0.031 C 
ATOM     48  C   UNL A   1      37.975  30.755  30.536  1.00  0.00     0.029 A 
ATOM     49  N   UNL A   1      39.649  30.226  31.921  1.00  0.00    -0.354 N 
ATOM     50  C   UNL A   1      40.274  32.424  35.587  1.00  0.00     0.074 A 
ATOM     51  C   UNL A   1      39.282  33.465  35.750  1.00  0.00     0.031 C 
ATOM     52  C   UNL A   1      38.707  29.801  29.937  1.00  0.00     0.029 A 
ATOM     53  C   UNL A   1      39.826  29.444  30.803  1.00  0.00     0.049 A 
ATOM     54  H   UNL A   1      40.243  30.188  32.705  1.00  0.00     0.167 HD
ATOM     55  C   UNL A   1      41.288  32.197  36.454  1.00  0.00     0.034 A 
ATOM     56  C   UNL A   1      40.785  28.545  30.509  1.00  0.00     0.034 A 
ATOM     57  C   UNL A   1      42.230  31.120  36.322  1.00  0.00     0.049 A 
ATOM     58  C   UNL A   1      41.854  28.258  31.530  1.00  0.00     0.074 A 
ATOM     59  C   UNL A   1      43.214  30.725  37.211  1.00  0.00     0.029 A 
ATOM     60  N   UNL A   1      42.308  30.268  35.232  1.00  0.00    -0.354 N 
ATOM     61  N   UNL A   1      42.026  28.792  32.714  1.00  0.00    -0.248 NA
ATOM     62  C   UNL A   1      42.837  27.218  31.191  1.00  0.00     0.031 C 
ATOM     63  C   UNL A   1      43.900  29.643  36.650  1.00  0.00     0.029 A 
ATOM     64  C   UNL A   1      43.332  29.355  35.419  1.00  0.00     0.049 A 
ATOM     65  H   UNL A   1      41.723  30.305  34.442  1.00  0.00     0.167 HD
ATOM     66  C   UNL A   1      43.111  28.130  33.277  1.00  0.00     0.074 A 
ATOM     67  C   UNL A   1      43.542  27.140  32.312  1.00  0.00     0.031 C 
ATOM     68  C   UNL A   1      43.709  28.333  34.477  1.00  0.00     0.034 A 
BRANCH  55  69
ATOM     69  C   UNL A   1      41.399  33.092  37.658  1.00  0.00     0.023 A 
ATOM     70  C   UNL A   1      40.849  32.674  38.887  1.00  0.00     0.012 A 
ATOM     71  C   UNL A   1      42.109  34.308  37.595  1.00  0.00     0.148 A 
ATOM     72  C   UNL A   1      40.977  33.464  40.028  1.00  0.00     0.002 A 
ATOM     73  C   UNL A   1      42.270  35.069  38.746  1.00  0.00     0.091 A 
ATOM     74  F   UNL A   1      42.604  34.698  36.412  1.00  0.00    -0.205 F 
ATOM     75  C   UNL A   1      41.697  34.654  39.960  1.00  0.00     0.022 A 
BRANCH  73  76
ATOM     76  S   UNL A   1      43.244  36.578  38.782  1.00  0.00     0.127 S 
ATOM     77  O   UNL A   1      43.444  36.765  40.218  1.00  0.00    -0.237 OA
ATOM     78  O   UNL A   1      44.445  36.187  38.044  1.00  0.00    -0.237 OA
ATOM     79  O   UNL A   1      42.433  37.594  38.125  1.00  0.00    -0.744 OA
ENDBRANCH  73  76
ENDBRANCH  55  69
BRANCH  56  80
ATOM     80  C   UNL A   1      40.736  27.794  29.223  1.00  0.00     0.023 A 
ATOM     81  C   UNL A   1      39.755  26.798  29.042  1.00  0.00     0.012 A 
ATOM     82  C   UNL A   1      41.632  28.071  28.174  1.00  0.00     0.148 A 
ATOM     83  C   UNL A   1      39.691  26.068  27.855  1.00  0.00     0.002 A 
ATOM     84  C   UNL A   1      41.529  27.377  26.973  1.00  0.00     0.091 A 
ATOM     85  F   UNL A   1      42.569  29.011  28.367  1.00  0.00    -0.205 F 
ATOM     86  C   UNL A   1      40.571  26.364  26.817  1.00  0.00     0.022 A 
BRANCH  84  87
ATOM     87  S   UNL A   1      42.534  27.791  25.542  1.00  0.00     0.127 S 
ATOM     88  O   UNL A   1      41.961  29.069  25.132  1.00  0.00    -0.237 OA
ATOM     89  O   UNL A   1      43.875  27.875  26.123  1.00  0.00    -0.237 OA
ATOM     90  O   UNL A   1      42.357  26.683  24.614  1.00  0.00    -0.744 OA
ENDBRANCH  84  87
ENDBRANCH  56  80
BRANCH  68  91
ATOM     91  C   UNL A   1      44.874  27.452  34.838  1.00  0.00     0.023 A 
ATOM     92  C   UNL A   1      46.187  27.891  34.577  1.00  0.00     0.012 A 
ATOM     93  C   UNL A   1      44.671  26.232  35.510  1.00  0.00     0.148 A 
ATOM     94  C   UNL A   1      47.280  27.115  34.957  1.00  0.00     0.002 A 
ATOM     95  C   UNL A   1      45.767  25.486  35.928  1.00  0.00     0.091 A 
ATOM     96  F   UNL A   1      43.413  25.823  35.730  1.00  0.00    -0.205 F 
ATOM     97  C   UNL A   1      47.072  25.920  35.642  1.00  0.00     0.022 A 
BRANCH  95  98
ATOM     98  S   UNL A   1      45.591  23.985  36.900  1.00  0.00     0.127 S 
ATOM     99  O   UNL A   1      46.984  23.592  37.099  1.00  0.00    -0.237 OA
ATOM    100  O   UNL A   1      44.916  24.471  38.105  1.00  0.00    -0.237 OA
ATOM    101  O   UNL A   1      44.792  23.077  36.089  1.00  0.00    -0.744 OA
ENDBRANCH  95  98
ENDBRANCH  68  91
ENDBRANCH  42  43
ENDBRANCH  34  37
ENDBRANCH  32  33
ENDBRANCH  31  32
ENDBRANCH  30  31
ENDBRANCH   1  30
TORSDOF 20
ENDMDL
MODEL 2
REMARK VINA RESULT:     -10.6      6.352     11.769
REMARK SMILES CC(C)(C)c1ccc(OCC(=O)N/N=C/c2ccc(C(=O)NCCCCNC(=O)c3ccc(-c4c5nc(c(-c6cccc(S(=O)(=O)[O-])c6F)c6ccc([nH]6)c(-c6cccc(S(=O)(=O)[O-])c6F)c6nc(c(-c7cccc(S(=O)(=O)[O-])c7F)c7ccc4[nH]7)C=C6)C=C5)cc3)cc2)cc1
REMARK SMILES IDX 23 1 22 2 20 3 21 4 19 6 16 7 17 8 94 9 18 10 93 11 15 12
REMARK SMILES IDX 14 13 13 14 11 15 12 16 10 18 9 19 8 20 5 21 6 22 96 23 7 24
REMARK SMILES IDX 95 25 2 26 1 27 3 28 4 29 24 30 25 31 26 32 27 33 28 34
REMARK SMILES IDX 29 36 30 37 31 38 92 39 32 40 91 41 33 42 34 43 35 44 85 45
REMARK SMILES IDX 36 46 90 47 84 48 86 49 37 50 89 51 83 52 82 53 38 55 70 56
REMARK SMILES IDX 50 57 69 58 51 59 54 60 68 61 87 62 52 63 53 64 67 66 88 67
REMARK SMILES IDX 55 68 39 69 40 70 48 71 41 72 43 73 49 74 42 75 44 76 45 77
REMARK SMILES IDX 46 78 47 79 71 80 72 81 80 82 73 83 75 84 81 85 74 86 76 87
REMARK SMILES IDX 77 88 78 89 79 90 56 91 57 92 65 93 58 94 60 95 66 96 59 97
REMARK SMILES IDX 61 98 62 99 63 100 64 101
REMARK H PARENT 22 5 13 17 27 35 86 54 54 65
REMARK Flexibility Score: inf
ROOT
ATOM      1  C   UNL A   1      39.650  22.244  26.598  1.00  0.00     0.116 C 
ENDROOT
BRANCH   1   2
ATOM      2  N   UNL A   1      39.144  21.051  25.950  1.00  0.00    -0.352 N 
ATOM      3  C   UNL A   1      38.019  20.839  25.197  1.00  0.00     0.251 C 
ATOM      4  O   UNL A   1      37.843  19.720  24.714  1.00  0.00    -0.269 OA
ATOM      5  H   UNL A   1      39.707  20.253  26.071  1.00  0.00     0.163 HD
BRANCH   3   6
ATOM      6  C   UNL A   1      37.020  21.907  24.906  1.00  0.00     0.039 A 
ATOM      7  C   UNL A   1      35.176  23.968  24.549  1.00  0.00    -0.005 A 
ATOM      8  C   UNL A   1      35.395  23.466  25.829  1.00  0.00     0.010 A 
ATOM      9  C   UNL A   1      35.863  23.472  23.449  1.00  0.00     0.010 A 
ATOM     10  C   UNL A   1      36.304  22.422  26.001  1.00  0.00     0.014 A 
ATOM     11  C   UNL A   1      36.808  22.469  23.641  1.00  0.00     0.014 A 
BRANCH   7  12
ATOM     12  C   UNL A   1      34.351  25.161  24.371  1.00  0.00     0.141 C 
ATOM     13  N   UNL A   1      33.640  25.631  25.332  1.00  0.00    -0.181 NA
BRANCH  13  14
ATOM     14  N   UNL A   1      32.851  26.732  25.204  1.00  0.00    -0.244 N 
ATOM     15  C   UNL A   1      31.543  26.957  24.867  1.00  0.00     0.277 C 
ATOM     16  O   UNL A   1      31.125  28.123  24.918  1.00  0.00    -0.269 OA
ATOM     17  H   UNL A   1      33.336  27.566  25.399  1.00  0.00     0.193 HD
BRANCH  15  18
ATOM     18  C   UNL A   1      30.579  25.839  24.472  1.00  0.00     0.331 C 
BRANCH  18  19
ATOM     19  O   UNL A   1      30.433  24.751  25.372  1.00  0.00    -0.484 OA
BRANCH  19  20
ATOM     20  C   UNL A   1      31.080  23.591  25.069  1.00  0.00     0.120 A 
ATOM     21  C   UNL A   1      32.335  21.080  24.694  1.00  0.00    -0.042 A 
ATOM     22  C   UNL A   1      32.118  21.597  25.981  1.00  0.00     0.008 A 
ATOM     23  C   UNL A   1      31.918  21.868  23.605  1.00  0.00     0.008 A 
ATOM     24  C   UNL A   1      31.493  22.835  26.164  1.00  0.00     0.047 A 
ATOM     25  C   UNL A   1      31.302  23.108  23.788  1.00  0.00     0.047 A 
BRANCH  21  26
ATOM     26  C   UNL A   1      32.904  19.672  24.456  1.00  0.00    -0.013 C 
ATOM     27  C   UNL A   1      32.357  18.609  25.435  1.00  0.00     0.016 C 
ATOM     28  C   UNL A   1      34.443  19.649  24.590  1.00  0.00     0.016 C 
ATOM     29  C   UNL A   1      32.514  19.253  23.024  1.00  0.00     0.016 C 
ENDBRANCH  21  26
ENDBRANCH  19  20
ENDBRANCH  18  19
ENDBRANCH  15  18
ENDBRANCH  13  14
ENDBRANCH   7  12
ENDBRANCH   3   6
ENDBRANCH   1   2
BRANCH   1  30
ATOM     30  C   UNL A   1      41.158  22.133  26.832  1.00  0.00     0.023 C 
BRANCH  30  31
ATOM     31  C   UNL A   1      41.908  21.357  25.749  1.00  0.00     0.023 C 
BRANCH  31  32
ATOM     32  C   UNL A   1      42.588  20.088  26.242  1.00  0.00     0.116 C 
BRANCH  32  33
ATOM     33  N   UNL A   1      43.473  19.489  25.253  1.00  0.00    -0.352 N 
ATOM     34  C   UNL A   1      44.528  20.082  24.598  1.00  0.00     0.251 C 
ATOM     35  H   UNL A   1      43.296  18.548  25.026  1.00  0.00     0.163 HD
ATOM     36  O   UNL A   1      45.124  19.489  23.712  1.00  0.00    -0.269 OA
BRANCH  34  37
ATOM     37  C   UNL A   1      44.891  21.466  24.962  1.00  0.00     0.039 A 
ATOM     38  C   UNL A   1      44.636  22.490  24.047  1.00  0.00     0.014 A 
ATOM     39  C   UNL A   1      45.412  21.753  26.225  1.00  0.00     0.014 A 
ATOM     40  C   UNL A   1      44.849  23.815  24.426  1.00  0.00     0.010 A 
ATOM     41  C   UNL A   1      45.554  23.076  26.626  1.00  0.00     0.010 A 
ATOM     42  C   UNL A   1      45.277  24.119  25.729  1.00  0.00    -0.014 A 
BRANCH  42  43
ATOM     43  C   UNL A   1      45.431  25.523  26.182  1.00  0.00     0.031 A 
ATOM     44  C   UNL A   1      46.798  26.144  26.261  1.00  0.00     0.074 A 
ATOM     45  C   UNL A   1      44.351  26.201  26.621  1.00  0.00     0.049 A 
ATOM     46  N   UNL A   1      47.139  27.331  26.686  1.00  0.00    -0.248 NA
ATOM     47  C   UNL A   1      47.936  25.309  25.839  1.00  0.00     0.031 C 
ATOM     48  C   UNL A   1      42.986  25.671  26.686  1.00  0.00     0.029 A 
ATOM     49  N   UNL A   1      44.236  27.470  27.128  1.00  0.00    -0.354 N 
ATOM     50  C   UNL A   1      48.526  27.372  26.627  1.00  0.00     0.074 A 
ATOM     51  C   UNL A   1      48.968  26.080  26.149  1.00  0.00     0.031 C 
ATOM     52  C   UNL A   1      42.175  26.606  27.206  1.00  0.00     0.029 A 
ATOM     53  C   UNL A   1      42.960  27.793  27.530  1.00  0.00     0.049 A 
ATOM     54  H   UNL A   1      44.996  28.093  27.196  1.00  0.00     0.167 HD
ATOM     55  C   UNL A   1      49.355  28.401  26.916  1.00  0.00     0.034 A 
ATOM     56  C   UNL A   1      42.480  28.915  28.098  1.00  0.00     0.034 A 
ATOM     57  C   UNL A   1      48.906  29.704  27.324  1.00  0.00     0.049 A 
ATOM     58  C   UNL A   1      43.415  30.072  28.333  1.00  0.00     0.074 A 
ATOM     59  C   UNL A   1      49.655  30.850  27.517  1.00  0.00     0.029 A 
ATOM     60  N   UNL A   1      47.590  30.032  27.609  1.00  0.00    -0.354 N 
ATOM     61  N   UNL A   1      44.699  30.157  28.082  1.00  0.00    -0.248 NA
ATOM     62  C   UNL A   1      42.829  31.299  28.890  1.00  0.00     0.031 C 
ATOM     63  C   UNL A   1      48.794  31.869  27.935  1.00  0.00     0.029 A 
ATOM     64  C   UNL A   1      47.506  31.361  27.987  1.00  0.00     0.049 A 
ATOM     65  H   UNL A   1      46.827  29.412  27.551  1.00  0.00     0.167 HD
ATOM     66  C   UNL A   1      45.067  31.455  28.416  1.00  0.00     0.074 A 
ATOM     67  C   UNL A   1      43.866  32.127  28.865  1.00  0.00     0.031 C 
ATOM     68  C   UNL A   1      46.293  32.034  28.371  1.00  0.00     0.034 A 
BRANCH  55  69
ATOM     69  C   UNL A   1      50.834  28.185  26.740  1.00  0.00     0.023 A 
ATOM     70  C   UNL A   1      51.621  27.830  27.854  1.00  0.00     0.012 A 
ATOM     71  C   UNL A   1      51.431  28.259  25.465  1.00  0.00     0.148 A 
ATOM     72  C   UNL A   1      52.984  27.580  27.710  1.00  0.00     0.002 A 
ATOM     73  C   UNL A   1      52.782  27.967  25.322  1.00  0.00     0.091 A 
ATOM     74  F   UNL A   1      50.670  28.621  24.424  1.00  0.00    -0.205 F 
ATOM     75  C   UNL A   1      53.562  27.636  26.443  1.00  0.00     0.022 A 
BRANCH  73  76
ATOM     76  S   UNL A   1      53.603  27.936  23.726  1.00  0.00     0.127 S 
ATOM     77  O   UNL A   1      52.759  27.004  22.978  1.00  0.00    -0.237 OA
ATOM     78  O   UNL A   1      53.497  29.331  23.298  1.00  0.00    -0.237 OA
ATOM     79  O   UNL A   1      54.962  27.481  23.982  1.00  0.00    -0.744 OA
ENDBRANCH  73  76
ENDBRANCH  55  69
BRANCH  56  80
ATOM     80  C   UNL A   1      41.028  29.030  28.416  1.00  0.00     0.023 A 
ATOM     81  C   UNL A   1      40.109  29.247  27.370  1.00  0.00     0.012 A 
ATOM     82  C   UNL A   1      40.551  28.905  29.734  1.00  0.00     0.148 A 
ATOM     83  C   UNL A   1      38.745  29.372  27.636  1.00  0.00     0.002 A 
ATOM     84  C   UNL A   1      39.185  28.976  29.986  1.00  0.00     0.091 A 
ATOM     85  F   UNL A   1      41.441  28.713  30.718  1.00  0.00    -0.205 F 
ATOM     86  C   UNL A   1      38.282  29.227  28.941  1.00  0.00     0.022 A 
BRANCH  84  87
ATOM     87  S   UNL A   1      38.498  28.666  31.616  1.00  0.00     0.127 S 
ATOM     88  O   UNL A   1      38.821  27.256  31.815  1.00  0.00    -0.237 OA
ATOM     89  O   UNL A   1      39.258  29.597  32.452  1.00  0.00    -0.237 OA
ATOM     90  O   UNL A   1      37.081  28.988  31.505  1.00  0.00    -0.744 OA
ENDBRANCH  84  87
ENDBRANCH  56  80
BRANCH  68  91
ATOM     91  C   UNL A   1      46.401  33.476  28.787  1.00  0.00     0.023 A 
ATOM     92  C   UNL A   1      46.702  33.795  30.125  1.00  0.00     0.012 A 
ATOM     93  C   UNL A   1      46.289  34.509  27.836  1.00  0.00     0.148 A 
ATOM     94  C   UNL A   1      46.863  35.123  30.516  1.00  0.00     0.002 A 
ATOM     95  C   UNL A   1      46.498  35.827  28.223  1.00  0.00     0.091 A 
ATOM     96  F   UNL A   1      45.982  34.185  26.571  1.00  0.00    -0.205 F 
ATOM     97  C   UNL A   1      46.774  36.137  29.565  1.00  0.00     0.022 A 
BRANCH  95  98
ATOM     98  S   UNL A   1      46.498  37.184  27.046  1.00  0.00     0.127 S 
ATOM     99  O   UNL A   1      46.969  36.524  25.829  1.00  0.00    -0.237 OA
ATOM    100  O   UNL A   1      45.088  37.574  27.019  1.00  0.00    -0.237 OA
ATOM    101  O   UNL A   1      47.390  38.193  27.599  1.00  0.00    -0.744 OA
ENDBRANCH  95  98
ENDBRANCH  68  91
ENDBRANCH  42  43
ENDBRANCH  34  37
ENDBRANCH  32  33
ENDBRANCH  31  32
ENDBRANCH  30  31
ENDBRANCH   1  30
TORSDOF 20
ENDMDL
MODEL 3
REMARK VINA RESULT:     -10.4      5.337      9.281
REMARK SMILES CC(C)(C)c1ccc(OCC(=O)N/N=C/c2ccc(C(=O)NCCCCNC(=O)c3ccc(-c4c5nc(c(-c6cccc(S(=O)(=O)[O-])c6F)c6ccc([nH]6)c(-c6cccc(S(=O)(=O)[O-])c6F)c6nc(c(-c7cccc(S(=O)(=O)[O-])c7F)c7ccc4[nH]7)C=C6)C=C5)cc3)cc2)cc1
REMARK SMILES IDX 23 1 22 2 20 3 21 4 19 6 16 7 17 8 94 9 18 10 93 11 15 12
REMARK SMILES IDX 14 13 13 14 11 15 12 16 10 18 9 19 8 20 5 21 6 22 96 23 7 24
REMARK SMILES IDX 95 25 2 26 1 27 3 28 4 29 24 30 25 31 26 32 27 33 28 34
REMARK SMILES IDX 29 36 30 37 31 38 92 39 32 40 91 41 33 42 34 43 35 44 85 45
REMARK SMILES IDX 36 46 90 47 84 48 86 49 37 50 89 51 83 52 82 53 38 55 70 56
REMARK SMILES IDX 50 57 69 58 51 59 54 60 68 61 87 62 52 63 53 64 67 66 88 67
REMARK SMILES IDX 55 68 39 69 40 70 48 71 41 72 43 73 49 74 42 75 44 76 45 77
REMARK SMILES IDX 46 78 47 79 71 80 72 81 80 82 73 83 75 84 81 85 74 86 76 87
REMARK SMILES IDX 77 88 78 89 79 90 56 91 57 92 65 93 58 94 60 95 66 96 59 97
REMARK SMILES IDX 61 98 62 99 63 100 64 101
REMARK H PARENT 22 5 13 17 27 35 86 54 54 65
REMARK Flexibility Score: inf
ROOT
ATOM      1  C   UNL A   1      35.001  21.896  24.264  1.00  0.00     0.116 C 
ENDROOT
BRANCH   1   2
ATOM      2  N   UNL A   1      34.030  20.899  24.662  1.00  0.00    -0.352 N 
ATOM      3  C   UNL A   1      32.674  20.978  24.841  1.00  0.00     0.251 C 
ATOM      4  O   UNL A   1      32.064  19.951  25.143  1.00  0.00    -0.269 OA
ATOM      5  H   UNL A   1      34.410  20.007  24.834  1.00  0.00     0.163 HD
BRANCH   3   6
ATOM      6  C   UNL A   1      31.899  22.238  24.654  1.00  0.00     0.039 A 
ATOM      7  C   UNL A   1      30.504  24.646  24.486  1.00  0.00    -0.005 A 
ATOM      8  C   UNL A   1      30.715  24.068  25.735  1.00  0.00     0.010 A 
ATOM      9  C   UNL A   1      30.982  24.056  23.324  1.00  0.00     0.010 A 
ATOM     10  C   UNL A   1      31.396  22.853  25.813  1.00  0.00     0.014 A 
ATOM     11  C   UNL A   1      31.709  22.873  23.420  1.00  0.00     0.014 A 
BRANCH   7  12
ATOM     12  C   UNL A   1      29.933  25.989  24.398  1.00  0.00     0.141 C 
ATOM     13  N   UNL A   1      29.954  26.652  23.297  1.00  0.00    -0.181 NA
BRANCH  13  14
ATOM     14  N   UNL A   1      29.444  27.907  23.177  1.00  0.00    -0.244 N 
ATOM     15  C   UNL A   1      29.867  29.166  23.514  1.00  0.00     0.277 C 
ATOM     16  O   UNL A   1      29.153  30.123  23.183  1.00  0.00    -0.269 OA
ATOM     17  H   UNL A   1      28.559  27.914  22.745  1.00  0.00     0.193 HD
BRANCH  15  18
ATOM     18  C   UNL A   1      31.184  29.436  24.238  1.00  0.00     0.331 C 
BRANCH  18  19
ATOM     19  O   UNL A   1      31.338  28.899  25.542  1.00  0.00    -0.484 OA
BRANCH  19  20
ATOM     20  C   UNL A   1      32.410  29.316  26.273  1.00  0.00     0.120 A 
ATOM     21  C   UNL A   1      34.795  29.996  27.643  1.00  0.00    -0.042 A 
ATOM     22  C   UNL A   1      34.614  28.718  27.091  1.00  0.00     0.008 A 
ATOM     23  C   UNL A   1      33.737  30.913  27.500  1.00  0.00     0.008 A 
ATOM     24  C   UNL A   1      33.438  28.387  26.410  1.00  0.00     0.047 A 
ATOM     25  C   UNL A   1      32.559  30.579  26.828  1.00  0.00     0.047 A 
BRANCH  21  26
ATOM     26  C   UNL A   1      36.119  30.436  28.287  1.00  0.00    -0.013 C 
ATOM     27  C   UNL A   1      36.328  29.883  29.713  1.00  0.00     0.016 C 
ATOM     28  C   UNL A   1      36.219  31.975  28.388  1.00  0.00     0.016 C 
ATOM     29  C   UNL A   1      37.262  29.912  27.394  1.00  0.00     0.016 C 
ENDBRANCH  21  26
ENDBRANCH  19  20
ENDBRANCH  18  19
ENDBRANCH  15  18
ENDBRANCH  13  14
ENDBRANCH   7  12
ENDBRANCH   3   6
ENDBRANCH   1   2
BRANCH   1  30
ATOM     30  C   UNL A   1      34.892  23.140  25.150  1.00  0.00     0.023 C 
BRANCH  30  31
ATOM     31  C   UNL A   1      35.969  23.239  26.230  1.00  0.00     0.023 C 
BRANCH  31  32
ATOM     32  C   UNL A   1      37.394  23.264  25.698  1.00  0.00     0.116 C 
BRANCH  32  33
ATOM     33  N   UNL A   1      38.134  22.041  25.976  1.00  0.00    -0.352 N 
ATOM     34  C   UNL A   1      39.391  21.922  26.523  1.00  0.00     0.251 C 
ATOM     35  H   UNL A   1      37.681  21.198  25.746  1.00  0.00     0.163 HD
ATOM     36  O   UNL A   1      39.936  20.833  26.604  1.00  0.00    -0.269 OA
BRANCH  34  37
ATOM     37  C   UNL A   1      40.082  23.151  26.965  1.00  0.00     0.039 A 
ATOM     38  C   UNL A   1      41.034  23.057  27.982  1.00  0.00     0.014 A 
ATOM     39  C   UNL A   1      39.839  24.368  26.326  1.00  0.00     0.014 A 
ATOM     40  C   UNL A   1      41.789  24.181  28.319  1.00  0.00     0.010 A 
ATOM     41  C   UNL A   1      40.642  25.466  26.611  1.00  0.00     0.010 A 
ATOM     42  C   UNL A   1      41.622  25.384  27.612  1.00  0.00    -0.014 A 
BRANCH  42  43
ATOM     43  C   UNL A   1      42.470  26.568  27.894  1.00  0.00     0.031 A 
ATOM     44  C   UNL A   1      41.913  27.722  28.681  1.00  0.00     0.074 A 
ATOM     45  C   UNL A   1      43.701  26.645  27.353  1.00  0.00     0.049 A 
ATOM     46  N   UNL A   1      42.477  28.863  28.978  1.00  0.00    -0.248 NA
ATOM     47  C   UNL A   1      40.530  27.593  29.170  1.00  0.00     0.031 C 
ATOM     48  C   UNL A   1      44.313  25.632  26.489  1.00  0.00     0.029 A 
ATOM     49  N   UNL A   1      44.648  27.637  27.420  1.00  0.00    -0.354 N 
ATOM     50  C   UNL A   1      41.509  29.602  29.645  1.00  0.00     0.074 A 
ATOM     51  C   UNL A   1      40.311  28.793  29.688  1.00  0.00     0.031 C 
ATOM     52  C   UNL A   1      45.528  26.056  26.105  1.00  0.00     0.029 A 
ATOM     53  C   UNL A   1      45.776  27.377  26.676  1.00  0.00     0.049 A 
ATOM     54  H   UNL A   1      44.531  28.458  27.952  1.00  0.00     0.167 HD
ATOM     55  C   UNL A   1      41.617  30.833  30.198  1.00  0.00     0.034 A 
ATOM     56  C   UNL A   1      46.881  28.120  26.474  1.00  0.00     0.034 A 
ATOM     57  C   UNL A   1      42.830  31.603  30.212  1.00  0.00     0.049 A 
ATOM     58  C   UNL A   1      47.002  29.450  27.170  1.00  0.00     0.074 A 
ATOM     59  C   UNL A   1      43.079  32.802  30.856  1.00  0.00     0.029 A 
ATOM     60  N   UNL A   1      43.995  31.255  29.547  1.00  0.00    -0.354 N 
ATOM     61  N   UNL A   1      46.146  30.046  27.963  1.00  0.00    -0.248 NA
ATOM     62  C   UNL A   1      48.256  30.192  26.974  1.00  0.00     0.031 C 
ATOM     63  C   UNL A   1      44.392  33.187  30.566  1.00  0.00     0.029 A 
ATOM     64  C   UNL A   1      44.964  32.220  29.756  1.00  0.00     0.049 A 
ATOM     65  H   UNL A   1      44.116  30.441  29.007  1.00  0.00     0.167 HD
ATOM     66  C   UNL A   1      46.769  31.212  28.391  1.00  0.00     0.074 A 
ATOM     67  C   UNL A   1      48.085  31.228  27.786  1.00  0.00     0.031 C 
ATOM     68  C   UNL A   1      46.291  32.191  29.198  1.00  0.00     0.034 A 
BRANCH  55  69
ATOM     69  C   UNL A   1      40.409  31.401  30.892  1.00  0.00     0.023 A 
ATOM     70  C   UNL A   1      39.535  32.248  30.183  1.00  0.00     0.012 A 
ATOM     71  C   UNL A   1      40.098  31.038  32.218  1.00  0.00     0.148 A 
ATOM     72  C   UNL A   1      38.385  32.751  30.789  1.00  0.00     0.002 A 
ATOM     73  C   UNL A   1      38.928  31.509  32.802  1.00  0.00     0.091 A 
ATOM     74  F   UNL A   1      40.954  30.251  32.883  1.00  0.00    -0.205 F 
ATOM     75  C   UNL A   1      38.076  32.372  32.093  1.00  0.00     0.022 A 
BRANCH  73  76
ATOM     76  S   UNL A   1      38.401  31.019  34.447  1.00  0.00     0.127 S 
ATOM     77  O   UNL A   1      38.246  29.574  34.289  1.00  0.00    -0.237 OA
ATOM     78  O   UNL A   1      39.541  31.424  35.270  1.00  0.00    -0.237 OA
ATOM     79  O   UNL A   1      37.172  31.755  34.710  1.00  0.00    -0.744 OA
ENDBRANCH  73  76
ENDBRANCH  55  69
BRANCH  56  80
ATOM     80  C   UNL A   1      47.994  27.591  25.636  1.00  0.00     0.023 A 
ATOM     81  C   UNL A   1      47.930  27.731  24.236  1.00  0.00     0.012 A 
ATOM     82  C   UNL A   1      49.120  26.975  26.213  1.00  0.00     0.148 A 
ATOM     83  C   UNL A   1      48.950  27.234  23.424  1.00  0.00     0.002 A 
ATOM     84  C   UNL A   1      50.159  26.531  25.402  1.00  0.00     0.091 A 
ATOM     85  F   UNL A   1      49.159  26.837  27.546  1.00  0.00    -0.205 F 
ATOM     86  C   UNL A   1      50.068  26.644  24.006  1.00  0.00     0.022 A 
BRANCH  84  87
ATOM     87  S   UNL A   1      51.691  25.883  26.081  1.00  0.00     0.127 S 
ATOM     88  O   UNL A   1      52.157  27.003  26.893  1.00  0.00    -0.237 OA
ATOM     89  O   UNL A   1      51.223  24.723  26.841  1.00  0.00    -0.237 OA
ATOM     90  O   UNL A   1      52.511  25.545  24.926  1.00  0.00    -0.744 OA
ENDBRANCH  84  87
ENDBRANCH  56  80
BRANCH  68  91
ATOM     91  C   UNL A   1      47.200  33.350  29.506  1.00  0.00     0.023 A 
ATOM     92  C   UNL A   1      48.071  33.280  30.610  1.00  0.00     0.012 A 
ATOM     93  C   UNL A   1      47.251  34.470  28.653  1.00  0.00     0.148 A 
ATOM     94  C   UNL A   1      48.960  34.319  30.877  1.00  0.00     0.002 A 
ATOM     95  C   UNL A   1      48.173  35.480  28.898  1.00  0.00     0.091 A 
ATOM     96  F   UNL A   1      46.399  34.527  27.619  1.00  0.00    -0.205 F 
ATOM     97  C   UNL A   1      49.020  35.412  30.016  1.00  0.00     0.022 A 
BRANCH  95  98
ATOM     98  S   UNL A   1      48.383  36.875  27.786  1.00  0.00     0.127 S 
ATOM     99  O   UNL A   1      47.528  37.885  28.406  1.00  0.00    -0.237 OA
ATOM    100  O   UNL A   1      49.818  37.145  27.890  1.00  0.00    -0.237 OA
ATOM    101  O   UNL A   1      47.954  36.408  26.475  1.00  0.00    -0.744 OA
ENDBRANCH  95  98
ENDBRANCH  68  91
ENDBRANCH  42  43
ENDBRANCH  34  37
ENDBRANCH  32  33
ENDBRANCH  31  32
ENDBRANCH  30  31
ENDBRANCH   1  30
TORSDOF 20
ENDMDL
