MODEL 1
REMARK VINA RESULT:     -11.8      0.000      0.000
REMARK SMILES NS(=O)(=O)c1ccc(-n2nc(C(F)(F)F)cc2-c2ccc(CC(=O)NCCCCNC(=O)c3ccc(-c4c5nc(c(-c6cccc(S(=O)(=O)[O-])c6F)c6ccc([nH]6)c(-c6cccc(S(=O)(=O)[O-])c6F)c6nc(c(-c7cccc(S(=O)(=O)[O-])c7F)c7ccc4[nH]7)C=C6)C=C5)cc3)cc2)cc1
REMARK SMILES IDX 26 1 25 2 23 3 24 4 22 6 21 7 18 8 19 9 97 10 20 11 96 12
REMARK SMILES IDX 17 13 9 14 10 15 11 16 16 17 8 18 5 19 6 20 99 21 7 22 98 23
REMARK SMILES IDX 2 24 3 25 4 26 1 27 12 30 13 31 14 32 15 33 27 34 28 35
REMARK SMILES IDX 29 36 30 37 31 38 32 40 33 41 34 42 95 43 35 44 94 45 36 46
REMARK SMILES IDX 37 47 38 48 88 49 39 50 93 51 87 52 89 53 40 54 92 55 86 56
REMARK SMILES IDX 85 57 41 59 73 60 53 61 72 62 54 63 57 64 71 65 90 66 55 67
REMARK SMILES IDX 56 68 70 70 91 71 58 72 42 73 43 74 51 75 44 76 46 77 52 78
REMARK SMILES IDX 45 79 47 80 48 81 49 82 50 83 74 84 75 85 83 86 76 87 78 88
REMARK SMILES IDX 84 89 77 90 79 91 80 92 81 93 82 94 59 95 60 96 68 97 61 98
REMARK SMILES IDX 63 99 69 100 62 101 64 102 65 103 66 104 67 105
REMARK H PARENT 25 5 1 28 1 29 30 39 89 58 57 69
REMARK Flexibility Score: inf
ROOT
ATOM      1  C   UNL A   1      34.678  21.811  26.436  1.00  0.00     0.116 C 
ENDROOT
BRANCH   1   2
ATOM      2  N   UNL A   1      34.005  21.563  25.175  1.00  0.00    -0.356 N 
ATOM      3  C   UNL A   1      32.687  21.725  24.854  1.00  0.00     0.224 C 
ATOM      4  O   UNL A   1      32.271  21.249  23.796  1.00  0.00    -0.275 OA
ATOM      5  H   UNL A   1      34.579  21.231  24.447  1.00  0.00     0.163 HD
BRANCH   3   6
ATOM      6  C   UNL A   1      31.757  22.463  25.803  1.00  0.00     0.135 C 
BRANCH   6   7
ATOM      7  C   UNL A   1      31.478  23.886  25.379  1.00  0.00    -0.039 A 
ATOM      8  C   UNL A   1      30.800  26.472  24.488  1.00  0.00     0.000 A 
ATOM      9  C   UNL A   1      31.709  25.684  23.769  1.00  0.00     0.010 A 
ATOM     10  C   UNL A   1      30.284  25.980  25.691  1.00  0.00     0.010 A 
ATOM     11  C   UNL A   1      32.046  24.403  24.209  1.00  0.00     0.005 A 
ATOM     12  C   UNL A   1      30.625  24.699  26.136  1.00  0.00     0.005 A 
BRANCH   8  13
ATOM     13  C   UNL A   1      30.437  27.810  24.016  1.00  0.00     0.075 A 
ATOM     14  N   UNL A   1      30.899  29.011  24.540  1.00  0.00    -0.233 N 
ATOM     15  N   UNL A   1      30.154  30.067  24.121  1.00  0.00    -0.163 NA
ATOM     16  C   UNL A   1      29.397  29.575  23.122  1.00  0.00     0.167 A 
ATOM     17  C   UNL A   1      29.524  28.166  23.044  1.00  0.00     0.064 A 
BRANCH  14  18
ATOM     18  C   UNL A   1      32.043  29.246  25.345  1.00  0.00     0.065 A 
ATOM     19  C   UNL A   1      34.300  29.713  26.910  1.00  0.00     0.082 A 
ATOM     20  C   UNL A   1      33.128  30.432  27.146  1.00  0.00     0.024 A 
ATOM     21  C   UNL A   1      34.333  28.720  25.928  1.00  0.00     0.024 A 
ATOM     22  C   UNL A   1      32.011  30.237  26.333  1.00  0.00     0.030 A 
ATOM     23  C   UNL A   1      33.186  28.453  25.175  1.00  0.00     0.030 A 
BRANCH  19  24
ATOM     24  S   UNL A   1      35.788  30.083  27.798  1.00  0.00     0.238 S 
ATOM     25  O   UNL A   1      36.029  31.502  27.703  1.00  0.00    -0.207 OA
ATOM     26  O   UNL A   1      36.780  29.096  27.441  1.00  0.00    -0.207 OA
BRANCH  24  27
ATOM     27  N   UNL A   1      35.408  29.803  29.411  1.00  0.00    -0.225 NA
ATOM     28  H   UNL A   1      34.747  30.509  29.733  1.00  0.00     0.137 HD
ATOM     29  H   UNL A   1      36.258  29.852  29.974  1.00  0.00     0.137 HD
ENDBRANCH  24  27
ENDBRANCH  19  24
ENDBRANCH  14  18
BRANCH  16  30
ATOM     30  C   UNL A   1      28.535  30.440  22.246  1.00  0.00     0.435 C 
ATOM     31  F   UNL A   1      29.209  31.486  21.699  1.00  0.00    -0.164 F 
ATOM     32  F   UNL A   1      27.985  29.739  21.217  1.00  0.00    -0.164 F 
ATOM     33  F   UNL A   1      27.491  30.977  22.938  1.00  0.00    -0.164 F 
ENDBRANCH  16  30
ENDBRANCH   8  13
ENDBRANCH   6   7
ENDBRANCH   3   6
ENDBRANCH   1   2
BRANCH   1  34
ATOM     34  C   UNL A   1      35.346  23.189  26.451  1.00  0.00     0.023 C 
BRANCH  34  35
ATOM     35  C   UNL A   1      35.859  23.659  25.084  1.00  0.00     0.023 C 
BRANCH  35  36
ATOM     36  C   UNL A   1      37.370  23.643  24.921  1.00  0.00     0.116 C 
BRANCH  36  37
ATOM     37  N   UNL A   1      38.019  22.587  25.701  1.00  0.00    -0.352 N 
ATOM     38  C   UNL A   1      39.151  22.700  26.485  1.00  0.00     0.251 C 
ATOM     39  H   UNL A   1      37.601  21.696  25.664  1.00  0.00     0.163 HD
ATOM     40  O   UNL A   1      39.798  21.714  26.818  1.00  0.00    -0.269 OA
BRANCH  38  41
ATOM     41  C   UNL A   1      39.564  24.050  26.897  1.00  0.00     0.039 A 
ATOM     42  C   UNL A   1      38.625  24.984  27.340  1.00  0.00     0.014 A 
ATOM     43  C   UNL A   1      40.931  24.307  26.968  1.00  0.00     0.014 A 
ATOM     44  C   UNL A   1      39.077  26.142  27.968  1.00  0.00     0.010 A 
ATOM     45  C   UNL A   1      41.368  25.387  27.700  1.00  0.00     0.010 A 
ATOM     46  C   UNL A   1      40.452  26.325  28.182  1.00  0.00    -0.014 A 
BRANCH  46  47
ATOM     47  C   UNL A   1      40.931  27.429  29.017  1.00  0.00     0.031 A 
ATOM     48  C   UNL A   1      41.988  28.305  28.426  1.00  0.00     0.074 A 
ATOM     49  C   UNL A   1      40.302  27.817  30.148  1.00  0.00     0.049 A 
ATOM     50  N   UNL A   1      43.184  28.513  28.875  1.00  0.00    -0.248 NA
ATOM     51  C   UNL A   1      41.709  28.981  27.150  1.00  0.00     0.031 C 
ATOM     52  C   UNL A   1      39.052  27.285  30.705  1.00  0.00     0.029 A 
ATOM     53  N   UNL A   1      40.556  28.894  30.942  1.00  0.00    -0.354 N 
ATOM     54  C   UNL A   1      43.735  29.506  28.063  1.00  0.00     0.074 A 
ATOM     55  C   UNL A   1      42.852  29.635  26.933  1.00  0.00     0.031 C 
ATOM     56  C   UNL A   1      38.513  28.200  31.537  1.00  0.00     0.029 A 
ATOM     57  C   UNL A   1      39.465  29.279  31.714  1.00  0.00     0.049 A 
ATOM     58  H   UNL A   1      41.425  29.356  30.966  1.00  0.00     0.167 HD
ATOM     59  C   UNL A   1      44.760  30.299  28.491  1.00  0.00     0.034 A 
ATOM     60  C   UNL A   1      39.329  30.425  32.418  1.00  0.00     0.034 A 
ATOM     61  C   UNL A   1      45.360  29.789  29.696  1.00  0.00     0.049 A 
ATOM     62  C   UNL A   1      40.686  30.957  32.662  1.00  0.00     0.074 A 
ATOM     63  C   UNL A   1      45.974  28.613  30.076  1.00  0.00     0.029 A 
ATOM     64  N   UNL A   1      45.064  30.452  30.862  1.00  0.00    -0.354 N 
ATOM     65  N   UNL A   1      41.566  30.366  33.421  1.00  0.00    -0.248 NA
ATOM     66  C   UNL A   1      41.214  31.971  31.766  1.00  0.00     0.031 C 
ATOM     67  C   UNL A   1      45.581  28.417  31.433  1.00  0.00     0.029 A 
ATOM     68  C   UNL A   1      44.790  29.505  31.810  1.00  0.00     0.049 A 
ATOM     69  H   UNL A   1      45.052  31.428  30.991  1.00  0.00     0.167 HD
ATOM     70  C   UNL A   1      42.777  30.591  32.782  1.00  0.00     0.074 A 
ATOM     71  C   UNL A   1      42.517  31.702  31.871  1.00  0.00     0.031 C 
ATOM     72  C   UNL A   1      43.782  29.665  32.835  1.00  0.00     0.034 A 
BRANCH  59  73
ATOM     73  C   UNL A   1      45.034  31.721  28.047  1.00  0.00     0.023 A 
ATOM     74  C   UNL A   1      46.355  32.034  27.641  1.00  0.00     0.012 A 
ATOM     75  C   UNL A   1      44.164  32.811  28.270  1.00  0.00     0.148 A 
ATOM     76  C   UNL A   1      46.802  33.355  27.526  1.00  0.00     0.002 A 
ATOM     77  C   UNL A   1      44.590  34.122  28.070  1.00  0.00     0.091 A 
ATOM     78  F   UNL A   1      42.960  32.606  28.811  1.00  0.00    -0.205 F 
ATOM     79  C   UNL A   1      45.915  34.402  27.733  1.00  0.00     0.022 A 
BRANCH  77  80
ATOM     80  S   UNL A   1      43.459  35.506  28.256  1.00  0.00     0.127 S 
ATOM     81  O   UNL A   1      44.357  36.643  28.080  1.00  0.00    -0.237 OA
ATOM     82  O   UNL A   1      42.519  35.281  27.158  1.00  0.00    -0.237 OA
ATOM     83  O   UNL A   1      42.875  35.341  29.582  1.00  0.00    -0.744 OA
ENDBRANCH  77  80
ENDBRANCH  59  73
BRANCH  60  84
ATOM     84  C   UNL A   1      38.107  31.185  32.748  1.00  0.00     0.023 A 
ATOM     85  C   UNL A   1      37.855  31.552  34.083  1.00  0.00     0.012 A 
ATOM     86  C   UNL A   1      37.322  31.775  31.731  1.00  0.00     0.148 A 
ATOM     87  C   UNL A   1      36.880  32.505  34.395  1.00  0.00     0.002 A 
ATOM     88  C   UNL A   1      36.346  32.715  32.047  1.00  0.00     0.091 A 
ATOM     89  F   UNL A   1      37.596  31.485  30.451  1.00  0.00    -0.205 F 
ATOM     90  C   UNL A   1      36.132  33.093  33.377  1.00  0.00     0.022 A 
BRANCH  88  91
ATOM     91  S   UNL A   1      35.355  33.519  30.780  1.00  0.00     0.127 S 
ATOM     92  O   UNL A   1      34.720  34.605  31.529  1.00  0.00    -0.237 OA
ATOM     93  O   UNL A   1      36.375  33.946  29.827  1.00  0.00    -0.237 OA
ATOM     94  O   UNL A   1      34.425  32.501  30.306  1.00  0.00    -0.744 OA
ENDBRANCH  88  91
ENDBRANCH  60  84
BRANCH  72  95
ATOM     95  C   UNL A   1      43.672  28.546  33.842  1.00  0.00     0.023 A 
ATOM     96  C   UNL A   1      43.119  27.291  33.513  1.00  0.00     0.012 A 
ATOM     97  C   UNL A   1      44.289  28.703  35.095  1.00  0.00     0.148 A 
ATOM     98  C   UNL A   1      43.148  26.230  34.422  1.00  0.00     0.002 A 
ATOM     99  C   UNL A   1      44.361  27.631  35.978  1.00  0.00     0.091 A 
ATOM    100  F   UNL A   1      44.820  29.898  35.399  1.00  0.00    -0.205 F 
ATOM    101  C   UNL A   1      43.780  26.396  35.651  1.00  0.00     0.022 A 
BRANCH  99 102
ATOM    102  S   UNL A   1      45.281  27.753  37.514  1.00  0.00     0.127 S 
ATOM    103  O   UNL A   1      46.615  28.119  37.044  1.00  0.00    -0.237 OA
ATOM    104  O   UNL A   1      44.571  28.815  38.229  1.00  0.00    -0.237 OA
ATOM    105  O   UNL A   1      45.167  26.442  38.142  1.00  0.00    -0.744 OA
ENDBRANCH  99 102
ENDBRANCH  72  95
ENDBRANCH  46  47
ENDBRANCH  38  41
ENDBRANCH  36  37
ENDBRANCH  35  36
ENDBRANCH  34  35
ENDBRANCH   1  34
TORSDOF 20
ENDMDL
MODEL 2
REMARK VINA RESULT:     -11.0      3.732      8.403
REMARK SMILES NS(=O)(=O)c1ccc(-n2nc(C(F)(F)F)cc2-c2ccc(CC(=O)NCCCCNC(=O)c3ccc(-c4c5nc(c(-c6cccc(S(=O)(=O)[O-])c6F)c6ccc([nH]6)c(-c6cccc(S(=O)(=O)[O-])c6F)c6nc(c(-c7cccc(S(=O)(=O)[O-])c7F)c7ccc4[nH]7)C=C6)C=C5)cc3)cc2)cc1
REMARK SMILES IDX 26 1 25 2 23 3 24 4 22 6 21 7 18 8 19 9 97 10 20 11 96 12
REMARK SMILES IDX 17 13 9 14 10 15 11 16 16 17 8 18 5 19 6 20 99 21 7 22 98 23
REMARK SMILES IDX 2 24 3 25 4 26 1 27 12 30 13 31 14 32 15 33 27 34 28 35
REMARK SMILES IDX 29 36 30 37 31 38 32 40 33 41 34 42 95 43 35 44 94 45 36 46
REMARK SMILES IDX 37 47 38 48 88 49 39 50 93 51 87 52 89 53 40 54 92 55 86 56
REMARK SMILES IDX 85 57 41 59 73 60 53 61 72 62 54 63 57 64 71 65 90 66 55 67
REMARK SMILES IDX 56 68 70 70 91 71 58 72 42 73 43 74 51 75 44 76 46 77 52 78
REMARK SMILES IDX 45 79 47 80 48 81 49 82 50 83 74 84 75 85 83 86 76 87 78 88
REMARK SMILES IDX 84 89 77 90 79 91 80 92 81 93 82 94 59 95 60 96 68 97 61 98
REMARK SMILES IDX 63 99 69 100 62 101 64 102 65 103 66 104 67 105
REMARK H PARENT 25 5 1 28 1 29 30 39 89 58 57 69
REMARK Flexibility Score: inf
ROOT
ATOM      1  C   UNL A   1      35.033  33.000  28.980  1.00  0.00     0.116 C 
ENDROOT
BRANCH   1   2
ATOM      2  N   UNL A   1      33.864  32.665  28.190  1.00  0.00    -0.356 N 
ATOM      3  C   UNL A   1      33.486  31.457  27.677  1.00  0.00     0.224 C 
ATOM      4  O   UNL A   1      32.576  31.422  26.847  1.00  0.00    -0.275 OA
ATOM      5  H   UNL A   1      33.255  33.414  27.997  1.00  0.00     0.163 HD
BRANCH   3   6
ATOM      6  C   UNL A   1      34.200  30.187  28.116  1.00  0.00     0.135 C 
BRANCH   6   7
ATOM      7  C   UNL A   1      33.848  28.984  27.273  1.00  0.00    -0.039 A 
ATOM      8  C   UNL A   1      33.095  26.861  25.578  1.00  0.00     0.000 A 
ATOM      9  C   UNL A   1      32.306  27.207  26.684  1.00  0.00     0.010 A 
ATOM     10  C   UNL A   1      34.297  27.545  25.366  1.00  0.00     0.010 A 
ATOM     11  C   UNL A   1      32.678  28.258  27.524  1.00  0.00     0.005 A 
ATOM     12  C   UNL A   1      34.673  28.594  26.210  1.00  0.00     0.005 A 
BRANCH   8  13
ATOM     13  C   UNL A   1      32.695  25.769  24.689  1.00  0.00     0.075 A 
ATOM     14  N   UNL A   1      31.568  25.751  23.876  1.00  0.00    -0.233 N 
ATOM     15  N   UNL A   1      31.290  24.501  23.422  1.00  0.00    -0.163 NA
ATOM     16  C   UNL A   1      32.388  23.780  23.718  1.00  0.00     0.167 A 
ATOM     17  C   UNL A   1      33.275  24.526  24.532  1.00  0.00     0.064 A 
BRANCH  14  18
ATOM     18  C   UNL A   1      30.779  26.842  23.431  1.00  0.00     0.065 A 
ATOM     19  C   UNL A   1      29.226  28.992  22.575  1.00  0.00     0.082 A 
ATOM     20  C   UNL A   1      30.589  28.953  22.275  1.00  0.00     0.024 A 
ATOM     21  C   UNL A   1      28.624  27.931  23.256  1.00  0.00     0.024 A 
ATOM     22  C   UNL A   1      31.380  27.904  22.744  1.00  0.00     0.030 A 
ATOM     23  C   UNL A   1      29.394  26.831  23.644  1.00  0.00     0.030 A 
BRANCH  19  24
ATOM     24  S   UNL A   1      28.244  30.407  22.162  1.00  0.00     0.238 S 
ATOM     25  O   UNL A   1      27.310  30.638  23.236  1.00  0.00    -0.207 OA
ATOM     26  O   UNL A   1      27.835  30.281  20.782  1.00  0.00    -0.207 OA
BRANCH  24  27
ATOM     27  N   UNL A   1      29.313  31.703  22.215  1.00  0.00    -0.225 NA
ATOM     28  H   UNL A   1      28.881  32.481  22.714  1.00  0.00     0.137 HD
ATOM     29  H   UNL A   1      29.540  31.996  21.264  1.00  0.00     0.137 HD
ENDBRANCH  24  27
ENDBRANCH  19  24
ENDBRANCH  14  18
BRANCH  16  30
ATOM     30  C   UNL A   1      32.592  22.369  23.241  1.00  0.00     0.435 C 
ATOM     31  F   UNL A   1      33.797  21.853  23.599  1.00  0.00    -0.164 F 
ATOM     32  F   UNL A   1      31.639  21.524  23.721  1.00  0.00    -0.164 F 
ATOM     33  F   UNL A   1      32.526  22.280  21.882  1.00  0.00    -0.164 F 
ENDBRANCH  16  30
ENDBRANCH   8  13
ENDBRANCH   6   7
ENDBRANCH   3   6
ENDBRANCH   1   2
BRANCH   1  34
ATOM     34  C   UNL A   1      34.779  34.226  29.862  1.00  0.00     0.023 C 
BRANCH  34  35
ATOM     35  C   UNL A   1      34.852  33.949  31.368  1.00  0.00     0.023 C 
BRANCH  35  36
ATOM     36  C   UNL A   1      36.145  34.378  32.042  1.00  0.00     0.116 C 
BRANCH  36  37
ATOM     37  N   UNL A   1      36.247  33.917  33.429  1.00  0.00    -0.352 N 
ATOM     38  C   UNL A   1      37.031  32.887  33.914  1.00  0.00     0.251 C 
ATOM     39  H   UNL A   1      35.696  34.393  34.090  1.00  0.00     0.163 HD
ATOM     40  O   UNL A   1      36.801  32.366  34.998  1.00  0.00    -0.269 OA
BRANCH  38  41
ATOM     41  C   UNL A   1      38.149  32.428  33.076  1.00  0.00     0.039 A 
ATOM     42  C   UNL A   1      39.469  32.742  33.405  1.00  0.00     0.014 A 
ATOM     43  C   UNL A   1      37.851  31.552  32.035  1.00  0.00     0.014 A 
ATOM     44  C   UNL A   1      40.501  32.073  32.750  1.00  0.00     0.010 A 
ATOM     45  C   UNL A   1      38.865  30.805  31.483  1.00  0.00     0.010 A 
ATOM     46  C   UNL A   1      40.195  31.074  31.813  1.00  0.00    -0.014 A 
BRANCH  46  47
ATOM     47  C   UNL A   1      41.255  30.222  31.267  1.00  0.00     0.031 A 
ATOM     48  C   UNL A   1      42.174  30.851  30.271  1.00  0.00     0.074 A 
ATOM     49  C   UNL A   1      41.570  29.019  31.795  1.00  0.00     0.049 A 
ATOM     50  N   UNL A   1      42.367  30.498  29.041  1.00  0.00    -0.248 NA
ATOM     51  C   UNL A   1      42.919  32.056  30.665  1.00  0.00     0.031 C 
ATOM     52  C   UNL A   1      40.995  28.386  32.988  1.00  0.00     0.029 A 
ATOM     53  N   UNL A   1      42.602  28.189  31.477  1.00  0.00    -0.354 N 
ATOM     54  C   UNL A   1      43.411  31.296  28.568  1.00  0.00     0.074 A 
ATOM     55  C   UNL A   1      43.596  32.335  29.548  1.00  0.00     0.031 C 
ATOM     56  C   UNL A   1      41.855  27.458  33.456  1.00  0.00     0.029 A 
ATOM     57  C   UNL A   1      42.931  27.302  32.497  1.00  0.00     0.049 A 
ATOM     58  H   UNL A   1      43.071  28.214  30.612  1.00  0.00     0.167 HD
ATOM     59  C   UNL A   1      44.187  30.914  27.513  1.00  0.00     0.034 A 
ATOM     60  C   UNL A   1      44.034  26.524  32.576  1.00  0.00     0.034 A 
ATOM     61  C   UNL A   1      43.615  29.799  26.807  1.00  0.00     0.049 A 
ATOM     62  C   UNL A   1      44.564  26.370  31.205  1.00  0.00     0.074 A 
ATOM     63  C   UNL A   1      42.425  29.544  26.156  1.00  0.00     0.029 A 
ATOM     64  N   UNL A   1      44.207  28.575  27.001  1.00  0.00    -0.354 N 
ATOM     65  N   UNL A   1      43.939  25.727  30.258  1.00  0.00    -0.248 NA
ATOM     66  C   UNL A   1      45.633  27.248  30.764  1.00  0.00     0.031 C 
ATOM     67  C   UNL A   1      42.147  28.171  26.426  1.00  0.00     0.029 A 
ATOM     68  C   UNL A   1      43.204  27.663  27.186  1.00  0.00     0.049 A 
ATOM     69  H   UNL A   1      45.173  28.389  27.007  1.00  0.00     0.167 HD
ATOM     70  C   UNL A   1      44.212  26.455  29.110  1.00  0.00     0.074 A 
ATOM     71  C   UNL A   1      45.371  27.274  29.455  1.00  0.00     0.031 C 
ATOM     72  C   UNL A   1      43.295  26.546  28.100  1.00  0.00     0.034 A 
BRANCH  59  73
ATOM     73  C   UNL A   1      45.636  31.297  27.286  1.00  0.00     0.023 A 
ATOM     74  C   UNL A   1      46.625  30.517  27.935  1.00  0.00     0.012 A 
ATOM     75  C   UNL A   1      46.061  32.519  26.720  1.00  0.00     0.148 A 
ATOM     76  C   UNL A   1      47.946  30.957  28.067  1.00  0.00     0.002 A 
ATOM     77  C   UNL A   1      47.396  32.911  26.780  1.00  0.00     0.091 A 
ATOM     78  F   UNL A   1      45.162  33.383  26.240  1.00  0.00    -0.205 F 
ATOM     79  C   UNL A   1      48.336  32.153  27.481  1.00  0.00     0.022 A 
BRANCH  77  80
ATOM     80  S   UNL A   1      47.961  34.415  25.976  1.00  0.00     0.127 S 
ATOM     81  O   UNL A   1      47.954  35.362  27.086  1.00  0.00    -0.237 OA
ATOM     82  O   UNL A   1      49.290  34.026  25.500  1.00  0.00    -0.237 OA
ATOM     83  O   UNL A   1      46.997  34.659  24.909  1.00  0.00    -0.744 OA
ENDBRANCH  77  80
ENDBRANCH  59  73
BRANCH  60  84
ATOM     84  C   UNL A   1      44.761  26.044  33.768  1.00  0.00     0.023 A 
ATOM     85  C   UNL A   1      45.039  26.937  34.819  1.00  0.00     0.012 A 
ATOM     86  C   UNL A   1      44.953  24.662  33.993  1.00  0.00     0.148 A 
ATOM     87  C   UNL A   1      45.458  26.468  36.069  1.00  0.00     0.002 A 
ATOM     88  C   UNL A   1      45.379  24.200  35.235  1.00  0.00     0.091 A 
ATOM     89  F   UNL A   1      44.628  23.796  33.023  1.00  0.00    -0.205 F 
ATOM     90  C   UNL A   1      45.619  25.100  36.280  1.00  0.00     0.022 A 
BRANCH  88  91
ATOM     91  S   UNL A   1      45.594  22.448  35.575  1.00  0.00     0.127 S 
ATOM     92  O   UNL A   1      46.903  22.178  34.978  1.00  0.00    -0.237 OA
ATOM     93  O   UNL A   1      45.567  22.419  37.034  1.00  0.00    -0.237 OA
ATOM     94  O   UNL A   1      44.486  21.780  34.903  1.00  0.00    -0.744 OA
ENDBRANCH  88  91
ENDBRANCH  60  84
BRANCH  72  95
ATOM     95  C   UNL A   1      42.118  25.600  28.115  1.00  0.00     0.023 A 
ATOM     96  C   UNL A   1      40.822  26.020  28.478  1.00  0.00     0.012 A 
ATOM     97  C   UNL A   1      42.286  24.306  27.594  1.00  0.00     0.148 A 
ATOM     98  C   UNL A   1      39.726  25.160  28.358  1.00  0.00     0.002 A 
ATOM     99  C   UNL A   1      41.187  23.470  27.429  1.00  0.00     0.091 A 
ATOM    100  F   UNL A   1      43.522  23.915  27.244  1.00  0.00    -0.205 F 
ATOM    101  C   UNL A   1      39.907  23.889  27.821  1.00  0.00     0.022 A 
BRANCH  99 102
ATOM    102  S   UNL A   1      41.345  21.877  26.618  1.00  0.00     0.127 S 
ATOM    103  O   UNL A   1      42.046  22.227  25.385  1.00  0.00    -0.237 OA
ATOM    104  O   UNL A   1      42.140  21.108  27.576  1.00  0.00    -0.237 OA
ATOM    105  O   UNL A   1      39.982  21.385  26.455  1.00  0.00    -0.744 OA
ENDBRANCH  99 102
ENDBRANCH  72  95
ENDBRANCH  46  47
ENDBRANCH  38  41
ENDBRANCH  36  37
ENDBRANCH  35  36
ENDBRANCH  34  35
ENDBRANCH   1  34
TORSDOF 20
ENDMDL
MODEL 3
REMARK VINA RESULT:     -10.9      1.763      2.251
REMARK SMILES NS(=O)(=O)c1ccc(-n2nc(C(F)(F)F)cc2-c2ccc(CC(=O)NCCCCNC(=O)c3ccc(-c4c5nc(c(-c6cccc(S(=O)(=O)[O-])c6F)c6ccc([nH]6)c(-c6cccc(S(=O)(=O)[O-])c6F)c6nc(c(-c7cccc(S(=O)(=O)[O-])c7F)c7ccc4[nH]7)C=C6)C=C5)cc3)cc2)cc1
REMARK SMILES IDX 26 1 25 2 23 3 24 4 22 6 21 7 18 8 19 9 97 10 20 11 96 12
REMARK SMILES IDX 17 13 9 14 10 15 11 16 16 17 8 18 5 19 6 20 99 21 7 22 98 23
REMARK SMILES IDX 2 24 3 25 4 26 1 27 12 30 13 31 14 32 15 33 27 34 28 35
REMARK SMILES IDX 29 36 30 37 31 38 32 40 33 41 34 42 95 43 35 44 94 45 36 46
REMARK SMILES IDX 37 47 38 48 88 49 39 50 93 51 87 52 89 53 40 54 92 55 86 56
REMARK SMILES IDX 85 57 41 59 73 60 53 61 72 62 54 63 57 64 71 65 90 66 55 67
REMARK SMILES IDX 56 68 70 70 91 71 58 72 42 73 43 74 51 75 44 76 46 77 52 78
REMARK SMILES IDX 45 79 47 80 48 81 49 82 50 83 74 84 75 85 83 86 76 87 78 88
REMARK SMILES IDX 84 89 77 90 79 91 80 92 81 93 82 94 59 95 60 96 68 97 61 98
REMARK SMILES IDX 63 99 69 100 62 101 64 102 65 103 66 104 67 105
REMARK H PARENT 25 5 1 28 1 29 30 39 89 58 57 69
REMARK Flexibility Score: inf
ROOT
ATOM      1  C   UNL A   1      34.817  22.732  26.466  1.00  0.00     0.116 C 
ENDROOT
BRANCH   1   2
ATOM      2  N   UNL A   1      34.244  22.034  25.330  1.00  0.00    -0.356 N 
ATOM      3  C   UNL A   1      32.933  21.774  25.049  1.00  0.00     0.224 C 
ATOM      4  O   UNL A   1      32.666  20.976  24.149  1.00  0.00    -0.275 OA
ATOM      5  H   UNL A   1      34.892  21.701  24.669  1.00  0.00     0.163 HD
BRANCH   3   6
ATOM      6  C   UNL A   1      31.833  22.450  25.853  1.00  0.00     0.135 C 
BRANCH   6   7
ATOM      7  C   UNL A   1      31.572  23.875  25.427  1.00  0.00    -0.039 A 
ATOM      8  C   UNL A   1      30.908  26.474  24.562  1.00  0.00     0.000 A 
ATOM      9  C   UNL A   1      31.628  25.606  23.729  1.00  0.00     0.010 A 
ATOM     10  C   UNL A   1      30.580  26.052  25.855  1.00  0.00     0.010 A 
ATOM     11  C   UNL A   1      31.958  24.319  24.157  1.00  0.00     0.005 A 
ATOM     12  C   UNL A   1      30.915  24.765  26.286  1.00  0.00     0.005 A 
BRANCH   8  13
ATOM     13  C   UNL A   1      30.550  27.819  24.106  1.00  0.00     0.075 A 
ATOM     14  N   UNL A   1      31.016  29.012  24.647  1.00  0.00    -0.233 N 
ATOM     15  N   UNL A   1      30.274  30.075  24.239  1.00  0.00    -0.163 NA
ATOM     16  C   UNL A   1      29.518  29.598  23.233  1.00  0.00     0.167 A 
ATOM     17  C   UNL A   1      29.640  28.190  23.137  1.00  0.00     0.064 A 
BRANCH  14  18
ATOM     18  C   UNL A   1      32.159  29.232  25.456  1.00  0.00     0.065 A 
ATOM     19  C   UNL A   1      34.416  29.672  27.030  1.00  0.00     0.082 A 
ATOM     20  C   UNL A   1      33.253  30.408  27.259  1.00  0.00     0.024 A 
ATOM     21  C   UNL A   1      34.438  28.676  26.051  1.00  0.00     0.024 A 
ATOM     22  C   UNL A   1      32.136  30.227  26.441  1.00  0.00     0.030 A 
ATOM     23  C   UNL A   1      33.291  28.422  25.293  1.00  0.00     0.030 A 
BRANCH  19  24
ATOM     24  S   UNL A   1      35.904  30.023  27.924  1.00  0.00     0.238 S 
ATOM     25  O   UNL A   1      36.267  31.397  27.675  1.00  0.00    -0.207 OA
ATOM     26  O   UNL A   1      36.819  28.924  27.720  1.00  0.00    -0.207 OA
BRANCH  24  27
ATOM     27  N   UNL A   1      35.459  29.965  29.543  1.00  0.00    -0.225 NA
ATOM     28  H   UNL A   1      35.296  30.913  29.885  1.00  0.00     0.137 HD
ATOM     29  H   UNL A   1      36.206  29.532  30.087  1.00  0.00     0.137 HD
ENDBRANCH  24  27
ENDBRANCH  19  24
ENDBRANCH  14  18
BRANCH  16  30
ATOM     30  C   UNL A   1      28.660  30.477  22.366  1.00  0.00     0.435 C 
ATOM     31  F   UNL A   1      28.244  29.863  21.228  1.00  0.00    -0.164 F 
ATOM     32  F   UNL A   1      27.545  30.906  23.018  1.00  0.00    -0.164 F 
ATOM     33  F   UNL A   1      29.324  31.602  21.974  1.00  0.00    -0.164 F 
ENDBRANCH  16  30
ENDBRANCH   8  13
ENDBRANCH   6   7
ENDBRANCH   3   6
ENDBRANCH   1   2
BRANCH   1  34
ATOM     34  C   UNL A   1      35.591  23.977  26.024  1.00  0.00     0.023 C 
BRANCH  34  35
ATOM     35  C   UNL A   1      37.034  23.703  25.586  1.00  0.00     0.023 C 
BRANCH  35  36
ATOM     36  C   UNL A   1      38.104  24.141  26.573  1.00  0.00     0.116 C 
BRANCH  36  37
ATOM     37  N   UNL A   1      38.884  23.020  27.105  1.00  0.00    -0.352 N 
ATOM     38  C   UNL A   1      40.232  23.007  27.407  1.00  0.00     0.251 C 
ATOM     39  H   UNL A   1      38.392  22.183  27.265  1.00  0.00     0.163 HD
ATOM     40  O   UNL A   1      40.850  21.956  27.521  1.00  0.00    -0.269 OA
BRANCH  38  41
ATOM     41  C   UNL A   1      40.907  24.302  27.575  1.00  0.00     0.039 A 
ATOM     42  C   UNL A   1      40.434  25.447  26.930  1.00  0.00     0.014 A 
ATOM     43  C   UNL A   1      41.936  24.370  28.510  1.00  0.00     0.014 A 
ATOM     44  C   UNL A   1      40.929  26.689  27.321  1.00  0.00     0.010 A 
ATOM     45  C   UNL A   1      42.328  25.603  28.981  1.00  0.00     0.010 A 
ATOM     46  C   UNL A   1      41.851  26.768  28.376  1.00  0.00    -0.014 A 
BRANCH  46  47
ATOM     47  C   UNL A   1      42.226  28.069  28.936  1.00  0.00     0.031 A 
ATOM     48  C   UNL A   1      43.460  28.705  28.383  1.00  0.00     0.074 A 
ATOM     49  C   UNL A   1      41.396  28.795  29.716  1.00  0.00     0.049 A 
ATOM     50  N   UNL A   1      44.539  29.024  29.022  1.00  0.00    -0.248 NA
ATOM     51  C   UNL A   1      43.533  28.959  26.936  1.00  0.00     0.031 C 
ATOM     52  C   UNL A   1      40.012  28.480  30.090  1.00  0.00     0.029 A 
ATOM     53  N   UNL A   1      41.559  30.062  30.193  1.00  0.00    -0.354 N 
ATOM     54  C   UNL A   1      45.342  29.710  28.110  1.00  0.00     0.074 A 
ATOM     55  C   UNL A   1      44.749  29.498  26.815  1.00  0.00     0.031 C 
ATOM     56  C   UNL A   1      39.382  29.615  30.459  1.00  0.00     0.029 A 
ATOM     57  C   UNL A   1      40.361  30.681  30.532  1.00  0.00     0.049 A 
ATOM     58  H   UNL A   1      42.438  30.496  30.286  1.00  0.00     0.167 HD
ATOM     59  C   UNL A   1      46.311  30.581  28.517  1.00  0.00     0.034 A 
ATOM     60  C   UNL A   1      40.172  31.991  30.811  1.00  0.00     0.034 A 
ATOM     61  C   UNL A   1      46.580  30.459  29.926  1.00  0.00     0.049 A 
ATOM     62  C   UNL A   1      41.482  32.552  31.204  1.00  0.00     0.074 A 
ATOM     63  C   UNL A   1      46.989  29.449  30.772  1.00  0.00     0.029 A 
ATOM     64  N   UNL A   1      46.090  31.454  30.737  1.00  0.00    -0.354 N 
ATOM     65  N   UNL A   1      42.115  32.211  32.292  1.00  0.00    -0.248 NA
ATOM     66  C   UNL A   1      42.282  33.233  30.202  1.00  0.00     0.031 C 
ATOM     67  C   UNL A   1      46.287  29.686  31.991  1.00  0.00     0.029 A 
ATOM     68  C   UNL A   1      45.529  30.849  31.828  1.00  0.00     0.049 A 
ATOM     69  H   UNL A   1      46.134  32.421  30.564  1.00  0.00     0.167 HD
ATOM     70  C   UNL A   1      43.452  32.211  31.924  1.00  0.00     0.074 A 
ATOM     71  C   UNL A   1      43.501  32.990  30.691  1.00  0.00     0.031 C 
ATOM     72  C   UNL A   1      44.336  31.332  32.487  1.00  0.00     0.034 A 
BRANCH  59  73
ATOM     73  C   UNL A   1      46.800  31.794  27.751  1.00  0.00     0.023 A 
ATOM     74  C   UNL A   1      48.198  31.925  27.563  1.00  0.00     0.012 A 
ATOM     75  C   UNL A   1      46.012  32.928  27.460  1.00  0.00     0.148 A 
ATOM     76  C   UNL A   1      48.783  33.134  27.170  1.00  0.00     0.002 A 
ATOM     77  C   UNL A   1      46.591  34.103  26.987  1.00  0.00     0.091 A 
ATOM     78  F   UNL A   1      44.712  32.937  27.768  1.00  0.00    -0.205 F 
ATOM     79  C   UNL A   1      47.977  34.223  26.872  1.00  0.00     0.022 A 
BRANCH  77  80
ATOM     80  S   UNL A   1      45.584  35.516  26.521  1.00  0.00     0.127 S 
ATOM     81  O   UNL A   1      44.557  34.886  25.697  1.00  0.00    -0.237 OA
ATOM     82  O   UNL A   1      45.124  36.004  27.822  1.00  0.00    -0.237 OA
ATOM     83  O   UNL A   1      46.499  36.423  25.837  1.00  0.00    -0.744 OA
ENDBRANCH  77  80
ENDBRANCH  59  73
BRANCH  60  84
ATOM     84  C   UNL A   1      38.978  32.833  30.599  1.00  0.00     0.023 A 
ATOM     85  C   UNL A   1      38.881  33.623  29.438  1.00  0.00     0.012 A 
ATOM     86  C   UNL A   1      37.822  32.668  31.396  1.00  0.00     0.148 A 
ATOM     87  C   UNL A   1      37.664  34.199  29.060  1.00  0.00     0.002 A 
ATOM     88  C   UNL A   1      36.616  33.251  31.021  1.00  0.00     0.091 A 
ATOM     89  F   UNL A   1      37.884  31.864  32.466  1.00  0.00    -0.205 F 
ATOM     90  C   UNL A   1      36.530  34.006  29.845  1.00  0.00     0.022 A 
BRANCH  88  91
ATOM     91  S   UNL A   1      35.114  33.030  31.984  1.00  0.00     0.127 S 
ATOM     92  O   UNL A   1      35.399  33.820  33.183  1.00  0.00    -0.237 OA
ATOM     93  O   UNL A   1      34.103  33.600  31.100  1.00  0.00    -0.237 OA
ATOM     94  O   UNL A   1      35.013  31.596  32.228  1.00  0.00    -0.744 OA
ENDBRANCH  88  91
ENDBRANCH  60  84
BRANCH  72  95
ATOM     95  C   UNL A   1      43.906  30.579  33.723  1.00  0.00     0.023 A 
ATOM     96  C   UNL A   1      44.012  31.133  35.015  1.00  0.00     0.012 A 
ATOM     97  C   UNL A   1      43.229  29.357  33.567  1.00  0.00     0.148 A 
ATOM     98  C   UNL A   1      43.488  30.471  36.128  1.00  0.00     0.002 A 
ATOM     99  C   UNL A   1      42.666  28.725  34.669  1.00  0.00     0.091 A 
ATOM    100  F   UNL A   1      43.126  28.838  32.333  1.00  0.00    -0.205 F 
ATOM    101  C   UNL A   1      42.803  29.272  35.954  1.00  0.00     0.022 A 
BRANCH  99 102
ATOM    102  S   UNL A   1      41.659  27.251  34.481  1.00  0.00     0.127 S 
ATOM    103  O   UNL A   1      42.614  26.295  33.925  1.00  0.00    -0.237 OA
ATOM    104  O   UNL A   1      41.242  26.970  35.856  1.00  0.00    -0.237 OA
ATOM    105  O   UNL A   1      40.563  27.637  33.600  1.00  0.00    -0.744 OA
ENDBRANCH  99 102
ENDBRANCH  72  95
ENDBRANCH  46  47
ENDBRANCH  38  41
ENDBRANCH  36  37
ENDBRANCH  35  36
ENDBRANCH  34  35
ENDBRANCH   1  34
TORSDOF 20
ENDMDL
