MODEL 1
REMARK VINA RESULT:     -12.8      0.000      0.000
REMARK SMILES Cc1ccc2c(c1)c(-c1ccnc3c(C)cccc13)c(C)n2CC(=O)NCCCCNC(=O)c1ccc(-c2c3nc(c(-c4cccc(S(=O)(=O)[O-])c4F)c4ccc([nH]4)c(-c4cccc(S(=O)(=O)[O-])c4F)c4nc(c(-c5cccc(S(=O)(=O)[O-])c5F)c5ccc2[nH]5)C=C4)C=C3)cc1
REMARK SMILES IDX 29 1 28 2 27 3 26 4 24 5 25 6 23 8 22 9 1 10 2 11 3 12 7 13
REMARK SMILES IDX 4 14 6 15 5 16 8 17 20 18 21 19 9 20 10 21 19 22 11 23 13 24
REMARK SMILES IDX 18 25 12 26 14 27 17 28 15 29 16 30 30 31 31 32 32 33 33 35
REMARK SMILES IDX 34 36 35 37 96 38 36 39 95 40 37 41 38 42 39 43 89 44 40 45
REMARK SMILES IDX 94 46 88 47 90 48 41 49 93 50 87 51 86 52 42 54 74 55 54 56
REMARK SMILES IDX 73 57 55 58 58 59 72 60 91 61 56 62 57 63 71 65 92 66 59 67
REMARK SMILES IDX 43 68 44 69 52 70 45 71 47 72 53 73 46 74 48 75 49 76 50 77
REMARK SMILES IDX 51 78 75 79 76 80 84 81 77 82 79 83 85 84 78 85 80 86 81 87
REMARK SMILES IDX 82 88 83 89 60 90 61 91 69 92 62 93 64 94 70 95 63 96 65 97
REMARK SMILES IDX 66 98 67 99 68 100
REMARK H PARENT 26 7 31 34 90 53 58 64
REMARK Flexibility Score: inf
ROOT
ATOM      1  C   UNL A   1      33.339  30.108  27.367  1.00  0.00     0.023 C 
ENDROOT
BRANCH   1   2
ATOM      2  C   UNL A   1      32.506  30.478  26.132  1.00  0.00     0.023 C 
BRANCH   2   3
ATOM      3  C   UNL A   1      32.163  29.296  25.230  1.00  0.00     0.116 C 
BRANCH   3   4
ATOM      4  N   UNL A   1      31.345  28.305  25.904  1.00  0.00    -0.355 N 
ATOM      5  C   UNL A   1      31.703  27.068  26.356  1.00  0.00     0.239 C 
ATOM      6  O   UNL A   1      30.855  26.406  26.961  1.00  0.00    -0.273 OA
ATOM      7  H   UNL A   1      30.407  28.559  26.056  1.00  0.00     0.163 HD
BRANCH   5   8
ATOM      8  C   UNL A   1      33.123  26.560  26.190  1.00  0.00     0.222 C 
BRANCH   8   9
ATOM      9  N   UNL A   1      33.244  25.452  25.248  1.00  0.00    -0.335 N 
ATOM     10  C   UNL A   1      32.672  25.111  19.630  1.00  0.00     0.044 C 
ATOM     11  C   UNL A   1      32.905  25.276  21.103  1.00  0.00    -0.050 A 
ATOM     12  C   UNL A   1      32.966  26.550  21.666  1.00  0.00     0.005 A 
ATOM     13  C   UNL A   1      32.992  24.149  21.936  1.00  0.00     0.014 A 
ATOM     14  C   UNL A   1      33.134  26.729  23.043  1.00  0.00     0.027 A 
ATOM     15  C   UNL A   1      33.146  24.302  23.331  1.00  0.00     0.008 A 
ATOM     16  C   UNL A   1      33.199  25.590  23.867  1.00  0.00     0.049 A 
ATOM     17  C   UNL A   1      33.253  23.387  24.420  1.00  0.00     0.011 A 
ATOM     18  C   UNL A   1      33.388  24.120  25.589  1.00  0.00     0.024 A 
ATOM     19  C   UNL A   1      33.579  23.635  26.990  1.00  0.00     0.065 C 
BRANCH  17  20
ATOM     20  C   UNL A   1      33.243  21.928  24.377  1.00  0.00    -0.005 A 
ATOM     21  C   UNL A   1      32.014  21.297  24.203  1.00  0.00     0.029 A 
ATOM     22  C   UNL A   1      34.424  21.155  24.537  1.00  0.00     0.008 A 
ATOM     23  C   UNL A   1      31.997  19.923  24.174  1.00  0.00     0.112 A 
ATOM     24  C   UNL A   1      34.298  19.748  24.494  1.00  0.00     0.074 A 
ATOM     25  C   UNL A   1      35.705  21.722  24.746  1.00  0.00     0.011 A 
ATOM     26  N   UNL A   1      33.098  19.155  24.305  1.00  0.00    -0.256 NA
ATOM     27  C   UNL A   1      35.453  18.965  24.661  1.00  0.00    -0.025 A 
ATOM     28  C   UNL A   1      36.836  20.936  24.922  1.00  0.00     0.001 A 
ATOM     29  C   UNL A   1      35.404  17.460  24.626  1.00  0.00     0.047 C 
ATOM     30  C   UNL A   1      36.710  19.559  24.881  1.00  0.00     0.005 A 
ENDBRANCH  17  20
ENDBRANCH   8   9
ENDBRANCH   5   8
ENDBRANCH   3   4
ENDBRANCH   2   3
ENDBRANCH   1   2
BRANCH   1  31
ATOM     31  C   UNL A   1      34.504  31.065  27.622  1.00  0.00     0.116 C 
BRANCH  31  32
ATOM     32  N   UNL A   1      34.387  31.783  28.875  1.00  0.00    -0.352 N 
ATOM     33  C   UNL A   1      35.215  32.017  29.937  1.00  0.00     0.251 C 
ATOM     34  H   UNL A   1      33.502  32.200  28.989  1.00  0.00     0.163 HD
ATOM     35  O   UNL A   1      34.782  32.793  30.792  1.00  0.00    -0.269 OA
BRANCH  33  36
ATOM     36  C   UNL A   1      36.520  31.346  30.158  1.00  0.00     0.039 A 
ATOM     37  C   UNL A   1      37.757  31.987  30.193  1.00  0.00     0.014 A 
ATOM     38  C   UNL A   1      36.481  29.941  30.239  1.00  0.00     0.014 A 
ATOM     39  C   UNL A   1      38.927  31.250  30.147  1.00  0.00     0.010 A 
ATOM     40  C   UNL A   1      37.649  29.196  30.228  1.00  0.00     0.010 A 
ATOM     41  C   UNL A   1      38.864  29.859  30.103  1.00  0.00    -0.014 A 
BRANCH  41  42
ATOM     42  C   UNL A   1      40.123  29.142  29.989  1.00  0.00     0.031 A 
ATOM     43  C   UNL A   1      40.810  28.925  31.293  1.00  0.00     0.074 A 
ATOM     44  C   UNL A   1      40.579  28.685  28.806  1.00  0.00     0.049 A 
ATOM     45  N   UNL A   1      41.937  29.419  31.695  1.00  0.00    -0.248 NA
ATOM     46  C   UNL A   1      40.063  28.209  32.340  1.00  0.00     0.031 C 
ATOM     47  C   UNL A   1      39.868  28.642  27.522  1.00  0.00     0.029 A 
ATOM     48  N   UNL A   1      41.744  28.041  28.528  1.00  0.00    -0.354 N 
ATOM     49  C   UNL A   1      42.142  28.888  32.969  1.00  0.00     0.074 A 
ATOM     50  C   UNL A   1      40.896  28.295  33.377  1.00  0.00     0.031 C 
ATOM     51  C   UNL A   1      40.497  27.778  26.693  1.00  0.00     0.029 A 
ATOM     52  C   UNL A   1      41.727  27.340  27.324  1.00  0.00     0.049 A 
ATOM     53  H   UNL A   1      42.528  28.067  29.123  1.00  0.00     0.167 HD
ATOM     54  C   UNL A   1      43.385  28.751  33.504  1.00  0.00     0.034 A 
ATOM     55  C   UNL A   1      42.637  26.414  26.936  1.00  0.00     0.034 A 
ATOM     56  C   UNL A   1      44.370  29.495  32.777  1.00  0.00     0.049 A 
ATOM     57  C   UNL A   1      43.861  26.677  27.723  1.00  0.00     0.074 A 
ATOM     58  C   UNL A   1      44.718  30.819  32.635  1.00  0.00     0.029 A 
ATOM     59  N   UNL A   1      44.927  28.809  31.728  1.00  0.00    -0.354 N 
ATOM     60  N   UNL A   1      44.575  27.759  27.602  1.00  0.00    -0.248 NA
ATOM     61  C   UNL A   1      44.133  25.871  28.903  1.00  0.00     0.031 C 
ATOM     62  C   UNL A   1      45.230  30.938  31.309  1.00  0.00     0.029 A 
ATOM     63  C   UNL A   1      45.210  29.678  30.711  1.00  0.00     0.049 A 
ATOM     64  H   UNL A   1      45.097  27.839  31.710  1.00  0.00     0.167 HD
ATOM     65  C   UNL A   1      45.053  27.991  28.878  1.00  0.00     0.074 A 
ATOM     66  C   UNL A   1      44.907  26.722  29.580  1.00  0.00     0.031 C 
ATOM     67  C   UNL A   1      45.235  29.264  29.327  1.00  0.00     0.034 A 
BRANCH  54  68
ATOM     68  C   UNL A   1      43.780  27.612  34.409  1.00  0.00     0.023 A 
ATOM     69  C   UNL A   1      44.300  27.910  35.686  1.00  0.00     0.012 A 
ATOM     70  C   UNL A   1      43.917  26.281  33.949  1.00  0.00     0.148 A 
ATOM     71  C   UNL A   1      44.912  26.924  36.471  1.00  0.00     0.002 A 
ATOM     72  C   UNL A   1      44.460  25.291  34.759  1.00  0.00     0.091 A 
ATOM     73  F   UNL A   1      43.647  25.997  32.670  1.00  0.00    -0.205 F 
ATOM     74  C   UNL A   1      44.976  25.610  36.016  1.00  0.00     0.022 A 
BRANCH  72  75
ATOM     75  S   UNL A   1      44.545  23.578  34.228  1.00  0.00     0.127 S 
ATOM     76  O   UNL A   1      45.678  23.086  35.000  1.00  0.00    -0.237 OA
ATOM     77  O   UNL A   1      43.238  23.072  34.643  1.00  0.00    -0.237 OA
ATOM     78  O   UNL A   1      44.729  23.634  32.778  1.00  0.00    -0.744 OA
ENDBRANCH  72  75
ENDBRANCH  54  68
BRANCH  55  79
ATOM     79  C   UNL A   1      42.490  25.152  26.171  1.00  0.00     0.023 A 
ATOM     80  C   UNL A   1      43.438  24.865  25.163  1.00  0.00     0.012 A 
ATOM     81  C   UNL A   1      41.687  24.095  26.649  1.00  0.00     0.148 A 
ATOM     82  C   UNL A   1      43.653  23.556  24.722  1.00  0.00     0.002 A 
ATOM     83  C   UNL A   1      41.902  22.793  26.201  1.00  0.00     0.091 A 
ATOM     84  F   UNL A   1      40.795  24.344  27.615  1.00  0.00    -0.205 F 
ATOM     85  C   UNL A   1      42.900  22.517  25.256  1.00  0.00     0.022 A 
BRANCH  83  86
ATOM     86  S   UNL A   1      40.987  21.392  26.859  1.00  0.00     0.127 S 
ATOM     87  O   UNL A   1      39.685  21.544  26.209  1.00  0.00    -0.237 OA
ATOM     88  O   UNL A   1      41.781  20.264  26.385  1.00  0.00    -0.237 OA
ATOM     89  O   UNL A   1      40.957  21.587  28.304  1.00  0.00    -0.744 OA
ENDBRANCH  83  86
ENDBRANCH  55  79
BRANCH  67  90
ATOM     90  C   UNL A   1      45.270  30.353  28.292  1.00  0.00     0.023 A 
ATOM     91  C   UNL A   1      44.103  30.902  27.720  1.00  0.00     0.012 A 
ATOM     92  C   UNL A   1      46.516  30.920  27.991  1.00  0.00     0.148 A 
ATOM     93  C   UNL A   1      44.185  31.999  26.858  1.00  0.00     0.002 A 
ATOM     94  C   UNL A   1      46.589  32.032  27.165  1.00  0.00     0.091 A 
ATOM     95  F   UNL A   1      47.607  30.379  28.554  1.00  0.00    -0.205 F 
ATOM     96  C   UNL A   1      45.427  32.572  26.590  1.00  0.00     0.022 A 
BRANCH  94  97
ATOM     97  S   UNL A   1      48.140  32.879  26.867  1.00  0.00     0.127 S 
ATOM     98  O   UNL A   1      48.457  33.416  28.188  1.00  0.00    -0.237 OA
ATOM     99  O   UNL A   1      49.006  31.785  26.424  1.00  0.00    -0.237 OA
ATOM    100  O   UNL A   1      47.867  33.877  25.839  1.00  0.00    -0.744 OA
ENDBRANCH  94  97
ENDBRANCH  67  90
ENDBRANCH  41  42
ENDBRANCH  33  36
ENDBRANCH  31  32
ENDBRANCH   1  31
TORSDOF 16
ENDMDL
MODEL 2
REMARK VINA RESULT:     -12.7      4.508      8.816
REMARK SMILES Cc1ccc2c(c1)c(-c1ccnc3c(C)cccc13)c(C)n2CC(=O)NCCCCNC(=O)c1ccc(-c2c3nc(c(-c4cccc(S(=O)(=O)[O-])c4F)c4ccc([nH]4)c(-c4cccc(S(=O)(=O)[O-])c4F)c4nc(c(-c5cccc(S(=O)(=O)[O-])c5F)c5ccc2[nH]5)C=C4)C=C3)cc1
REMARK SMILES IDX 29 1 28 2 27 3 26 4 24 5 25 6 23 8 22 9 1 10 2 11 3 12 7 13
REMARK SMILES IDX 4 14 6 15 5 16 8 17 20 18 21 19 9 20 10 21 19 22 11 23 13 24
REMARK SMILES IDX 18 25 12 26 14 27 17 28 15 29 16 30 30 31 31 32 32 33 33 35
REMARK SMILES IDX 34 36 35 37 96 38 36 39 95 40 37 41 38 42 39 43 89 44 40 45
REMARK SMILES IDX 94 46 88 47 90 48 41 49 93 50 87 51 86 52 42 54 74 55 54 56
REMARK SMILES IDX 73 57 55 58 58 59 72 60 91 61 56 62 57 63 71 65 92 66 59 67
REMARK SMILES IDX 43 68 44 69 52 70 45 71 47 72 53 73 46 74 48 75 49 76 50 77
REMARK SMILES IDX 51 78 75 79 76 80 84 81 77 82 79 83 85 84 78 85 80 86 81 87
REMARK SMILES IDX 82 88 83 89 60 90 61 91 69 92 62 93 64 94 70 95 63 96 65 97
REMARK SMILES IDX 66 98 67 99 68 100
REMARK H PARENT 26 7 31 34 90 53 58 64
REMARK Flexibility Score: inf
ROOT
ATOM      1  C   UNL A   1      34.010  34.592  31.108  1.00  0.00     0.023 C 
ENDROOT
BRANCH   1   2
ATOM      2  C   UNL A   1      34.292  35.186  32.495  1.00  0.00     0.023 C 
BRANCH   2   3
ATOM      3  C   UNL A   1      35.749  35.080  32.938  1.00  0.00     0.116 C 
BRANCH   3   4
ATOM      4  N   UNL A   1      35.899  34.324  34.167  1.00  0.00    -0.355 N 
ATOM      5  C   UNL A   1      36.614  33.182  34.386  1.00  0.00     0.239 C 
ATOM      6  O   UNL A   1      36.654  32.735  35.536  1.00  0.00    -0.273 OA
ATOM      7  H   UNL A   1      35.420  34.683  34.949  1.00  0.00     0.163 HD
BRANCH   5   8
ATOM      8  C   UNL A   1      37.403  32.532  33.264  1.00  0.00     0.222 C 
BRANCH   8   9
ATOM      9  N   UNL A   1      38.843  32.751  33.356  1.00  0.00    -0.335 N 
ATOM     10  C   UNL A   1      42.831  30.668  36.785  1.00  0.00     0.044 C 
ATOM     11  C   UNL A   1      41.752  31.115  35.844  1.00  0.00    -0.050 A 
ATOM     12  C   UNL A   1      40.500  30.502  35.868  1.00  0.00     0.005 A 
ATOM     13  C   UNL A   1      41.971  32.202  34.982  1.00  0.00     0.014 A 
ATOM     14  C   UNL A   1      39.464  30.934  35.034  1.00  0.00     0.027 A 
ATOM     15  C   UNL A   1      40.936  32.668  34.142  1.00  0.00     0.008 A 
ATOM     16  C   UNL A   1      39.692  32.036  34.191  1.00  0.00     0.049 A 
ATOM     17  C   UNL A   1      40.837  33.723  33.188  1.00  0.00     0.011 A 
ATOM     18  C   UNL A   1      39.555  33.709  32.659  1.00  0.00     0.024 A 
ATOM     19  C   UNL A   1      38.964  34.578  31.596  1.00  0.00     0.065 C 
BRANCH  17  20
ATOM     20  C   UNL A   1      41.868  34.674  32.783  1.00  0.00    -0.005 A 
ATOM     21  C   UNL A   1      42.145  35.730  33.648  1.00  0.00     0.029 A 
ATOM     22  C   UNL A   1      42.555  34.568  31.544  1.00  0.00     0.008 A 
ATOM     23  C   UNL A   1      43.107  36.635  33.267  1.00  0.00     0.112 A 
ATOM     24  C   UNL A   1      43.524  35.553  31.246  1.00  0.00     0.074 A 
ATOM     25  C   UNL A   1      42.309  33.541  30.601  1.00  0.00     0.011 A 
ATOM     26  N   UNL A   1      43.792  36.559  32.108  1.00  0.00    -0.256 NA
ATOM     27  C   UNL A   1      44.207  35.473  30.021  1.00  0.00    -0.025 A 
ATOM     28  C   UNL A   1      42.983  33.481  29.389  1.00  0.00     0.001 A 
ATOM     29  C   UNL A   1      45.256  36.481  29.629  1.00  0.00     0.047 C 
ATOM     30  C   UNL A   1      43.931  34.447  29.098  1.00  0.00     0.005 A 
ENDBRANCH  17  20
ENDBRANCH   8   9
ENDBRANCH   5   8
ENDBRANCH   3   4
ENDBRANCH   2   3
ENDBRANCH   1   2
BRANCH   1  31
ATOM     31  C   UNL A   1      34.749  33.279  30.848  1.00  0.00     0.116 C 
BRANCH  31  32
ATOM     32  N   UNL A   1      34.625  32.818  29.480  1.00  0.00    -0.352 N 
ATOM     33  C   UNL A   1      35.272  31.893  28.709  1.00  0.00     0.251 C 
ATOM     34  H   UNL A   1      33.906  33.279  28.990  1.00  0.00     0.163 HD
ATOM     35  O   UNL A   1      34.790  31.698  27.590  1.00  0.00    -0.269 OA
BRANCH  33  36
ATOM     36  C   UNL A   1      36.527  31.200  29.090  1.00  0.00     0.039 A 
ATOM     37  C   UNL A   1      37.733  31.831  29.394  1.00  0.00     0.014 A 
ATOM     38  C   UNL A   1      36.491  29.794  29.038  1.00  0.00     0.014 A 
ATOM     39  C   UNL A   1      38.902  31.097  29.484  1.00  0.00     0.010 A 
ATOM     40  C   UNL A   1      37.653  29.049  29.161  1.00  0.00     0.010 A 
ATOM     41  C   UNL A   1      38.863  29.715  29.306  1.00  0.00    -0.014 A 
BRANCH  41  42
ATOM     42  C   UNL A   1      40.132  29.006  29.347  1.00  0.00     0.031 A 
ATOM     43  C   UNL A   1      40.674  28.826  30.723  1.00  0.00     0.074 A 
ATOM     44  C   UNL A   1      40.716  28.526  28.232  1.00  0.00     0.049 A 
ATOM     45  N   UNL A   1      41.748  29.339  31.233  1.00  0.00    -0.248 NA
ATOM     46  C   UNL A   1      39.822  28.129  31.700  1.00  0.00     0.031 C 
ATOM     47  C   UNL A   1      40.149  28.446  26.880  1.00  0.00     0.029 A 
ATOM     48  N   UNL A   1      41.908  27.885  28.098  1.00  0.00    -0.354 N 
ATOM     49  C   UNL A   1      41.816  28.840  32.534  1.00  0.00     0.074 A 
ATOM     50  C   UNL A   1      40.537  28.246  32.818  1.00  0.00     0.031 C 
ATOM     51  C   UNL A   1      40.869  27.569  26.146  1.00  0.00     0.029 A 
ATOM     52  C   UNL A   1      42.026  27.156  26.916  1.00  0.00     0.049 A 
ATOM     53  H   UNL A   1      42.622  27.932  28.774  1.00  0.00     0.167 HD
ATOM     54  C   UNL A   1      42.994  28.725  33.204  1.00  0.00     0.034 A 
ATOM     55  C   UNL A   1      42.978  26.229  26.652  1.00  0.00     0.034 A 
ATOM     56  C   UNL A   1      44.049  29.460  32.570  1.00  0.00     0.049 A 
ATOM     57  C   UNL A   1      44.108  26.520  27.560  1.00  0.00     0.074 A 
ATOM     58  C   UNL A   1      44.402  30.783  32.435  1.00  0.00     0.029 A 
ATOM     59  N   UNL A   1      44.720  28.755  31.605  1.00  0.00    -0.354 N 
ATOM     60  N   UNL A   1      44.825  27.605  27.491  1.00  0.00    -0.248 NA
ATOM     61  C   UNL A   1      44.255  25.744  28.783  1.00  0.00     0.031 C 
ATOM     62  C   UNL A   1      45.054  30.876  31.170  1.00  0.00     0.029 A 
ATOM     63  C   UNL A   1      45.106  29.602  30.603  1.00  0.00     0.049 A 
ATOM     64  H   UNL A   1      44.896  27.786  31.629  1.00  0.00     0.167 HD
ATOM     65  C   UNL A   1      45.160  27.872  28.806  1.00  0.00     0.074 A 
ATOM     66  C   UNL A   1      44.946  26.618  29.519  1.00  0.00     0.031 C 
ATOM     67  C   UNL A   1      45.284  29.156  29.241  1.00  0.00     0.034 A 
BRANCH  54  68
ATOM     68  C   UNL A   1      43.295  27.611  34.174  1.00  0.00     0.023 A 
ATOM     69  C   UNL A   1      43.456  27.926  35.539  1.00  0.00     0.012 A 
ATOM     70  C   UNL A   1      43.697  26.321  33.756  1.00  0.00     0.148 A 
ATOM     71  C   UNL A   1      43.976  26.994  36.446  1.00  0.00     0.002 A 
ATOM     72  C   UNL A   1      44.145  25.375  34.670  1.00  0.00     0.091 A 
ATOM     73  F   UNL A   1      43.776  26.048  32.449  1.00  0.00    -0.205 F 
ATOM     74  C   UNL A   1      44.304  25.711  36.016  1.00  0.00     0.022 A 
BRANCH  72  75
ATOM     75  S   UNL A   1      44.559  23.701  34.170  1.00  0.00     0.127 S 
ATOM     76  O   UNL A   1      43.317  23.264  33.545  1.00  0.00    -0.237 OA
ATOM     77  O   UNL A   1      45.674  23.930  33.253  1.00  0.00    -0.237 OA
ATOM     78  O   UNL A   1      44.936  23.013  35.404  1.00  0.00    -0.744 OA
ENDBRANCH  72  75
ENDBRANCH  54  68
BRANCH  55  79
ATOM     79  C   UNL A   1      42.923  24.947  25.907  1.00  0.00     0.023 A 
ATOM     80  C   UNL A   1      43.967  24.654  25.002  1.00  0.00     0.012 A 
ATOM     81  C   UNL A   1      42.092  23.889  26.331  1.00  0.00     0.148 A 
ATOM     82  C   UNL A   1      44.241  23.338  24.614  1.00  0.00     0.002 A 
ATOM     83  C   UNL A   1      42.366  22.581  25.936  1.00  0.00     0.091 A 
ATOM     84  F   UNL A   1      41.107  24.146  27.200  1.00  0.00    -0.205 F 
ATOM     85  C   UNL A   1      43.454  22.300  25.098  1.00  0.00     0.022 A 
BRANCH  83  86
ATOM     86  S   UNL A   1      41.411  21.181  26.536  1.00  0.00     0.127 S 
ATOM     87  O   UNL A   1      40.053  21.536  26.121  1.00  0.00    -0.237 OA
ATOM     88  O   UNL A   1      42.006  20.071  25.799  1.00  0.00    -0.237 OA
ATOM     89  O   UNL A   1      41.607  21.163  27.981  1.00  0.00    -0.744 OA
ENDBRANCH  83  86
ENDBRANCH  55  79
BRANCH  67  90
ATOM     90  C   UNL A   1      45.425  30.220  28.190  1.00  0.00     0.023 A 
ATOM     91  C   UNL A   1      44.322  30.761  27.496  1.00  0.00     0.012 A 
ATOM     92  C   UNL A   1      46.698  30.775  27.997  1.00  0.00     0.148 A 
ATOM     93  C   UNL A   1      44.493  31.837  26.621  1.00  0.00     0.002 A 
ATOM     94  C   UNL A   1      46.857  31.867  27.157  1.00  0.00     0.091 A 
ATOM     95  F   UNL A   1      47.726  30.243  28.674  1.00  0.00    -0.205 F 
ATOM     96  C   UNL A   1      45.759  32.399  26.460  1.00  0.00     0.022 A 
BRANCH  94  97
ATOM     97  S   UNL A   1      48.434  32.701  26.990  1.00  0.00     0.127 S 
ATOM     98  O   UNL A   1      49.298  31.630  26.501  1.00  0.00    -0.237 OA
ATOM     99  O   UNL A   1      48.128  33.741  26.005  1.00  0.00    -0.237 OA
ATOM    100  O   UNL A   1      48.767  33.213  28.314  1.00  0.00    -0.744 OA
ENDBRANCH  94  97
ENDBRANCH  67  90
ENDBRANCH  41  42
ENDBRANCH  33  36
ENDBRANCH  31  32
ENDBRANCH   1  31
TORSDOF 16
ENDMDL
MODEL 3
REMARK VINA RESULT:     -12.5      1.213      2.168
REMARK SMILES Cc1ccc2c(c1)c(-c1ccnc3c(C)cccc13)c(C)n2CC(=O)NCCCCNC(=O)c1ccc(-c2c3nc(c(-c4cccc(S(=O)(=O)[O-])c4F)c4ccc([nH]4)c(-c4cccc(S(=O)(=O)[O-])c4F)c4nc(c(-c5cccc(S(=O)(=O)[O-])c5F)c5ccc2[nH]5)C=C4)C=C3)cc1
REMARK SMILES IDX 29 1 28 2 27 3 26 4 24 5 25 6 23 8 22 9 1 10 2 11 3 12 7 13
REMARK SMILES IDX 4 14 6 15 5 16 8 17 20 18 21 19 9 20 10 21 19 22 11 23 13 24
REMARK SMILES IDX 18 25 12 26 14 27 17 28 15 29 16 30 30 31 31 32 32 33 33 35
REMARK SMILES IDX 34 36 35 37 96 38 36 39 95 40 37 41 38 42 39 43 89 44 40 45
REMARK SMILES IDX 94 46 88 47 90 48 41 49 93 50 87 51 86 52 42 54 74 55 54 56
REMARK SMILES IDX 73 57 55 58 58 59 72 60 91 61 56 62 57 63 71 65 92 66 59 67
REMARK SMILES IDX 43 68 44 69 52 70 45 71 47 72 53 73 46 74 48 75 49 76 50 77
REMARK SMILES IDX 51 78 75 79 76 80 84 81 77 82 79 83 85 84 78 85 80 86 81 87
REMARK SMILES IDX 82 88 83 89 60 90 61 91 69 92 62 93 64 94 70 95 63 96 65 97
REMARK SMILES IDX 66 98 67 99 68 100
REMARK H PARENT 26 7 31 34 90 53 58 64
REMARK Flexibility Score: inf
ROOT
ATOM      1  C   UNL A   1      32.797  30.437  26.911  1.00  0.00     0.023 C 
ENDROOT
BRANCH   1   2
ATOM      2  C   UNL A   1      32.136  29.076  27.168  1.00  0.00     0.023 C 
BRANCH   2   3
ATOM      3  C   UNL A   1      31.926  28.233  25.914  1.00  0.00     0.116 C 
BRANCH   3   4
ATOM      4  N   UNL A   1      33.098  28.214  25.058  1.00  0.00    -0.355 N 
ATOM      5  C   UNL A   1      33.310  27.498  23.916  1.00  0.00     0.239 C 
ATOM      6  O   UNL A   1      34.367  27.681  23.306  1.00  0.00    -0.273 OA
ATOM      7  H   UNL A   1      33.840  28.797  25.339  1.00  0.00     0.163 HD
BRANCH   5   8
ATOM      8  C   UNL A   1      32.241  26.568  23.371  1.00  0.00     0.222 C 
BRANCH   8   9
ATOM      9  N   UNL A   1      32.268  25.234  23.960  1.00  0.00    -0.335 N 
ATOM     10  C   UNL A   1      29.039  22.684  27.842  1.00  0.00     0.044 C 
ATOM     11  C   UNL A   1      29.803  23.373  26.751  1.00  0.00    -0.050 A 
ATOM     12  C   UNL A   1      29.346  24.583  26.230  1.00  0.00     0.005 A 
ATOM     13  C   UNL A   1      31.021  22.843  26.297  1.00  0.00     0.014 A 
ATOM     14  C   UNL A   1      30.067  25.269  25.247  1.00  0.00     0.027 A 
ATOM     15  C   UNL A   1      31.776  23.523  25.316  1.00  0.00     0.008 A 
ATOM     16  C   UNL A   1      31.295  24.735  24.816  1.00  0.00     0.049 A 
ATOM     17  C   UNL A   1      33.020  23.263  24.669  1.00  0.00     0.011 A 
ATOM     18  C   UNL A   1      33.270  24.297  23.779  1.00  0.00     0.024 A 
ATOM     19  C   UNL A   1      34.413  24.471  22.832  1.00  0.00     0.065 C 
BRANCH  17  20
ATOM     20  C   UNL A   1      33.913  22.123  24.855  1.00  0.00    -0.005 A 
ATOM     21  C   UNL A   1      35.153  22.366  25.440  1.00  0.00     0.029 A 
ATOM     22  C   UNL A   1      33.567  20.811  24.433  1.00  0.00     0.008 A 
ATOM     23  C   UNL A   1      36.002  21.298  25.607  1.00  0.00     0.112 A 
ATOM     24  C   UNL A   1      34.514  19.783  24.647  1.00  0.00     0.074 A 
ATOM     25  C   UNL A   1      32.339  20.491  23.805  1.00  0.00     0.011 A 
ATOM     26  N   UNL A   1      35.705  20.036  25.235  1.00  0.00    -0.256 NA
ATOM     27  C   UNL A   1      34.196  18.481  24.228  1.00  0.00    -0.025 A 
ATOM     28  C   UNL A   1      32.044  19.202  23.385  1.00  0.00     0.001 A 
ATOM     29  C   UNL A   1      35.149  17.329  24.422  1.00  0.00     0.047 C 
ATOM     30  C   UNL A   1      32.972  18.197  23.594  1.00  0.00     0.005 A 
ENDBRANCH  17  20
ENDBRANCH   8   9
ENDBRANCH   5   8
ENDBRANCH   3   4
ENDBRANCH   2   3
ENDBRANCH   1   2
BRANCH   1  31
ATOM     31  C   UNL A   1      34.155  30.592  27.597  1.00  0.00     0.116 C 
BRANCH  31  32
ATOM     32  N   UNL A   1      34.141  31.557  28.676  1.00  0.00    -0.352 N 
ATOM     33  C   UNL A   1      35.047  31.979  29.609  1.00  0.00     0.251 C 
ATOM     34  H   UNL A   1      33.275  32.018  28.758  1.00  0.00     0.163 HD
ATOM     35  O   UNL A   1      34.690  32.930  30.309  1.00  0.00    -0.269 OA
BRANCH  33  36
ATOM     36  C   UNL A   1      36.352  31.327  29.879  1.00  0.00     0.039 A 
ATOM     37  C   UNL A   1      37.590  31.966  29.856  1.00  0.00     0.014 A 
ATOM     38  C   UNL A   1      36.311  29.933  30.074  1.00  0.00     0.014 A 
ATOM     39  C   UNL A   1      38.759  31.226  29.865  1.00  0.00     0.010 A 
ATOM     40  C   UNL A   1      37.478  29.188  30.119  1.00  0.00     0.010 A 
ATOM     41  C   UNL A   1      38.693  29.836  29.936  1.00  0.00    -0.014 A 
BRANCH  41  42
ATOM     42  C   UNL A   1      39.951  29.110  29.876  1.00  0.00     0.031 A 
ATOM     43  C   UNL A   1      40.593  28.911  31.206  1.00  0.00     0.074 A 
ATOM     44  C   UNL A   1      40.443  28.630  28.716  1.00  0.00     0.049 A 
ATOM     45  N   UNL A   1      41.709  29.404  31.637  1.00  0.00    -0.248 NA
ATOM     46  C   UNL A   1      39.806  28.217  32.239  1.00  0.00     0.031 C 
ATOM     47  C   UNL A   1      39.775  28.570  27.411  1.00  0.00     0.029 A 
ATOM     48  N   UNL A   1      41.612  27.974  28.489  1.00  0.00    -0.354 N 
ATOM     49  C   UNL A   1      41.868  28.894  32.925  1.00  0.00     0.074 A 
ATOM     50  C   UNL A   1      40.605  28.315  33.301  1.00  0.00     0.031 C 
ATOM     51  C   UNL A   1      40.425  27.688  26.618  1.00  0.00     0.029 A 
ATOM     52  C   UNL A   1      41.631  27.253  27.296  1.00  0.00     0.049 A 
ATOM     53  H   UNL A   1      42.376  28.006  29.109  1.00  0.00     0.167 HD
ATOM     54  C   UNL A   1      43.091  28.758  33.504  1.00  0.00     0.034 A 
ATOM     55  C   UNL A   1      42.548  26.316  26.955  1.00  0.00     0.034 A 
ATOM     56  C   UNL A   1      44.105  29.484  32.798  1.00  0.00     0.049 A 
ATOM     57  C   UNL A   1      43.746  26.585  27.777  1.00  0.00     0.074 A 
ATOM     58  C   UNL A   1      44.466  30.803  32.646  1.00  0.00     0.029 A 
ATOM     59  N   UNL A   1      44.692  28.777  31.780  1.00  0.00    -0.354 N 
ATOM     60  N   UNL A   1      44.471  27.660  27.662  1.00  0.00    -0.248 NA
ATOM     61  C   UNL A   1      43.974  25.797  28.980  1.00  0.00     0.031 C 
ATOM     62  C   UNL A   1      45.022  30.898  31.336  1.00  0.00     0.029 A 
ATOM     63  C   UNL A   1      45.014  29.627  30.758  1.00  0.00     0.049 A 
ATOM     64  H   UNL A   1      44.856  27.806  31.784  1.00  0.00     0.167 HD
ATOM     65  C   UNL A   1      44.907  27.911  28.950  1.00  0.00     0.074 A 
ATOM     66  C   UNL A   1      44.730  26.655  29.668  1.00  0.00     0.031 C 
ATOM     67  C   UNL A   1      45.083  29.191  29.383  1.00  0.00     0.034 A 
BRANCH  54  68
ATOM     68  C   UNL A   1      43.448  27.632  34.441  1.00  0.00     0.023 A 
ATOM     69  C   UNL A   1      43.864  27.947  35.752  1.00  0.00     0.012 A 
ATOM     70  C   UNL A   1      43.656  26.305  33.997  1.00  0.00     0.148 A 
ATOM     71  C   UNL A   1      44.442  26.980  36.584  1.00  0.00     0.002 A 
ATOM     72  C   UNL A   1      44.163  25.332  34.850  1.00  0.00     0.091 A 
ATOM     73  F   UNL A   1      43.488  26.010  32.703  1.00  0.00    -0.205 F 
ATOM     74  C   UNL A   1      44.576  25.667  36.140  1.00  0.00     0.022 A 
BRANCH  72  75
ATOM     75  S   UNL A   1      44.333  23.620  34.334  1.00  0.00     0.127 S 
ATOM     76  O   UNL A   1      44.992  23.028  35.490  1.00  0.00    -0.237 OA
ATOM     77  O   UNL A   1      42.939  23.228  34.138  1.00  0.00    -0.237 OA
ATOM     78  O   UNL A   1      45.117  23.667  33.100  1.00  0.00    -0.744 OA
ENDBRANCH  72  75
ENDBRANCH  54  68
BRANCH  55  79
ATOM     79  C   UNL A   1      42.418  25.042  26.207  1.00  0.00     0.023 A 
ATOM     80  C   UNL A   1      43.454  24.679  25.317  1.00  0.00     0.012 A 
ATOM     81  C   UNL A   1      41.512  24.041  26.615  1.00  0.00     0.148 A 
ATOM     82  C   UNL A   1      43.646  23.348  24.931  1.00  0.00     0.002 A 
ATOM     83  C   UNL A   1      41.704  22.718  26.223  1.00  0.00     0.091 A 
ATOM     84  F   UNL A   1      40.533  24.363  27.470  1.00  0.00    -0.205 F 
ATOM     85  C   UNL A   1      42.784  22.365  25.402  1.00  0.00     0.022 A 
BRANCH  83  86
ATOM     86  S   UNL A   1      40.649  21.384  26.806  1.00  0.00     0.127 S 
ATOM     87  O   UNL A   1      40.815  21.474  28.257  1.00  0.00    -0.237 OA
ATOM     88  O   UNL A   1      39.339  21.798  26.314  1.00  0.00    -0.237 OA
ATOM     89  O   UNL A   1      41.194  20.166  26.218  1.00  0.00    -0.744 OA
ENDBRANCH  83  86
ENDBRANCH  55  79
BRANCH  67  90
ATOM     90  C   UNL A   1      45.159  30.261  28.332  1.00  0.00     0.023 A 
ATOM     91  C   UNL A   1      44.023  30.747  27.652  1.00  0.00     0.012 A 
ATOM     92  C   UNL A   1      46.401  30.878  28.126  1.00  0.00     0.148 A 
ATOM     93  C   UNL A   1      44.131  31.832  26.777  1.00  0.00     0.002 A 
ATOM     94  C   UNL A   1      46.496  31.977  27.286  1.00  0.00     0.091 A 
ATOM     95  F   UNL A   1      47.462  30.396  28.790  1.00  0.00    -0.205 F 
ATOM     96  C   UNL A   1      45.365  32.455  26.602  1.00  0.00     0.022 A 
BRANCH  94  97
ATOM     97  S   UNL A   1      48.029  32.888  27.101  1.00  0.00     0.127 S 
ATOM     98  O   UNL A   1      48.883  31.918  26.420  1.00  0.00    -0.237 OA
ATOM     99  O   UNL A   1      47.612  34.024  26.277  1.00  0.00    -0.237 OA
ATOM    100  O   UNL A   1      48.452  33.250  28.449  1.00  0.00    -0.744 OA
ENDBRANCH  94  97
ENDBRANCH  67  90
ENDBRANCH  41  42
ENDBRANCH  33  36
ENDBRANCH  31  32
ENDBRANCH   1  31
TORSDOF 16
ENDMDL
