MODEL 1
REMARK VINA RESULT:     -12.6      0.000      0.000
REMARK SMILES CC[C@@H](C)c1ccccc1NC(=O)[C@@H]1[C@@H](C(=O)NCCCCNC(=O)c2ccc(-c3c4nc(c(-c5cccc(S(=O)(=O)[O-])c5F)c5ccc([nH]5)c(-c5cccc(S(=O)(=O)[O-])c5F)c5nc(c(-c6cccc(S(=O)(=O)[O-])c6F)c6ccc3[nH]6)C=C5)C=C4)cc2)[C@@H]2C=C[C@H]1C2
REMARK SMILES IDX 20 1 19 2 18 3 16 4 17 5 15 7 14 8 92 9 89 10 91 11 93 12
REMARK SMILES IDX 90 13 12 14 11 15 13 17 10 18 5 19 6 20 7 21 9 22 8 23 3 24
REMARK SMILES IDX 4 25 2 26 1 27 21 28 22 29 23 30 24 31 25 33 26 34 27 35
REMARK SMILES IDX 88 36 28 37 87 38 29 39 30 40 31 41 81 42 32 43 86 44 80 45
REMARK SMILES IDX 82 46 33 47 85 48 79 49 78 50 34 52 66 53 46 54 65 55 47 56
REMARK SMILES IDX 50 57 64 58 83 59 48 60 49 61 63 63 84 64 51 65 35 66 36 67
REMARK SMILES IDX 44 68 37 69 39 70 45 71 38 72 40 73 41 74 42 75 43 76 67 77
REMARK SMILES IDX 68 78 76 79 69 80 71 81 77 82 70 83 72 84 73 85 74 86 75 87
REMARK SMILES IDX 52 88 53 89 61 90 54 91 56 92 62 93 55 94 57 95 58 96 59 97
REMARK SMILES IDX 60 98
REMARK H PARENT 18 6 11 16 23 32 82 51 50 62
REMARK Flexibility Score: inf
ROOT
ATOM      1  C   UNL A   1      32.349  29.407  27.266  1.00  0.00     0.023 C 
ENDROOT
BRANCH   1   2
ATOM      2  C   UNL A   1      33.613  28.617  26.963  1.00  0.00     0.116 C 
BRANCH   2   3
ATOM      3  N   UNL A   1      34.083  28.725  25.603  1.00  0.00    -0.356 N 
ATOM      4  C   UNL A   1      33.685  28.092  24.473  1.00  0.00     0.224 C 
ATOM      5  O   UNL A   1      34.060  28.601  23.409  1.00  0.00    -0.275 OA
ATOM      6  H   UNL A   1      34.816  29.367  25.474  1.00  0.00     0.163 HD
BRANCH   4   7
ATOM      7  C   UNL A   1      32.930  26.759  24.418  1.00  0.00     0.098 C 
ATOM      8  C   UNL A   1      32.423  26.533  22.962  1.00  0.00     0.099 C 
ATOM      9  C   UNL A   1      30.899  26.274  23.144  1.00  0.00     0.025 C 
ATOM     10  C   UNL A   1      31.633  26.510  25.232  1.00  0.00     0.025 C 
ATOM     11  C   UNL A   1      30.706  24.940  23.813  1.00  0.00    -0.027 C 
ATOM     12  C   UNL A   1      30.587  27.179  24.341  1.00  0.00     0.017 C 
ATOM     13  C   UNL A   1      31.151  25.078  25.067  1.00  0.00    -0.027 C 
BRANCH   8  14
ATOM     14  C   UNL A   1      33.018  25.578  21.934  1.00  0.00     0.228 C 
ATOM     15  N   UNL A   1      33.375  24.279  21.979  1.00  0.00    -0.326 N 
ATOM     16  H   UNL A   1      33.811  24.043  21.129  1.00  0.00     0.169 HD
ATOM     17  O   UNL A   1      33.213  26.075  20.803  1.00  0.00    -0.274 OA
BRANCH  15  18
ATOM     18  C   UNL A   1      33.349  23.143  22.805  1.00  0.00     0.044 A 
ATOM     19  C   UNL A   1      34.212  23.026  23.928  1.00  0.00    -0.022 A 
ATOM     20  C   UNL A   1      33.878  22.041  24.901  1.00  0.00     0.006 A 
ATOM     21  C   UNL A   1      32.818  21.152  24.741  1.00  0.00     0.000 A 
ATOM     22  C   UNL A   1      32.467  22.095  22.575  1.00  0.00     0.026 A 
ATOM     23  C   UNL A   1      32.153  21.136  23.537  1.00  0.00     0.002 A 
BRANCH  19  24
ATOM     24  C   UNL A   1      35.596  23.697  24.133  1.00  0.00     0.018 C 
ATOM     25  C   UNL A   1      36.714  22.993  23.341  1.00  0.00     0.013 C 
BRANCH  24  26
ATOM     26  C   UNL A   1      36.083  24.013  25.567  1.00  0.00     0.005 C 
ATOM     27  C   UNL A   1      37.571  23.782  25.810  1.00  0.00     0.004 C 
ENDBRANCH  24  26
ENDBRANCH  19  24
ENDBRANCH  15  18
ENDBRANCH   8  14
ENDBRANCH   4   7
ENDBRANCH   2   3
ENDBRANCH   1   2
BRANCH   1  28
ATOM     28  C   UNL A   1      32.323  30.846  26.772  1.00  0.00     0.023 C 
BRANCH  28  29
ATOM     29  C   UNL A   1      33.258  31.805  27.494  1.00  0.00     0.116 C 
BRANCH  29  30
ATOM     30  N   UNL A   1      32.751  33.171  27.572  1.00  0.00    -0.352 N 
ATOM     31  C   UNL A   1      33.149  34.205  28.389  1.00  0.00     0.251 C 
ATOM     32  H   UNL A   1      32.017  33.384  26.952  1.00  0.00     0.163 HD
ATOM     33  O   UNL A   1      32.555  35.272  28.383  1.00  0.00    -0.269 OA
BRANCH  31  34
ATOM     34  C   UNL A   1      34.278  33.973  29.307  1.00  0.00     0.039 A 
ATOM     35  C   UNL A   1      34.051  33.269  30.490  1.00  0.00     0.014 A 
ATOM     36  C   UNL A   1      35.570  34.336  28.921  1.00  0.00     0.014 A 
ATOM     37  C   UNL A   1      35.142  32.832  31.240  1.00  0.00     0.010 A 
ATOM     38  C   UNL A   1      36.651  33.817  29.616  1.00  0.00     0.010 A 
ATOM     39  C   UNL A   1      36.449  33.053  30.777  1.00  0.00    -0.014 A 
BRANCH  39  40
ATOM     40  C   UNL A   1      37.628  32.474  31.467  1.00  0.00     0.031 A 
ATOM     41  C   UNL A   1      38.383  31.342  30.826  1.00  0.00     0.074 A 
ATOM     42  C   UNL A   1      37.937  32.877  32.716  1.00  0.00     0.049 A 
ATOM     43  N   UNL A   1      39.360  30.626  31.311  1.00  0.00    -0.248 NA
ATOM     44  C   UNL A   1      37.956  30.940  29.475  1.00  0.00     0.031 C 
ATOM     45  C   UNL A   1      37.220  33.901  33.481  1.00  0.00     0.029 A 
ATOM     46  N   UNL A   1      38.918  32.451  33.577  1.00  0.00    -0.354 N 
ATOM     47  C   UNL A   1      39.632  29.660  30.350  1.00  0.00     0.074 A 
ATOM     48  C   UNL A   1      38.692  29.858  29.270  1.00  0.00     0.031 C 
ATOM     49  C   UNL A   1      37.787  34.026  34.692  1.00  0.00     0.029 A 
ATOM     50  C   UNL A   1      38.885  33.072  34.804  1.00  0.00     0.049 A 
ATOM     51  H   UNL A   1      39.582  31.763  33.339  1.00  0.00     0.167 HD
ATOM     52  C   UNL A   1      40.601  28.716  30.349  1.00  0.00     0.034 A 
ATOM     53  C   UNL A   1      39.651  32.890  35.898  1.00  0.00     0.034 A 
ATOM     54  C   UNL A   1      41.576  28.569  31.393  1.00  0.00     0.049 A 
ATOM     55  C   UNL A   1      40.762  31.874  35.846  1.00  0.00     0.074 A 
ATOM     56  C   UNL A   1      42.666  27.719  31.438  1.00  0.00     0.029 A 
ATOM     57  N   UNL A   1      41.579  29.290  32.577  1.00  0.00    -0.354 N 
ATOM     58  N   UNL A   1      41.112  31.086  34.859  1.00  0.00    -0.248 NA
ATOM     59  C   UNL A   1      41.603  31.744  37.045  1.00  0.00     0.031 C 
ATOM     60  C   UNL A   1      43.323  27.920  32.656  1.00  0.00     0.029 A 
ATOM     61  C   UNL A   1      42.648  28.903  33.363  1.00  0.00     0.049 A 
ATOM     62  H   UNL A   1      40.917  29.977  32.821  1.00  0.00     0.167 HD
ATOM     63  C   UNL A   1      42.231  30.391  35.303  1.00  0.00     0.074 A 
ATOM     64  C   UNL A   1      42.512  30.867  36.642  1.00  0.00     0.031 C 
ATOM     65  C   UNL A   1      42.948  29.431  34.669  1.00  0.00     0.034 A 
BRANCH  52  66
ATOM     66  C   UNL A   1      40.696  27.818  29.146  1.00  0.00     0.023 A 
ATOM     67  C   UNL A   1      39.868  26.679  29.066  1.00  0.00     0.012 A 
ATOM     68  C   UNL A   1      41.565  28.118  28.078  1.00  0.00     0.148 A 
ATOM     69  C   UNL A   1      39.928  25.833  27.959  1.00  0.00     0.002 A 
ATOM     70  C   UNL A   1      41.587  27.294  26.959  1.00  0.00     0.091 A 
ATOM     71  F   UNL A   1      42.362  29.191  28.184  1.00  0.00    -0.205 F 
ATOM     72  C   UNL A   1      40.780  26.146  26.904  1.00  0.00     0.022 A 
BRANCH  70  73
ATOM     73  S   UNL A   1      42.592  27.653  25.514  1.00  0.00     0.127 S 
ATOM     74  O   UNL A   1      42.329  26.485  24.675  1.00  0.00    -0.237 OA
ATOM     75  O   UNL A   1      41.998  28.899  25.028  1.00  0.00    -0.237 OA
ATOM     76  O   UNL A   1      43.959  27.784  26.000  1.00  0.00    -0.744 OA
ENDBRANCH  70  73
ENDBRANCH  52  66
BRANCH  53  77
ATOM     77  C   UNL A   1      39.445  33.740  37.105  1.00  0.00     0.023 A 
ATOM     78  C   UNL A   1      39.894  35.075  37.087  1.00  0.00     0.012 A 
ATOM     79  C   UNL A   1      38.784  33.254  38.249  1.00  0.00     0.148 A 
ATOM     80  C   UNL A   1      39.715  35.903  38.197  1.00  0.00     0.002 A 
ATOM     81  C   UNL A   1      38.563  34.099  39.332  1.00  0.00     0.091 A 
ATOM     82  F   UNL A   1      38.377  31.977  38.254  1.00  0.00    -0.205 F 
ATOM     83  C   UNL A   1      39.041  35.419  39.313  1.00  0.00     0.022 A 
BRANCH  81  84
ATOM     84  S   UNL A   1      37.589  33.600  40.756  1.00  0.00     0.127 S 
ATOM     85  O   UNL A   1      38.460  32.609  41.383  1.00  0.00    -0.237 OA
ATOM     86  O   UNL A   1      37.457  34.858  41.492  1.00  0.00    -0.237 OA
ATOM     87  O   UNL A   1      36.335  33.094  40.212  1.00  0.00    -0.744 OA
ENDBRANCH  81  84
ENDBRANCH  53  77
BRANCH  65  88
ATOM     88  C   UNL A   1      44.127  28.843  35.396  1.00  0.00     0.023 A 
ATOM     89  C   UNL A   1      45.403  29.415  35.226  1.00  0.00     0.012 A 
ATOM     90  C   UNL A   1      43.953  27.792  36.318  1.00  0.00     0.148 A 
ATOM     91  C   UNL A   1      46.495  28.933  35.947  1.00  0.00     0.002 A 
ATOM     92  C   UNL A   1      45.037  27.349  37.066  1.00  0.00     0.091 A 
ATOM     93  F   UNL A   1      42.733  27.252  36.450  1.00  0.00    -0.205 F 
ATOM     94  C   UNL A   1      46.309  27.912  36.875  1.00  0.00     0.022 A 
BRANCH  92  95
ATOM     95  S   UNL A   1      44.873  26.104  38.351  1.00  0.00     0.127 S 
ATOM     96  O   UNL A   1      46.262  25.692  38.545  1.00  0.00    -0.237 OA
ATOM     97  O   UNL A   1      44.304  26.873  39.459  1.00  0.00    -0.237 OA
ATOM     98  O   UNL A   1      43.987  25.083  37.809  1.00  0.00    -0.744 OA
ENDBRANCH  92  95
ENDBRANCH  65  88
ENDBRANCH  39  40
ENDBRANCH  31  34
ENDBRANCH  29  30
ENDBRANCH  28  29
ENDBRANCH   1  28
TORSDOF 18
ENDMDL
MODEL 2
REMARK VINA RESULT:     -12.2      5.759     11.615
REMARK SMILES CC[C@@H](C)c1ccccc1NC(=O)[C@@H]1[C@@H](C(=O)NCCCCNC(=O)c2ccc(-c3c4nc(c(-c5cccc(S(=O)(=O)[O-])c5F)c5ccc([nH]5)c(-c5cccc(S(=O)(=O)[O-])c5F)c5nc(c(-c6cccc(S(=O)(=O)[O-])c6F)c6ccc3[nH]6)C=C5)C=C4)cc2)[C@@H]2C=C[C@H]1C2
REMARK SMILES IDX 20 1 19 2 18 3 16 4 17 5 15 7 14 8 92 9 89 10 91 11 93 12
REMARK SMILES IDX 90 13 12 14 11 15 13 17 10 18 5 19 6 20 7 21 9 22 8 23 3 24
REMARK SMILES IDX 4 25 2 26 1 27 21 28 22 29 23 30 24 31 25 33 26 34 27 35
REMARK SMILES IDX 88 36 28 37 87 38 29 39 30 40 31 41 81 42 32 43 86 44 80 45
REMARK SMILES IDX 82 46 33 47 85 48 79 49 78 50 34 52 66 53 46 54 65 55 47 56
REMARK SMILES IDX 50 57 64 58 83 59 48 60 49 61 63 63 84 64 51 65 35 66 36 67
REMARK SMILES IDX 44 68 37 69 39 70 45 71 38 72 40 73 41 74 42 75 43 76 67 77
REMARK SMILES IDX 68 78 76 79 69 80 71 81 77 82 70 83 72 84 73 85 74 86 75 87
REMARK SMILES IDX 52 88 53 89 61 90 54 91 56 92 62 93 55 94 57 95 58 96 59 97
REMARK SMILES IDX 60 98
REMARK H PARENT 18 6 11 16 23 32 82 51 50 62
REMARK Flexibility Score: inf
ROOT
ATOM      1  C   UNL A   1      37.575  22.514  24.725  1.00  0.00     0.023 C 
ENDROOT
BRANCH   1   2
ATOM      2  C   UNL A   1      37.034  23.531  25.717  1.00  0.00     0.116 C 
BRANCH   2   3
ATOM      3  N   UNL A   1      36.084  23.005  26.667  1.00  0.00    -0.356 N 
ATOM      4  C   UNL A   1      34.786  22.646  26.519  1.00  0.00     0.224 C 
ATOM      5  O   UNL A   1      34.313  21.949  27.426  1.00  0.00    -0.275 OA
ATOM      6  H   UNL A   1      36.439  22.885  27.576  1.00  0.00     0.163 HD
BRANCH   4   7
ATOM      7  C   UNL A   1      33.851  23.128  25.405  1.00  0.00     0.098 C 
ATOM      8  C   UNL A   1      32.377  22.919  25.867  1.00  0.00     0.099 C 
ATOM      9  C   UNL A   1      31.746  22.095  24.705  1.00  0.00     0.025 C 
ATOM     10  C   UNL A   1      33.825  22.467  24.003  1.00  0.00     0.025 C 
ATOM     11  C   UNL A   1      31.631  22.974  23.489  1.00  0.00    -0.027 C 
ATOM     12  C   UNL A   1      32.943  21.245  24.263  1.00  0.00     0.017 C 
ATOM     13  C   UNL A   1      32.880  23.202  23.067  1.00  0.00    -0.027 C 
BRANCH   8  14
ATOM     14  C   UNL A   1      31.417  23.999  26.350  1.00  0.00     0.228 C 
ATOM     15  N   UNL A   1      31.212  25.281  25.989  1.00  0.00    -0.326 N 
ATOM     16  H   UNL A   1      30.559  25.682  26.605  1.00  0.00     0.169 HD
ATOM     17  O   UNL A   1      30.640  23.644  27.263  1.00  0.00    -0.274 OA
BRANCH  15  18
ATOM     18  C   UNL A   1      31.599  26.250  25.047  1.00  0.00     0.044 A 
ATOM     19  C   UNL A   1      32.641  27.175  25.324  1.00  0.00    -0.022 A 
ATOM     20  C   UNL A   1      33.207  27.863  24.213  1.00  0.00     0.006 A 
ATOM     21  C   UNL A   1      32.718  27.732  22.916  1.00  0.00     0.000 A 
ATOM     22  C   UNL A   1      30.995  26.335  23.799  1.00  0.00     0.026 A 
ATOM     23  C   UNL A   1      31.560  27.016  22.722  1.00  0.00     0.002 A 
BRANCH  19  24
ATOM     24  C   UNL A   1      33.110  27.687  26.711  1.00  0.00     0.018 C 
ATOM     25  C   UNL A   1      31.951  28.263  27.547  1.00  0.00     0.013 C 
BRANCH  24  26
ATOM     26  C   UNL A   1      34.341  28.619  26.802  1.00  0.00     0.005 C 
ATOM     27  C   UNL A   1      34.042  30.041  27.270  1.00  0.00     0.004 C 
ENDBRANCH  24  26
ENDBRANCH  19  24
ENDBRANCH  15  18
ENDBRANCH   8  14
ENDBRANCH   4   7
ENDBRANCH   2   3
ENDBRANCH   1   2
BRANCH   1  28
ATOM     28  C   UNL A   1      37.985  21.166  25.300  1.00  0.00     0.023 C 
BRANCH  28  29
ATOM     29  C   UNL A   1      39.281  21.162  26.099  1.00  0.00     0.116 C 
BRANCH  29  30
ATOM     30  N   UNL A   1      40.023  19.909  26.005  1.00  0.00    -0.352 N 
ATOM     31  C   UNL A   1      41.378  19.687  26.098  1.00  0.00     0.251 C 
ATOM     32  H   UNL A   1      39.475  19.106  25.852  1.00  0.00     0.163 HD
ATOM     33  O   UNL A   1      41.845  18.574  25.912  1.00  0.00    -0.269 OA
BRANCH  31  34
ATOM     34  C   UNL A   1      42.255  20.837  26.380  1.00  0.00     0.039 A 
ATOM     35  C   UNL A   1      42.713  21.611  25.312  1.00  0.00     0.014 A 
ATOM     36  C   UNL A   1      42.501  21.214  27.701  1.00  0.00     0.014 A 
ATOM     37  C   UNL A   1      43.333  22.833  25.576  1.00  0.00     0.010 A 
ATOM     38  C   UNL A   1      43.028  22.471  27.956  1.00  0.00     0.010 A 
ATOM     39  C   UNL A   1      43.441  23.297  26.897  1.00  0.00    -0.014 A 
BRANCH  39  40
ATOM     40  C   UNL A   1      43.955  24.653  27.206  1.00  0.00     0.031 A 
ATOM     41  C   UNL A   1      43.016  25.702  27.732  1.00  0.00     0.074 A 
ATOM     42  C   UNL A   1      45.228  24.973  26.896  1.00  0.00     0.049 A 
ATOM     43  N   UNL A   1      43.237  26.970  27.953  1.00  0.00    -0.248 NA
ATOM     44  C   UNL A   1      41.633  25.277  28.010  1.00  0.00     0.031 C 
ATOM     45  C   UNL A   1      46.210  24.068  26.293  1.00  0.00     0.029 A 
ATOM     46  N   UNL A   1      45.907  26.161  27.014  1.00  0.00    -0.354 N 
ATOM     47  C   UNL A   1      42.016  27.503  28.347  1.00  0.00     0.074 A 
ATOM     48  C   UNL A   1      41.049  26.430  28.299  1.00  0.00     0.031 C 
ATOM     49  C   UNL A   1      47.362  24.729  26.099  1.00  0.00     0.029 A 
ATOM     50  C   UNL A   1      47.195  26.112  26.534  1.00  0.00     0.049 A 
ATOM     51  H   UNL A   1      45.508  26.972  27.405  1.00  0.00     0.167 HD
ATOM     52  C   UNL A   1      41.733  28.763  28.748  1.00  0.00     0.034 A 
ATOM     53  C   UNL A   1      48.134  27.076  26.448  1.00  0.00     0.034 A 
ATOM     54  C   UNL A   1      42.712  29.807  28.860  1.00  0.00     0.049 A 
ATOM     55  C   UNL A   1      47.809  28.454  26.959  1.00  0.00     0.074 A 
ATOM     56  C   UNL A   1      42.553  31.085  29.362  1.00  0.00     0.029 A 
ATOM     57  N   UNL A   1      44.037  29.691  28.466  1.00  0.00    -0.354 N 
ATOM     58  N   UNL A   1      46.694  28.895  27.490  1.00  0.00    -0.248 NA
ATOM     59  C   UNL A   1      48.879  29.460  26.891  1.00  0.00     0.031 C 
ATOM     60  C   UNL A   1      43.781  31.748  29.261  1.00  0.00     0.029 A 
ATOM     61  C   UNL A   1      44.706  30.877  28.706  1.00  0.00     0.049 A 
ATOM     62  H   UNL A   1      44.440  28.884  28.072  1.00  0.00     0.167 HD
ATOM     63  C   UNL A   1      46.936  30.215  27.848  1.00  0.00     0.074 A 
ATOM     64  C   UNL A   1      48.313  30.497  27.492  1.00  0.00     0.031 C 
ATOM     65  C   UNL A   1      46.092  31.120  28.402  1.00  0.00     0.034 A 
BRANCH  52  66
ATOM     66  C   UNL A   1      40.318  29.058  29.166  1.00  0.00     0.023 A 
ATOM     67  C   UNL A   1      39.372  29.430  28.189  1.00  0.00     0.012 A 
ATOM     68  C   UNL A   1      39.911  28.927  30.508  1.00  0.00     0.148 A 
ATOM     69  C   UNL A   1      38.052  29.702  28.545  1.00  0.00     0.002 A 
ATOM     70  C   UNL A   1      38.582  29.157  30.848  1.00  0.00     0.091 A 
ATOM     71  F   UNL A   1      40.830  28.597  31.427  1.00  0.00    -0.205 F 
ATOM     72  C   UNL A   1      37.656  29.556  29.871  1.00  0.00     0.022 A 
BRANCH  70  73
ATOM     73  S   UNL A   1      37.957  28.920  32.515  1.00  0.00     0.127 S 
ATOM     74  O   UNL A   1      38.822  29.814  33.284  1.00  0.00    -0.237 OA
ATOM     75  O   UNL A   1      36.570  29.372  32.391  1.00  0.00    -0.237 OA
ATOM     76  O   UNL A   1      38.108  27.500  32.801  1.00  0.00    -0.744 OA
ENDBRANCH  70  73
ENDBRANCH  52  66
BRANCH  53  77
ATOM     77  C   UNL A   1      49.492  26.751  25.927  1.00  0.00     0.023 A 
ATOM     78  C   UNL A   1      50.377  26.011  26.736  1.00  0.00     0.012 A 
ATOM     79  C   UNL A   1      49.903  27.135  24.636  1.00  0.00     0.148 A 
ATOM     80  C   UNL A   1      51.655  25.684  26.281  1.00  0.00     0.002 A 
ATOM     81  C   UNL A   1      51.159  26.762  24.169  1.00  0.00     0.091 A 
ATOM     82  F   UNL A   1      49.053  27.851  23.886  1.00  0.00    -0.205 F 
ATOM     83  C   UNL A   1      52.042  26.050  24.996  1.00  0.00     0.022 A 
BRANCH  81  84
ATOM     84  S   UNL A   1      51.687  27.075  22.481  1.00  0.00     0.127 S 
ATOM     85  O   UNL A   1      52.875  26.232  22.377  1.00  0.00    -0.237 OA
ATOM     86  O   UNL A   1      50.533  26.612  21.709  1.00  0.00    -0.237 OA
ATOM     87  O   UNL A   1      51.916  28.512  22.406  1.00  0.00    -0.744 OA
ENDBRANCH  81  84
ENDBRANCH  53  77
BRANCH  65  88
ATOM     88  C   UNL A   1      46.630  32.496  28.688  1.00  0.00     0.023 A 
ATOM     89  C   UNL A   1      47.229  32.762  29.934  1.00  0.00     0.012 A 
ATOM     90  C   UNL A   1      46.628  33.491  27.690  1.00  0.00     0.148 A 
ATOM     91  C   UNL A   1      47.801  34.008  30.191  1.00  0.00     0.002 A 
ATOM     92  C   UNL A   1      47.240  34.714  27.938  1.00  0.00     0.091 A 
ATOM     93  F   UNL A   1      46.036  33.221  26.517  1.00  0.00    -0.205 F 
ATOM     94  C   UNL A   1      47.818  34.976  29.191  1.00  0.00     0.022 A 
BRANCH  92  95
ATOM     95  S   UNL A   1      47.393  35.985  26.679  1.00  0.00     0.127 S 
ATOM     96  O   UNL A   1      48.149  35.286  25.640  1.00  0.00    -0.237 OA
ATOM     97  O   UNL A   1      45.996  36.258  26.339  1.00  0.00    -0.237 OA
ATOM     98  O   UNL A   1      48.087  37.098  27.314  1.00  0.00    -0.744 OA
ENDBRANCH  92  95
ENDBRANCH  65  88
ENDBRANCH  39  40
ENDBRANCH  31  34
ENDBRANCH  29  30
ENDBRANCH  28  29
ENDBRANCH   1  28
TORSDOF 18
ENDMDL
MODEL 3
REMARK VINA RESULT:     -12.2      5.462      8.798
REMARK SMILES CC[C@@H](C)c1ccccc1NC(=O)[C@@H]1[C@@H](C(=O)NCCCCNC(=O)c2ccc(-c3c4nc(c(-c5cccc(S(=O)(=O)[O-])c5F)c5ccc([nH]5)c(-c5cccc(S(=O)(=O)[O-])c5F)c5nc(c(-c6cccc(S(=O)(=O)[O-])c6F)c6ccc3[nH]6)C=C5)C=C4)cc2)[C@@H]2C=C[C@H]1C2
REMARK SMILES IDX 20 1 19 2 18 3 16 4 17 5 15 7 14 8 92 9 89 10 91 11 93 12
REMARK SMILES IDX 90 13 12 14 11 15 13 17 10 18 5 19 6 20 7 21 9 22 8 23 3 24
REMARK SMILES IDX 4 25 2 26 1 27 21 28 22 29 23 30 24 31 25 33 26 34 27 35
REMARK SMILES IDX 88 36 28 37 87 38 29 39 30 40 31 41 81 42 32 43 86 44 80 45
REMARK SMILES IDX 82 46 33 47 85 48 79 49 78 50 34 52 66 53 46 54 65 55 47 56
REMARK SMILES IDX 50 57 64 58 83 59 48 60 49 61 63 63 84 64 51 65 35 66 36 67
REMARK SMILES IDX 44 68 37 69 39 70 45 71 38 72 40 73 41 74 42 75 43 76 67 77
REMARK SMILES IDX 68 78 76 79 69 80 71 81 77 82 70 83 72 84 73 85 74 86 75 87
REMARK SMILES IDX 52 88 53 89 61 90 54 91 56 92 62 93 55 94 57 95 58 96 59 97
REMARK SMILES IDX 60 98
REMARK H PARENT 18 6 11 16 23 32 82 51 50 62
REMARK Flexibility Score: inf
ROOT
ATOM      1  C   UNL A   1      34.537  20.984  26.015  1.00  0.00     0.023 C 
ENDROOT
BRANCH   1   2
ATOM      2  C   UNL A   1      34.523  22.185  26.947  1.00  0.00     0.116 C 
BRANCH   2   3
ATOM      3  N   UNL A   1      33.219  22.551  27.443  1.00  0.00    -0.356 N 
ATOM      4  C   UNL A   1      32.177  23.166  26.834  1.00  0.00     0.224 C 
ATOM      5  O   UNL A   1      31.086  23.078  27.412  1.00  0.00    -0.275 OA
ATOM      6  H   UNL A   1      33.058  22.313  28.384  1.00  0.00     0.163 HD
BRANCH   4   7
ATOM      7  C   UNL A   1      32.270  24.043  25.581  1.00  0.00     0.098 C 
ATOM      8  C   UNL A   1      30.827  24.415  25.124  1.00  0.00     0.099 C 
ATOM      9  C   UNL A   1      30.795  23.978  23.630  1.00  0.00     0.025 C 
ATOM     10  C   UNL A   1      32.883  23.525  24.253  1.00  0.00     0.025 C 
ATOM     11  C   UNL A   1      31.682  24.895  22.833  1.00  0.00    -0.027 C 
ATOM     12  C   UNL A   1      31.707  22.746  23.663  1.00  0.00     0.017 C 
ATOM     13  C   UNL A   1      32.938  24.627  23.209  1.00  0.00    -0.027 C 
BRANCH   8  14
ATOM     14  C   UNL A   1      30.138  25.761  25.312  1.00  0.00     0.228 C 
ATOM     15  N   UNL A   1      30.587  26.995  25.615  1.00  0.00    -0.326 N 
ATOM     16  H   UNL A   1      29.814  27.591  25.738  1.00  0.00     0.169 HD
ATOM     17  O   UNL A   1      28.898  25.746  25.144  1.00  0.00    -0.274 OA
BRANCH  15  18
ATOM     18  C   UNL A   1      31.765  27.734  25.818  1.00  0.00     0.044 A 
ATOM     19  C   UNL A   1      32.315  28.546  24.790  1.00  0.00    -0.022 A 
ATOM     20  C   UNL A   1      33.273  29.524  25.181  1.00  0.00     0.006 A 
ATOM     21  C   UNL A   1      33.744  29.639  26.486  1.00  0.00     0.000 A 
ATOM     22  C   UNL A   1      32.431  27.722  27.037  1.00  0.00     0.026 A 
ATOM     23  C   UNL A   1      33.370  28.685  27.404  1.00  0.00     0.002 A 
BRANCH  19  24
ATOM     24  C   UNL A   1      32.157  28.368  23.257  1.00  0.00     0.018 C 
ATOM     25  C   UNL A   1      33.483  28.580  22.501  1.00  0.00     0.013 C 
BRANCH  24  26
ATOM     26  C   UNL A   1      31.008  29.096  22.521  1.00  0.00     0.005 C 
ATOM     27  C   UNL A   1      29.952  29.721  23.428  1.00  0.00     0.004 C 
ENDBRANCH  24  26
ENDBRANCH  19  24
ENDBRANCH  15  18
ENDBRANCH   8  14
ENDBRANCH   4   7
ENDBRANCH   2   3
ENDBRANCH   1   2
BRANCH   1  28
ATOM     28  C   UNL A   1      35.645  20.956  24.973  1.00  0.00     0.023 C 
BRANCH  28  29
ATOM     29  C   UNL A   1      36.951  21.620  25.385  1.00  0.00     0.116 C 
BRANCH  29  30
ATOM     30  N   UNL A   1      38.068  20.690  25.510  1.00  0.00    -0.352 N 
ATOM     31  C   UNL A   1      39.323  20.897  26.036  1.00  0.00     0.251 C 
ATOM     32  H   UNL A   1      37.900  19.783  25.169  1.00  0.00     0.163 HD
ATOM     33  O   UNL A   1      40.175  20.024  25.987  1.00  0.00    -0.269 OA
BRANCH  31  34
ATOM     34  C   UNL A   1      39.627  22.218  26.615  1.00  0.00     0.039 A 
ATOM     35  C   UNL A   1      40.605  22.309  27.607  1.00  0.00     0.014 A 
ATOM     36  C   UNL A   1      39.039  23.363  26.074  1.00  0.00     0.014 A 
ATOM     37  C   UNL A   1      41.073  23.568  27.984  1.00  0.00     0.010 A 
ATOM     38  C   UNL A   1      39.576  24.604  26.381  1.00  0.00     0.010 A 
ATOM     39  C   UNL A   1      40.603  24.719  27.331  1.00  0.00    -0.014 A 
BRANCH  39  40
ATOM     40  C   UNL A   1      41.185  26.057  27.598  1.00  0.00     0.031 A 
ATOM     41  C   UNL A   1      42.594  26.354  27.166  1.00  0.00     0.074 A 
ATOM     42  C   UNL A   1      40.496  26.952  28.335  1.00  0.00     0.049 A 
ATOM     43  N   UNL A   1      43.323  27.411  27.404  1.00  0.00    -0.248 NA
ATOM     44  C   UNL A   1      43.288  25.307  26.396  1.00  0.00     0.031 C 
ATOM     45  C   UNL A   1      39.157  26.743  28.892  1.00  0.00     0.029 A 
ATOM     46  N   UNL A   1      40.841  28.207  28.772  1.00  0.00    -0.354 N 
ATOM     47  C   UNL A   1      44.571  27.139  26.859  1.00  0.00     0.074 A 
ATOM     48  C   UNL A   1      44.514  25.802  26.310  1.00  0.00     0.031 C 
ATOM     49  C   UNL A   1      38.793  27.831  29.590  1.00  0.00     0.029 A 
ATOM     50  C   UNL A   1      39.882  28.802  29.558  1.00  0.00     0.049 A 
ATOM     51  H   UNL A   1      41.696  28.640  28.544  1.00  0.00     0.167 HD
ATOM     52  C   UNL A   1      45.657  27.942  26.787  1.00  0.00     0.034 A 
ATOM     53  C   UNL A   1      39.883  29.994  30.188  1.00  0.00     0.034 A 
ATOM     54  C   UNL A   1      45.686  29.293  27.272  1.00  0.00     0.049 A 
ATOM     55  C   UNL A   1      41.082  30.893  30.039  1.00  0.00     0.074 A 
ATOM     56  C   UNL A   1      46.697  30.229  27.150  1.00  0.00     0.029 A 
ATOM     57  N   UNL A   1      44.656  29.903  27.970  1.00  0.00    -0.354 N 
ATOM     58  N   UNL A   1      42.192  30.684  29.372  1.00  0.00    -0.248 NA
ATOM     59  C   UNL A   1      41.019  32.204  30.702  1.00  0.00     0.031 C 
ATOM     60  C   UNL A   1      46.281  31.404  27.785  1.00  0.00     0.029 A 
ATOM     61  C   UNL A   1      45.007  31.201  28.292  1.00  0.00     0.049 A 
ATOM     62  H   UNL A   1      43.800  29.475  28.203  1.00  0.00     0.167 HD
ATOM     63  C   UNL A   1      42.943  31.845  29.507  1.00  0.00     0.074 A 
ATOM     64  C   UNL A   1      42.153  32.763  30.303  1.00  0.00     0.031 C 
ATOM     65  C   UNL A   1      44.183  32.121  29.033  1.00  0.00     0.034 A 
BRANCH  52  66
ATOM     66  C   UNL A   1      46.879  27.400  26.095  1.00  0.00     0.023 A 
ATOM     67  C   UNL A   1      47.030  27.596  24.707  1.00  0.00     0.012 A 
ATOM     68  C   UNL A   1      47.893  26.741  26.816  1.00  0.00     0.148 A 
ATOM     69  C   UNL A   1      48.155  27.112  24.040  1.00  0.00     0.002 A 
ATOM     70  C   UNL A   1      49.032  26.301  26.151  1.00  0.00     0.091 A 
ATOM     71  F   UNL A   1      47.719  26.543  28.131  1.00  0.00    -0.205 F 
ATOM     72  C   UNL A   1      49.159  26.475  24.763  1.00  0.00     0.022 A 
BRANCH  70  73
ATOM     73  S   UNL A   1      50.416  25.538  27.006  1.00  0.00     0.127 S 
ATOM     74  O   UNL A   1      51.340  25.284  25.901  1.00  0.00    -0.237 OA
ATOM     75  O   UNL A   1      50.837  26.600  27.920  1.00  0.00    -0.237 OA
ATOM     76  O   UNL A   1      49.878  24.354  27.660  1.00  0.00    -0.744 OA
ENDBRANCH  70  73
ENDBRANCH  52  66
BRANCH  53  77
ATOM     77  C   UNL A   1      38.681  30.438  30.948  1.00  0.00     0.023 A 
ATOM     78  C   UNL A   1      38.621  30.200  32.336  1.00  0.00     0.012 A 
ATOM     79  C   UNL A   1      37.618  31.119  30.323  1.00  0.00     0.148 A 
ATOM     80  C   UNL A   1      37.513  30.605  33.082  1.00  0.00     0.002 A 
ATOM     81  C   UNL A   1      36.541  31.566  31.082  1.00  0.00     0.091 A 
ATOM     82  F   UNL A   1      37.687  31.325  29.000  1.00  0.00    -0.205 F 
ATOM     83  C   UNL A   1      36.480  31.296  32.457  1.00  0.00     0.022 A 
BRANCH  81  84
ATOM     84  S   UNL A   1      35.231  32.579  30.384  1.00  0.00     0.127 S 
ATOM     85  O   UNL A   1      34.304  32.686  31.507  1.00  0.00    -0.237 OA
ATOM     86  O   UNL A   1      35.944  33.814  30.054  1.00  0.00    -0.237 OA
ATOM     87  O   UNL A   1      34.746  31.843  29.224  1.00  0.00    -0.744 OA
ENDBRANCH  81  84
ENDBRANCH  53  77
BRANCH  65  88
ATOM     88  C   UNL A   1      44.762  33.477  29.333  1.00  0.00     0.023 A 
ATOM     89  C   UNL A   1      45.557  33.654  30.481  1.00  0.00     0.012 A 
ATOM     90  C   UNL A   1      44.598  34.546  28.429  1.00  0.00     0.148 A 
ATOM     91  C   UNL A   1      46.165  34.883  30.737  1.00  0.00     0.002 A 
ATOM     92  C   UNL A   1      45.244  35.753  28.668  1.00  0.00     0.091 A 
ATOM     93  F   UNL A   1      43.822  34.359  27.351  1.00  0.00    -0.205 F 
ATOM     94  C   UNL A   1      46.020  35.925  29.826  1.00  0.00     0.022 A 
BRANCH  92  95
ATOM     95  S   UNL A   1      45.192  37.118  27.503  1.00  0.00     0.127 S 
ATOM     96  O   UNL A   1      46.008  36.604  26.404  1.00  0.00    -0.237 OA
ATOM     97  O   UNL A   1      43.763  37.220  27.205  1.00  0.00    -0.237 OA
ATOM     98  O   UNL A   1      45.744  38.268  28.207  1.00  0.00    -0.744 OA
ENDBRANCH  92  95
ENDBRANCH  65  88
ENDBRANCH  39  40
ENDBRANCH  31  34
ENDBRANCH  29  30
ENDBRANCH  28  29
ENDBRANCH   1  28
TORSDOF 18
ENDMDL
