MODEL 1
REMARK VINA RESULT:     -12.7      0.000      0.000
REMARK SMILES C[C@@H]1[C@H](C(=O)NCCCCNC(=O)c2ccc(-c3c4nc(c(-c5cccc(S(=O)(=O)[O-])c5F)c5ccc([nH]5)c(-c5cccc(S(=O)(=O)[O-])c5F)c5nc(c(-c6cccc(S(=O)(=O)[O-])c6F)c6ccc3[nH]6)C=C5)C=C4)cc2)CCN1C(=O)/C=C/c1cccc(Br)c1
REMARK SMILES IDX 8 1 7 2 6 3 4 4 5 5 3 7 1 8 2 9 79 10 77 11 78 12 80 13
REMARK SMILES IDX 81 14 82 15 83 16 84 17 85 18 90 19 86 20 88 21 87 22 89 23
REMARK SMILES IDX 9 24 10 25 11 26 12 27 13 29 14 30 15 31 76 32 16 33 75 34
REMARK SMILES IDX 17 35 18 36 19 37 69 38 20 39 74 40 68 41 70 42 21 43 73 44
REMARK SMILES IDX 67 45 66 46 22 48 54 49 34 50 53 51 35 52 38 53 52 54 71 55
REMARK SMILES IDX 36 56 37 57 51 59 72 60 39 61 23 62 24 63 32 64 25 65 27 66
REMARK SMILES IDX 33 67 26 68 28 69 29 70 30 71 31 72 55 73 56 74 64 75 57 76
REMARK SMILES IDX 59 77 65 78 58 79 60 80 61 81 62 82 63 83 40 84 41 85 49 86
REMARK SMILES IDX 42 87 44 88 50 89 43 90 45 91 46 92 47 93 48 94
REMARK H PARENT 6 6 11 28 70 47 38 58
REMARK Flexibility Score: inf
ROOT
ATOM      1  C   UNL A   1      34.956  21.557  26.364  1.00  0.00     0.023 C 
ENDROOT
BRANCH   1   2
ATOM      2  C   UNL A   1      33.519  21.019  26.340  1.00  0.00     0.116 C 
BRANCH   2   3
ATOM      3  N   UNL A   1      32.579  21.890  27.023  1.00  0.00    -0.356 N 
ATOM      4  C   UNL A   1      31.770  22.902  26.621  1.00  0.00     0.225 C 
ATOM      5  O   UNL A   1      31.093  23.435  27.510  1.00  0.00    -0.275 OA
ATOM      6  H   UNL A   1      32.515  21.706  27.988  1.00  0.00     0.163 HD
BRANCH   4   7
ATOM      7  C   UNL A   1      31.660  23.455  25.202  1.00  0.00     0.102 C 
ATOM      8  C   UNL A   1      33.637  25.045  25.607  1.00  0.00     0.032 C 
ATOM      9  C   UNL A   1      32.312  24.821  24.920  1.00  0.00     0.094 C 
ATOM     10  N   UNL A   1      32.463  24.863  23.460  1.00  0.00    -0.336 N 
ATOM     11  C   UNL A   1      32.049  22.581  24.018  1.00  0.00     0.037 C 
ATOM     12  C   UNL A   1      32.127  23.576  22.864  1.00  0.00     0.121 C 
BRANCH  10  13
ATOM     13  C   UNL A   1      32.860  25.912  22.653  1.00  0.00     0.246 C 
ATOM     14  O   UNL A   1      33.793  25.815  21.856  1.00  0.00    -0.270 OA
BRANCH  13  15
ATOM     15  C   UNL A   1      32.255  27.263  22.852  1.00  0.00     0.072 C 
ATOM     16  C   UNL A   1      31.089  27.682  22.339  1.00  0.00     0.014 C 
BRANCH  16  17
ATOM     17  C   UNL A   1      30.482  28.969  22.701  1.00  0.00    -0.024 A 
ATOM     18  C   UNL A   1      30.572  29.461  24.014  1.00  0.00     0.008 A 
ATOM     19  C   UNL A   1      29.760  29.694  21.752  1.00  0.00     0.023 A 
ATOM     20  C   UNL A   1      29.936  30.651  24.377  1.00  0.00     0.002 A 
ATOM     21  C   UNL A   1      29.119  30.879  22.124  1.00  0.00     0.018 A 
ATOM     22  C   UNL A   1      29.201  31.358  23.432  1.00  0.00     0.016 A 
ATOM     23  Br  UNL A   1      28.105  31.831  20.844  1.00  0.00    -0.051 Br
ENDBRANCH  16  17
ENDBRANCH  13  15
ENDBRANCH  10  13
ENDBRANCH   4   7
ENDBRANCH   2   3
ENDBRANCH   1   2
BRANCH   1  24
ATOM     24  C   UNL A   1      35.610  21.775  25.014  1.00  0.00     0.023 C 
BRANCH  24  25
ATOM     25  C   UNL A   1      37.063  22.191  25.091  1.00  0.00     0.116 C 
BRANCH  25  26
ATOM     26  N   UNL A   1      37.969  21.091  25.399  1.00  0.00    -0.352 N 
ATOM     27  C   UNL A   1      39.175  21.145  26.061  1.00  0.00     0.251 C 
ATOM     28  H   UNL A   1      37.684  20.198  25.095  1.00  0.00     0.163 HD
ATOM     29  O   UNL A   1      39.884  20.155  26.161  1.00  0.00    -0.269 OA
BRANCH  27  30
ATOM     30  C   UNL A   1      39.600  22.447  26.612  1.00  0.00     0.039 A 
ATOM     31  C   UNL A   1      40.602  22.485  27.580  1.00  0.00     0.014 A 
ATOM     32  C   UNL A   1      39.079  23.623  26.069  1.00  0.00     0.014 A 
ATOM     33  C   UNL A   1      41.136  23.717  27.956  1.00  0.00     0.010 A 
ATOM     34  C   UNL A   1      39.693  24.830  26.355  1.00  0.00     0.010 A 
ATOM     35  C   UNL A   1      40.709  24.894  27.319  1.00  0.00    -0.014 A 
BRANCH  35  36
ATOM     36  C   UNL A   1      41.271  26.221  27.664  1.00  0.00     0.031 A 
ATOM     37  C   UNL A   1      42.680  26.549  27.246  1.00  0.00     0.074 A 
ATOM     38  C   UNL A   1      40.569  27.072  28.437  1.00  0.00     0.049 A 
ATOM     39  N   UNL A   1      43.404  27.596  27.535  1.00  0.00    -0.248 NA
ATOM     40  C   UNL A   1      43.387  25.539  26.437  1.00  0.00     0.031 C 
ATOM     41  C   UNL A   1      39.234  26.821  28.985  1.00  0.00     0.029 A 
ATOM     42  N   UNL A   1      40.896  28.314  28.917  1.00  0.00    -0.354 N 
ATOM     43  C   UNL A   1      44.660  27.346  26.995  1.00  0.00     0.074 A 
ATOM     44  C   UNL A   1      44.616  26.028  26.407  1.00  0.00     0.031 C 
ATOM     45  C   UNL A   1      38.851  27.882  29.714  1.00  0.00     0.029 A 
ATOM     46  C   UNL A   1      39.919  28.877  29.704  1.00  0.00     0.049 A 
ATOM     47  H   UNL A   1      41.750  28.761  28.717  1.00  0.00     0.167 HD
ATOM     48  C   UNL A   1      45.740  28.159  26.951  1.00  0.00     0.034 A 
ATOM     49  C   UNL A   1      39.888  30.067  30.336  1.00  0.00     0.034 A 
ATOM     50  C   UNL A   1      45.743  29.501  27.458  1.00  0.00     0.049 A 
ATOM     51  C   UNL A   1      41.064  30.996  30.183  1.00  0.00     0.074 A 
ATOM     52  C   UNL A   1      46.743  30.451  27.374  1.00  0.00     0.029 A 
ATOM     53  N   UNL A   1      44.683  30.088  28.132  1.00  0.00    -0.354 N 
ATOM     54  N   UNL A   1      42.186  30.804  29.532  1.00  0.00    -0.248 NA
ATOM     55  C   UNL A   1      40.952  32.319  30.812  1.00  0.00     0.031 C 
ATOM     56  C   UNL A   1      46.287  31.617  28.000  1.00  0.00     0.029 A 
ATOM     57  C   UNL A   1      44.999  31.393  28.462  1.00  0.00     0.049 A 
ATOM     58  H   UNL A   1      43.832  29.642  28.344  1.00  0.00     0.167 HD
ATOM     59  C   UNL A   1      42.897  31.994  29.638  1.00  0.00     0.074 A 
ATOM     60  C   UNL A   1      42.069  32.906  30.403  1.00  0.00     0.031 C 
ATOM     61  C   UNL A   1      44.129  32.302  29.163  1.00  0.00     0.034 A 
BRANCH  48  62
ATOM     62  C   UNL A   1      46.971  27.639  26.258  1.00  0.00     0.023 A 
ATOM     63  C   UNL A   1      47.914  26.888  26.991  1.00  0.00     0.012 A 
ATOM     64  C   UNL A   1      47.188  27.868  24.887  1.00  0.00     0.148 A 
ATOM     65  C   UNL A   1      49.074  26.412  26.383  1.00  0.00     0.002 A 
ATOM     66  C   UNL A   1      48.324  27.350  24.275  1.00  0.00     0.091 A 
ATOM     67  F   UNL A   1      46.297  28.607  24.211  1.00  0.00    -0.205 F 
ATOM     68  C   UNL A   1      49.273  26.634  25.024  1.00  0.00     0.022 A 
BRANCH  66  69
ATOM     69  S   UNL A   1      48.632  27.516  22.514  1.00  0.00     0.127 S 
ATOM     70  O   UNL A   1      49.924  28.200  22.502  1.00  0.00    -0.237 OA
ATOM     71  O   UNL A   1      48.678  26.120  22.074  1.00  0.00    -0.237 OA
ATOM     72  O   UNL A   1      47.510  28.279  21.984  1.00  0.00    -0.744 OA
ENDBRANCH  66  69
ENDBRANCH  48  62
BRANCH  49  73
ATOM     73  C   UNL A   1      38.664  30.487  31.075  1.00  0.00     0.023 A 
ATOM     74  C   UNL A   1      38.580  30.235  32.458  1.00  0.00     0.012 A 
ATOM     75  C   UNL A   1      37.609  31.165  30.436  1.00  0.00     0.148 A 
ATOM     76  C   UNL A   1      37.454  30.621  33.187  1.00  0.00     0.002 A 
ATOM     77  C   UNL A   1      36.512  31.592  31.178  1.00  0.00     0.091 A 
ATOM     78  F   UNL A   1      37.701  31.388  29.117  1.00  0.00    -0.205 F 
ATOM     79  C   UNL A   1      36.426  31.308  32.549  1.00  0.00     0.022 A 
BRANCH  77  80
ATOM     80  S   UNL A   1      35.201  32.596  30.467  1.00  0.00     0.127 S 
ATOM     81  O   UNL A   1      34.254  32.680  31.575  1.00  0.00    -0.237 OA
ATOM     82  O   UNL A   1      35.904  33.843  30.160  1.00  0.00    -0.237 OA
ATOM     83  O   UNL A   1      34.744  31.864  29.293  1.00  0.00    -0.744 OA
ENDBRANCH  77  80
ENDBRANCH  49  73
BRANCH  61  84
ATOM     84  C   UNL A   1      44.646  33.691  29.411  1.00  0.00     0.023 A 
ATOM     85  C   UNL A   1      45.308  33.985  30.620  1.00  0.00     0.012 A 
ATOM     86  C   UNL A   1      44.559  34.678  28.410  1.00  0.00     0.148 A 
ATOM     87  C   UNL A   1      45.852  35.248  30.838  1.00  0.00     0.002 A 
ATOM     88  C   UNL A   1      45.144  35.921  28.617  1.00  0.00     0.091 A 
ATOM     89  F   UNL A   1      43.906  34.385  27.276  1.00  0.00    -0.205 F 
ATOM     90  C   UNL A   1      45.782  36.211  29.834  1.00  0.00     0.022 A 
BRANCH  88  91
ATOM     91  S   UNL A   1      45.184  37.182  27.338  1.00  0.00     0.127 S 
ATOM     92  O   UNL A   1      45.955  36.519  26.289  1.00  0.00    -0.237 OA
ATOM     93  O   UNL A   1      43.765  37.363  27.031  1.00  0.00    -0.237 OA
ATOM     94  O   UNL A   1      45.818  38.344  27.947  1.00  0.00    -0.744 OA
ENDBRANCH  88  91
ENDBRANCH  61  84
ENDBRANCH  35  36
ENDBRANCH  27  30
ENDBRANCH  25  26
ENDBRANCH  24  25
ENDBRANCH   1  24
TORSDOF 17
ENDMDL
MODEL 2
REMARK VINA RESULT:     -12.6      5.866      9.084
REMARK SMILES C[C@@H]1[C@H](C(=O)NCCCCNC(=O)c2ccc(-c3c4nc(c(-c5cccc(S(=O)(=O)[O-])c5F)c5ccc([nH]5)c(-c5cccc(S(=O)(=O)[O-])c5F)c5nc(c(-c6cccc(S(=O)(=O)[O-])c6F)c6ccc3[nH]6)C=C5)C=C4)cc2)CCN1C(=O)/C=C/c1cccc(Br)c1
REMARK SMILES IDX 8 1 7 2 6 3 4 4 5 5 3 7 1 8 2 9 79 10 77 11 78 12 80 13
REMARK SMILES IDX 81 14 82 15 83 16 84 17 85 18 90 19 86 20 88 21 87 22 89 23
REMARK SMILES IDX 9 24 10 25 11 26 12 27 13 29 14 30 15 31 76 32 16 33 75 34
REMARK SMILES IDX 17 35 18 36 19 37 69 38 20 39 74 40 68 41 70 42 21 43 73 44
REMARK SMILES IDX 67 45 66 46 22 48 54 49 34 50 53 51 35 52 38 53 52 54 71 55
REMARK SMILES IDX 36 56 37 57 51 59 72 60 39 61 23 62 24 63 32 64 25 65 27 66
REMARK SMILES IDX 33 67 26 68 28 69 29 70 30 71 31 72 55 73 56 74 64 75 57 76
REMARK SMILES IDX 59 77 65 78 58 79 60 80 61 81 62 82 63 83 40 84 41 85 49 86
REMARK SMILES IDX 42 87 44 88 50 89 43 90 45 91 46 92 47 93 48 94
REMARK H PARENT 6 6 11 28 70 47 38 58
REMARK Flexibility Score: inf
ROOT
ATOM      1  C   UNL A   1      31.620  30.585  26.824  1.00  0.00     0.023 C 
ENDROOT
BRANCH   1   2
ATOM      2  C   UNL A   1      31.775  29.908  25.456  1.00  0.00     0.116 C 
BRANCH   2   3
ATOM      3  N   UNL A   1      30.738  30.292  24.514  1.00  0.00    -0.356 N 
ATOM      4  C   UNL A   1      30.089  29.646  23.513  1.00  0.00     0.225 C 
ATOM      5  O   UNL A   1      29.245  30.314  22.900  1.00  0.00    -0.275 OA
ATOM      6  H   UNL A   1      30.442  31.224  24.627  1.00  0.00     0.163 HD
BRANCH   4   7
ATOM      7  C   UNL A   1      30.338  28.210  23.060  1.00  0.00     0.102 C 
ATOM      8  C   UNL A   1      32.819  28.715  22.626  1.00  0.00     0.032 C 
ATOM      9  C   UNL A   1      31.593  27.941  22.210  1.00  0.00     0.094 C 
ATOM     10  N   UNL A   1      31.818  26.495  22.332  1.00  0.00    -0.336 N 
ATOM     11  C   UNL A   1      30.303  27.080  24.080  1.00  0.00     0.037 C 
ATOM     12  C   UNL A   1      30.921  25.909  23.320  1.00  0.00     0.121 C 
BRANCH  10  13
ATOM     13  C   UNL A   1      32.722  25.692  21.662  1.00  0.00     0.246 C 
ATOM     14  O   UNL A   1      33.098  25.937  20.515  1.00  0.00    -0.270 OA
BRANCH  13  15
ATOM     15  C   UNL A   1      33.146  24.396  22.269  1.00  0.00     0.072 C 
ATOM     16  C   UNL A   1      34.303  24.173  22.909  1.00  0.00     0.014 C 
BRANCH  16  17
ATOM     17  C   UNL A   1      34.588  22.917  23.615  1.00  0.00    -0.024 A 
ATOM     18  C   UNL A   1      33.547  22.047  23.980  1.00  0.00     0.008 A 
ATOM     19  C   UNL A   1      35.898  22.600  23.980  1.00  0.00     0.023 A 
ATOM     20  C   UNL A   1      33.809  20.887  24.713  1.00  0.00     0.002 A 
ATOM     21  C   UNL A   1      36.151  21.443  24.719  1.00  0.00     0.018 A 
ATOM     22  C   UNL A   1      35.113  20.587  25.090  1.00  0.00     0.016 A 
ATOM     23  Br  UNL A   1      37.921  21.044  25.248  1.00  0.00    -0.051 Br
ENDBRANCH  16  17
ENDBRANCH  13  15
ENDBRANCH  10  13
ENDBRANCH   4   7
ENDBRANCH   2   3
ENDBRANCH   1   2
BRANCH   1  24
ATOM     24  C   UNL A   1      31.446  32.090  26.809  1.00  0.00     0.023 C 
BRANCH  24  25
ATOM     25  C   UNL A   1      32.716  32.862  27.093  1.00  0.00     0.116 C 
BRANCH  25  26
ATOM     26  N   UNL A   1      32.482  34.158  27.720  1.00  0.00    -0.352 N 
ATOM     27  C   UNL A   1      33.165  34.729  28.770  1.00  0.00     0.251 C 
ATOM     28  H   UNL A   1      31.742  34.691  27.347  1.00  0.00     0.163 HD
ATOM     29  O   UNL A   1      32.795  35.782  29.265  1.00  0.00    -0.269 OA
BRANCH  27  30
ATOM     30  C   UNL A   1      34.337  34.005  29.302  1.00  0.00     0.039 A 
ATOM     31  C   UNL A   1      35.618  34.418  28.939  1.00  0.00     0.014 A 
ATOM     32  C   UNL A   1      34.148  33.000  30.253  1.00  0.00     0.014 A 
ATOM     33  C   UNL A   1      36.720  33.864  29.590  1.00  0.00     0.010 A 
ATOM     34  C   UNL A   1      35.234  32.542  30.978  1.00  0.00     0.010 A 
ATOM     35  C   UNL A   1      36.532  32.949  30.638  1.00  0.00    -0.014 A 
BRANCH  35  36
ATOM     36  C   UNL A   1      37.672  32.358  31.378  1.00  0.00     0.031 A 
ATOM     37  C   UNL A   1      38.447  31.232  30.747  1.00  0.00     0.074 A 
ATOM     38  C   UNL A   1      37.935  32.750  32.639  1.00  0.00     0.049 A 
ATOM     39  N   UNL A   1      39.401  30.500  31.256  1.00  0.00    -0.248 NA
ATOM     40  C   UNL A   1      38.062  30.843  29.378  1.00  0.00     0.031 C 
ATOM     41  C   UNL A   1      37.188  33.762  33.391  1.00  0.00     0.029 A 
ATOM     42  N   UNL A   1      38.891  32.321  33.524  1.00  0.00    -0.354 N 
ATOM     43  C   UNL A   1      39.688  29.536  30.297  1.00  0.00     0.074 A 
ATOM     44  C   UNL A   1      38.773  29.742  29.199  1.00  0.00     0.031 C 
ATOM     45  C   UNL A   1      37.724  33.884  34.616  1.00  0.00     0.029 A 
ATOM     46  C   UNL A   1      38.835  32.947  34.746  1.00  0.00     0.049 A 
ATOM     47  H   UNL A   1      39.556  31.629  33.304  1.00  0.00     0.167 HD
ATOM     48  C   UNL A   1      40.657  28.593  30.308  1.00  0.00     0.034 A 
ATOM     49  C   UNL A   1      39.602  32.788  35.843  1.00  0.00     0.034 A 
ATOM     50  C   UNL A   1      41.619  28.457  31.365  1.00  0.00     0.049 A 
ATOM     51  C   UNL A   1      40.740  31.803  35.790  1.00  0.00     0.074 A 
ATOM     52  C   UNL A   1      42.708  27.609  31.433  1.00  0.00     0.029 A 
ATOM     53  N   UNL A   1      41.614  29.204  32.532  1.00  0.00    -0.354 N 
ATOM     54  N   UNL A   1      41.097  31.007  34.810  1.00  0.00    -0.248 NA
ATOM     55  C   UNL A   1      41.608  31.726  36.973  1.00  0.00     0.031 C 
ATOM     56  C   UNL A   1      43.364  27.844  32.647  1.00  0.00     0.029 A 
ATOM     57  C   UNL A   1      42.687  28.846  33.326  1.00  0.00     0.049 A 
ATOM     58  H   UNL A   1      40.945  29.889  32.761  1.00  0.00     0.167 HD
ATOM     59  C   UNL A   1      42.251  30.364  35.241  1.00  0.00     0.074 A 
ATOM     60  C   UNL A   1      42.543  30.878  36.565  1.00  0.00     0.031 C 
ATOM     61  C   UNL A   1      42.995  29.423  34.610  1.00  0.00     0.034 A 
BRANCH  48  62
ATOM     62  C   UNL A   1      40.767  27.697  29.103  1.00  0.00     0.023 A 
ATOM     63  C   UNL A   1      39.978  26.530  29.033  1.00  0.00     0.012 A 
ATOM     64  C   UNL A   1      41.626  28.015  28.035  1.00  0.00     0.148 A 
ATOM     65  C   UNL A   1      40.073  25.670  27.940  1.00  0.00     0.002 A 
ATOM     66  C   UNL A   1      41.681  27.177  26.926  1.00  0.00     0.091 A 
ATOM     67  F   UNL A   1      42.390  29.112  28.129  1.00  0.00    -0.205 F 
ATOM     68  C   UNL A   1      40.917  25.999  26.883  1.00  0.00     0.022 A 
BRANCH  66  69
ATOM     69  S   UNL A   1      42.678  27.555  25.481  1.00  0.00     0.127 S 
ATOM     70  O   UNL A   1      42.434  26.385  24.639  1.00  0.00    -0.237 OA
ATOM     71  O   UNL A   1      42.066  28.793  24.996  1.00  0.00    -0.237 OA
ATOM     72  O   UNL A   1      44.042  27.707  25.968  1.00  0.00    -0.744 OA
ENDBRANCH  66  69
ENDBRANCH  48  62
BRANCH  49  73
ATOM     73  C   UNL A   1      39.387  33.654  37.036  1.00  0.00     0.023 A 
ATOM     74  C   UNL A   1      39.819  34.995  36.995  1.00  0.00     0.012 A 
ATOM     75  C   UNL A   1      38.728  33.182  38.186  1.00  0.00     0.148 A 
ATOM     76  C   UNL A   1      39.627  35.840  38.088  1.00  0.00     0.002 A 
ATOM     77  C   UNL A   1      38.495  34.043  39.253  1.00  0.00     0.091 A 
ATOM     78  F   UNL A   1      38.333  31.901  38.212  1.00  0.00    -0.205 F 
ATOM     79  C   UNL A   1      38.957  35.368  39.212  1.00  0.00     0.022 A 
BRANCH  77  80
ATOM     80  S   UNL A   1      37.527  33.559  40.688  1.00  0.00     0.127 S 
ATOM     81  O   UNL A   1      38.383  32.547  41.299  1.00  0.00    -0.237 OA
ATOM     82  O   UNL A   1      37.432  34.817  41.430  1.00  0.00    -0.237 OA
ATOM     83  O   UNL A   1      36.256  33.082  40.156  1.00  0.00    -0.744 OA
ENDBRANCH  77  80
ENDBRANCH  49  73
BRANCH  61  84
ATOM     84  C   UNL A   1      44.221  28.913  35.314  1.00  0.00     0.023 A 
ATOM     85  C   UNL A   1      45.467  29.528  35.080  1.00  0.00     0.012 A 
ATOM     86  C   UNL A   1      44.122  27.888  36.275  1.00  0.00     0.148 A 
ATOM     87  C   UNL A   1      46.601  29.112  35.774  1.00  0.00     0.002 A 
ATOM     88  C   UNL A   1      45.248  27.510  36.995  1.00  0.00     0.091 A 
ATOM     89  F   UNL A   1      42.931  27.302  36.466  1.00  0.00    -0.205 F 
ATOM     90  C   UNL A   1      46.490  28.113  36.739  1.00  0.00     0.022 A 
BRANCH  88  91
ATOM     91  S   UNL A   1      45.170  26.303  38.324  1.00  0.00     0.127 S 
ATOM     92  O   UNL A   1      44.750  25.100  37.610  1.00  0.00    -0.237 OA
ATOM     93  O   UNL A   1      46.552  26.277  38.806  1.00  0.00    -0.237 OA
ATOM     94  O   UNL A   1      44.210  26.833  39.284  1.00  0.00    -0.744 OA
ENDBRANCH  88  91
ENDBRANCH  61  84
ENDBRANCH  35  36
ENDBRANCH  27  30
ENDBRANCH  25  26
ENDBRANCH  24  25
ENDBRANCH   1  24
TORSDOF 17
ENDMDL
MODEL 3
REMARK VINA RESULT:     -12.5      5.960      9.330
REMARK SMILES C[C@@H]1[C@H](C(=O)NCCCCNC(=O)c2ccc(-c3c4nc(c(-c5cccc(S(=O)(=O)[O-])c5F)c5ccc([nH]5)c(-c5cccc(S(=O)(=O)[O-])c5F)c5nc(c(-c6cccc(S(=O)(=O)[O-])c6F)c6ccc3[nH]6)C=C5)C=C4)cc2)CCN1C(=O)/C=C/c1cccc(Br)c1
REMARK SMILES IDX 8 1 7 2 6 3 4 4 5 5 3 7 1 8 2 9 79 10 77 11 78 12 80 13
REMARK SMILES IDX 81 14 82 15 83 16 84 17 85 18 90 19 86 20 88 21 87 22 89 23
REMARK SMILES IDX 9 24 10 25 11 26 12 27 13 29 14 30 15 31 76 32 16 33 75 34
REMARK SMILES IDX 17 35 18 36 19 37 69 38 20 39 74 40 68 41 70 42 21 43 73 44
REMARK SMILES IDX 67 45 66 46 22 48 54 49 34 50 53 51 35 52 38 53 52 54 71 55
REMARK SMILES IDX 36 56 37 57 51 59 72 60 39 61 23 62 24 63 32 64 25 65 27 66
REMARK SMILES IDX 33 67 26 68 28 69 29 70 30 71 31 72 55 73 56 74 64 75 57 76
REMARK SMILES IDX 59 77 65 78 58 79 60 80 61 81 62 82 63 83 40 84 41 85 49 86
REMARK SMILES IDX 42 87 44 88 50 89 43 90 45 91 46 92 47 93 48 94
REMARK H PARENT 6 6 11 28 70 47 38 58
REMARK Flexibility Score: inf
ROOT
ATOM      1  C   UNL A   1      32.100  30.738  26.018  1.00  0.00     0.023 C 
ENDROOT
BRANCH   1   2
ATOM      2  C   UNL A   1      33.152  29.623  26.103  1.00  0.00     0.116 C 
BRANCH   2   3
ATOM      3  N   UNL A   1      33.624  29.192  24.799  1.00  0.00    -0.356 N 
ATOM      4  C   UNL A   1      33.300  28.165  23.973  1.00  0.00     0.225 C 
ATOM      5  O   UNL A   1      33.938  28.107  22.913  1.00  0.00    -0.275 OA
ATOM      6  H   UNL A   1      34.335  29.768  24.437  1.00  0.00     0.163 HD
BRANCH   4   7
ATOM      7  C   UNL A   1      32.268  27.077  24.254  1.00  0.00     0.102 C 
ATOM      8  C   UNL A   1      33.817  25.973  25.981  1.00  0.00     0.032 C 
ATOM      9  C   UNL A   1      32.767  25.779  24.915  1.00  0.00     0.094 C 
ATOM     10  N   UNL A   1      31.558  25.162  25.474  1.00  0.00    -0.336 N 
ATOM     11  C   UNL A   1      30.983  27.426  24.992  1.00  0.00     0.037 C 
ATOM     12  C   UNL A   1      30.415  26.060  25.364  1.00  0.00     0.121 C 
BRANCH  10  13
ATOM     13  C   UNL A   1      31.400  23.916  26.051  1.00  0.00     0.246 C 
ATOM     14  O   UNL A   1      31.192  23.768  27.255  1.00  0.00    -0.270 OA
BRANCH  13  15
ATOM     15  C   UNL A   1      31.644  22.690  25.233  1.00  0.00     0.072 C 
ATOM     16  C   UNL A   1      32.486  21.695  25.546  1.00  0.00     0.014 C 
BRANCH  16  17
ATOM     17  C   UNL A   1      32.561  20.448  24.773  1.00  0.00    -0.024 A 
ATOM     18  C   UNL A   1      32.286  20.441  23.396  1.00  0.00     0.008 A 
ATOM     19  C   UNL A   1      32.857  19.244  25.413  1.00  0.00     0.023 A 
ATOM     20  C   UNL A   1      32.289  19.246  22.672  1.00  0.00     0.002 A 
ATOM     21  C   UNL A   1      32.850  18.052  24.685  1.00  0.00     0.018 A 
ATOM     22  C   UNL A   1      32.564  18.047  23.320  1.00  0.00     0.016 A 
ATOM     23  Br  UNL A   1      33.206  16.419  25.568  1.00  0.00    -0.051 Br
ENDBRANCH  16  17
ENDBRANCH  13  15
ENDBRANCH  10  13
ENDBRANCH   4   7
ENDBRANCH   2   3
ENDBRANCH   1   2
BRANCH   1  24
ATOM     24  C   UNL A   1      31.953  31.612  27.247  1.00  0.00     0.023 C 
BRANCH  24  25
ATOM     25  C   UNL A   1      33.117  32.549  27.483  1.00  0.00     0.116 C 
BRANCH  25  26
ATOM     26  N   UNL A   1      32.718  33.938  27.678  1.00  0.00    -0.352 N 
ATOM     27  C   UNL A   1      33.195  34.836  28.606  1.00  0.00     0.251 C 
ATOM     28  H   UNL A   1      32.019  34.276  27.071  1.00  0.00     0.163 HD
ATOM     29  O   UNL A   1      32.695  35.944  28.726  1.00  0.00    -0.269 OA
BRANCH  27  30
ATOM     30  C   UNL A   1      34.304  34.400  29.477  1.00  0.00     0.039 A 
ATOM     31  C   UNL A   1      34.020  33.676  30.634  1.00  0.00     0.014 A 
ATOM     32  C   UNL A   1      35.621  34.613  29.067  1.00  0.00     0.014 A 
ATOM     33  C   UNL A   1      35.070  33.100  31.349  1.00  0.00     0.010 A 
ATOM     34  C   UNL A   1      36.647  33.942  29.709  1.00  0.00     0.010 A 
ATOM     35  C   UNL A   1      36.387  33.200  30.870  1.00  0.00    -0.014 A 
BRANCH  35  36
ATOM     36  C   UNL A   1      37.529  32.577  31.580  1.00  0.00     0.031 A 
ATOM     37  C   UNL A   1      38.273  31.448  30.917  1.00  0.00     0.074 A 
ATOM     38  C   UNL A   1      37.821  32.943  32.842  1.00  0.00     0.049 A 
ATOM     39  N   UNL A   1      39.223  30.692  31.397  1.00  0.00    -0.248 NA
ATOM     40  C   UNL A   1      37.857  31.089  29.549  1.00  0.00     0.031 C 
ATOM     41  C   UNL A   1      37.105  33.956  33.623  1.00  0.00     0.029 A 
ATOM     42  N   UNL A   1      38.785  32.483  33.703  1.00  0.00    -0.354 N 
ATOM     43  C   UNL A   1      39.476  29.739  30.418  1.00  0.00     0.074 A 
ATOM     44  C   UNL A   1      38.546  29.978  29.340  1.00  0.00     0.031 C 
ATOM     45  C   UNL A   1      37.664  34.049  34.841  1.00  0.00     0.029 A 
ATOM     46  C   UNL A   1      38.761  33.091  34.936  1.00  0.00     0.049 A 
ATOM     47  H   UNL A   1      39.433  31.784  33.460  1.00  0.00     0.167 HD
ATOM     48  C   UNL A   1      40.428  28.779  30.397  1.00  0.00     0.034 A 
ATOM     49  C   UNL A   1      39.544  32.900  36.016  1.00  0.00     0.034 A 
ATOM     50  C   UNL A   1      41.406  28.609  31.434  1.00  0.00     0.049 A 
ATOM     51  C   UNL A   1      40.663  31.897  35.927  1.00  0.00     0.074 A 
ATOM     52  C   UNL A   1      42.481  27.741  31.470  1.00  0.00     0.029 A 
ATOM     53  N   UNL A   1      41.434  29.337  32.613  1.00  0.00    -0.354 N 
ATOM     54  N   UNL A   1      40.989  31.111  34.929  1.00  0.00    -0.248 NA
ATOM     55  C   UNL A   1      41.550  31.785  37.093  1.00  0.00     0.031 C 
ATOM     56  C   UNL A   1      43.161  27.944  32.675  1.00  0.00     0.029 A 
ATOM     57  C   UNL A   1      42.514  28.947  33.382  1.00  0.00     0.049 A 
ATOM     58  H   UNL A   1      40.781  30.029  32.865  1.00  0.00     0.167 HD
ATOM     59  C   UNL A   1      42.139  30.441  35.329  1.00  0.00     0.074 A 
ATOM     60  C   UNL A   1      42.463  30.927  36.655  1.00  0.00     0.031 C 
ATOM     61  C   UNL A   1      42.854  29.497  34.669  1.00  0.00     0.034 A 
BRANCH  48  62
ATOM     62  C   UNL A   1      40.501  27.901  29.176  1.00  0.00     0.023 A 
ATOM     63  C   UNL A   1      39.630  26.797  29.063  1.00  0.00     0.012 A 
ATOM     64  C   UNL A   1      41.407  28.175  28.134  1.00  0.00     0.148 A 
ATOM     65  C   UNL A   1      39.689  25.955  27.954  1.00  0.00     0.002 A 
ATOM     66  C   UNL A   1      41.427  27.357  27.009  1.00  0.00     0.091 A 
ATOM     67  F   UNL A   1      42.247  29.211  28.270  1.00  0.00    -0.205 F 
ATOM     68  C   UNL A   1      40.580  26.241  26.924  1.00  0.00     0.022 A 
BRANCH  66  69
ATOM     69  S   UNL A   1      42.485  27.688  25.596  1.00  0.00     0.127 S 
ATOM     70  O   UNL A   1      41.944  28.958  25.113  1.00  0.00    -0.237 OA
ATOM     71  O   UNL A   1      43.808  27.786  26.215  1.00  0.00    -0.237 OA
ATOM     72  O   UNL A   1      42.320  26.552  24.701  1.00  0.00    -0.744 OA
ENDBRANCH  66  69
ENDBRANCH  48  62
BRANCH  49  73
ATOM     73  C   UNL A   1      39.365  33.751  37.226  1.00  0.00     0.023 A 
ATOM     74  C   UNL A   1      39.839  35.077  37.207  1.00  0.00     0.012 A 
ATOM     75  C   UNL A   1      38.699  33.278  38.373  1.00  0.00     0.148 A 
ATOM     76  C   UNL A   1      39.683  35.907  38.317  1.00  0.00     0.002 A 
ATOM     77  C   UNL A   1      38.500  34.126  39.457  1.00  0.00     0.091 A 
ATOM     78  F   UNL A   1      38.262  32.010  38.378  1.00  0.00    -0.205 F 
ATOM     79  C   UNL A   1      39.005  35.436  39.438  1.00  0.00     0.022 A 
BRANCH  77  80
ATOM     80  S   UNL A   1      37.526  33.647  40.890  1.00  0.00     0.127 S 
ATOM     81  O   UNL A   1      36.329  33.091  40.266  1.00  0.00    -0.237 OA
ATOM     82  O   UNL A   1      38.398  32.665  41.536  1.00  0.00    -0.237 OA
ATOM     83  O   UNL A   1      37.334  34.872  41.656  1.00  0.00    -0.744 OA
ENDBRANCH  77  80
ENDBRANCH  49  73
BRANCH  61  84
ATOM     84  C   UNL A   1      44.083  28.954  35.343  1.00  0.00     0.023 A 
ATOM     85  C   UNL A   1      45.329  29.577  35.129  1.00  0.00     0.012 A 
ATOM     86  C   UNL A   1      43.988  27.888  36.259  1.00  0.00     0.148 A 
ATOM     87  C   UNL A   1      46.466  29.128  35.798  1.00  0.00     0.002 A 
ATOM     88  C   UNL A   1      45.117  27.477  36.956  1.00  0.00     0.091 A 
ATOM     89  F   UNL A   1      42.796  27.297  36.431  1.00  0.00    -0.205 F 
ATOM     90  C   UNL A   1      46.358  28.089  36.719  1.00  0.00     0.022 A 
BRANCH  88  91
ATOM     91  S   UNL A   1      45.044  26.213  38.230  1.00  0.00     0.127 S 
ATOM     92  O   UNL A   1      46.404  26.246  38.762  1.00  0.00    -0.237 OA
ATOM     93  O   UNL A   1      44.021  26.739  39.135  1.00  0.00    -0.237 OA
ATOM     94  O   UNL A   1      44.664  24.983  37.547  1.00  0.00    -0.744 OA
ENDBRANCH  88  91
ENDBRANCH  61  84
ENDBRANCH  35  36
ENDBRANCH  27  30
ENDBRANCH  25  26
ENDBRANCH  24  25
ENDBRANCH   1  24
TORSDOF 17
ENDMDL
