MODEL 1
REMARK VINA RESULT:     -12.4      0.000      0.000
REMARK SMILES CCc1ccc2oc(-c3ccccc3)c(OCC(=O)NCCCCNC(=O)c3ccc(-c4c5nc(c(-c6cccc(S(=O)(=O)[O-])c6F)c6ccc([nH]6)c(-c6cccc(S(=O)(=O)[O-])c6F)c6nc(c(-c7cccc(S(=O)(=O)[O-])c7F)c7ccc4[nH]7)C=C6)C=C5)cc3)c(=O)c2c1
REMARK SMILES IDX 22 1 21 2 20 3 18 4 19 5 17 7 16 8 15 9 3 10 4 11 94 12 5 13
REMARK SMILES IDX 93 14 6 15 91 16 7 17 92 18 8 19 2 20 1 21 9 22 10 23 14 24
REMARK SMILES IDX 11 25 13 26 12 27 23 28 24 29 25 30 26 31 27 33 28 34 29 35
REMARK SMILES IDX 90 36 30 37 89 38 31 39 32 40 33 41 83 42 34 43 88 44 82 45
REMARK SMILES IDX 84 46 35 47 87 48 81 49 80 50 36 52 68 53 48 54 67 55 49 56
REMARK SMILES IDX 52 57 66 58 85 59 50 60 51 61 65 63 86 64 53 65 37 66 38 67
REMARK SMILES IDX 46 68 39 69 41 70 47 71 40 72 42 73 43 74 44 75 45 76 69 77
REMARK SMILES IDX 70 78 78 79 71 80 73 81 79 82 72 83 74 84 75 85 76 86 77 87
REMARK SMILES IDX 54 88 55 89 63 90 56 91 58 92 64 93 57 94 59 95 60 96 61 97
REMARK SMILES IDX 62 98
REMARK H PARENT 20 6 25 32 84 51 52 62
REMARK Flexibility Score: inf
ROOT
ATOM      1  C   UNL A   1      31.851  27.713  27.199  1.00  0.00     0.023 C 
ENDROOT
BRANCH   1   2
ATOM      2  C   UNL A   1      31.809  26.671  26.084  1.00  0.00     0.116 C 
BRANCH   2   3
ATOM      3  N   UNL A   1      30.872  25.602  26.366  1.00  0.00    -0.353 N 
ATOM      4  C   UNL A   1      31.115  24.359  26.877  1.00  0.00     0.257 C 
ATOM      5  O   UNL A   1      30.144  23.669  27.194  1.00  0.00    -0.271 OA
ATOM      6  H   UNL A   1      29.930  25.800  26.161  1.00  0.00     0.163 HD
BRANCH   4   7
ATOM      7  C   UNL A   1      32.561  23.908  27.133  1.00  0.00     0.329 C 
BRANCH   7   8
ATOM      8  O   UNL A   1      33.412  23.633  26.032  1.00  0.00    -0.476 OA
BRANCH   8   9
ATOM      9  C   UNL A   1      33.169  22.534  25.221  1.00  0.00     0.211 A 
ATOM     10  C   UNL A   1      32.779  17.693  24.213  1.00  0.00    -0.047 A 
ATOM     11  C   UNL A   1      32.273  18.051  22.955  1.00  0.00     0.007 A 
ATOM     12  C   UNL A   1      33.137  18.709  25.110  1.00  0.00     0.020 A 
ATOM     13  C   UNL A   1      32.153  19.396  22.592  1.00  0.00     0.048 A 
ATOM     14  C   UNL A   1      33.014  20.054  24.739  1.00  0.00     0.069 A 
ATOM     15  C   UNL A   1      32.528  20.395  23.487  1.00  0.00     0.138 A 
ATOM     16  C   UNL A   1      33.437  21.127  25.647  1.00  0.00     0.235 A 
ATOM     17  O   UNL A   1      32.418  21.690  23.067  1.00  0.00    -0.452 OA
ATOM     18  O   UNL A   1      34.049  20.844  26.673  1.00  0.00    -0.285 OA
ATOM     19  C   UNL A   1      32.739  22.708  23.950  1.00  0.00     0.180 A 
BRANCH  10  20
ATOM     20  C   UNL A   1      32.904  16.245  24.627  1.00  0.00     0.032 C 
ATOM     21  C   UNL A   1      34.291  15.878  25.138  1.00  0.00     0.009 C 
ENDBRANCH  10  20
BRANCH  19  22
ATOM     22  C   UNL A   1      32.604  24.041  23.324  1.00  0.00     0.021 A 
ATOM     23  C   UNL A   1      33.725  24.863  23.146  1.00  0.00     0.012 A 
ATOM     24  C   UNL A   1      31.338  24.553  22.995  1.00  0.00     0.012 A 
ATOM     25  C   UNL A   1      33.585  26.161  22.646  1.00  0.00     0.001 A 
ATOM     26  C   UNL A   1      31.198  25.850  22.495  1.00  0.00     0.001 A 
ATOM     27  C   UNL A   1      32.321  26.653  22.322  1.00  0.00     0.000 A 
ENDBRANCH  19  22
ENDBRANCH   8   9
ENDBRANCH   7   8
ENDBRANCH   4   7
ENDBRANCH   2   3
ENDBRANCH   1   2
BRANCH   1  28
ATOM     28  C   UNL A   1      31.409  29.122  26.792  1.00  0.00     0.023 C 
BRANCH  28  29
ATOM     29  C   UNL A   1      32.471  29.983  26.112  1.00  0.00     0.116 C 
BRANCH  29  30
ATOM     30  N   UNL A   1      32.361  31.395  26.447  1.00  0.00    -0.352 N 
ATOM     31  C   UNL A   1      33.167  32.162  27.253  1.00  0.00     0.251 C 
ATOM     32  H   UNL A   1      31.601  31.869  26.036  1.00  0.00     0.163 HD
ATOM     33  O   UNL A   1      32.843  33.319  27.518  1.00  0.00    -0.269 OA
BRANCH  31  34
ATOM     34  C   UNL A   1      34.405  31.590  27.829  1.00  0.00     0.039 A 
ATOM     35  C   UNL A   1      35.514  32.422  28.009  1.00  0.00     0.014 A 
ATOM     36  C   UNL A   1      34.473  30.245  28.202  1.00  0.00     0.014 A 
ATOM     37  C   UNL A   1      36.665  31.923  28.626  1.00  0.00     0.010 A 
ATOM     38  C   UNL A   1      35.592  29.771  28.883  1.00  0.00     0.010 A 
ATOM     39  C   UNL A   1      36.701  30.602  29.102  1.00  0.00    -0.014 A 
BRANCH  39  40
ATOM     40  C   UNL A   1      37.877  30.077  29.845  1.00  0.00     0.031 A 
ATOM     41  C   UNL A   1      38.156  30.539  31.251  1.00  0.00     0.074 A 
ATOM     42  C   UNL A   1      38.749  29.259  29.223  1.00  0.00     0.049 A 
ATOM     43  N   UNL A   1      39.157  30.232  32.036  1.00  0.00    -0.248 NA
ATOM     44  C   UNL A   1      37.202  31.490  31.841  1.00  0.00     0.031 C 
ATOM     45  C   UNL A   1      38.632  28.794  27.839  1.00  0.00     0.029 A 
ATOM     46  N   UNL A   1      39.917  28.690  29.665  1.00  0.00    -0.354 N 
ATOM     47  C   UNL A   1      38.980  30.985  33.190  1.00  0.00     0.074 A 
ATOM     48  C   UNL A   1      37.790  31.785  32.992  1.00  0.00     0.031 C 
ATOM     49  C   UNL A   1      39.677  28.002  27.552  1.00  0.00     0.029 A 
ATOM     50  C   UNL A   1      40.554  27.927  28.715  1.00  0.00     0.049 A 
ATOM     51  H   UNL A   1      40.267  28.819  30.576  1.00  0.00     0.167 HD
ATOM     52  C   UNL A   1      39.723  30.995  34.322  1.00  0.00     0.034 A 
ATOM     53  C   UNL A   1      41.715  27.244  28.772  1.00  0.00     0.034 A 
ATOM     54  C   UNL A   1      40.879  30.164  34.534  1.00  0.00     0.049 A 
ATOM     55  C   UNL A   1      42.507  27.247  30.052  1.00  0.00     0.074 A 
ATOM     56  C   UNL A   1      41.633  30.017  35.686  1.00  0.00     0.029 A 
ATOM     57  N   UNL A   1      41.457  29.352  33.572  1.00  0.00    -0.354 N 
ATOM     58  N   UNL A   1      42.228  27.830  31.193  1.00  0.00    -0.248 NA
ATOM     59  C   UNL A   1      43.756  26.471  30.063  1.00  0.00     0.031 C 
ATOM     60  C   UNL A   1      42.688  29.141  35.408  1.00  0.00     0.029 A 
ATOM     61  C   UNL A   1      42.572  28.717  34.094  1.00  0.00     0.049 A 
ATOM     62  H   UNL A   1      41.125  29.244  32.652  1.00  0.00     0.167 HD
ATOM     63  C   UNL A   1      43.243  27.458  32.068  1.00  0.00     0.074 A 
ATOM     64  C   UNL A   1      44.134  26.588  31.328  1.00  0.00     0.031 C 
ATOM     65  C   UNL A   1      43.424  27.812  33.365  1.00  0.00     0.034 A 
BRANCH  52  66
ATOM     66  C   UNL A   1      39.285  31.909  35.439  1.00  0.00     0.023 A 
ATOM     67  C   UNL A   1      38.390  31.437  36.421  1.00  0.00     0.012 A 
ATOM     68  C   UNL A   1      39.786  33.222  35.536  1.00  0.00     0.148 A 
ATOM     69  C   UNL A   1      37.966  32.269  37.456  1.00  0.00     0.002 A 
ATOM     70  C   UNL A   1      39.395  34.031  36.599  1.00  0.00     0.091 A 
ATOM     71  F   UNL A   1      40.618  33.664  34.583  1.00  0.00    -0.205 F 
ATOM     72  C   UNL A   1      38.475  33.560  37.550  1.00  0.00     0.022 A 
BRANCH  70  73
ATOM     73  S   UNL A   1      40.061  35.679  36.851  1.00  0.00     0.127 S 
ATOM     74  O   UNL A   1      41.494  35.408  36.947  1.00  0.00    -0.237 OA
ATOM     75  O   UNL A   1      39.652  36.369  35.626  1.00  0.00    -0.237 OA
ATOM     76  O   UNL A   1      39.432  36.183  38.064  1.00  0.00    -0.744 OA
ENDBRANCH  70  73
ENDBRANCH  52  66
BRANCH  53  77
ATOM     77  C   UNL A   1      42.156  26.426  27.606  1.00  0.00     0.023 A 
ATOM     78  C   UNL A   1      42.948  27.029  26.609  1.00  0.00     0.012 A 
ATOM     79  C   UNL A   1      41.830  25.061  27.492  1.00  0.00     0.148 A 
ATOM     80  C   UNL A   1      43.385  26.296  25.506  1.00  0.00     0.002 A 
ATOM     81  C   UNL A   1      42.312  24.322  26.416  1.00  0.00     0.091 A 
ATOM     82  F   UNL A   1      41.069  24.508  28.447  1.00  0.00    -0.205 F 
ATOM     83  C   UNL A   1      43.076  24.942  25.414  1.00  0.00     0.022 A 
BRANCH  81  84
ATOM     84  S   UNL A   1      42.072  22.549  26.273  1.00  0.00     0.127 S 
ATOM     85  O   UNL A   1      40.619  22.451  26.150  1.00  0.00    -0.237 OA
ATOM     86  O   UNL A   1      42.816  22.244  25.049  1.00  0.00    -0.237 OA
ATOM     87  O   UNL A   1      42.642  21.973  27.482  1.00  0.00    -0.744 OA
ENDBRANCH  81  84
ENDBRANCH  53  77
BRANCH  65  88
ATOM     88  C   UNL A   1      44.609  27.232  34.093  1.00  0.00     0.023 A 
ATOM     89  C   UNL A   1      45.833  27.931  34.117  1.00  0.00     0.012 A 
ATOM     90  C   UNL A   1      44.487  26.029  34.816  1.00  0.00     0.148 A 
ATOM     91  C   UNL A   1      46.924  27.427  34.824  1.00  0.00     0.002 A 
ATOM     92  C   UNL A   1      45.562  25.560  35.561  1.00  0.00     0.091 A 
ATOM     93  F   UNL A   1      43.322  25.368  34.767  1.00  0.00    -0.205 F 
ATOM     94  C   UNL A   1      46.786  26.250  35.555  1.00  0.00     0.022 A 
BRANCH  92  95
ATOM     95  S   UNL A   1      45.446  24.108  36.613  1.00  0.00     0.127 S 
ATOM     96  O   UNL A   1      46.841  23.906  37.000  1.00  0.00    -0.237 OA
ATOM     97  O   UNL A   1      44.574  24.574  37.692  1.00  0.00    -0.237 OA
ATOM     98  O   UNL A   1      44.869  23.056  35.783  1.00  0.00    -0.744 OA
ENDBRANCH  92  95
ENDBRANCH  65  88
ENDBRANCH  39  40
ENDBRANCH  31  34
ENDBRANCH  29  30
ENDBRANCH  28  29
ENDBRANCH   1  28
TORSDOF 18
ENDMDL
MODEL 2
REMARK VINA RESULT:     -12.4      2.987      4.808
REMARK SMILES CCc1ccc2oc(-c3ccccc3)c(OCC(=O)NCCCCNC(=O)c3ccc(-c4c5nc(c(-c6cccc(S(=O)(=O)[O-])c6F)c6ccc([nH]6)c(-c6cccc(S(=O)(=O)[O-])c6F)c6nc(c(-c7cccc(S(=O)(=O)[O-])c7F)c7ccc4[nH]7)C=C6)C=C5)cc3)c(=O)c2c1
REMARK SMILES IDX 22 1 21 2 20 3 18 4 19 5 17 7 16 8 15 9 3 10 4 11 94 12 5 13
REMARK SMILES IDX 93 14 6 15 91 16 7 17 92 18 8 19 2 20 1 21 9 22 10 23 14 24
REMARK SMILES IDX 11 25 13 26 12 27 23 28 24 29 25 30 26 31 27 33 28 34 29 35
REMARK SMILES IDX 90 36 30 37 89 38 31 39 32 40 33 41 83 42 34 43 88 44 82 45
REMARK SMILES IDX 84 46 35 47 87 48 81 49 80 50 36 52 68 53 48 54 67 55 49 56
REMARK SMILES IDX 52 57 66 58 85 59 50 60 51 61 65 63 86 64 53 65 37 66 38 67
REMARK SMILES IDX 46 68 39 69 41 70 47 71 40 72 42 73 43 74 44 75 45 76 69 77
REMARK SMILES IDX 70 78 78 79 71 80 73 81 79 82 72 83 74 84 75 85 76 86 77 87
REMARK SMILES IDX 54 88 55 89 63 90 56 91 58 92 64 93 57 94 59 95 60 96 61 97
REMARK SMILES IDX 62 98
REMARK H PARENT 20 6 25 32 84 51 52 62
REMARK Flexibility Score: inf
ROOT
ATOM      1  C   UNL A   1      31.485  27.003  26.674  1.00  0.00     0.023 C 
ENDROOT
BRANCH   1   2
ATOM      2  C   UNL A   1      31.986  25.579  26.896  1.00  0.00     0.116 C 
BRANCH   2   3
ATOM      3  N   UNL A   1      30.906  24.614  26.927  1.00  0.00    -0.353 N 
ATOM      4  C   UNL A   1      30.893  23.323  26.480  1.00  0.00     0.257 C 
ATOM      5  O   UNL A   1      29.915  22.627  26.762  1.00  0.00    -0.271 OA
ATOM      6  H   UNL A   1      30.064  24.933  27.325  1.00  0.00     0.163 HD
BRANCH   4   7
ATOM      7  C   UNL A   1      32.118  22.757  25.746  1.00  0.00     0.329 C 
BRANCH   7   8
ATOM      8  O   UNL A   1      32.293  23.032  24.366  1.00  0.00    -0.476 OA
BRANCH   8   9
ATOM      9  C   UNL A   1      32.402  24.343  23.924  1.00  0.00     0.211 A 
ATOM     10  C   UNL A   1      30.660  28.730  22.400  1.00  0.00    -0.047 A 
ATOM     11  C   UNL A   1      31.977  29.210  22.452  1.00  0.00     0.007 A 
ATOM     12  C   UNL A   1      30.415  27.395  22.751  1.00  0.00     0.020 A 
ATOM     13  C   UNL A   1      33.029  28.365  22.820  1.00  0.00     0.048 A 
ATOM     14  C   UNL A   1      31.474  26.555  23.118  1.00  0.00     0.069 A 
ATOM     15  C   UNL A   1      32.772  27.036  23.149  1.00  0.00     0.138 A 
ATOM     16  C   UNL A   1      31.238  25.141  23.434  1.00  0.00     0.235 A 
ATOM     17  O   UNL A   1      33.842  26.250  23.472  1.00  0.00    -0.452 OA
ATOM     18  O   UNL A   1      30.132  24.651  23.221  1.00  0.00    -0.285 OA
ATOM     19  C   UNL A   1      33.615  24.937  23.849  1.00  0.00     0.180 A 
BRANCH  10  20
ATOM     20  C   UNL A   1      29.510  29.632  22.018  1.00  0.00     0.032 C 
ATOM     21  C   UNL A   1      28.203  29.276  22.713  1.00  0.00     0.009 C 
ENDBRANCH  10  20
BRANCH  19  22
ATOM     22  C   UNL A   1      34.879  24.218  24.123  1.00  0.00     0.021 A 
ATOM     23  C   UNL A   1      35.409  23.323  23.183  1.00  0.00     0.012 A 
ATOM     24  C   UNL A   1      35.514  24.335  25.370  1.00  0.00     0.012 A 
ATOM     25  C   UNL A   1      36.549  22.570  23.480  1.00  0.00     0.001 A 
ATOM     26  C   UNL A   1      36.653  23.583  25.667  1.00  0.00     0.001 A 
ATOM     27  C   UNL A   1      37.169  22.700  24.722  1.00  0.00     0.000 A 
ENDBRANCH  19  22
ENDBRANCH   8   9
ENDBRANCH   7   8
ENDBRANCH   4   7
ENDBRANCH   2   3
ENDBRANCH   1   2
BRANCH   1  28
ATOM     28  C   UNL A   1      32.155  28.073  27.541  1.00  0.00     0.023 C 
BRANCH  28  29
ATOM     29  C   UNL A   1      33.393  28.736  26.945  1.00  0.00     0.116 C 
BRANCH  29  30
ATOM     30  N   UNL A   1      33.454  30.168  27.199  1.00  0.00    -0.352 N 
ATOM     31  C   UNL A   1      34.442  30.900  27.812  1.00  0.00     0.251 C 
ATOM     32  H   UNL A   1      32.676  30.685  26.887  1.00  0.00     0.163 HD
ATOM     33  O   UNL A   1      34.259  32.093  28.049  1.00  0.00    -0.269 OA
BRANCH  31  34
ATOM     34  C   UNL A   1      35.709  30.250  28.216  1.00  0.00     0.039 A 
ATOM     35  C   UNL A   1      36.783  30.249  27.321  1.00  0.00     0.014 A 
ATOM     36  C   UNL A   1      35.846  29.654  29.472  1.00  0.00     0.014 A 
ATOM     37  C   UNL A   1      38.014  29.714  27.713  1.00  0.00     0.010 A 
ATOM     38  C   UNL A   1      37.092  29.189  29.887  1.00  0.00     0.010 A 
ATOM     39  C   UNL A   1      38.190  29.212  29.013  1.00  0.00    -0.014 A 
BRANCH  39  40
ATOM     40  C   UNL A   1      39.513  28.725  29.484  1.00  0.00     0.031 A 
ATOM     41  C   UNL A   1      40.229  29.432  30.604  1.00  0.00     0.074 A 
ATOM     42  C   UNL A   1      40.117  27.705  28.841  1.00  0.00     0.049 A 
ATOM     43  N   UNL A   1      41.409  29.184  31.114  1.00  0.00    -0.248 NA
ATOM     44  C   UNL A   1      39.544  30.582  31.211  1.00  0.00     0.031 C 
ATOM     45  C   UNL A   1      39.562  26.982  27.694  1.00  0.00     0.029 A 
ATOM     46  N   UNL A   1      41.339  27.115  29.043  1.00  0.00    -0.354 N 
ATOM     47  C   UNL A   1      41.626  30.173  32.066  1.00  0.00     0.074 A 
ATOM     48  C   UNL A   1      40.468  31.041  32.043  1.00  0.00     0.031 C 
ATOM     49  C   UNL A   1      40.433  26.038  27.306  1.00  0.00     0.029 A 
ATOM     50  C   UNL A   1      41.621  26.108  28.151  1.00  0.00     0.049 A 
ATOM     51  H   UNL A   1      41.957  27.389  29.760  1.00  0.00     0.167 HD
ATOM     52  C   UNL A   1      42.680  30.334  32.901  1.00  0.00     0.034 A 
ATOM     53  C   UNL A   1      42.714  25.328  28.024  1.00  0.00     0.034 A 
ATOM     54  C   UNL A   1      43.809  29.443  32.954  1.00  0.00     0.049 A 
ATOM     55  C   UNL A   1      43.859  25.507  28.985  1.00  0.00     0.074 A 
ATOM     56  C   UNL A   1      44.872  29.453  33.840  1.00  0.00     0.029 A 
ATOM     57  N   UNL A   1      44.029  28.391  32.078  1.00  0.00    -0.354 N 
ATOM     58  N   UNL A   1      43.968  26.338  29.992  1.00  0.00    -0.248 NA
ATOM     59  C   UNL A   1      45.017  24.618  28.810  1.00  0.00     0.031 C 
ATOM     60  C   UNL A   1      45.753  28.429  33.477  1.00  0.00     0.029 A 
ATOM     61  C   UNL A   1      45.222  27.759  32.386  1.00  0.00     0.049 A 
ATOM     62  H   UNL A   1      43.427  28.134  31.343  1.00  0.00     0.167 HD
ATOM     63  C   UNL A   1      45.186  26.045  30.597  1.00  0.00     0.074 A 
ATOM     64  C   UNL A   1      45.770  24.949  29.850  1.00  0.00     0.031 C 
ATOM     65  C   UNL A   1      45.770  26.636  31.669  1.00  0.00     0.034 A 
BRANCH  52  66
ATOM     66  C   UNL A   1      42.644  31.500  33.856  1.00  0.00     0.023 A 
ATOM     67  C   UNL A   1      43.179  32.745  33.463  1.00  0.00     0.012 A 
ATOM     68  C   UNL A   1      42.049  31.376  35.127  1.00  0.00     0.148 A 
ATOM     69  C   UNL A   1      43.163  33.833  34.335  1.00  0.00     0.002 A 
ATOM     70  C   UNL A   1      41.993  32.480  35.972  1.00  0.00     0.091 A 
ATOM     71  F   UNL A   1      41.565  30.182  35.494  1.00  0.00    -0.205 F 
ATOM     72  C   UNL A   1      42.563  33.703  35.583  1.00  0.00     0.022 A 
BRANCH  70  73
ATOM     73  S   UNL A   1      41.167  32.433  37.565  1.00  0.00     0.127 S 
ATOM     74  O   UNL A   1      42.043  31.543  38.326  1.00  0.00    -0.237 OA
ATOM     75  O   UNL A   1      41.214  33.836  37.981  1.00  0.00    -0.237 OA
ATOM     76  O   UNL A   1      39.827  31.926  37.305  1.00  0.00    -0.744 OA
ENDBRANCH  70  73
ENDBRANCH  52  66
BRANCH  53  77
ATOM     77  C   UNL A   1      42.740  24.244  27.000  1.00  0.00     0.023 A 
ATOM     78  C   UNL A   1      43.459  24.451  25.806  1.00  0.00     0.012 A 
ATOM     79  C   UNL A   1      42.095  23.010  27.209  1.00  0.00     0.148 A 
ATOM     80  C   UNL A   1      43.513  23.460  24.826  1.00  0.00     0.002 A 
ATOM     81  C   UNL A   1      42.196  22.007  26.251  1.00  0.00     0.091 A 
ATOM     82  F   UNL A   1      41.410  22.836  28.348  1.00  0.00    -0.205 F 
ATOM     83  C   UNL A   1      42.891  22.236  25.053  1.00  0.00     0.022 A 
BRANCH  81  84
ATOM     84  S   UNL A   1      41.534  20.357  26.502  1.00  0.00     0.127 S 
ATOM     85  O   UNL A   1      42.168  19.610  25.418  1.00  0.00    -0.237 OA
ATOM     86  O   UNL A   1      42.030  20.037  27.843  1.00  0.00    -0.237 OA
ATOM     87  O   UNL A   1      40.088  20.492  26.412  1.00  0.00    -0.744 OA
ENDBRANCH  81  84
ENDBRANCH  53  77
BRANCH  65  88
ATOM     88  C   UNL A   1      47.096  26.091  32.135  1.00  0.00     0.023 A 
ATOM     89  C   UNL A   1      47.150  25.220  33.242  1.00  0.00     0.012 A 
ATOM     90  C   UNL A   1      48.279  26.383  31.428  1.00  0.00     0.148 A 
ATOM     91  C   UNL A   1      48.364  24.673  33.656  1.00  0.00     0.002 A 
ATOM     92  C   UNL A   1      49.477  25.794  31.814  1.00  0.00     0.091 A 
ATOM     93  F   UNL A   1      48.212  27.228  30.390  1.00  0.00    -0.205 F 
ATOM     94  C   UNL A   1      49.524  24.950  32.936  1.00  0.00     0.022 A 
BRANCH  92  95
ATOM     95  S   UNL A   1      51.001  26.011  30.888  1.00  0.00     0.127 S 
ATOM     96  O   UNL A   1      50.626  25.495  29.572  1.00  0.00    -0.237 OA
ATOM     97  O   UNL A   1      51.195  27.460  30.942  1.00  0.00    -0.237 OA
ATOM     98  O   UNL A   1      52.015  25.239  31.596  1.00  0.00    -0.744 OA
ENDBRANCH  92  95
ENDBRANCH  65  88
ENDBRANCH  39  40
ENDBRANCH  31  34
ENDBRANCH  29  30
ENDBRANCH  28  29
ENDBRANCH   1  28
TORSDOF 18
ENDMDL
MODEL 3
REMARK VINA RESULT:     -12.3      2.795      8.217
REMARK SMILES CCc1ccc2oc(-c3ccccc3)c(OCC(=O)NCCCCNC(=O)c3ccc(-c4c5nc(c(-c6cccc(S(=O)(=O)[O-])c6F)c6ccc([nH]6)c(-c6cccc(S(=O)(=O)[O-])c6F)c6nc(c(-c7cccc(S(=O)(=O)[O-])c7F)c7ccc4[nH]7)C=C6)C=C5)cc3)c(=O)c2c1
REMARK SMILES IDX 22 1 21 2 20 3 18 4 19 5 17 7 16 8 15 9 3 10 4 11 94 12 5 13
REMARK SMILES IDX 93 14 6 15 91 16 7 17 92 18 8 19 2 20 1 21 9 22 10 23 14 24
REMARK SMILES IDX 11 25 13 26 12 27 23 28 24 29 25 30 26 31 27 33 28 34 29 35
REMARK SMILES IDX 90 36 30 37 89 38 31 39 32 40 33 41 83 42 34 43 88 44 82 45
REMARK SMILES IDX 84 46 35 47 87 48 81 49 80 50 36 52 68 53 48 54 67 55 49 56
REMARK SMILES IDX 52 57 66 58 85 59 50 60 51 61 65 63 86 64 53 65 37 66 38 67
REMARK SMILES IDX 46 68 39 69 41 70 47 71 40 72 42 73 43 74 44 75 45 76 69 77
REMARK SMILES IDX 70 78 78 79 71 80 73 81 79 82 72 83 74 84 75 85 76 86 77 87
REMARK SMILES IDX 54 88 55 89 63 90 56 91 58 92 64 93 57 94 59 95 60 96 61 97
REMARK SMILES IDX 62 98
REMARK H PARENT 20 6 25 32 84 51 52 62
REMARK Flexibility Score: inf
ROOT
ATOM      1  C   UNL A   1      34.532  31.084  27.995  1.00  0.00     0.023 C 
ENDROOT
BRANCH   1   2
ATOM      2  C   UNL A   1      34.381  29.757  27.257  1.00  0.00     0.116 C 
BRANCH   2   3
ATOM      3  N   UNL A   1      33.334  28.930  27.821  1.00  0.00    -0.353 N 
ATOM      4  C   UNL A   1      32.077  28.689  27.342  1.00  0.00     0.257 C 
ATOM      5  O   UNL A   1      31.409  27.815  27.898  1.00  0.00    -0.271 OA
ATOM      6  H   UNL A   1      33.559  28.479  28.667  1.00  0.00     0.163 HD
BRANCH   4   7
ATOM      7  C   UNL A   1      31.585  29.424  26.087  1.00  0.00     0.329 C 
BRANCH   7   8
ATOM      8  O   UNL A   1      32.035  29.003  24.810  1.00  0.00    -0.476 OA
BRANCH   8   9
ATOM      9  C   UNL A   1      31.853  27.689  24.404  1.00  0.00     0.211 A 
ATOM     10  C   UNL A   1      32.902  22.843  24.267  1.00  0.00    -0.047 A 
ATOM     11  C   UNL A   1      31.723  22.663  23.530  1.00  0.00     0.007 A 
ATOM     12  C   UNL A   1      33.249  24.137  24.679  1.00  0.00     0.020 A 
ATOM     13  C   UNL A   1      30.922  23.758  23.190  1.00  0.00     0.048 A 
ATOM     14  C   UNL A   1      32.442  25.229  24.335  1.00  0.00     0.069 A 
ATOM     15  C   UNL A   1      31.288  25.040  23.592  1.00  0.00     0.138 A 
ATOM     16  C   UNL A   1      32.823  26.595  24.713  1.00  0.00     0.235 A 
ATOM     17  O   UNL A   1      30.483  26.074  23.206  1.00  0.00    -0.452 OA
ATOM     18  O   UNL A   1      33.933  26.801  25.194  1.00  0.00    -0.285 OA
ATOM     19  C   UNL A   1      30.795  27.356  23.629  1.00  0.00     0.180 A 
BRANCH  10  20
ATOM     20  C   UNL A   1      33.773  21.670  24.654  1.00  0.00     0.032 C 
ATOM     21  C   UNL A   1      35.261  21.928  24.457  1.00  0.00     0.009 C 
ENDBRANCH  10  20
BRANCH  19  22
ATOM     22  C   UNL A   1      29.849  28.357  23.088  1.00  0.00     0.021 A 
ATOM     23  C   UNL A   1      28.474  28.247  23.337  1.00  0.00     0.012 A 
ATOM     24  C   UNL A   1      30.296  29.372  22.227  1.00  0.00     0.012 A 
ATOM     25  C   UNL A   1      27.570  29.134  22.745  1.00  0.00     0.001 A 
ATOM     26  C   UNL A   1      29.393  30.258  21.635  1.00  0.00     0.001 A 
ATOM     27  C   UNL A   1      28.030  30.138  21.894  1.00  0.00     0.000 A 
ENDBRANCH  19  22
ENDBRANCH   8   9
ENDBRANCH   7   8
ENDBRANCH   4   7
ENDBRANCH   2   3
ENDBRANCH   1   2
BRANCH   1  28
ATOM     28  C   UNL A   1      33.290  31.980  27.989  1.00  0.00     0.023 C 
BRANCH  28  29
ATOM     29  C   UNL A   1      33.383  33.243  27.138  1.00  0.00     0.116 C 
BRANCH  29  30
ATOM     30  N   UNL A   1      32.817  34.415  27.790  1.00  0.00    -0.352 N 
ATOM     31  C   UNL A   1      33.173  35.003  28.980  1.00  0.00     0.251 C 
ATOM     32  H   UNL A   1      32.074  34.847  27.311  1.00  0.00     0.163 HD
ATOM     33  O   UNL A   1      32.493  35.923  29.434  1.00  0.00    -0.269 OA
BRANCH  31  34
ATOM     34  C   UNL A   1      34.352  34.514  29.730  1.00  0.00     0.039 A 
ATOM     35  C   UNL A   1      34.156  33.905  30.973  1.00  0.00     0.014 A 
ATOM     36  C   UNL A   1      35.643  34.645  29.211  1.00  0.00     0.014 A 
ATOM     37  C   UNL A   1      35.246  33.363  31.661  1.00  0.00     0.010 A 
ATOM     38  C   UNL A   1      36.715  34.039  29.862  1.00  0.00     0.010 A 
ATOM     39  C   UNL A   1      36.531  33.394  31.094  1.00  0.00    -0.014 A 
BRANCH  39  40
ATOM     40  C   UNL A   1      37.689  32.741  31.761  1.00  0.00     0.031 A 
ATOM     41  C   UNL A   1      38.395  31.587  31.102  1.00  0.00     0.074 A 
ATOM     42  C   UNL A   1      38.045  33.124  33.004  1.00  0.00     0.049 A 
ATOM     43  N   UNL A   1      39.387  30.862  31.553  1.00  0.00    -0.248 NA
ATOM     44  C   UNL A   1      37.905  31.174  29.779  1.00  0.00     0.031 C 
ATOM     45  C   UNL A   1      37.396  34.182  33.782  1.00  0.00     0.029 A 
ATOM     46  N   UNL A   1      39.026  32.653  33.841  1.00  0.00    -0.354 N 
ATOM     47  C   UNL A   1      39.609  29.882  30.592  1.00  0.00     0.074 A 
ATOM     48  C   UNL A   1      38.629  30.088  29.547  1.00  0.00     0.031 C 
ATOM     49  C   UNL A   1      38.005  34.288  34.973  1.00  0.00     0.029 A 
ATOM     50  C   UNL A   1      39.064  33.288  35.060  1.00  0.00     0.049 A 
ATOM     51  H   UNL A   1      39.644  31.928  33.592  1.00  0.00     0.167 HD
ATOM     52  C   UNL A   1      40.555  28.913  30.567  1.00  0.00     0.034 A 
ATOM     53  C   UNL A   1      39.860  33.087  36.129  1.00  0.00     0.034 A 
ATOM     54  C   UNL A   1      41.557  28.740  31.585  1.00  0.00     0.049 A 
ATOM     55  C   UNL A   1      40.924  32.024  36.064  1.00  0.00     0.074 A 
ATOM     56  C   UNL A   1      42.627  27.862  31.597  1.00  0.00     0.029 A 
ATOM     57  N   UNL A   1      41.606  29.446  32.776  1.00  0.00    -0.354 N 
ATOM     58  N   UNL A   1      41.229  31.222  35.073  1.00  0.00    -0.248 NA
ATOM     59  C   UNL A   1      41.774  31.861  37.252  1.00  0.00     0.031 C 
ATOM     60  C   UNL A   1      43.303  28.015  32.813  1.00  0.00     0.029 A 
ATOM     61  C   UNL A   1      42.674  29.010  33.543  1.00  0.00     0.049 A 
ATOM     62  H   UNL A   1      40.973  30.152  33.040  1.00  0.00     0.167 HD
ATOM     63  C   UNL A   1      42.330  30.489  35.501  1.00  0.00     0.074 A 
ATOM     64  C   UNL A   1      42.647  30.955  36.836  1.00  0.00     0.031 C 
ATOM     65  C   UNL A   1      43.013  29.515  34.850  1.00  0.00     0.034 A 
BRANCH  52  66
ATOM     66  C   UNL A   1      40.575  27.986  29.378  1.00  0.00     0.023 A 
ATOM     67  C   UNL A   1      39.712  26.871  29.344  1.00  0.00     0.012 A 
ATOM     68  C   UNL A   1      41.420  28.238  28.279  1.00  0.00     0.148 A 
ATOM     69  C   UNL A   1      39.721  25.997  28.258  1.00  0.00     0.002 A 
ATOM     70  C   UNL A   1      41.388  27.388  27.178  1.00  0.00     0.091 A 
ATOM     71  F   UNL A   1      42.250  29.289  28.336  1.00  0.00    -0.205 F 
ATOM     72  C   UNL A   1      40.551  26.261  27.172  1.00  0.00     0.022 A 
BRANCH  70  73
ATOM     73  S   UNL A   1      42.360  27.692  25.699  1.00  0.00     0.127 S 
ATOM     74  O   UNL A   1      43.722  27.655  26.227  1.00  0.00    -0.237 OA
ATOM     75  O   UNL A   1      42.003  26.552  24.853  1.00  0.00    -0.237 OA
ATOM     76  O   UNL A   1      41.917  28.983  25.188  1.00  0.00    -0.744 OA
ENDBRANCH  70  73
ENDBRANCH  52  66
BRANCH  53  77
ATOM     77  C   UNL A   1      39.740  33.973  37.323  1.00  0.00     0.023 A 
ATOM     78  C   UNL A   1      40.297  35.266  37.272  1.00  0.00     0.012 A 
ATOM     79  C   UNL A   1      39.058  33.564  38.485  1.00  0.00     0.148 A 
ATOM     80  C   UNL A   1      40.202  36.127  38.365  1.00  0.00     0.002 A 
ATOM     81  C   UNL A   1      38.920  34.446  39.552  1.00  0.00     0.091 A 
ATOM     82  F   UNL A   1      38.541  32.328  38.516  1.00  0.00    -0.205 F 
ATOM     83  C   UNL A   1      39.505  35.722  39.499  1.00  0.00     0.022 A 
BRANCH  81  84
ATOM     84  S   UNL A   1      37.939  34.063  41.006  1.00  0.00     0.127 S 
ATOM     85  O   UNL A   1      38.843  33.198  41.759  1.00  0.00    -0.237 OA
ATOM     86  O   UNL A   1      37.730  35.392  41.585  1.00  0.00    -0.237 OA
ATOM     87  O   UNL A   1      36.727  33.426  40.509  1.00  0.00    -0.744 OA
ENDBRANCH  81  84
ENDBRANCH  53  77
BRANCH  65  88
ATOM     88  C   UNL A   1      44.200  28.902  35.547  1.00  0.00     0.023 A 
ATOM     89  C   UNL A   1      45.486  29.446  35.357  1.00  0.00     0.012 A 
ATOM     90  C   UNL A   1      44.028  27.835  36.450  1.00  0.00     0.148 A 
ATOM     91  C   UNL A   1      46.587  28.917  36.032  1.00  0.00     0.002 A 
ATOM     92  C   UNL A   1      45.120  27.347  37.158  1.00  0.00     0.091 A 
ATOM     93  F   UNL A   1      42.801  27.318  36.604  1.00  0.00    -0.205 F 
ATOM     94  C   UNL A   1      46.402  27.877  36.940  1.00  0.00     0.022 A 
BRANCH  92  95
ATOM     95  S   UNL A   1      44.962  26.079  38.421  1.00  0.00     0.127 S 
ATOM     96  O   UNL A   1      43.933  26.649  39.290  1.00  0.00    -0.237 OA
ATOM     97  O   UNL A   1      44.529  24.917  37.644  1.00  0.00    -0.237 OA
ATOM     98  O   UNL A   1      46.283  25.945  39.023  1.00  0.00    -0.744 OA
ENDBRANCH  92  95
ENDBRANCH  65  88
ENDBRANCH  39  40
ENDBRANCH  31  34
ENDBRANCH  29  30
ENDBRANCH  28  29
ENDBRANCH   1  28
TORSDOF 18
ENDMDL
