MODEL 1
REMARK VINA RESULT:     -12.1      0.000      0.000
REMARK SMILES O=C(C[C@H]1CN(C(=O)NCc2ccc(Br)cc2)CCO1)NCCCCNC(=O)c1ccc(-c2c3nc(c(-c4cccc(S(=O)(=O)[O-])c4F)c4ccc([nH]4)c(-c4cccc(S(=O)(=O)[O-])c4F)c4nc(c(-c5cccc(S(=O)(=O)[O-])c5F)c5ccc2[nH]5)C=C4)C=C3)cc1
REMARK SMILES IDX 23 1 22 2 21 3 1 4 2 5 3 7 4 8 5 9 20 10 6 11 19 12 18 13
REMARK SMILES IDX 7 14 8 15 9 16 10 18 11 19 12 20 17 21 13 22 16 23 14 24
REMARK SMILES IDX 15 25 24 26 25 27 26 28 27 29 28 31 29 32 30 33 91 34 31 35
REMARK SMILES IDX 90 36 32 37 33 38 34 39 84 40 35 41 89 42 83 43 85 44 36 45
REMARK SMILES IDX 88 46 82 47 81 48 37 50 69 51 49 52 68 53 50 54 53 55 67 56
REMARK SMILES IDX 86 57 51 58 52 59 66 61 87 62 54 63 38 64 39 65 47 66 40 67
REMARK SMILES IDX 42 68 48 69 41 70 43 71 44 72 45 73 46 74 70 75 71 76 79 77
REMARK SMILES IDX 72 78 74 79 80 80 73 81 75 82 76 83 77 84 78 85 55 86 56 87
REMARK SMILES IDX 64 88 57 89 59 90 65 91 58 92 60 93 61 94 62 95 63 96
REMARK H PARENT 21 6 9 17 26 30 85 49 53 60
REMARK Flexibility Score: inf
ROOT
ATOM      1  C   UNL A   1      35.177  23.884  24.194  1.00  0.00     0.023 C 
ENDROOT
BRANCH   1   2
ATOM      2  C   UNL A   1      34.389  24.198  22.924  1.00  0.00     0.116 C 
BRANCH   2   3
ATOM      3  N   UNL A   1      33.257  25.090  23.112  1.00  0.00    -0.356 N 
ATOM      4  O   UNL A   1      33.651  26.345  21.238  1.00  0.00    -0.275 OA
ATOM      5  C   UNL A   1      32.947  26.083  22.211  1.00  0.00     0.222 C 
ATOM      6  H   UNL A   1      32.693  24.980  23.911  1.00  0.00     0.163 HD
BRANCH   5   7
ATOM      7  C   UNL A   1      31.708  26.911  22.502  1.00  0.00     0.133 C 
BRANCH   7   8
ATOM      8  C   UNL A   1      31.876  28.289  23.164  1.00  0.00     0.147 C 
ATOM      9  C   UNL A   1      31.186  28.527  24.516  1.00  0.00     0.154 C 
ATOM     10  O   UNL A   1      33.258  28.689  23.200  1.00  0.00    -0.374 OA
ATOM     11  N   UNL A   1      31.933  28.010  25.659  1.00  0.00    -0.320 N 
ATOM     12  C   UNL A   1      33.995  28.024  24.229  1.00  0.00     0.182 C 
ATOM     13  C   UNL A   1      33.385  28.271  25.611  1.00  0.00     0.150 C 
BRANCH  11  14
ATOM     14  C   UNL A   1      31.420  27.472  26.806  1.00  0.00     0.317 C 
ATOM     15  O   UNL A   1      31.272  28.148  27.827  1.00  0.00    -0.249 OA
ATOM     16  N   UNL A   1      31.118  26.163  26.924  1.00  0.00    -0.334 N 
ATOM     17  H   UNL A   1      31.382  25.764  27.784  1.00  0.00     0.165 HD
BRANCH  16  18
ATOM     18  C   UNL A   1      30.476  25.237  26.011  1.00  0.00     0.153 C 
BRANCH  18  19
ATOM     19  C   UNL A   1      31.219  23.942  25.761  1.00  0.00    -0.029 A 
ATOM     20  C   UNL A   1      31.068  23.180  24.597  1.00  0.00     0.007 A 
ATOM     21  C   UNL A   1      32.101  23.464  26.744  1.00  0.00     0.007 A 
ATOM     22  C   UNL A   1      31.728  21.957  24.432  1.00  0.00     0.016 A 
ATOM     23  C   UNL A   1      32.779  22.249  26.580  1.00  0.00     0.016 A 
ATOM     24  C   UNL A   1      32.578  21.494  25.428  1.00  0.00     0.017 A 
ATOM     25  Br  UNL A   1      33.455  19.832  25.222  1.00  0.00    -0.051 Br
ENDBRANCH  18  19
ENDBRANCH  16  18
ENDBRANCH  11  14
ENDBRANCH   7   8
ENDBRANCH   5   7
ENDBRANCH   2   3
ENDBRANCH   1   2
BRANCH   1  26
ATOM     26  C   UNL A   1      36.015  22.604  24.178  1.00  0.00     0.023 C 
BRANCH  26  27
ATOM     27  C   UNL A   1      36.506  22.098  25.530  1.00  0.00     0.116 C 
BRANCH  27  28
ATOM     28  N   UNL A   1      37.654  21.208  25.477  1.00  0.00    -0.352 N 
ATOM     29  C   UNL A   1      38.926  21.397  25.972  1.00  0.00     0.251 C 
ATOM     30  H   UNL A   1      37.502  20.348  25.022  1.00  0.00     0.163 HD
ATOM     31  O   UNL A   1      39.764  20.503  25.858  1.00  0.00    -0.269 OA
BRANCH  29  32
ATOM     32  C   UNL A   1      39.318  22.697  26.570  1.00  0.00     0.039 A 
ATOM     33  C   UNL A   1      40.348  22.701  27.515  1.00  0.00     0.014 A 
ATOM     34  C   UNL A   1      38.723  23.902  26.184  1.00  0.00     0.014 A 
ATOM     35  C   UNL A   1      40.856  23.915  27.989  1.00  0.00     0.010 A 
ATOM     36  C   UNL A   1      39.275  25.114  26.608  1.00  0.00     0.010 A 
ATOM     37  C   UNL A   1      40.362  25.134  27.497  1.00  0.00    -0.014 A 
BRANCH  37  38
ATOM     38  C   UNL A   1      41.024  26.420  27.854  1.00  0.00     0.031 A 
ATOM     39  C   UNL A   1      42.460  26.682  27.494  1.00  0.00     0.074 A 
ATOM     40  C   UNL A   1      40.343  27.335  28.575  1.00  0.00     0.049 A 
ATOM     41  N   UNL A   1      43.186  27.745  27.731  1.00  0.00    -0.248 NA
ATOM     42  C   UNL A   1      43.181  25.607  26.797  1.00  0.00     0.031 C 
ATOM     43  C   UNL A   1      38.974  27.173  29.069  1.00  0.00     0.029 A 
ATOM     44  N   UNL A   1      40.716  28.573  29.041  1.00  0.00    -0.354 N 
ATOM     45  C   UNL A   1      44.452  27.462  27.235  1.00  0.00     0.074 A 
ATOM     46  C   UNL A   1      44.405  26.111  26.714  1.00  0.00     0.031 C 
ATOM     47  C   UNL A   1      38.622  28.267  29.763  1.00  0.00     0.029 A 
ATOM     48  C   UNL A   1      39.743  29.203  29.782  1.00  0.00     0.049 A 
ATOM     49  H   UNL A   1      41.597  28.973  28.860  1.00  0.00     0.167 HD
ATOM     50  C   UNL A   1      45.546  28.260  27.185  1.00  0.00     0.034 A 
ATOM     51  C   UNL A   1      39.747  30.398  30.408  1.00  0.00     0.034 A 
ATOM     52  C   UNL A   1      45.587  29.615  27.669  1.00  0.00     0.049 A 
ATOM     53  C   UNL A   1      40.958  31.284  30.298  1.00  0.00     0.074 A 
ATOM     54  C   UNL A   1      46.625  30.527  27.584  1.00  0.00     0.029 A 
ATOM     55  N   UNL A   1      44.550  30.253  28.332  1.00  0.00    -0.354 N 
ATOM     56  N   UNL A   1      42.085  31.063  29.666  1.00  0.00    -0.248 NA
ATOM     57  C   UNL A   1      40.884  32.599  30.951  1.00  0.00     0.031 C 
ATOM     58  C   UNL A   1      46.220  31.712  28.209  1.00  0.00     0.029 A 
ATOM     59  C   UNL A   1      44.924  31.542  28.668  1.00  0.00     0.049 A 
ATOM     60  H   UNL A   1      43.676  29.847  28.534  1.00  0.00     0.167 HD
ATOM     61  C   UNL A   1      42.840  32.221  29.819  1.00  0.00     0.074 A 
ATOM     62  C   UNL A   1      42.033  33.150  30.582  1.00  0.00     0.031 C 
ATOM     63  C   UNL A   1      44.096  32.482  29.380  1.00  0.00     0.034 A 
BRANCH  50  64
ATOM     64  C   UNL A   1      46.779  27.708  26.520  1.00  0.00     0.023 A 
ATOM     65  C   UNL A   1      47.668  26.912  27.272  1.00  0.00     0.012 A 
ATOM     66  C   UNL A   1      47.031  27.919  25.151  1.00  0.00     0.148 A 
ATOM     67  C   UNL A   1      48.803  26.361  26.681  1.00  0.00     0.002 A 
ATOM     68  C   UNL A   1      48.145  27.334  24.559  1.00  0.00     0.091 A 
ATOM     69  F   UNL A   1      46.187  28.697  24.456  1.00  0.00    -0.205 F 
ATOM     70  C   UNL A   1      49.037  26.564  25.324  1.00  0.00     0.022 A 
BRANCH  68  71
ATOM     71  S   UNL A   1      48.492  27.477  22.802  1.00  0.00     0.127 S 
ATOM     72  O   UNL A   1      48.527  26.074  22.393  1.00  0.00    -0.237 OA
ATOM     73  O   UNL A   1      47.332  28.225  22.315  1.00  0.00    -0.237 OA
ATOM     74  O   UNL A   1      49.756  28.192  22.702  1.00  0.00    -0.744 OA
ENDBRANCH  68  71
ENDBRANCH  50  64
BRANCH  51  75
ATOM     75  C   UNL A   1      38.528  30.858  31.133  1.00  0.00     0.023 A 
ATOM     76  C   UNL A   1      38.449  30.688  32.528  1.00  0.00     0.012 A 
ATOM     77  C   UNL A   1      37.466  31.490  30.457  1.00  0.00     0.148 A 
ATOM     78  C   UNL A   1      37.323  31.112  33.235  1.00  0.00     0.002 A 
ATOM     79  C   UNL A   1      36.372  31.960  31.173  1.00  0.00     0.091 A 
ATOM     80  F   UNL A   1      37.553  31.629  29.126  1.00  0.00    -0.205 F 
ATOM     81  C   UNL A   1      36.290  31.758  32.560  1.00  0.00     0.022 A 
BRANCH  79  82
ATOM     82  S   UNL A   1      35.063  32.918  30.403  1.00  0.00     0.127 S 
ATOM     83  O   UNL A   1      34.181  33.187  31.535  1.00  0.00    -0.237 OA
ATOM     84  O   UNL A   1      35.792  34.083  29.900  1.00  0.00    -0.237 OA
ATOM     85  O   UNL A   1      34.515  32.061  29.359  1.00  0.00    -0.744 OA
ENDBRANCH  79  82
ENDBRANCH  51  75
BRANCH  63  86
ATOM     86  C   UNL A   1      44.680  33.837  29.689  1.00  0.00     0.023 A 
ATOM     87  C   UNL A   1      45.405  34.026  30.883  1.00  0.00     0.012 A 
ATOM     88  C   UNL A   1      44.579  34.897  28.767  1.00  0.00     0.148 A 
ATOM     89  C   UNL A   1      45.996  35.256  31.166  1.00  0.00     0.002 A 
ATOM     90  C   UNL A   1      45.208  36.107  29.036  1.00  0.00     0.091 A 
ATOM     91  F   UNL A   1      43.868  34.704  27.647  1.00  0.00    -0.205 F 
ATOM     92  C   UNL A   1      45.909  36.291  30.239  1.00  0.00     0.022 A 
BRANCH  90  93
ATOM     93  S   UNL A   1      45.225  37.464  27.857  1.00  0.00     0.127 S 
ATOM     94  O   UNL A   1      43.800  37.761  27.726  1.00  0.00    -0.237 OA
ATOM     95  O   UNL A   1      45.998  38.485  28.566  1.00  0.00    -0.237 OA
ATOM     96  O   UNL A   1      45.871  36.944  26.661  1.00  0.00    -0.744 OA
ENDBRANCH  90  93
ENDBRANCH  63  86
ENDBRANCH  37  38
ENDBRANCH  29  32
ENDBRANCH  27  28
ENDBRANCH  26  27
ENDBRANCH   1  26
TORSDOF 18
ENDMDL
MODEL 2
REMARK VINA RESULT:     -11.8      1.624      2.090
REMARK SMILES O=C(C[C@H]1CN(C(=O)NCc2ccc(Br)cc2)CCO1)NCCCCNC(=O)c1ccc(-c2c3nc(c(-c4cccc(S(=O)(=O)[O-])c4F)c4ccc([nH]4)c(-c4cccc(S(=O)(=O)[O-])c4F)c4nc(c(-c5cccc(S(=O)(=O)[O-])c5F)c5ccc2[nH]5)C=C4)C=C3)cc1
REMARK SMILES IDX 23 1 22 2 21 3 1 4 2 5 3 7 4 8 5 9 20 10 6 11 19 12 18 13
REMARK SMILES IDX 7 14 8 15 9 16 10 18 11 19 12 20 17 21 13 22 16 23 14 24
REMARK SMILES IDX 15 25 24 26 25 27 26 28 27 29 28 31 29 32 30 33 91 34 31 35
REMARK SMILES IDX 90 36 32 37 33 38 34 39 84 40 35 41 89 42 83 43 85 44 36 45
REMARK SMILES IDX 88 46 82 47 81 48 37 50 69 51 49 52 68 53 50 54 53 55 67 56
REMARK SMILES IDX 86 57 51 58 52 59 66 61 87 62 54 63 38 64 39 65 47 66 40 67
REMARK SMILES IDX 42 68 48 69 41 70 43 71 44 72 45 73 46 74 70 75 71 76 79 77
REMARK SMILES IDX 72 78 74 79 80 80 73 81 75 82 76 83 77 84 78 85 55 86 56 87
REMARK SMILES IDX 64 88 57 89 59 90 65 91 58 92 60 93 61 94 62 95 63 96
REMARK H PARENT 21 6 9 17 26 30 85 49 53 60
REMARK Flexibility Score: inf
ROOT
ATOM      1  C   UNL A   1      36.409  22.502  23.512  1.00  0.00     0.023 C 
ENDROOT
BRANCH   1   2
ATOM      2  C   UNL A   1      35.366  23.206  22.646  1.00  0.00     0.116 C 
BRANCH   2   3
ATOM      3  N   UNL A   1      34.656  24.289  23.304  1.00  0.00    -0.356 N 
ATOM      4  O   UNL A   1      33.318  24.792  21.515  1.00  0.00    -0.275 OA
ATOM      5  C   UNL A   1      33.637  24.979  22.688  1.00  0.00     0.222 C 
ATOM      6  H   UNL A   1      34.912  24.539  24.221  1.00  0.00     0.163 HD
BRANCH   5   7
ATOM      7  C   UNL A   1      32.944  26.056  23.505  1.00  0.00     0.133 C 
BRANCH   7   8
ATOM      8  C   UNL A   1      31.409  26.056  23.581  1.00  0.00     0.147 C 
ATOM      9  C   UNL A   1      30.721  24.862  24.260  1.00  0.00     0.154 C 
ATOM     10  O   UNL A   1      30.907  27.308  24.085  1.00  0.00    -0.374 OA
ATOM     11  N   UNL A   1      30.683  24.952  25.717  1.00  0.00    -0.320 N 
ATOM     12  C   UNL A   1      31.050  27.425  25.503  1.00  0.00     0.182 C 
ATOM     13  C   UNL A   1      30.336  26.288  26.238  1.00  0.00     0.150 C 
BRANCH  11  14
ATOM     14  C   UNL A   1      30.771  23.923  26.611  1.00  0.00     0.317 C 
ATOM     15  O   UNL A   1      29.784  23.517  27.230  1.00  0.00    -0.249 OA
ATOM     16  N   UNL A   1      31.943  23.337  26.934  1.00  0.00    -0.334 N 
ATOM     17  H   UNL A   1      32.046  23.144  27.894  1.00  0.00     0.165 HD
BRANCH  16  18
ATOM     18  C   UNL A   1      33.077  22.943  26.122  1.00  0.00     0.153 C 
BRANCH  18  19
ATOM     19  C   UNL A   1      32.915  21.647  25.356  1.00  0.00    -0.029 A 
ATOM     20  C   UNL A   1      33.274  20.397  25.873  1.00  0.00     0.007 A 
ATOM     21  C   UNL A   1      32.389  21.689  24.054  1.00  0.00     0.007 A 
ATOM     22  C   UNL A   1      33.165  19.230  25.108  1.00  0.00     0.016 A 
ATOM     23  C   UNL A   1      32.260  20.523  23.288  1.00  0.00     0.016 A 
ATOM     24  C   UNL A   1      32.662  19.299  23.816  1.00  0.00     0.017 A 
ATOM     25  Br  UNL A   1      32.533  17.731  22.769  1.00  0.00    -0.051 Br
ENDBRANCH  18  19
ENDBRANCH  16  18
ENDBRANCH  11  14
ENDBRANCH   7   8
ENDBRANCH   5   7
ENDBRANCH   2   3
ENDBRANCH   1   2
BRANCH   1  26
ATOM     26  C   UNL A   1      36.466  22.915  24.984  1.00  0.00     0.023 C 
BRANCH  26  27
ATOM     27  C   UNL A   1      36.656  21.792  25.997  1.00  0.00     0.116 C 
BRANCH  27  28
ATOM     28  N   UNL A   1      37.841  20.974  25.799  1.00  0.00    -0.352 N 
ATOM     29  C   UNL A   1      39.154  21.251  26.114  1.00  0.00     0.251 C 
ATOM     30  H   UNL A   1      37.684  20.098  25.378  1.00  0.00     0.163 HD
ATOM     31  O   UNL A   1      40.024  20.409  25.898  1.00  0.00    -0.269 OA
BRANCH  29  32
ATOM     32  C   UNL A   1      39.539  22.584  26.639  1.00  0.00     0.039 A 
ATOM     33  C   UNL A   1      40.526  22.641  27.627  1.00  0.00     0.014 A 
ATOM     34  C   UNL A   1      38.980  23.767  26.145  1.00  0.00     0.014 A 
ATOM     35  C   UNL A   1      41.031  23.878  28.040  1.00  0.00     0.010 A 
ATOM     36  C   UNL A   1      39.531  24.998  26.511  1.00  0.00     0.010 A 
ATOM     37  C   UNL A   1      40.578  25.066  27.444  1.00  0.00    -0.014 A 
BRANCH  37  38
ATOM     38  C   UNL A   1      41.242  26.366  27.741  1.00  0.00     0.031 A 
ATOM     39  C   UNL A   1      42.667  26.622  27.334  1.00  0.00     0.074 A 
ATOM     40  C   UNL A   1      40.577  27.300  28.452  1.00  0.00     0.049 A 
ATOM     41  N   UNL A   1      43.393  27.696  27.518  1.00  0.00    -0.248 NA
ATOM     42  C   UNL A   1      43.373  25.529  26.652  1.00  0.00     0.031 C 
ATOM     43  C   UNL A   1      39.223  27.148  28.989  1.00  0.00     0.029 A 
ATOM     44  N   UNL A   1      40.957  28.554  28.868  1.00  0.00    -0.354 N 
ATOM     45  C   UNL A   1      44.647  27.402  26.995  1.00  0.00     0.074 A 
ATOM     46  C   UNL A   1      44.592  26.036  26.518  1.00  0.00     0.031 C 
ATOM     47  C   UNL A   1      38.884  28.262  29.657  1.00  0.00     0.029 A 
ATOM     48  C   UNL A   1      40.001  29.203  29.616  1.00  0.00     0.049 A 
ATOM     49  H   UNL A   1      41.830  28.952  28.651  1.00  0.00     0.167 HD
ATOM     50  C   UNL A   1      45.735  28.203  26.891  1.00  0.00     0.034 A 
ATOM     51  C   UNL A   1      40.016  30.417  30.204  1.00  0.00     0.034 A 
ATOM     52  C   UNL A   1      45.782  29.573  27.330  1.00  0.00     0.049 A 
ATOM     53  C   UNL A   1      41.219  31.304  30.032  1.00  0.00     0.074 A 
ATOM     54  C   UNL A   1      46.812  30.486  27.188  1.00  0.00     0.029 A 
ATOM     55  N   UNL A   1      44.761  30.227  28.001  1.00  0.00    -0.354 N 
ATOM     56  N   UNL A   1      42.330  31.069  29.377  1.00  0.00    -0.248 NA
ATOM     57  C   UNL A   1      41.156  32.639  30.646  1.00  0.00     0.031 C 
ATOM     58  C   UNL A   1      46.419  31.689  27.786  1.00  0.00     0.029 A 
ATOM     59  C   UNL A   1      45.137  31.528  28.286  1.00  0.00     0.049 A 
ATOM     60  H   UNL A   1      43.894  29.824  28.240  1.00  0.00     0.167 HD
ATOM     61  C   UNL A   1      43.083  32.233  29.472  1.00  0.00     0.074 A 
ATOM     62  C   UNL A   1      42.292  33.183  30.228  1.00  0.00     0.031 C 
ATOM     63  C   UNL A   1      44.324  32.486  28.991  1.00  0.00     0.034 A 
BRANCH  50  64
ATOM     64  C   UNL A   1      46.952  27.636  26.209  1.00  0.00     0.023 A 
ATOM     65  C   UNL A   1      47.139  27.868  24.830  1.00  0.00     0.012 A 
ATOM     66  C   UNL A   1      47.936  26.933  26.930  1.00  0.00     0.148 A 
ATOM     67  C   UNL A   1      48.268  27.382  24.174  1.00  0.00     0.002 A 
ATOM     68  C   UNL A   1      49.079  26.486  26.277  1.00  0.00     0.091 A 
ATOM     69  F   UNL A   1      47.733  26.704  28.236  1.00  0.00    -0.205 F 
ATOM     70  C   UNL A   1      49.242  26.700  24.898  1.00  0.00     0.022 A 
BRANCH  68  71
ATOM     71  S   UNL A   1      50.424  25.663  27.137  1.00  0.00     0.127 S 
ATOM     72  O   UNL A   1      49.769  24.446  27.614  1.00  0.00    -0.237 OA
ATOM     73  O   UNL A   1      51.397  25.451  26.064  1.00  0.00    -0.237 OA
ATOM     74  O   UNL A   1      50.862  26.588  28.173  1.00  0.00    -0.744 OA
ENDBRANCH  68  71
ENDBRANCH  50  64
BRANCH  51  75
ATOM     75  C   UNL A   1      38.815  30.895  30.947  1.00  0.00     0.023 A 
ATOM     76  C   UNL A   1      38.786  30.791  32.351  1.00  0.00     0.012 A 
ATOM     77  C   UNL A   1      37.721  31.478  30.279  1.00  0.00     0.148 A 
ATOM     78  C   UNL A   1      37.677  31.234  33.075  1.00  0.00     0.002 A 
ATOM     79  C   UNL A   1      36.644  31.966  31.009  1.00  0.00     0.091 A 
ATOM     80  F   UNL A   1      37.761  31.553  28.940  1.00  0.00    -0.205 F 
ATOM     81  C   UNL A   1      36.612  31.831  32.406  1.00  0.00     0.022 A 
BRANCH  79  82
ATOM     82  S   UNL A   1      35.295  32.868  30.239  1.00  0.00     0.127 S 
ATOM     83  O   UNL A   1      34.459  33.197  31.390  1.00  0.00    -0.237 OA
ATOM     84  O   UNL A   1      35.991  34.006  29.637  1.00  0.00    -0.237 OA
ATOM     85  O   UNL A   1      34.713  31.946  29.272  1.00  0.00    -0.744 OA
ENDBRANCH  79  82
ENDBRANCH  51  75
BRANCH  63  86
ATOM     86  C   UNL A   1      44.910  33.852  29.241  1.00  0.00     0.023 A 
ATOM     87  C   UNL A   1      45.600  34.104  30.443  1.00  0.00     0.012 A 
ATOM     88  C   UNL A   1      44.844  34.859  28.258  1.00  0.00     0.148 A 
ATOM     89  C   UNL A   1      46.193  35.344  30.675  1.00  0.00     0.002 A 
ATOM     90  C   UNL A   1      45.475  36.079  28.478  1.00  0.00     0.091 A 
ATOM     91  F   UNL A   1      44.165  34.609  27.130  1.00  0.00    -0.205 F 
ATOM     92  C   UNL A   1      46.141  36.326  29.689  1.00  0.00     0.022 A 
BRANCH  90  93
ATOM     93  S   UNL A   1      45.537  37.367  27.226  1.00  0.00     0.127 S 
ATOM     94  O   UNL A   1      44.118  37.664  27.034  1.00  0.00    -0.237 OA
ATOM     95  O   UNL A   1      46.294  38.422  27.900  1.00  0.00    -0.237 OA
ATOM     96  O   UNL A   1      46.215  36.777  26.081  1.00  0.00    -0.744 OA
ENDBRANCH  90  93
ENDBRANCH  63  86
ENDBRANCH  37  38
ENDBRANCH  29  32
ENDBRANCH  27  28
ENDBRANCH  26  27
ENDBRANCH   1  26
TORSDOF 18
ENDMDL
MODEL 3
REMARK VINA RESULT:     -11.8      5.206     10.324
REMARK SMILES O=C(C[C@H]1CN(C(=O)NCc2ccc(Br)cc2)CCO1)NCCCCNC(=O)c1ccc(-c2c3nc(c(-c4cccc(S(=O)(=O)[O-])c4F)c4ccc([nH]4)c(-c4cccc(S(=O)(=O)[O-])c4F)c4nc(c(-c5cccc(S(=O)(=O)[O-])c5F)c5ccc2[nH]5)C=C4)C=C3)cc1
REMARK SMILES IDX 23 1 22 2 21 3 1 4 2 5 3 7 4 8 5 9 20 10 6 11 19 12 18 13
REMARK SMILES IDX 7 14 8 15 9 16 10 18 11 19 12 20 17 21 13 22 16 23 14 24
REMARK SMILES IDX 15 25 24 26 25 27 26 28 27 29 28 31 29 32 30 33 91 34 31 35
REMARK SMILES IDX 90 36 32 37 33 38 34 39 84 40 35 41 89 42 83 43 85 44 36 45
REMARK SMILES IDX 88 46 82 47 81 48 37 50 69 51 49 52 68 53 50 54 53 55 67 56
REMARK SMILES IDX 86 57 51 58 52 59 66 61 87 62 54 63 38 64 39 65 47 66 40 67
REMARK SMILES IDX 42 68 48 69 41 70 43 71 44 72 45 73 46 74 70 75 71 76 79 77
REMARK SMILES IDX 72 78 74 79 80 80 73 81 75 82 76 83 77 84 78 85 55 86 56 87
REMARK SMILES IDX 64 88 57 89 59 90 65 91 58 92 60 93 61 94 62 95 63 96
REMARK H PARENT 21 6 9 17 26 30 85 49 53 60
REMARK Flexibility Score: inf
ROOT
ATOM      1  C   UNL A   1      32.185  28.431  27.227  1.00  0.00     0.023 C 
ENDROOT
BRANCH   1   2
ATOM      2  C   UNL A   1      31.037  27.431  27.109  1.00  0.00     0.116 C 
BRANCH   2   3
ATOM      3  N   UNL A   1      31.360  26.210  26.391  1.00  0.00    -0.356 N 
ATOM      4  O   UNL A   1      29.280  25.275  26.598  1.00  0.00    -0.275 OA
ATOM      5  C   UNL A   1      30.424  25.231  26.149  1.00  0.00     0.222 C 
ATOM      6  H   UNL A   1      32.280  26.078  26.066  1.00  0.00     0.163 HD
BRANCH   5   7
ATOM      7  C   UNL A   1      30.881  24.027  25.343  1.00  0.00     0.133 C 
BRANCH   7   8
ATOM      8  C   UNL A   1      30.971  22.660  26.039  1.00  0.00     0.147 C 
ATOM      9  C   UNL A   1      31.786  21.553  25.352  1.00  0.00     0.154 C 
ATOM     10  O   UNL A   1      31.337  22.799  27.425  1.00  0.00    -0.374 OA
ATOM     11  N   UNL A   1      33.224  21.645  25.588  1.00  0.00    -0.320 N 
ATOM     12  C   UNL A   1      32.732  23.062  27.601  1.00  0.00     0.182 C 
ATOM     13  C   UNL A   1      33.596  21.961  26.981  1.00  0.00     0.150 C 
BRANCH  11  14
ATOM     14  C   UNL A   1      34.227  21.318  24.719  1.00  0.00     0.317 C 
ATOM     15  O   UNL A   1      34.925  20.315  24.885  1.00  0.00    -0.249 OA
ATOM     16  N   UNL A   1      34.571  22.102  23.677  1.00  0.00    -0.334 N 
ATOM     17  H   UNL A   1      35.541  22.187  23.538  1.00  0.00     0.165 HD
BRANCH  16  18
ATOM     18  C   UNL A   1      33.767  22.843  22.724  1.00  0.00     0.153 C 
BRANCH  18  19
ATOM     19  C   UNL A   1      33.697  24.339  22.948  1.00  0.00    -0.029 A 
ATOM     20  C   UNL A   1      34.140  24.962  24.120  1.00  0.00     0.007 A 
ATOM     21  C   UNL A   1      33.152  25.152  21.941  1.00  0.00     0.007 A 
ATOM     22  C   UNL A   1      34.000  26.342  24.312  1.00  0.00     0.016 A 
ATOM     23  C   UNL A   1      33.025  26.535  22.118  1.00  0.00     0.016 A 
ATOM     24  C   UNL A   1      33.439  27.122  23.311  1.00  0.00     0.017 A 
ATOM     25  Br  UNL A   1      33.227  28.983  23.572  1.00  0.00    -0.051 Br
ENDBRANCH  18  19
ENDBRANCH  16  18
ENDBRANCH  11  14
ENDBRANCH   7   8
ENDBRANCH   5   7
ENDBRANCH   2   3
ENDBRANCH   1   2
BRANCH   1  26
ATOM     26  C   UNL A   1      31.830  29.905  27.026  1.00  0.00     0.023 C 
BRANCH  26  27
ATOM     27  C   UNL A   1      32.998  30.886  26.993  1.00  0.00     0.116 C 
BRANCH  27  28
ATOM     28  N   UNL A   1      32.643  32.277  27.221  1.00  0.00    -0.352 N 
ATOM     29  C   UNL A   1      33.338  33.253  27.901  1.00  0.00     0.251 C 
ATOM     30  H   UNL A   1      31.783  32.562  26.835  1.00  0.00     0.163 HD
ATOM     31  O   UNL A   1      32.887  34.396  27.959  1.00  0.00    -0.269 OA
BRANCH  29  32
ATOM     32  C   UNL A   1      34.586  32.920  28.631  1.00  0.00     0.039 A 
ATOM     33  C   UNL A   1      34.472  32.367  29.909  1.00  0.00     0.014 A 
ATOM     34  C   UNL A   1      35.851  33.103  28.063  1.00  0.00     0.014 A 
ATOM     35  C   UNL A   1      35.610  31.894  30.571  1.00  0.00     0.010 A 
ATOM     36  C   UNL A   1      36.978  32.571  28.697  1.00  0.00     0.010 A 
ATOM     37  C   UNL A   1      36.867  31.941  29.946  1.00  0.00    -0.014 A 
BRANCH  37  38
ATOM     38  C   UNL A   1      38.045  31.271  30.563  1.00  0.00     0.031 A 
ATOM     39  C   UNL A   1      38.531  31.657  31.933  1.00  0.00     0.074 A 
ATOM     40  C   UNL A   1      38.732  30.354  29.850  1.00  0.00     0.049 A 
ATOM     41  N   UNL A   1      39.540  31.175  32.613  1.00  0.00    -0.248 NA
ATOM     42  C   UNL A   1      37.804  32.734  32.620  1.00  0.00     0.031 C 
ATOM     43  C   UNL A   1      38.427  29.950  28.475  1.00  0.00     0.029 A 
ATOM     44  N   UNL A   1      39.844  29.612  30.171  1.00  0.00    -0.354 N 
ATOM     45  C   UNL A   1      39.585  31.902  33.796  1.00  0.00     0.074 A 
ATOM     46  C   UNL A   1      38.521  32.882  33.726  1.00  0.00     0.031 C 
ATOM     47  C   UNL A   1      39.323  29.035  28.074  1.00  0.00     0.029 A 
ATOM     48  C   UNL A   1      40.280  28.797  29.151  1.00  0.00     0.049 A 
ATOM     49  H   UNL A   1      40.287  29.657  31.049  1.00  0.00     0.167 HD
ATOM     50  C   UNL A   1      40.412  31.749  34.859  1.00  0.00     0.034 A 
ATOM     51  C   UNL A   1      41.329  27.953  29.086  1.00  0.00     0.034 A 
ATOM     52  C   UNL A   1      41.447  30.752  34.948  1.00  0.00     0.049 A 
ATOM     53  C   UNL A   1      42.204  27.768  30.296  1.00  0.00     0.074 A 
ATOM     54  C   UNL A   1      42.277  30.469  36.018  1.00  0.00     0.029 A 
ATOM     55  N   UNL A   1      41.799  29.881  33.929  1.00  0.00    -0.354 N 
ATOM     56  N   UNL A   1      42.115  28.341  31.471  1.00  0.00    -0.248 NA
ATOM     57  C   UNL A   1      43.298  26.792  30.185  1.00  0.00     0.031 C 
ATOM     58  C   UNL A   1      43.141  29.434  35.642  1.00  0.00     0.029 A 
ATOM     59  C   UNL A   1      42.838  29.064  34.342  1.00  0.00     0.049 A 
ATOM     60  H   UNL A   1      41.374  29.849  33.042  1.00  0.00     0.167 HD
ATOM     61  C   UNL A   1      43.118  27.774  32.249  1.00  0.00     0.074 A 
ATOM     62  C   UNL A   1      43.788  26.794  31.419  1.00  0.00     0.031 C 
ATOM     63  C   UNL A   1      43.464  28.052  33.530  1.00  0.00     0.034 A 
BRANCH  50  64
ATOM     64  C   UNL A   1      40.186  32.643  36.049  1.00  0.00     0.023 A 
ATOM     65  C   UNL A   1      40.901  33.855  36.145  1.00  0.00     0.012 A 
ATOM     66  C   UNL A   1      39.232  32.325  37.035  1.00  0.00     0.148 A 
ATOM     67  C   UNL A   1      40.695  34.719  37.218  1.00  0.00     0.002 A 
ATOM     68  C   UNL A   1      39.003  33.211  38.082  1.00  0.00     0.091 A 
ATOM     69  F   UNL A   1      38.576  31.159  36.939  1.00  0.00    -0.205 F 
ATOM     70  C   UNL A   1      39.740  34.402  38.181  1.00  0.00     0.022 A 
BRANCH  68  71
ATOM     71  S   UNL A   1      37.743  32.927  39.330  1.00  0.00     0.127 S 
ATOM     72  O   UNL A   1      36.538  32.806  38.512  1.00  0.00    -0.237 OA
ATOM     73  O   UNL A   1      38.190  31.676  39.945  1.00  0.00    -0.237 OA
ATOM     74  O   UNL A   1      37.789  34.083  40.214  1.00  0.00    -0.744 OA
ENDBRANCH  68  71
ENDBRANCH  50  64
BRANCH  51  75
ATOM     75  C   UNL A   1      41.564  27.158  27.847  1.00  0.00     0.023 A 
ATOM     76  C   UNL A   1      42.123  27.787  26.717  1.00  0.00     0.012 A 
ATOM     77  C   UNL A   1      41.269  25.781  27.790  1.00  0.00     0.148 A 
ATOM     78  C   UNL A   1      42.357  27.067  25.544  1.00  0.00     0.002 A 
ATOM     79  C   UNL A   1      41.555  25.059  26.638  1.00  0.00     0.091 A 
ATOM     80  F   UNL A   1      40.722  25.204  28.870  1.00  0.00    -0.205 F 
ATOM     81  C   UNL A   1      42.084  25.702  25.508  1.00  0.00     0.022 A 
BRANCH  79  82
ATOM     82  S   UNL A   1      41.360  23.275  26.552  1.00  0.00     0.127 S 
ATOM     83  O   UNL A   1      42.155  22.942  25.374  1.00  0.00    -0.237 OA
ATOM     84  O   UNL A   1      41.936  22.843  27.826  1.00  0.00    -0.237 OA
ATOM     85  O   UNL A   1      39.925  23.046  26.439  1.00  0.00    -0.744 OA
ENDBRANCH  79  82
ENDBRANCH  51  75
BRANCH  63  86
ATOM     86  C   UNL A   1      44.605  27.276  34.134  1.00  0.00     0.023 A 
ATOM     87  C   UNL A   1      45.924  27.753  33.993  1.00  0.00     0.012 A 
ATOM     88  C   UNL A   1      44.367  26.121  34.905  1.00  0.00     0.148 A 
ATOM     89  C   UNL A   1      46.989  27.078  34.586  1.00  0.00     0.002 A 
ATOM     90  C   UNL A   1      45.430  25.478  35.530  1.00  0.00     0.091 A 
ATOM     91  F   UNL A   1      43.109  25.670  35.011  1.00  0.00    -0.205 F 
ATOM     92  C   UNL A   1      46.743  25.950  35.363  1.00  0.00     0.022 A 
BRANCH  90  93
ATOM     93  S   UNL A   1      45.193  24.072  36.623  1.00  0.00     0.127 S 
ATOM     94  O   UNL A   1      46.570  23.740  36.984  1.00  0.00    -0.237 OA
ATOM     95  O   UNL A   1      44.401  24.651  37.710  1.00  0.00    -0.237 OA
ATOM     96  O   UNL A   1      44.490  23.069  35.836  1.00  0.00    -0.744 OA
ENDBRANCH  90  93
ENDBRANCH  63  86
ENDBRANCH  37  38
ENDBRANCH  29  32
ENDBRANCH  27  28
ENDBRANCH  26  27
ENDBRANCH   1  26
TORSDOF 18
ENDMDL
