MODEL 1
REMARK VINA RESULT:     -12.7      0.000      0.000
REMARK SMILES C[C@H]1[C@@H](C(=O)NCCCCNC(=O)c2ccc(-c3c4nc(c(-c5cccc(S(=O)(=O)[O-])c5F)c5ccc([nH]5)c(-c5cccc(S(=O)(=O)[O-])c5F)c5nc(c(-c6cccc(S(=O)(=O)[O-])c6F)c6ccc3[nH]6)C=C5)C=C4)cc2)CCN1C(=O)/C=C/c1cccc(F)c1
REMARK SMILES IDX 8 1 7 2 6 3 4 4 5 5 3 7 1 8 2 9 79 10 77 11 78 12 80 13
REMARK SMILES IDX 81 14 82 15 83 16 84 17 85 18 90 19 86 20 88 21 87 22 89 23
REMARK SMILES IDX 9 24 10 25 11 26 12 27 13 29 14 30 15 31 76 32 16 33 75 34
REMARK SMILES IDX 17 35 18 36 19 37 69 38 20 39 74 40 68 41 70 42 21 43 73 44
REMARK SMILES IDX 67 45 66 46 22 48 54 49 34 50 53 51 35 52 38 53 52 54 71 55
REMARK SMILES IDX 36 56 37 57 51 59 72 60 39 61 23 62 24 63 32 64 25 65 27 66
REMARK SMILES IDX 33 67 26 68 28 69 29 70 30 71 31 72 55 73 56 74 64 75 57 76
REMARK SMILES IDX 59 77 65 78 58 79 60 80 61 81 62 82 63 83 40 84 41 85 49 86
REMARK SMILES IDX 42 87 44 88 50 89 43 90 45 91 46 92 47 93 48 94
REMARK H PARENT 6 6 11 28 70 47 38 58
REMARK Flexibility Score: inf
ROOT
ATOM      1  C   UNL A   1      32.302  28.646  24.653  1.00  0.00     0.023 C 
ENDROOT
BRANCH   1   2
ATOM      2  C   UNL A   1      31.508  28.049  23.490  1.00  0.00     0.116 C 
BRANCH   2   3
ATOM      3  N   UNL A   1      32.406  27.424  22.538  1.00  0.00    -0.356 N 
ATOM      4  C   UNL A   1      32.928  26.165  22.495  1.00  0.00     0.225 C 
ATOM      5  O   UNL A   1      33.805  25.956  21.656  1.00  0.00    -0.275 OA
ATOM      6  H   UNL A   1      32.687  28.009  21.797  1.00  0.00     0.163 HD
BRANCH   4   7
ATOM      7  C   UNL A   1      32.365  25.039  23.364  1.00  0.00     0.102 C 
ATOM      8  C   UNL A   1      34.461  25.209  24.948  1.00  0.00     0.032 C 
ATOM      9  C   UNL A   1      33.054  24.676  24.701  1.00  0.00     0.094 C 
ATOM     10  N   UNL A   1      33.117  23.212  24.716  1.00  0.00    -0.336 N 
ATOM     11  C   UNL A   1      32.268  23.693  22.602  1.00  0.00     0.037 C 
ATOM     12  C   UNL A   1      33.160  22.727  23.357  1.00  0.00     0.121 C 
BRANCH  10  13
ATOM     13  C   UNL A   1      33.396  22.389  25.789  1.00  0.00     0.246 C 
ATOM     14  O   UNL A   1      33.203  22.703  26.959  1.00  0.00    -0.270 OA
BRANCH  13  15
ATOM     15  C   UNL A   1      33.826  20.999  25.473  1.00  0.00     0.072 C 
ATOM     16  C   UNL A   1      32.938  20.010  25.291  1.00  0.00     0.014 C 
BRANCH  16  17
ATOM     17  C   UNL A   1      33.249  18.572  25.181  1.00  0.00    -0.023 A 
ATOM     18  C   UNL A   1      34.255  18.180  24.281  1.00  0.00     0.008 A 
ATOM     19  C   UNL A   1      32.544  17.570  25.859  1.00  0.00     0.047 A 
ATOM     20  C   UNL A   1      34.549  16.829  24.063  1.00  0.00     0.004 A 
ATOM     21  C   UNL A   1      32.846  16.227  25.641  1.00  0.00     0.123 A 
ATOM     22  C   UNL A   1      33.839  15.847  24.747  1.00  0.00     0.039 A 
ATOM     23  F   UNL A   1      32.160  15.284  26.299  1.00  0.00    -0.207 F 
ENDBRANCH  16  17
ENDBRANCH  13  15
ENDBRANCH  10  13
ENDBRANCH   4   7
ENDBRANCH   2   3
ENDBRANCH   1   2
BRANCH   1  24
ATOM     24  C   UNL A   1      31.706  29.877  25.307  1.00  0.00     0.023 C 
BRANCH  24  25
ATOM     25  C   UNL A   1      32.354  30.261  26.620  1.00  0.00     0.116 C 
BRANCH  25  26
ATOM     26  N   UNL A   1      32.280  31.689  26.928  1.00  0.00    -0.352 N 
ATOM     27  C   UNL A   1      33.235  32.495  27.506  1.00  0.00     0.251 C 
ATOM     28  H   UNL A   1      31.433  32.133  26.689  1.00  0.00     0.163 HD
ATOM     29  O   UNL A   1      32.995  33.672  27.757  1.00  0.00    -0.269 OA
BRANCH  27  30
ATOM     30  C   UNL A   1      34.536  31.896  27.860  1.00  0.00     0.039 A 
ATOM     31  C   UNL A   1      35.649  32.720  28.020  1.00  0.00     0.014 A 
ATOM     32  C   UNL A   1      34.600  30.538  28.175  1.00  0.00     0.014 A 
ATOM     33  C   UNL A   1      36.807  32.197  28.598  1.00  0.00     0.010 A 
ATOM     34  C   UNL A   1      35.700  30.059  28.867  1.00  0.00     0.010 A 
ATOM     35  C   UNL A   1      36.820  30.877  29.078  1.00  0.00    -0.014 A 
BRANCH  35  36
ATOM     36  C   UNL A   1      37.989  30.310  29.797  1.00  0.00     0.031 A 
ATOM     37  C   UNL A   1      38.258  30.733  31.217  1.00  0.00     0.074 A 
ATOM     38  C   UNL A   1      38.869  29.524  29.143  1.00  0.00     0.049 A 
ATOM     39  N   UNL A   1      39.284  30.459  31.979  1.00  0.00    -0.248 NA
ATOM     40  C   UNL A   1      37.273  31.632  31.844  1.00  0.00     0.031 C 
ATOM     41  C   UNL A   1      38.780  29.133  27.734  1.00  0.00     0.029 A 
ATOM     42  N   UNL A   1      40.030  28.933  29.575  1.00  0.00    -0.354 N 
ATOM     43  C   UNL A   1      39.095  31.195  33.142  1.00  0.00     0.074 A 
ATOM     44  C   UNL A   1      37.887  31.968  32.967  1.00  0.00     0.031 C 
ATOM     45  C   UNL A   1      39.830  28.355  27.424  1.00  0.00     0.029 A 
ATOM     46  C   UNL A   1      40.679  28.209  28.601  1.00  0.00     0.049 A 
ATOM     47  H   UNL A   1      40.367  29.020  30.496  1.00  0.00     0.167 HD
ATOM     48  C   UNL A   1      39.831  31.191  34.277  1.00  0.00     0.034 A 
ATOM     49  C   UNL A   1      41.826  27.503  28.657  1.00  0.00     0.034 A 
ATOM     50  C   UNL A   1      40.969  30.343  34.484  1.00  0.00     0.049 A 
ATOM     51  C   UNL A   1      42.565  27.425  29.967  1.00  0.00     0.074 A 
ATOM     52  C   UNL A   1      41.713  30.165  35.636  1.00  0.00     0.029 A 
ATOM     53  N   UNL A   1      41.517  29.516  33.517  1.00  0.00    -0.354 N 
ATOM     54  N   UNL A   1      42.274  27.994  31.112  1.00  0.00    -0.248 NA
ATOM     55  C   UNL A   1      43.764  26.576  30.005  1.00  0.00     0.031 C 
ATOM     56  C   UNL A   1      42.713  29.226  35.364  1.00  0.00     0.029 A 
ATOM     57  C   UNL A   1      42.588  28.817  34.045  1.00  0.00     0.049 A 
ATOM     58  H   UNL A   1      41.194  29.436  32.591  1.00  0.00     0.167 HD
ATOM     59  C   UNL A   1      43.233  27.548  32.014  1.00  0.00     0.074 A 
ATOM     60  C   UNL A   1      44.100  26.643  31.287  1.00  0.00     0.031 C 
ATOM     61  C   UNL A   1      43.396  27.871  33.321  1.00  0.00     0.034 A 
BRANCH  48  62
ATOM     62  C   UNL A   1      39.366  32.069  35.409  1.00  0.00     0.023 A 
ATOM     63  C   UNL A   1      38.435  31.561  36.340  1.00  0.00     0.012 A 
ATOM     64  C   UNL A   1      39.864  33.375  35.572  1.00  0.00     0.148 A 
ATOM     65  C   UNL A   1      37.975  32.354  37.390  1.00  0.00     0.002 A 
ATOM     66  C   UNL A   1      39.435  34.144  36.649  1.00  0.00     0.091 A 
ATOM     67  F   UNL A   1      40.727  33.850  34.663  1.00  0.00    -0.205 F 
ATOM     68  C   UNL A   1      38.483  33.639  37.550  1.00  0.00     0.022 A 
BRANCH  66  69
ATOM     69  S   UNL A   1      40.085  35.784  36.984  1.00  0.00     0.127 S 
ATOM     70  O   UNL A   1      39.389  36.129  38.222  1.00  0.00    -0.237 OA
ATOM     71  O   UNL A   1      41.516  35.523  37.141  1.00  0.00    -0.237 OA
ATOM     72  O   UNL A   1      39.741  36.594  35.824  1.00  0.00    -0.744 OA
ENDBRANCH  66  69
ENDBRANCH  48  62
BRANCH  49  73
ATOM     73  C   UNL A   1      42.287  26.731  27.468  1.00  0.00     0.023 A 
ATOM     74  C   UNL A   1      43.023  27.395  26.466  1.00  0.00     0.012 A 
ATOM     75  C   UNL A   1      42.037  25.352  27.334  1.00  0.00     0.148 A 
ATOM     76  C   UNL A   1      43.475  26.709  25.340  1.00  0.00     0.002 A 
ATOM     77  C   UNL A   1      42.535  24.663  26.232  1.00  0.00     0.091 A 
ATOM     78  F   UNL A   1      41.324  24.739  28.289  1.00  0.00    -0.205 F 
ATOM     79  C   UNL A   1      43.240  25.341  25.227  1.00  0.00     0.022 A 
BRANCH  77  80
ATOM     80  S   UNL A   1      42.387  22.880  26.071  1.00  0.00     0.127 S 
ATOM     81  O   UNL A   1      40.942  22.689  26.150  1.00  0.00    -0.237 OA
ATOM     82  O   UNL A   1      42.970  22.643  24.749  1.00  0.00    -0.237 OA
ATOM     83  O   UNL A   1      43.166  22.327  27.172  1.00  0.00    -0.744 OA
ENDBRANCH  77  80
ENDBRANCH  49  73
BRANCH  61  84
ATOM     84  C   UNL A   1      44.532  27.227  34.064  1.00  0.00     0.023 A 
ATOM     85  C   UNL A   1      45.802  27.836  34.055  1.00  0.00     0.012 A 
ATOM     86  C   UNL A   1      44.319  26.075  34.846  1.00  0.00     0.148 A 
ATOM     87  C   UNL A   1      46.850  27.294  34.795  1.00  0.00     0.002 A 
ATOM     88  C   UNL A   1      45.358  25.566  35.616  1.00  0.00     0.091 A 
ATOM     89  F   UNL A   1      43.108  25.499  34.824  1.00  0.00    -0.205 F 
ATOM     90  C   UNL A   1      46.625  26.168  35.586  1.00  0.00     0.022 A 
BRANCH  88  91
ATOM     91  S   UNL A   1      45.126  24.180  36.735  1.00  0.00     0.127 S 
ATOM     92  O   UNL A   1      46.484  23.971  37.236  1.00  0.00    -0.237 OA
ATOM     93  O   UNL A   1      44.190  24.725  37.720  1.00  0.00    -0.237 OA
ATOM     94  O   UNL A   1      44.581  23.100  35.923  1.00  0.00    -0.744 OA
ENDBRANCH  88  91
ENDBRANCH  61  84
ENDBRANCH  35  36
ENDBRANCH  27  30
ENDBRANCH  25  26
ENDBRANCH  24  25
ENDBRANCH   1  24
TORSDOF 17
ENDMDL
MODEL 2
REMARK VINA RESULT:     -12.2      1.980      2.495
REMARK SMILES C[C@H]1[C@@H](C(=O)NCCCCNC(=O)c2ccc(-c3c4nc(c(-c5cccc(S(=O)(=O)[O-])c5F)c5ccc([nH]5)c(-c5cccc(S(=O)(=O)[O-])c5F)c5nc(c(-c6cccc(S(=O)(=O)[O-])c6F)c6ccc3[nH]6)C=C5)C=C4)cc2)CCN1C(=O)/C=C/c1cccc(F)c1
REMARK SMILES IDX 8 1 7 2 6 3 4 4 5 5 3 7 1 8 2 9 79 10 77 11 78 12 80 13
REMARK SMILES IDX 81 14 82 15 83 16 84 17 85 18 90 19 86 20 88 21 87 22 89 23
REMARK SMILES IDX 9 24 10 25 11 26 12 27 13 29 14 30 15 31 76 32 16 33 75 34
REMARK SMILES IDX 17 35 18 36 19 37 69 38 20 39 74 40 68 41 70 42 21 43 73 44
REMARK SMILES IDX 67 45 66 46 22 48 54 49 34 50 53 51 35 52 38 53 52 54 71 55
REMARK SMILES IDX 36 56 37 57 51 59 72 60 39 61 23 62 24 63 32 64 25 65 27 66
REMARK SMILES IDX 33 67 26 68 28 69 29 70 30 71 31 72 55 73 56 74 64 75 57 76
REMARK SMILES IDX 59 77 65 78 58 79 60 80 61 81 62 82 63 83 40 84 41 85 49 86
REMARK SMILES IDX 42 87 44 88 50 89 43 90 45 91 46 92 47 93 48 94
REMARK H PARENT 6 6 11 28 70 47 38 58
REMARK Flexibility Score: inf
ROOT
ATOM      1  C   UNL A   1      31.203  29.207  24.320  1.00  0.00     0.023 C 
ENDROOT
BRANCH   1   2
ATOM      2  C   UNL A   1      32.271  28.955  23.254  1.00  0.00     0.116 C 
BRANCH   2   3
ATOM      3  N   UNL A   1      31.747  28.089  22.215  1.00  0.00    -0.356 N 
ATOM      4  C   UNL A   1      31.560  26.739  22.187  1.00  0.00     0.225 C 
ATOM      5  O   UNL A   1      31.252  26.244  21.102  1.00  0.00    -0.275 OA
ATOM      6  H   UNL A   1      31.480  28.556  21.390  1.00  0.00     0.163 HD
BRANCH   4   7
ATOM      7  C   UNL A   1      31.614  25.900  23.465  1.00  0.00     0.102 C 
ATOM      8  C   UNL A   1      33.969  24.962  22.754  1.00  0.00     0.032 C 
ATOM      9  C   UNL A   1      32.909  25.137  23.835  1.00  0.00     0.094 C 
ATOM     10  N   UNL A   1      32.463  23.805  24.251  1.00  0.00    -0.336 N 
ATOM     11  C   UNL A   1      30.503  24.820  23.513  1.00  0.00     0.037 C 
ATOM     12  C   UNL A   1      31.225  23.489  23.580  1.00  0.00     0.121 C 
BRANCH  10  13
ATOM     13  C   UNL A   1      33.192  22.840  24.920  1.00  0.00     0.246 C 
ATOM     14  O   UNL A   1      32.816  21.683  25.072  1.00  0.00    -0.270 OA
BRANCH  13  15
ATOM     15  C   UNL A   1      34.566  23.219  25.349  1.00  0.00     0.072 C 
ATOM     16  C   UNL A   1      35.621  22.420  25.126  1.00  0.00     0.014 C 
BRANCH  16  17
ATOM     17  C   UNL A   1      36.976  22.592  25.682  1.00  0.00    -0.023 A 
ATOM     18  C   UNL A   1      37.326  23.855  26.191  1.00  0.00     0.008 A 
ATOM     19  C   UNL A   1      37.958  21.594  25.659  1.00  0.00     0.047 A 
ATOM     20  C   UNL A   1      38.619  24.115  26.661  1.00  0.00     0.004 A 
ATOM     21  C   UNL A   1      39.241  21.861  26.133  1.00  0.00     0.123 A 
ATOM     22  C   UNL A   1      39.582  23.112  26.630  1.00  0.00     0.039 A 
ATOM     23  F   UNL A   1      40.167  20.893  26.101  1.00  0.00    -0.207 F 
ENDBRANCH  16  17
ENDBRANCH  13  15
ENDBRANCH  10  13
ENDBRANCH   4   7
ENDBRANCH   2   3
ENDBRANCH   1   2
BRANCH   1  24
ATOM     24  C   UNL A   1      31.591  28.871  25.747  1.00  0.00     0.023 C 
BRANCH  24  25
ATOM     25  C   UNL A   1      32.836  29.578  26.238  1.00  0.00     0.116 C 
BRANCH  25  26
ATOM     26  N   UNL A   1      32.616  30.966  26.642  1.00  0.00    -0.352 N 
ATOM     27  C   UNL A   1      33.459  31.803  27.337  1.00  0.00     0.251 C 
ATOM     28  H   UNL A   1      31.749  31.354  26.380  1.00  0.00     0.163 HD
ATOM     29  O   UNL A   1      33.100  32.934  27.656  1.00  0.00    -0.269 OA
BRANCH  27  30
ATOM     30  C   UNL A   1      34.785  31.292  27.732  1.00  0.00     0.039 A 
ATOM     31  C   UNL A   1      35.827  32.191  27.961  1.00  0.00     0.014 A 
ATOM     32  C   UNL A   1      34.938  29.934  28.015  1.00  0.00     0.014 A 
ATOM     33  C   UNL A   1      36.995  31.738  28.575  1.00  0.00     0.010 A 
ATOM     34  C   UNL A   1      36.041  29.517  28.742  1.00  0.00     0.010 A 
ATOM     35  C   UNL A   1      37.087  30.409  29.022  1.00  0.00    -0.014 A 
BRANCH  35  36
ATOM     36  C   UNL A   1      38.264  29.909  29.776  1.00  0.00     0.031 A 
ATOM     37  C   UNL A   1      38.479  30.365  31.195  1.00  0.00     0.074 A 
ATOM     38  C   UNL A   1      39.195  29.156  29.155  1.00  0.00     0.049 A 
ATOM     39  N   UNL A   1      39.498  30.152  31.985  1.00  0.00    -0.248 NA
ATOM     40  C   UNL A   1      37.438  31.225  31.785  1.00  0.00     0.031 C 
ATOM     41  C   UNL A   1      39.159  28.741  27.751  1.00  0.00     0.029 A 
ATOM     42  N   UNL A   1      40.372  28.628  29.622  1.00  0.00    -0.354 N 
ATOM     43  C   UNL A   1      39.247  30.894  33.132  1.00  0.00     0.074 A 
ATOM     44  C   UNL A   1      38.009  31.607  32.916  1.00  0.00     0.031 C 
ATOM     45  C   UNL A   1      40.251  28.010  27.477  1.00  0.00     0.029 A 
ATOM     46  C   UNL A   1      41.078  27.921  28.675  1.00  0.00     0.049 A 
ATOM     47  H   UNL A   1      40.684  28.744  30.550  1.00  0.00     0.167 HD
ATOM     48  C   UNL A   1      39.956  30.942  34.283  1.00  0.00     0.034 A 
ATOM     49  C   UNL A   1      42.255  27.271  28.769  1.00  0.00     0.034 A 
ATOM     50  C   UNL A   1      41.128  30.153  34.529  1.00  0.00     0.049 A 
ATOM     51  C   UNL A   1      42.966  27.248  30.096  1.00  0.00     0.074 A 
ATOM     52  C   UNL A   1      41.852  30.027  35.700  1.00  0.00     0.029 A 
ATOM     53  N   UNL A   1      41.737  29.338  33.588  1.00  0.00    -0.354 N 
ATOM     54  N   UNL A   1      42.622  27.820  31.225  1.00  0.00    -0.248 NA
ATOM     55  C   UNL A   1      44.203  26.458  30.175  1.00  0.00     0.031 C 
ATOM     56  C   UNL A   1      42.901  29.133  35.466  1.00  0.00     0.029 A 
ATOM     57  C   UNL A   1      42.826  28.700  34.151  1.00  0.00     0.049 A 
ATOM     58  H   UNL A   1      41.439  29.230  32.656  1.00  0.00     0.167 HD
ATOM     59  C   UNL A   1      43.579  27.432  32.156  1.00  0.00     0.074 A 
ATOM     60  C   UNL A   1      44.505  26.559  31.463  1.00  0.00     0.031 C 
ATOM     61  C   UNL A   1      43.695  27.782  33.460  1.00  0.00     0.034 A 
BRANCH  48  62
ATOM     62  C   UNL A   1      39.423  31.813  35.390  1.00  0.00     0.023 A 
ATOM     63  C   UNL A   1      38.457  31.292  36.276  1.00  0.00     0.012 A 
ATOM     64  C   UNL A   1      39.893  33.128  35.575  1.00  0.00     0.148 A 
ATOM     65  C   UNL A   1      37.935  32.077  37.302  1.00  0.00     0.002 A 
ATOM     66  C   UNL A   1      39.400  33.890  36.629  1.00  0.00     0.091 A 
ATOM     67  F   UNL A   1      40.790  33.615  34.708  1.00  0.00    -0.205 F 
ATOM     68  C   UNL A   1      38.414  33.371  37.484  1.00  0.00     0.022 A 
BRANCH  66  69
ATOM     69  S   UNL A   1      40.007  35.541  36.992  1.00  0.00     0.127 S 
ATOM     70  O   UNL A   1      39.289  35.854  38.226  1.00  0.00    -0.237 OA
ATOM     71  O   UNL A   1      41.442  35.312  37.163  1.00  0.00    -0.237 OA
ATOM     72  O   UNL A   1      39.658  36.357  35.838  1.00  0.00    -0.744 OA
ENDBRANCH  66  69
ENDBRANCH  48  62
BRANCH  49  73
ATOM     73  C   UNL A   1      42.780  26.505  27.602  1.00  0.00     0.023 A 
ATOM     74  C   UNL A   1      43.384  27.207  26.540  1.00  0.00     0.012 A 
ATOM     75  C   UNL A   1      42.720  25.100  27.548  1.00  0.00     0.148 A 
ATOM     76  C   UNL A   1      43.891  26.528  25.433  1.00  0.00     0.002 A 
ATOM     77  C   UNL A   1      43.272  24.425  26.464  1.00  0.00     0.091 A 
ATOM     78  F   UNL A   1      42.130  24.449  28.561  1.00  0.00    -0.205 F 
ATOM     79  C   UNL A   1      43.844  25.137  25.399  1.00  0.00     0.022 A 
BRANCH  77  80
ATOM     80  S   UNL A   1      43.369  22.632  26.399  1.00  0.00     0.127 S 
ATOM     81  O   UNL A   1      42.626  22.336  25.179  1.00  0.00    -0.237 OA
ATOM     82  O   UNL A   1      44.813  22.407  26.314  1.00  0.00    -0.237 OA
ATOM     83  O   UNL A   1      42.767  22.168  27.643  1.00  0.00    -0.744 OA
ENDBRANCH  77  80
ENDBRANCH  49  73
BRANCH  61  84
ATOM     84  C   UNL A   1      44.843  27.204  34.240  1.00  0.00     0.023 A 
ATOM     85  C   UNL A   1      46.072  27.891  34.280  1.00  0.00     0.012 A 
ATOM     86  C   UNL A   1      44.676  26.034  35.006  1.00  0.00     0.148 A 
ATOM     87  C   UNL A   1      47.125  27.409  35.054  1.00  0.00     0.002 A 
ATOM     88  C   UNL A   1      45.717  25.584  35.809  1.00  0.00     0.091 A 
ATOM     89  F   UNL A   1      43.504  25.384  34.936  1.00  0.00    -0.205 F 
ATOM     90  C   UNL A   1      46.944  26.265  35.828  1.00  0.00     0.022 A 
BRANCH  88  91
ATOM     91  S   UNL A   1      45.533  24.176  36.910  1.00  0.00     0.127 S 
ATOM     92  O   UNL A   1      44.222  24.433  37.505  1.00  0.00    -0.237 OA
ATOM     93  O   UNL A   1      45.570  23.046  35.981  1.00  0.00    -0.237 OA
ATOM     94  O   UNL A   1      46.664  24.238  37.827  1.00  0.00    -0.744 OA
ENDBRANCH  88  91
ENDBRANCH  61  84
ENDBRANCH  35  36
ENDBRANCH  27  30
ENDBRANCH  25  26
ENDBRANCH  24  25
ENDBRANCH   1  24
TORSDOF 17
ENDMDL
MODEL 3
REMARK VINA RESULT:     -12.1      1.310      1.541
REMARK SMILES C[C@H]1[C@@H](C(=O)NCCCCNC(=O)c2ccc(-c3c4nc(c(-c5cccc(S(=O)(=O)[O-])c5F)c5ccc([nH]5)c(-c5cccc(S(=O)(=O)[O-])c5F)c5nc(c(-c6cccc(S(=O)(=O)[O-])c6F)c6ccc3[nH]6)C=C5)C=C4)cc2)CCN1C(=O)/C=C/c1cccc(F)c1
REMARK SMILES IDX 8 1 7 2 6 3 4 4 5 5 3 7 1 8 2 9 79 10 77 11 78 12 80 13
REMARK SMILES IDX 81 14 82 15 83 16 84 17 85 18 90 19 86 20 88 21 87 22 89 23
REMARK SMILES IDX 9 24 10 25 11 26 12 27 13 29 14 30 15 31 76 32 16 33 75 34
REMARK SMILES IDX 17 35 18 36 19 37 69 38 20 39 74 40 68 41 70 42 21 43 73 44
REMARK SMILES IDX 67 45 66 46 22 48 54 49 34 50 53 51 35 52 38 53 52 54 71 55
REMARK SMILES IDX 36 56 37 57 51 59 72 60 39 61 23 62 24 63 32 64 25 65 27 66
REMARK SMILES IDX 33 67 26 68 28 69 29 70 30 71 31 72 55 73 56 74 64 75 57 76
REMARK SMILES IDX 59 77 65 78 58 79 60 80 61 81 62 82 63 83 40 84 41 85 49 86
REMARK SMILES IDX 42 87 44 88 50 89 43 90 45 91 46 92 47 93 48 94
REMARK H PARENT 6 6 11 28 70 47 38 58
REMARK Flexibility Score: inf
ROOT
ATOM      1  C   UNL A   1      31.920  29.467  25.341  1.00  0.00     0.023 C 
ENDROOT
BRANCH   1   2
ATOM      2  C   UNL A   1      30.954  29.101  24.214  1.00  0.00     0.116 C 
BRANCH   2   3
ATOM      3  N   UNL A   1      31.659  28.393  23.161  1.00  0.00    -0.356 N 
ATOM      4  C   UNL A   1      31.978  27.075  23.029  1.00  0.00     0.225 C 
ATOM      5  O   UNL A   1      32.735  26.776  22.105  1.00  0.00    -0.275 OA
ATOM      6  H   UNL A   1      31.958  28.963  22.415  1.00  0.00     0.163 HD
BRANCH   4   7
ATOM      7  C   UNL A   1      31.331  26.007  23.914  1.00  0.00     0.102 C 
ATOM      8  C   UNL A   1      33.571  25.775  25.277  1.00  0.00     0.032 C 
ATOM      9  C   UNL A   1      32.081  25.477  25.159  1.00  0.00     0.094 C 
ATOM     10  N   UNL A   1      31.913  24.022  25.117  1.00  0.00    -0.336 N 
ATOM     11  C   UNL A   1      30.952  24.730  23.120  1.00  0.00     0.037 C 
ATOM     12  C   UNL A   1      31.749  23.603  23.746  1.00  0.00     0.121 C 
BRANCH  10  13
ATOM     13  C   UNL A   1      32.162  23.113  26.128  1.00  0.00     0.246 C 
ATOM     14  O   UNL A   1      31.679  23.193  27.253  1.00  0.00    -0.270 OA
BRANCH  13  15
ATOM     15  C   UNL A   1      32.953  21.906  25.763  1.00  0.00     0.072 C 
ATOM     16  C   UNL A   1      32.369  20.795  25.290  1.00  0.00     0.014 C 
BRANCH  16  17
ATOM     17  C   UNL A   1      33.019  19.486  25.095  1.00  0.00    -0.023 A 
ATOM     18  C   UNL A   1      34.376  19.469  24.727  1.00  0.00     0.008 A 
ATOM     19  C   UNL A   1      32.343  18.262  25.174  1.00  0.00     0.047 A 
ATOM     20  C   UNL A   1      35.038  18.268  24.446  1.00  0.00     0.004 A 
ATOM     21  C   UNL A   1      33.011  17.070  24.898  1.00  0.00     0.123 A 
ATOM     22  C   UNL A   1      34.350  17.062  24.531  1.00  0.00     0.039 A 
ATOM     23  F   UNL A   1      32.346  15.911  24.978  1.00  0.00    -0.207 F 
ENDBRANCH  16  17
ENDBRANCH  13  15
ENDBRANCH  10  13
ENDBRANCH   4   7
ENDBRANCH   2   3
ENDBRANCH   1   2
BRANCH   1  24
ATOM     24  C   UNL A   1      31.604  30.739  26.106  1.00  0.00     0.023 C 
BRANCH  24  25
ATOM     25  C   UNL A   1      32.619  31.095  27.170  1.00  0.00     0.116 C 
BRANCH  25  26
ATOM     26  N   UNL A   1      32.750  32.531  27.414  1.00  0.00    -0.352 N 
ATOM     27  C   UNL A   1      33.839  33.226  27.892  1.00  0.00     0.251 C 
ATOM     28  H   UNL A   1      31.955  33.074  27.206  1.00  0.00     0.163 HD
ATOM     29  O   UNL A   1      33.771  34.434  28.100  1.00  0.00    -0.269 OA
BRANCH  27  30
ATOM     30  C   UNL A   1      35.072  32.475  28.194  1.00  0.00     0.039 A 
ATOM     31  C   UNL A   1      36.300  33.137  28.174  1.00  0.00     0.014 A 
ATOM     32  C   UNL A   1      34.978  31.156  28.639  1.00  0.00     0.014 A 
ATOM     33  C   UNL A   1      37.425  32.501  28.702  1.00  0.00     0.010 A 
ATOM     34  C   UNL A   1      36.063  30.582  29.281  1.00  0.00     0.010 A 
ATOM     35  C   UNL A   1      37.301  31.241  29.311  1.00  0.00    -0.014 A 
BRANCH  35  36
ATOM     36  C   UNL A   1      38.445  30.574  29.982  1.00  0.00     0.031 A 
ATOM     37  C   UNL A   1      38.824  30.986  31.380  1.00  0.00     0.074 A 
ATOM     38  C   UNL A   1      39.212  29.699  29.300  1.00  0.00     0.049 A 
ATOM     39  N   UNL A   1      39.854  30.624  32.097  1.00  0.00    -0.248 NA
ATOM     40  C   UNL A   1      37.961  31.983  32.039  1.00  0.00     0.031 C 
ATOM     41  C   UNL A   1      39.017  29.301  27.903  1.00  0.00     0.029 A 
ATOM     42  N   UNL A   1      40.332  29.004  29.685  1.00  0.00    -0.354 N 
ATOM     43  C   UNL A   1      39.794  31.388  33.255  1.00  0.00     0.074 A 
ATOM     44  C   UNL A   1      38.659  32.272  33.125  1.00  0.00     0.031 C 
ATOM     45  C   UNL A   1      39.972  28.422  27.556  1.00  0.00     0.029 A 
ATOM     46  C   UNL A   1      40.860  28.210  28.693  1.00  0.00     0.049 A 
ATOM     47  H   UNL A   1      40.721  29.069  30.587  1.00  0.00     0.167 HD
ATOM     48  C   UNL A   1      40.582  31.328  34.353  1.00  0.00     0.034 A 
ATOM     49  C   UNL A   1      41.936  27.397  28.706  1.00  0.00     0.034 A 
ATOM     50  C   UNL A   1      41.644  30.377  34.519  1.00  0.00     0.049 A 
ATOM     51  C   UNL A   1      42.728  27.264  29.979  1.00  0.00     0.074 A 
ATOM     52  C   UNL A   1      42.423  30.142  35.636  1.00  0.00     0.029 A 
ATOM     53  N   UNL A   1      42.062  29.489  33.541  1.00  0.00    -0.354 N 
ATOM     54  N   UNL A   1      42.550  27.873  31.128  1.00  0.00    -0.248 NA
ATOM     55  C   UNL A   1      43.842  26.305  29.974  1.00  0.00     0.031 C 
ATOM     56  C   UNL A   1      43.315  29.108  35.332  1.00  0.00     0.029 A 
ATOM     57  C   UNL A   1      43.085  28.697  34.028  1.00  0.00     0.049 A 
ATOM     58  H   UNL A   1      41.686  29.430  32.633  1.00  0.00     0.167 HD
ATOM     59  C   UNL A   1      43.505  27.347  31.990  1.00  0.00     0.074 A 
ATOM     60  C   UNL A   1      44.245  26.355  31.238  1.00  0.00     0.031 C 
ATOM     61  C   UNL A   1      43.763  27.669  33.281  1.00  0.00     0.034 A 
BRANCH  48  62
ATOM     62  C   UNL A   1      40.260  32.259  35.491  1.00  0.00     0.023 A 
ATOM     63  C   UNL A   1      41.000  33.451  35.639  1.00  0.00     0.012 A 
ATOM     64  C   UNL A   1      39.216  31.978  36.392  1.00  0.00     0.148 A 
ATOM     65  C   UNL A   1      40.735  34.327  36.691  1.00  0.00     0.002 A 
ATOM     66  C   UNL A   1      38.928  32.879  37.412  1.00  0.00     0.091 A 
ATOM     67  F   UNL A   1      38.541  30.828  36.252  1.00  0.00    -0.205 F 
ATOM     68  C   UNL A   1      39.694  34.046  37.569  1.00  0.00     0.022 A 
BRANCH  66  69
ATOM     69  S   UNL A   1      37.558  32.644  38.549  1.00  0.00     0.127 S 
ATOM     70  O   UNL A   1      37.912  33.562  39.630  1.00  0.00    -0.237 OA
ATOM     71  O   UNL A   1      36.412  33.065  37.743  1.00  0.00    -0.237 OA
ATOM     72  O   UNL A   1      37.566  31.231  38.897  1.00  0.00    -0.744 OA
ENDBRANCH  66  69
ENDBRANCH  48  62
BRANCH  49  73
ATOM     73  C   UNL A   1      42.262  26.571  27.509  1.00  0.00     0.023 A 
ATOM     74  C   UNL A   1      42.956  27.166  26.437  1.00  0.00     0.012 A 
ATOM     75  C   UNL A   1      41.926  25.206  27.434  1.00  0.00     0.148 A 
ATOM     76  C   UNL A   1      43.283  26.426  25.300  1.00  0.00     0.002 A 
ATOM     77  C   UNL A   1      42.299  24.462  26.319  1.00  0.00     0.091 A 
ATOM     78  F   UNL A   1      41.254  24.659  28.457  1.00  0.00    -0.205 F 
ATOM     79  C   UNL A   1      42.963  25.072  25.245  1.00  0.00     0.022 A 
BRANCH  77  80
ATOM     80  S   UNL A   1      42.041  22.686  26.222  1.00  0.00     0.127 S 
ATOM     81  O   UNL A   1      40.584  22.595  26.217  1.00  0.00    -0.237 OA
ATOM     82  O   UNL A   1      42.685  22.352  24.950  1.00  0.00    -0.237 OA
ATOM     83  O   UNL A   1      42.711  22.134  27.392  1.00  0.00    -0.744 OA
ENDBRANCH  77  80
ENDBRANCH  49  73
BRANCH  61  84
ATOM     84  C   UNL A   1      44.868  26.928  33.980  1.00  0.00     0.023 A 
ATOM     85  C   UNL A   1      46.203  27.334  33.793  1.00  0.00     0.012 A 
ATOM     86  C   UNL A   1      44.578  25.894  34.891  1.00  0.00     0.148 A 
ATOM     87  C   UNL A   1      47.236  26.707  34.486  1.00  0.00     0.002 A 
ATOM     88  C   UNL A   1      45.609  25.303  35.611  1.00  0.00     0.091 A 
ATOM     89  F   UNL A   1      43.301  25.509  35.038  1.00  0.00    -0.205 F 
ATOM     90  C   UNL A   1      46.938  25.702  35.404  1.00  0.00     0.022 A 
BRANCH  88  91
ATOM     91  S   UNL A   1      45.301  24.071  36.882  1.00  0.00     0.127 S 
ATOM     92  O   UNL A   1      46.511  24.175  37.696  1.00  0.00    -0.237 OA
ATOM     93  O   UNL A   1      44.089  24.580  37.525  1.00  0.00    -0.237 OA
ATOM     94  O   UNL A   1      45.122  22.809  36.178  1.00  0.00    -0.744 OA
ENDBRANCH  88  91
ENDBRANCH  61  84
ENDBRANCH  35  36
ENDBRANCH  27  30
ENDBRANCH  25  26
ENDBRANCH  24  25
ENDBRANCH   1  24
TORSDOF 17
ENDMDL
