MODEL 1
REMARK VINA RESULT:     -11.7      0.000      0.000
REMARK SMILES CCOC(=O)c1sc(NC(=O)CCC(=O)NCCCCNC(=O)c2ccc(-c3c4nc(c(-c5cccc(S(=O)(=O)[O-])c5F)c5ccc([nH]5)c(-c5cccc(S(=O)(=O)[O-])c5F)c5nc(c(-c6cccc(S(=O)(=O)[O-])c6F)c6ccc3[nH]6)C=C5)C=C4)cc2)c(C#N)c1C
REMARK SMILES IDX 17 1 16 2 14 3 15 4 13 6 12 7 10 8 9 9 11 11 8 12 6 13 7 14
REMARK SMILES IDX 90 15 87 16 91 17 4 18 5 19 3 20 2 21 1 22 88 23 89 24 18 25
REMARK SMILES IDX 19 26 20 27 21 28 22 29 23 31 24 32 25 33 86 34 26 35 85 36
REMARK SMILES IDX 27 37 28 38 29 39 79 40 30 41 84 42 78 43 80 44 31 45 83 46
REMARK SMILES IDX 77 47 76 48 32 50 64 51 44 52 63 53 45 54 48 55 62 56 81 57
REMARK SMILES IDX 46 58 47 59 61 61 82 62 49 63 33 64 34 65 42 66 35 67 37 68
REMARK SMILES IDX 43 69 36 70 38 71 39 72 40 73 41 74 65 75 66 76 74 77 67 78
REMARK SMILES IDX 69 79 75 80 68 81 70 82 71 83 72 84 73 85 50 86 51 87 59 88
REMARK SMILES IDX 52 89 54 90 60 91 53 92 55 93 56 94 57 95 58 96
REMARK H PARENT 16 5 9 10 21 30 80 49 48 60
REMARK Flexibility Score: inf
ROOT
ATOM      1  C   UNL A   1      36.230  21.435  25.361  1.00  0.00     0.116 C 
ENDROOT
BRANCH   1   2
ATOM      2  N   UNL A   1      35.507  21.523  26.616  1.00  0.00    -0.356 N 
ATOM      3  C   UNL A   1      34.341  22.156  26.915  1.00  0.00     0.220 C 
ATOM      4  O   UNL A   1      33.795  21.888  27.984  1.00  0.00    -0.275 OA
ATOM      5  H   UNL A   1      35.927  21.050  27.370  1.00  0.00     0.163 HD
BRANCH   3   6
ATOM      6  C   UNL A   1      33.760  23.188  25.983  1.00  0.00     0.110 C 
BRANCH   6   7
ATOM      7  C   UNL A   1      32.365  23.712  26.318  1.00  0.00     0.110 C 
BRANCH   7   8
ATOM      8  C   UNL A   1      31.165  23.188  25.541  1.00  0.00     0.225 C 
ATOM      9  N   UNL A   1      30.626  23.760  24.420  1.00  0.00    -0.317 N 
ATOM     10  H   UNL A   1      29.909  23.232  23.999  1.00  0.00     0.170 HD
ATOM     11  O   UNL A   1      30.643  22.132  25.928  1.00  0.00    -0.275 OA
BRANCH   9  12
ATOM     12  C   UNL A   1      30.913  24.949  23.776  1.00  0.00     0.114 A 
ATOM     13  C   UNL A   1      30.948  27.328  23.214  1.00  0.00     0.118 A 
ATOM     14  S   UNL A   1      29.824  26.242  23.880  1.00  0.00    -0.109 S 
ATOM     15  C   UNL A   1      32.079  26.689  22.733  1.00  0.00    -0.006 A 
ATOM     16  C   UNL A   1      31.947  25.266  22.907  1.00  0.00     0.091 A 
ATOM     17  C   UNL A   1      33.284  27.368  22.152  1.00  0.00     0.048 C 
BRANCH  13  18
ATOM     18  C   UNL A   1      30.570  28.713  23.156  1.00  0.00     0.348 C 
ATOM     19  O   UNL A   1      30.687  29.542  24.047  1.00  0.00    -0.245 OA
BRANCH  18  20
ATOM     20  O   UNL A   1      29.888  28.898  21.992  1.00  0.00    -0.462 OA
BRANCH  20  21
ATOM     21  C   UNL A   1      29.566  30.250  21.669  1.00  0.00     0.230 C 
ATOM     22  C   UNL A   1      28.090  30.406  21.338  1.00  0.00     0.049 C 
ENDBRANCH  20  21
ENDBRANCH  18  20
ENDBRANCH  13  18
BRANCH  16  23
ATOM     23  C   UNL A   1      32.889  24.329  22.343  1.00  0.00     0.103 C 
ATOM     24  N   UNL A   1      33.646  23.593  21.891  1.00  0.00    -0.192 NA
ENDBRANCH  16  23
ENDBRANCH   9  12
ENDBRANCH   7   8
ENDBRANCH   6   7
ENDBRANCH   3   6
ENDBRANCH   1   2
BRANCH   1  25
ATOM     25  C   UNL A   1      36.765  20.041  25.008  1.00  0.00     0.023 C 
BRANCH  25  26
ATOM     26  C   UNL A   1      38.248  19.953  24.659  1.00  0.00     0.023 C 
BRANCH  26  27
ATOM     27  C   UNL A   1      39.167  20.249  25.815  1.00  0.00     0.116 C 
BRANCH  27  28
ATOM     28  N   UNL A   1      40.292  19.312  25.886  1.00  0.00    -0.352 N 
ATOM     29  C   UNL A   1      41.645  19.614  25.923  1.00  0.00     0.251 C 
ATOM     30  H   UNL A   1      40.061  18.355  25.909  1.00  0.00     0.163 HD
ATOM     31  O   UNL A   1      42.493  18.793  25.599  1.00  0.00    -0.269 OA
BRANCH  29  32
ATOM     32  C   UNL A   1      42.033  20.940  26.427  1.00  0.00     0.039 A 
ATOM     33  C   UNL A   1      42.347  22.042  25.628  1.00  0.00     0.014 A 
ATOM     34  C   UNL A   1      42.025  21.070  27.799  1.00  0.00     0.014 A 
ATOM     35  C   UNL A   1      42.641  23.248  26.271  1.00  0.00     0.010 A 
ATOM     36  C   UNL A   1      41.756  22.308  28.262  1.00  0.00     0.010 A 
ATOM     37  C   UNL A   1      42.377  23.353  27.640  1.00  0.00    -0.014 A 
BRANCH  37  38
ATOM     38  C   UNL A   1      42.423  24.573  28.427  1.00  0.00     0.031 A 
ATOM     39  C   UNL A   1      41.194  25.366  28.187  1.00  0.00     0.074 A 
ATOM     40  C   UNL A   1      43.340  24.768  29.413  1.00  0.00     0.049 A 
ATOM     41  N   UNL A   1      41.036  26.269  27.272  1.00  0.00    -0.248 NA
ATOM     42  C   UNL A   1      39.913  24.883  28.744  1.00  0.00     0.031 C 
ATOM     43  C   UNL A   1      44.340  23.819  29.945  1.00  0.00     0.029 A 
ATOM     44  N   UNL A   1      43.544  25.845  30.221  1.00  0.00    -0.354 N 
ATOM     45  C   UNL A   1      39.737  26.728  27.471  1.00  0.00     0.074 A 
ATOM     46  C   UNL A   1      39.036  25.631  28.067  1.00  0.00     0.031 C 
ATOM     47  C   UNL A   1      44.850  24.281  31.115  1.00  0.00     0.029 A 
ATOM     48  C   UNL A   1      44.356  25.625  31.339  1.00  0.00     0.049 A 
ATOM     49  H   UNL A   1      43.145  26.724  30.029  1.00  0.00     0.167 HD
ATOM     50  C   UNL A   1      39.521  28.069  27.606  1.00  0.00     0.034 A 
ATOM     51  C   UNL A   1      44.587  26.497  32.362  1.00  0.00     0.034 A 
ATOM     52  C   UNL A   1      40.721  28.779  27.221  1.00  0.00     0.049 A 
ATOM     53  C   UNL A   1      44.223  27.835  31.852  1.00  0.00     0.074 A 
ATOM     54  C   UNL A   1      41.424  29.011  26.060  1.00  0.00     0.029 A 
ATOM     55  N   UNL A   1      41.596  28.914  28.270  1.00  0.00    -0.354 N 
ATOM     56  N   UNL A   1      44.875  28.420  30.886  1.00  0.00    -0.248 NA
ATOM     57  C   UNL A   1      42.875  28.326  32.099  1.00  0.00     0.031 C 
ATOM     58  C   UNL A   1      42.791  29.139  26.449  1.00  0.00     0.029 A 
ATOM     59  C   UNL A   1      42.876  29.096  27.840  1.00  0.00     0.049 A 
ATOM     60  H   UNL A   1      41.330  28.883  29.218  1.00  0.00     0.167 HD
ATOM     61  C   UNL A   1      43.877  28.994  30.120  1.00  0.00     0.074 A 
ATOM     62  C   UNL A   1      42.702  29.051  30.990  1.00  0.00     0.031 C 
ATOM     63  C   UNL A   1      43.986  29.024  28.762  1.00  0.00     0.034 A 
BRANCH  50  64
ATOM     64  C   UNL A   1      38.550  28.733  28.580  1.00  0.00     0.023 A 
ATOM     65  C   UNL A   1      37.641  29.664  28.019  1.00  0.00     0.012 A 
ATOM     66  C   UNL A   1      38.644  28.728  29.992  1.00  0.00     0.148 A 
ATOM     67  C   UNL A   1      36.922  30.569  28.809  1.00  0.00     0.002 A 
ATOM     68  C   UNL A   1      37.890  29.594  30.779  1.00  0.00     0.091 A 
ATOM     69  F   UNL A   1      39.537  27.960  30.610  1.00  0.00    -0.205 F 
ATOM     70  C   UNL A   1      37.047  30.536  30.191  1.00  0.00     0.022 A 
BRANCH  68  71
ATOM     71  S   UNL A   1      38.000  29.584  32.577  1.00  0.00     0.127 S 
ATOM     72  O   UNL A   1      37.206  30.759  32.926  1.00  0.00    -0.237 OA
ATOM     73  O   UNL A   1      37.383  28.298  32.900  1.00  0.00    -0.237 OA
ATOM     74  O   UNL A   1      39.421  29.664  32.895  1.00  0.00    -0.744 OA
ENDBRANCH  68  71
ENDBRANCH  50  64
BRANCH  51  75
ATOM     75  C   UNL A   1      44.805  26.287  33.821  1.00  0.00     0.023 A 
ATOM     76  C   UNL A   1      46.063  26.552  34.414  1.00  0.00     0.012 A 
ATOM     77  C   UNL A   1      43.693  26.160  34.678  1.00  0.00     0.148 A 
ATOM     78  C   UNL A   1      46.198  26.716  35.803  1.00  0.00     0.002 A 
ATOM     79  C   UNL A   1      43.829  26.330  36.056  1.00  0.00     0.091 A 
ATOM     80  F   UNL A   1      42.487  25.968  34.125  1.00  0.00    -0.205 F 
ATOM     81  C   UNL A   1      45.077  26.620  36.622  1.00  0.00     0.022 A 
BRANCH  79  82
ATOM     82  S   UNL A   1      42.422  26.269  37.176  1.00  0.00     0.127 S 
ATOM     83  O   UNL A   1      43.079  26.364  38.480  1.00  0.00    -0.237 OA
ATOM     84  O   UNL A   1      41.670  27.457  36.780  1.00  0.00    -0.237 OA
ATOM     85  O   UNL A   1      41.770  24.993  36.916  1.00  0.00    -0.744 OA
ENDBRANCH  79  82
ENDBRANCH  51  75
BRANCH  63  86
ATOM     86  C   UNL A   1      45.356  28.921  28.165  1.00  0.00     0.023 A 
ATOM     87  C   UNL A   1      45.911  27.750  27.612  1.00  0.00     0.012 A 
ATOM     88  C   UNL A   1      46.040  30.137  28.041  1.00  0.00     0.148 A 
ATOM     89  C   UNL A   1      47.141  27.809  26.943  1.00  0.00     0.002 A 
ATOM     90  C   UNL A   1      47.227  30.200  27.335  1.00  0.00     0.091 A 
ATOM     91  F   UNL A   1      45.483  31.227  28.590  1.00  0.00    -0.205 F 
ATOM     92  C   UNL A   1      47.790  29.037  26.790  1.00  0.00     0.022 A 
BRANCH  90  93
ATOM     93  S   UNL A   1      48.014  31.774  27.010  1.00  0.00     0.127 S 
ATOM     94  O   UNL A   1      47.063  32.404  26.098  1.00  0.00    -0.237 OA
ATOM     95  O   UNL A   1      48.076  32.369  28.345  1.00  0.00    -0.237 OA
ATOM     96  O   UNL A   1      49.318  31.464  26.435  1.00  0.00    -0.744 OA
ENDBRANCH  90  93
ENDBRANCH  63  86
ENDBRANCH  37  38
ENDBRANCH  29  32
ENDBRANCH  27  28
ENDBRANCH  26  27
ENDBRANCH  25  26
ENDBRANCH   1  25
TORSDOF 21
ENDMDL
MODEL 2
REMARK VINA RESULT:     -11.1      3.915      8.964
REMARK SMILES CCOC(=O)c1sc(NC(=O)CCC(=O)NCCCCNC(=O)c2ccc(-c3c4nc(c(-c5cccc(S(=O)(=O)[O-])c5F)c5ccc([nH]5)c(-c5cccc(S(=O)(=O)[O-])c5F)c5nc(c(-c6cccc(S(=O)(=O)[O-])c6F)c6ccc3[nH]6)C=C5)C=C4)cc2)c(C#N)c1C
REMARK SMILES IDX 17 1 16 2 14 3 15 4 13 6 12 7 10 8 9 9 11 11 8 12 6 13 7 14
REMARK SMILES IDX 90 15 87 16 91 17 4 18 5 19 3 20 2 21 1 22 88 23 89 24 18 25
REMARK SMILES IDX 19 26 20 27 21 28 22 29 23 31 24 32 25 33 86 34 26 35 85 36
REMARK SMILES IDX 27 37 28 38 29 39 79 40 30 41 84 42 78 43 80 44 31 45 83 46
REMARK SMILES IDX 77 47 76 48 32 50 64 51 44 52 63 53 45 54 48 55 62 56 81 57
REMARK SMILES IDX 46 58 47 59 61 61 82 62 49 63 33 64 34 65 42 66 35 67 37 68
REMARK SMILES IDX 43 69 36 70 38 71 39 72 40 73 41 74 65 75 66 76 74 77 67 78
REMARK SMILES IDX 69 79 75 80 68 81 70 82 71 83 72 84 73 85 50 86 51 87 59 88
REMARK SMILES IDX 52 89 54 90 60 91 53 92 55 93 56 94 57 95 58 96
REMARK H PARENT 16 5 9 10 21 30 80 49 48 60
REMARK Flexibility Score: inf
ROOT
ATOM      1  C   UNL A   1      34.317  29.873  28.061  1.00  0.00     0.116 C 
ENDROOT
BRANCH   1   2
ATOM      2  N   UNL A   1      33.092  29.165  27.740  1.00  0.00    -0.356 N 
ATOM      3  C   UNL A   1      32.902  28.008  27.051  1.00  0.00     0.220 C 
ATOM      4  O   UNL A   1      31.797  27.471  27.116  1.00  0.00    -0.275 OA
ATOM      5  H   UNL A   1      32.269  29.589  28.073  1.00  0.00     0.163 HD
BRANCH   3   6
ATOM      6  C   UNL A   1      33.999  27.426  26.198  1.00  0.00     0.110 C 
BRANCH   6   7
ATOM      7  C   UNL A   1      33.966  25.917  25.967  1.00  0.00     0.110 C 
BRANCH   7   8
ATOM      8  C   UNL A   1      33.990  25.381  24.542  1.00  0.00     0.225 C 
ATOM      9  N   UNL A   1      33.104  25.705  23.550  1.00  0.00    -0.317 N 
ATOM     10  H   UNL A   1      33.329  25.332  22.666  1.00  0.00     0.170 HD
ATOM     11  O   UNL A   1      34.908  24.607  24.231  1.00  0.00    -0.275 OA
BRANCH   9  12
ATOM     12  C   UNL A   1      31.950  26.465  23.573  1.00  0.00     0.114 A 
ATOM     13  C   UNL A   1      30.274  28.148  22.994  1.00  0.00     0.118 A 
ATOM     14  S   UNL A   1      31.967  28.035  22.937  1.00  0.00    -0.109 S 
ATOM     15  C   UNL A   1      29.696  27.085  23.668  1.00  0.00    -0.006 A 
ATOM     16  C   UNL A   1      30.722  26.205  24.164  1.00  0.00     0.091 A 
ATOM     17  C   UNL A   1      28.222  26.852  23.831  1.00  0.00     0.048 C 
BRANCH  13  18
ATOM     18  C   UNL A   1      29.674  29.327  22.433  1.00  0.00     0.348 C 
ATOM     19  O   UNL A   1      29.703  29.677  21.262  1.00  0.00    -0.245 OA
BRANCH  18  20
ATOM     20  O   UNL A   1      29.219  30.083  23.470  1.00  0.00    -0.462 OA
BRANCH  20  21
ATOM     21  C   UNL A   1      27.865  30.522  23.372  1.00  0.00     0.230 C 
ATOM     22  C   UNL A   1      27.782  32.027  23.174  1.00  0.00     0.049 C 
ENDBRANCH  20  21
ENDBRANCH  18  20
ENDBRANCH  13  18
BRANCH  16  23
ATOM     23  C   UNL A   1      30.432  25.106  25.054  1.00  0.00     0.103 C 
ATOM     24  N   UNL A   1      30.198  24.239  25.771  1.00  0.00    -0.192 NA
ENDBRANCH  16  23
ENDBRANCH   9  12
ENDBRANCH   7   8
ENDBRANCH   6   7
ENDBRANCH   3   6
ENDBRANCH   1   2
BRANCH   1  25
ATOM     25  C   UNL A   1      34.410  31.304  27.515  1.00  0.00     0.023 C 
BRANCH  25  26
ATOM     26  C   UNL A   1      33.261  32.243  27.874  1.00  0.00     0.023 C 
BRANCH  26  27
ATOM     27  C   UNL A   1      33.462  33.661  27.410  1.00  0.00     0.116 C 
BRANCH  27  28
ATOM     28  N   UNL A   1      33.071  34.641  28.429  1.00  0.00    -0.352 N 
ATOM     29  C   UNL A   1      33.448  34.671  29.763  1.00  0.00     0.251 C 
ATOM     30  H   UNL A   1      32.470  35.362  28.131  1.00  0.00     0.163 HD
ATOM     31  O   UNL A   1      32.789  35.275  30.600  1.00  0.00    -0.269 OA
BRANCH  29  32
ATOM     32  C   UNL A   1      34.706  34.004  30.131  1.00  0.00     0.039 A 
ATOM     33  C   UNL A   1      34.822  32.968  31.061  1.00  0.00     0.014 A 
ATOM     34  C   UNL A   1      35.820  34.435  29.444  1.00  0.00     0.014 A 
ATOM     35  C   UNL A   1      36.088  32.406  31.253  1.00  0.00     0.010 A 
ATOM     36  C   UNL A   1      36.787  33.511  29.273  1.00  0.00     0.010 A 
ATOM     37  C   UNL A   1      37.104  32.735  30.351  1.00  0.00    -0.014 A 
BRANCH  37  38
ATOM     38  C   UNL A   1      38.408  32.101  30.266  1.00  0.00     0.031 A 
ATOM     39  C   UNL A   1      38.270  30.757  29.656  1.00  0.00     0.074 A 
ATOM     40  C   UNL A   1      39.565  32.786  30.474  1.00  0.00     0.049 A 
ATOM     41  N   UNL A   1      38.059  29.649  30.292  1.00  0.00    -0.248 NA
ATOM     42  C   UNL A   1      37.966  30.656  28.213  1.00  0.00     0.031 C 
ATOM     43  C   UNL A   1      39.752  34.235  30.698  1.00  0.00     0.029 A 
ATOM     44  N   UNL A   1      40.856  32.353  30.463  1.00  0.00    -0.354 N 
ATOM     45  C   UNL A   1      38.028  28.684  29.290  1.00  0.00     0.074 A 
ATOM     46  C   UNL A   1      37.597  29.375  28.113  1.00  0.00     0.031 C 
ATOM     47  C   UNL A   1      41.061  34.567  30.556  1.00  0.00     0.029 A 
ATOM     48  C   UNL A   1      41.835  33.352  30.403  1.00  0.00     0.049 A 
ATOM     49  H   UNL A   1      41.086  31.397  30.495  1.00  0.00     0.167 HD
ATOM     50  C   UNL A   1      38.830  27.585  29.403  1.00  0.00     0.034 A 
ATOM     51  C   UNL A   1      43.176  33.168  30.236  1.00  0.00     0.034 A 
ATOM     52  C   UNL A   1      39.364  27.529  30.746  1.00  0.00     0.049 A 
ATOM     53  C   UNL A   1      43.447  31.762  30.598  1.00  0.00     0.074 A 
ATOM     54  C   UNL A   1      38.877  27.303  32.015  1.00  0.00     0.029 A 
ATOM     55  N   UNL A   1      40.518  28.262  30.870  1.00  0.00    -0.354 N 
ATOM     56  N   UNL A   1      43.291  31.306  31.810  1.00  0.00    -0.248 NA
ATOM     57  C   UNL A   1      43.454  30.763  29.539  1.00  0.00     0.031 C 
ATOM     58  C   UNL A   1      39.706  28.062  32.893  1.00  0.00     0.029 A 
ATOM     59  C   UNL A   1      40.741  28.640  32.159  1.00  0.00     0.049 A 
ATOM     60  H   UNL A   1      41.112  28.487  30.117  1.00  0.00     0.167 HD
ATOM     61  C   UNL A   1      42.714  30.064  31.620  1.00  0.00     0.074 A 
ATOM     62  C   UNL A   1      42.991  29.715  30.226  1.00  0.00     0.031 C 
ATOM     63  C   UNL A   1      41.762  29.609  32.483  1.00  0.00     0.034 A 
BRANCH  50  64
ATOM     64  C   UNL A   1      39.604  26.912  28.271  1.00  0.00     0.023 A 
ATOM     65  C   UNL A   1      39.490  25.503  28.188  1.00  0.00     0.012 A 
ATOM     66  C   UNL A   1      40.623  27.502  27.488  1.00  0.00     0.148 A 
ATOM     67  C   UNL A   1      40.371  24.729  27.422  1.00  0.00     0.002 A 
ATOM     68  C   UNL A   1      41.467  26.736  26.687  1.00  0.00     0.091 A 
ATOM     69  F   UNL A   1      40.875  28.806  27.570  1.00  0.00    -0.205 F 
ATOM     70  C   UNL A   1      41.362  25.346  26.672  1.00  0.00     0.022 A 
BRANCH  68  71
ATOM     71  S   UNL A   1      42.759  27.484  25.680  1.00  0.00     0.127 S 
ATOM     72  O   UNL A   1      43.608  28.094  26.699  1.00  0.00    -0.237 OA
ATOM     73  O   UNL A   1      43.328  26.311  25.016  1.00  0.00    -0.237 OA
ATOM     74  O   UNL A   1      42.084  28.412  24.781  1.00  0.00    -0.744 OA
ENDBRANCH  68  71
ENDBRANCH  50  64
BRANCH  51  75
ATOM     75  C   UNL A   1      44.210  33.969  29.522  1.00  0.00     0.023 A 
ATOM     76  C   UNL A   1      45.266  34.590  30.232  1.00  0.00     0.012 A 
ATOM     77  C   UNL A   1      44.353  33.833  28.126  1.00  0.00     0.148 A 
ATOM     78  C   UNL A   1      46.430  35.028  29.578  1.00  0.00     0.002 A 
ATOM     79  C   UNL A   1      45.513  34.262  27.481  1.00  0.00     0.091 A 
ATOM     80  F   UNL A   1      43.388  33.194  27.451  1.00  0.00    -0.205 F 
ATOM     81  C   UNL A   1      46.559  34.850  28.204  1.00  0.00     0.022 A 
BRANCH  79  82
ATOM     82  S   UNL A   1      45.775  34.026  25.717  1.00  0.00     0.127 S 
ATOM     83  O   UNL A   1      45.637  32.574  25.590  1.00  0.00    -0.237 OA
ATOM     84  O   UNL A   1      44.677  34.799  25.143  1.00  0.00    -0.237 OA
ATOM     85  O   UNL A   1      47.113  34.534  25.449  1.00  0.00    -0.744 OA
ENDBRANCH  79  82
ENDBRANCH  51  75
BRANCH  63  86
ATOM     86  C   UNL A   1      41.728  30.195  33.861  1.00  0.00     0.023 A 
ATOM     87  C   UNL A   1      42.693  29.966  34.861  1.00  0.00     0.012 A 
ATOM     88  C   UNL A   1      40.722  31.147  34.075  1.00  0.00     0.148 A 
ATOM     89  C   UNL A   1      42.641  30.690  36.060  1.00  0.00     0.002 A 
ATOM     90  C   UNL A   1      40.705  31.895  35.237  1.00  0.00     0.091 A 
ATOM     91  F   UNL A   1      39.816  31.329  33.102  1.00  0.00    -0.205 F 
ATOM     92  C   UNL A   1      41.658  31.666  36.240  1.00  0.00     0.022 A 
BRANCH  90  93
ATOM     93  S   UNL A   1      39.542  33.239  35.442  1.00  0.00     0.127 S 
ATOM     94  O   UNL A   1      39.938  33.785  36.738  1.00  0.00    -0.237 OA
ATOM     95  O   UNL A   1      39.850  34.092  34.293  1.00  0.00    -0.237 OA
ATOM     96  O   UNL A   1      38.214  32.637  35.398  1.00  0.00    -0.744 OA
ENDBRANCH  90  93
ENDBRANCH  63  86
ENDBRANCH  37  38
ENDBRANCH  29  32
ENDBRANCH  27  28
ENDBRANCH  26  27
ENDBRANCH  25  26
ENDBRANCH   1  25
TORSDOF 21
ENDMDL
MODEL 3
REMARK VINA RESULT:     -11.1      2.104      2.373
REMARK SMILES CCOC(=O)c1sc(NC(=O)CCC(=O)NCCCCNC(=O)c2ccc(-c3c4nc(c(-c5cccc(S(=O)(=O)[O-])c5F)c5ccc([nH]5)c(-c5cccc(S(=O)(=O)[O-])c5F)c5nc(c(-c6cccc(S(=O)(=O)[O-])c6F)c6ccc3[nH]6)C=C5)C=C4)cc2)c(C#N)c1C
REMARK SMILES IDX 17 1 16 2 14 3 15 4 13 6 12 7 10 8 9 9 11 11 8 12 6 13 7 14
REMARK SMILES IDX 90 15 87 16 91 17 4 18 5 19 3 20 2 21 1 22 88 23 89 24 18 25
REMARK SMILES IDX 19 26 20 27 21 28 22 29 23 31 24 32 25 33 86 34 26 35 85 36
REMARK SMILES IDX 27 37 28 38 29 39 79 40 30 41 84 42 78 43 80 44 31 45 83 46
REMARK SMILES IDX 77 47 76 48 32 50 64 51 44 52 63 53 45 54 48 55 62 56 81 57
REMARK SMILES IDX 46 58 47 59 61 61 82 62 49 63 33 64 34 65 42 66 35 67 37 68
REMARK SMILES IDX 43 69 36 70 38 71 39 72 40 73 41 74 65 75 66 76 74 77 67 78
REMARK SMILES IDX 69 79 75 80 68 81 70 82 71 83 72 84 73 85 50 86 51 87 59 88
REMARK SMILES IDX 52 89 54 90 60 91 53 92 55 93 56 94 57 95 58 96
REMARK H PARENT 16 5 9 10 21 30 80 49 48 60
REMARK Flexibility Score: inf
ROOT
ATOM      1  C   UNL A   1      35.895  21.476  25.526  1.00  0.00     0.116 C 
ENDROOT
BRANCH   1   2
ATOM      2  N   UNL A   1      35.159  21.456  26.776  1.00  0.00    -0.356 N 
ATOM      3  C   UNL A   1      34.037  22.129  27.146  1.00  0.00     0.220 C 
ATOM      4  O   UNL A   1      33.454  21.767  28.167  1.00  0.00    -0.275 OA
ATOM      5  H   UNL A   1      35.530  20.860  27.466  1.00  0.00     0.163 HD
BRANCH   3   6
ATOM      6  C   UNL A   1      33.547  23.312  26.351  1.00  0.00     0.110 C 
BRANCH   6   7
ATOM      7  C   UNL A   1      32.092  23.728  26.557  1.00  0.00     0.110 C 
BRANCH   7   8
ATOM      8  C   UNL A   1      31.020  23.168  25.634  1.00  0.00     0.225 C 
ATOM      9  N   UNL A   1      30.560  23.761  24.488  1.00  0.00    -0.317 N 
ATOM     10  H   UNL A   1      29.929  23.210  23.969  1.00  0.00     0.170 HD
ATOM     11  O   UNL A   1      30.536  22.061  25.914  1.00  0.00    -0.275 OA
BRANCH   9  12
ATOM     12  C   UNL A   1      30.827  24.999  23.934  1.00  0.00     0.114 A 
ATOM     13  C   UNL A   1      30.865  27.417  23.578  1.00  0.00     0.118 A 
ATOM     14  S   UNL A   1      29.765  26.289  24.212  1.00  0.00    -0.109 S 
ATOM     15  C   UNL A   1      31.957  26.812  22.978  1.00  0.00    -0.006 A 
ATOM     16  C   UNL A   1      31.814  25.380  23.036  1.00  0.00     0.091 A 
ATOM     17  C   UNL A   1      33.137  27.527  22.387  1.00  0.00     0.048 C 
BRANCH  13  18
ATOM     18  C   UNL A   1      30.505  28.806  23.661  1.00  0.00     0.348 C 
ATOM     19  O   UNL A   1      30.974  29.640  24.422  1.00  0.00    -0.245 OA
BRANCH  18  20
ATOM     20  O   UNL A   1      29.415  28.991  22.865  1.00  0.00    -0.462 OA
BRANCH  20  21
ATOM     21  C   UNL A   1      29.477  30.107  21.978  1.00  0.00     0.230 C 
ATOM     22  C   UNL A   1      28.126  30.378  21.334  1.00  0.00     0.049 C 
ENDBRANCH  20  21
ENDBRANCH  18  20
ENDBRANCH  13  18
BRANCH  16  23
ATOM     23  C   UNL A   1      32.708  24.487  22.339  1.00  0.00     0.103 C 
ATOM     24  N   UNL A   1      33.428  23.778  21.793  1.00  0.00    -0.192 NA
ENDBRANCH  16  23
ENDBRANCH   9  12
ENDBRANCH   7   8
ENDBRANCH   6   7
ENDBRANCH   3   6
ENDBRANCH   1   2
BRANCH   1  25
ATOM     25  C   UNL A   1      36.353  20.105  25.012  1.00  0.00     0.023 C 
BRANCH  25  26
ATOM     26  C   UNL A   1      37.802  20.009  24.541  1.00  0.00     0.023 C 
BRANCH  26  27
ATOM     27  C   UNL A   1      38.815  20.297  25.618  1.00  0.00     0.116 C 
BRANCH  27  28
ATOM     28  N   UNL A   1      39.816  19.233  25.740  1.00  0.00    -0.352 N 
ATOM     29  C   UNL A   1      41.190  19.374  25.875  1.00  0.00     0.251 C 
ATOM     30  H   UNL A   1      39.474  18.310  25.724  1.00  0.00     0.163 HD
ATOM     31  O   UNL A   1      41.957  18.464  25.588  1.00  0.00    -0.269 OA
BRANCH  29  32
ATOM     32  C   UNL A   1      41.693  20.637  26.437  1.00  0.00     0.039 A 
ATOM     33  C   UNL A   1      42.266  21.673  25.697  1.00  0.00     0.014 A 
ATOM     34  C   UNL A   1      41.520  20.782  27.797  1.00  0.00     0.014 A 
ATOM     35  C   UNL A   1      42.642  22.832  26.382  1.00  0.00     0.010 A 
ATOM     36  C   UNL A   1      41.372  22.051  28.229  1.00  0.00     0.010 A 
ATOM     37  C   UNL A   1      42.215  22.988  27.705  1.00  0.00    -0.014 A 
BRANCH  37  38
ATOM     38  C   UNL A   1      42.329  24.198  28.500  1.00  0.00     0.031 A 
ATOM     39  C   UNL A   1      41.198  25.105  28.193  1.00  0.00     0.074 A 
ATOM     40  C   UNL A   1      43.202  24.306  29.538  1.00  0.00     0.049 A 
ATOM     41  N   UNL A   1      41.179  26.019  27.276  1.00  0.00    -0.248 NA
ATOM     42  C   UNL A   1      39.846  24.746  28.671  1.00  0.00     0.031 C 
ATOM     43  C   UNL A   1      44.074  23.265  30.123  1.00  0.00     0.029 A 
ATOM     44  N   UNL A   1      43.459  25.358  30.364  1.00  0.00    -0.354 N 
ATOM     45  C   UNL A   1      39.921  26.599  27.402  1.00  0.00     0.074 A 
ATOM     46  C   UNL A   1      39.085  25.574  27.948  1.00  0.00     0.031 C 
ATOM     47  C   UNL A   1      44.556  23.676  31.323  1.00  0.00     0.029 A 
ATOM     48  C   UNL A   1      44.179  25.061  31.526  1.00  0.00     0.049 A 
ATOM     49  H   UNL A   1      43.157  26.271  30.154  1.00  0.00     0.167 HD
ATOM     50  C   UNL A   1      39.825  27.955  27.532  1.00  0.00     0.034 A 
ATOM     51  C   UNL A   1      44.431  25.907  32.566  1.00  0.00     0.034 A 
ATOM     52  C   UNL A   1      41.107  28.548  27.221  1.00  0.00     0.049 A 
ATOM     53  C   UNL A   1      44.226  27.273  32.044  1.00  0.00     0.074 A 
ATOM     54  C   UNL A   1      41.897  28.712  26.104  1.00  0.00     0.029 A 
ATOM     55  N   UNL A   1      41.929  28.599  28.320  1.00  0.00    -0.354 N 
ATOM     56  N   UNL A   1      44.986  27.795  31.121  1.00  0.00    -0.248 NA
ATOM     57  C   UNL A   1      42.919  27.891  32.214  1.00  0.00     0.031 C 
ATOM     58  C   UNL A   1      43.244  28.710  26.574  1.00  0.00     0.029 A 
ATOM     59  C   UNL A   1      43.242  28.658  27.967  1.00  0.00     0.049 A 
ATOM     60  H   UNL A   1      41.606  28.592  29.251  1.00  0.00     0.167 HD
ATOM     61  C   UNL A   1      44.093  28.461  30.301  1.00  0.00     0.074 A 
ATOM     62  C   UNL A   1      42.880  28.629  31.101  1.00  0.00     0.031 C 
ATOM     63  C   UNL A   1      44.285  28.481  28.952  1.00  0.00     0.034 A 
BRANCH  50  64
ATOM     64  C   UNL A   1      38.866  28.708  28.451  1.00  0.00     0.023 A 
ATOM     65  C   UNL A   1      38.238  29.850  27.898  1.00  0.00     0.012 A 
ATOM     66  C   UNL A   1      38.753  28.552  29.853  1.00  0.00     0.148 A 
ATOM     67  C   UNL A   1      37.595  30.805  28.695  1.00  0.00     0.002 A 
ATOM     68  C   UNL A   1      38.070  29.476  30.639  1.00  0.00     0.091 A 
ATOM     69  F   UNL A   1      39.388  27.566  30.480  1.00  0.00    -0.205 F 
ATOM     70  C   UNL A   1      37.512  30.619  30.068  1.00  0.00     0.022 A 
BRANCH  68  71
ATOM     71  S   UNL A   1      37.916  29.277  32.423  1.00  0.00     0.127 S 
ATOM     72  O   UNL A   1      36.711  30.053  32.701  1.00  0.00    -0.237 OA
ATOM     73  O   UNL A   1      37.763  27.827  32.542  1.00  0.00    -0.237 OA
ATOM     74  O   UNL A   1      39.151  29.798  32.995  1.00  0.00    -0.744 OA
ENDBRANCH  68  71
ENDBRANCH  50  64
BRANCH  51  75
ATOM     75  C   UNL A   1      44.542  25.676  34.034  1.00  0.00     0.023 A 
ATOM     76  C   UNL A   1      43.410  25.802  34.876  1.00  0.00     0.012 A 
ATOM     77  C   UNL A   1      45.668  25.003  34.549  1.00  0.00     0.148 A 
ATOM     78  C   UNL A   1      43.394  25.247  36.167  1.00  0.00     0.002 A 
ATOM     79  C   UNL A   1      45.646  24.449  35.829  1.00  0.00     0.091 A 
ATOM     80  F   UNL A   1      46.723  24.827  33.742  1.00  0.00    -0.205 F 
ATOM     81  C   UNL A   1      44.507  24.558  36.637  1.00  0.00     0.022 A 
BRANCH  79  82
ATOM     82  S   UNL A   1      47.026  23.503  36.490  1.00  0.00     0.127 S 
ATOM     83  O   UNL A   1      46.413  22.861  37.654  1.00  0.00    -0.237 OA
ATOM     84  O   UNL A   1      47.331  22.601  35.382  1.00  0.00    -0.237 OA
ATOM     85  O   UNL A   1      48.055  24.482  36.809  1.00  0.00    -0.744 OA
ENDBRANCH  79  82
ENDBRANCH  51  75
BRANCH  63  86
ATOM     86  C   UNL A   1      45.671  28.248  28.436  1.00  0.00     0.023 A 
ATOM     87  C   UNL A   1      46.753  29.137  28.594  1.00  0.00     0.012 A 
ATOM     88  C   UNL A   1      45.894  26.977  27.891  1.00  0.00     0.148 A 
ATOM     89  C   UNL A   1      48.041  28.745  28.206  1.00  0.00     0.002 A 
ATOM     90  C   UNL A   1      47.175  26.575  27.559  1.00  0.00     0.091 A 
ATOM     91  F   UNL A   1      44.837  26.164  27.748  1.00  0.00    -0.205 F 
ATOM     92  C   UNL A   1      48.254  27.458  27.705  1.00  0.00     0.022 A 
BRANCH  90  93
ATOM     93  S   UNL A   1      47.499  24.894  27.038  1.00  0.00     0.127 S 
ATOM     94  O   UNL A   1      48.921  24.753  27.344  1.00  0.00    -0.237 OA
ATOM     95  O   UNL A   1      46.603  24.125  27.903  1.00  0.00    -0.237 OA
ATOM     96  O   UNL A   1      47.156  24.834  25.622  1.00  0.00    -0.744 OA
ENDBRANCH  90  93
ENDBRANCH  63  86
ENDBRANCH  37  38
ENDBRANCH  29  32
ENDBRANCH  27  28
ENDBRANCH  26  27
ENDBRANCH  25  26
ENDBRANCH   1  25
TORSDOF 21
ENDMDL
