MODEL 1
REMARK VINA RESULT:     -11.1      0.000      0.000
REMARK SMILES COc1ccc(NCc2ccc(C(=O)NCCCCNC(=O)c3ccc(-c4c5nc(c(-c6cccc(S(=O)(=O)[O-])c6F)c6ccc([nH]6)c(-c6cccc(S(=O)(=O)[O-])c6F)c6nc(c(-c7cccc(S(=O)(=O)[O-])c7F)c7ccc4[nH]7)C=C6)C=C5)cc3)cn2)cc1Br
REMARK SMILES IDX 17 1 16 2 15 3 13 4 14 5 12 7 9 8 10 9 87 10 11 11 86 12
REMARK SMILES IDX 8 13 7 14 6 16 3 17 4 18 89 19 5 20 88 21 90 22 2 23 1 24
REMARK SMILES IDX 18 25 19 26 20 27 21 28 22 30 23 31 24 32 85 33 25 34 84 35
REMARK SMILES IDX 26 36 27 37 28 38 78 39 29 40 83 41 77 42 79 43 30 44 82 45
REMARK SMILES IDX 76 46 75 47 31 49 63 50 43 51 62 52 44 53 47 54 61 55 80 56
REMARK SMILES IDX 45 57 46 58 60 60 81 61 48 62 32 63 33 64 41 65 34 66 36 67
REMARK SMILES IDX 42 68 35 69 37 70 38 71 39 72 40 73 64 74 65 75 73 76 66 77
REMARK SMILES IDX 68 78 74 79 67 80 69 81 70 82 71 83 72 84 49 85 50 86 58 87
REMARK SMILES IDX 51 88 53 89 59 90 52 91 54 92 55 93 56 94 57 95
REMARK H PARENT 15 6 7 15 20 29 79 48 47 59
REMARK Flexibility Score: inf
ROOT
ATOM      1  C   UNL A   1      37.740  20.997  24.625  1.00  0.00     0.023 C 
ENDROOT
BRANCH   1   2
ATOM      2  C   UNL A   1      36.374  21.268  25.256  1.00  0.00     0.116 C 
BRANCH   2   3
ATOM      3  N   UNL A   1      35.497  20.125  25.100  1.00  0.00    -0.352 N 
ATOM      4  C   UNL A   1      34.138  19.999  25.231  1.00  0.00     0.252 C 
ATOM      5  O   UNL A   1      33.623  18.913  24.969  1.00  0.00    -0.269 OA
ATOM      6  H   UNL A   1      35.958  19.290  24.857  1.00  0.00     0.163 HD
BRANCH   4   7
ATOM      7  C   UNL A   1      33.256  21.120  25.630  1.00  0.00     0.058 A 
ATOM      8  C   UNL A   1      31.449  23.162  26.132  1.00  0.00     0.059 A 
ATOM      9  C   UNL A   1      32.390  22.830  27.103  1.00  0.00     0.026 A 
ATOM     10  N   UNL A   1      31.379  22.501  24.946  1.00  0.00    -0.259 NA
ATOM     11  C   UNL A   1      33.291  21.793  26.850  1.00  0.00     0.017 A 
ATOM     12  C   UNL A   1      32.265  21.495  24.733  1.00  0.00     0.125 A 
BRANCH   8  13
ATOM     13  C   UNL A   1      30.434  24.259  26.414  1.00  0.00     0.169 C 
BRANCH  13  14
ATOM     14  N   UNL A   1      31.087  25.481  26.859  1.00  0.00    -0.379 N 
ATOM     15  H   UNL A   1      31.117  25.631  27.831  1.00  0.00     0.160 HD
BRANCH  14  16
ATOM     16  C   UNL A   1      31.668  26.450  26.070  1.00  0.00     0.036 A 
ATOM     17  C   UNL A   1      32.738  28.370  24.288  1.00  0.00     0.133 A 
ATOM     18  C   UNL A   1      33.541  27.789  25.267  1.00  0.00     0.050 A 
ATOM     19  C   UNL A   1      31.409  27.968  24.164  1.00  0.00     0.062 A 
ATOM     20  C   UNL A   1      33.011  26.832  26.142  1.00  0.00     0.029 A 
ATOM     21  C   UNL A   1      30.885  27.026  25.057  1.00  0.00     0.045 A 
ATOM     22  Br  UNL A   1      30.278  28.601  22.779  1.00  0.00    -0.047 Br
BRANCH  17  23
ATOM     23  O   UNL A   1      33.348  29.247  23.431  1.00  0.00    -0.496 OA
ATOM     24  C   UNL A   1      34.137  28.564  22.457  1.00  0.00     0.278 C 
ENDBRANCH  17  23
ENDBRANCH  14  16
ENDBRANCH  13  14
ENDBRANCH   8  13
ENDBRANCH   4   7
ENDBRANCH   2   3
ENDBRANCH   1   2
BRANCH   1  25
ATOM     25  C   UNL A   1      38.329  19.622  24.949  1.00  0.00     0.023 C 
BRANCH  25  26
ATOM     26  C   UNL A   1      39.212  19.576  26.191  1.00  0.00     0.116 C 
BRANCH  26  27
ATOM     27  N   UNL A   1      40.454  18.844  25.989  1.00  0.00    -0.352 N 
ATOM     28  C   UNL A   1      41.743  19.325  26.028  1.00  0.00     0.251 C 
ATOM     29  H   UNL A   1      40.358  17.883  25.799  1.00  0.00     0.163 HD
ATOM     30  O   UNL A   1      42.681  18.602  25.738  1.00  0.00    -0.269 OA
BRANCH  28  31
ATOM     31  C   UNL A   1      41.964  20.743  26.385  1.00  0.00     0.039 A 
ATOM     32  C   UNL A   1      42.281  21.062  27.707  1.00  0.00     0.014 A 
ATOM     33  C   UNL A   1      41.902  21.740  25.408  1.00  0.00     0.014 A 
ATOM     34  C   UNL A   1      42.608  22.380  28.037  1.00  0.00     0.010 A 
ATOM     35  C   UNL A   1      42.291  23.037  25.725  1.00  0.00     0.010 A 
ATOM     36  C   UNL A   1      42.649  23.369  27.041  1.00  0.00    -0.014 A 
BRANCH  36  37
ATOM     37  C   UNL A   1      43.081  24.754  27.345  1.00  0.00     0.031 A 
ATOM     38  C   UNL A   1      42.119  25.723  27.976  1.00  0.00     0.074 A 
ATOM     39  C   UNL A   1      44.302  25.169  26.954  1.00  0.00     0.049 A 
ATOM     40  N   UNL A   1      42.283  26.992  28.240  1.00  0.00    -0.248 NA
ATOM     41  C   UNL A   1      40.787  25.204  28.327  1.00  0.00     0.031 C 
ATOM     42  C   UNL A   1      45.292  24.347  26.256  1.00  0.00     0.029 A 
ATOM     43  N   UNL A   1      44.907  26.397  27.059  1.00  0.00    -0.354 N 
ATOM     44  C   UNL A   1      41.068  27.433  28.750  1.00  0.00     0.074 A 
ATOM     45  C   UNL A   1      40.166  26.303  28.730  1.00  0.00     0.031 C 
ATOM     46  C   UNL A   1      46.378  25.092  25.994  1.00  0.00     0.029 A 
ATOM     47  C   UNL A   1      46.155  26.449  26.483  1.00  0.00     0.049 A 
ATOM     48  H   UNL A   1      44.487  27.168  27.506  1.00  0.00     0.167 HD
ATOM     49  C   UNL A   1      40.743  28.660  29.221  1.00  0.00     0.034 A 
ATOM     50  C   UNL A   1      47.020  27.475  26.360  1.00  0.00     0.034 A 
ATOM     51  C   UNL A   1      41.660  29.764  29.293  1.00  0.00     0.049 A 
ATOM     52  C   UNL A   1      46.657  28.810  26.952  1.00  0.00     0.074 A 
ATOM     53  C   UNL A   1      41.457  31.018  29.840  1.00  0.00     0.029 A 
ATOM     54  N   UNL A   1      42.956  29.746  28.801  1.00  0.00    -0.354 N 
ATOM     55  N   UNL A   1      45.562  29.162  27.581  1.00  0.00    -0.248 NA
ATOM     56  C   UNL A   1      47.661  29.879  26.852  1.00  0.00     0.031 C 
ATOM     57  C   UNL A   1      42.631  31.762  29.673  1.00  0.00     0.029 A 
ATOM     58  C   UNL A   1      43.567  30.967  29.033  1.00  0.00     0.049 A 
ATOM     59  H   UNL A   1      43.380  28.979  28.354  1.00  0.00     0.167 HD
ATOM     60  C   UNL A   1      45.759  30.477  27.986  1.00  0.00     0.074 A 
ATOM     61  C   UNL A   1      47.087  30.854  27.545  1.00  0.00     0.031 C 
ATOM     62  C   UNL A   1      44.912  31.304  28.646  1.00  0.00     0.034 A 
BRANCH  49  63
ATOM     63  C   UNL A   1      39.351  28.853  29.763  1.00  0.00     0.023 A 
ATOM     64  C   UNL A   1      39.080  28.517  31.105  1.00  0.00     0.012 A 
ATOM     65  C   UNL A   1      38.330  29.411  28.971  1.00  0.00     0.148 A 
ATOM     66  C   UNL A   1      37.808  28.702  31.642  1.00  0.00     0.002 A 
ATOM     67  C   UNL A   1      37.073  29.632  29.525  1.00  0.00     0.091 A 
ATOM     68  F   UNL A   1      38.598  29.702  27.690  1.00  0.00    -0.205 F 
ATOM     69  C   UNL A   1      36.808  29.269  30.856  1.00  0.00     0.022 A 
BRANCH  67  70
ATOM     70  S   UNL A   1      35.742  30.425  28.616  1.00  0.00     0.127 S 
ATOM     71  O   UNL A   1      34.770  29.338  28.510  1.00  0.00    -0.237 OA
ATOM     72  O   UNL A   1      35.350  31.507  29.521  1.00  0.00    -0.237 OA
ATOM     73  O   UNL A   1      36.329  30.870  27.359  1.00  0.00    -0.744 OA
ENDBRANCH  67  70
ENDBRANCH  49  63
BRANCH  50  74
ATOM     74  C   UNL A   1      48.350  27.253  25.726  1.00  0.00     0.023 A 
ATOM     75  C   UNL A   1      49.418  26.785  26.515  1.00  0.00     0.012 A 
ATOM     76  C   UNL A   1      48.555  27.464  24.349  1.00  0.00     0.148 A 
ATOM     77  C   UNL A   1      50.674  26.558  25.952  1.00  0.00     0.002 A 
ATOM     78  C   UNL A   1      49.795  27.186  23.783  1.00  0.00     0.091 A 
ATOM     79  F   UNL A   1      47.530  27.922  23.616  1.00  0.00    -0.205 F 
ATOM     80  C   UNL A   1      50.860  26.748  24.586  1.00  0.00     0.022 A 
BRANCH  78  81
ATOM     81  S   UNL A   1      50.083  27.275  22.013  1.00  0.00     0.127 S 
ATOM     82  O   UNL A   1      51.457  26.791  21.907  1.00  0.00    -0.237 OA
ATOM     83  O   UNL A   1      49.065  26.363  21.491  1.00  0.00    -0.237 OA
ATOM     84  O   UNL A   1      49.870  28.672  21.655  1.00  0.00    -0.744 OA
ENDBRANCH  78  81
ENDBRANCH  50  74
BRANCH  62  85
ATOM     85  C   UNL A   1      45.399  32.690  28.972  1.00  0.00     0.023 A 
ATOM     86  C   UNL A   1      46.123  32.914  30.159  1.00  0.00     0.012 A 
ATOM     87  C   UNL A   1      45.218  33.749  28.061  1.00  0.00     0.148 A 
ATOM     88  C   UNL A   1      46.637  34.176  30.447  1.00  0.00     0.002 A 
ATOM     89  C   UNL A   1      45.771  34.994  28.333  1.00  0.00     0.091 A 
ATOM     90  F   UNL A   1      44.507  33.521  26.946  1.00  0.00    -0.205 F 
ATOM     91  C   UNL A   1      46.473  35.213  29.530  1.00  0.00     0.022 A 
BRANCH  89  92
ATOM     92  S   UNL A   1      45.688  36.356  27.165  1.00  0.00     0.127 S 
ATOM     93  O   UNL A   1      46.492  37.376  27.837  1.00  0.00    -0.237 OA
ATOM     94  O   UNL A   1      46.309  35.782  25.970  1.00  0.00    -0.237 OA
ATOM     95  O   UNL A   1      44.273  36.668  27.016  1.00  0.00    -0.744 OA
ENDBRANCH  89  92
ENDBRANCH  62  85
ENDBRANCH  36  37
ENDBRANCH  28  31
ENDBRANCH  26  27
ENDBRANCH  25  26
ENDBRANCH   1  25
TORSDOF 18
ENDMDL
MODEL 2
REMARK VINA RESULT:     -11.1      1.640      2.087
REMARK SMILES COc1ccc(NCc2ccc(C(=O)NCCCCNC(=O)c3ccc(-c4c5nc(c(-c6cccc(S(=O)(=O)[O-])c6F)c6ccc([nH]6)c(-c6cccc(S(=O)(=O)[O-])c6F)c6nc(c(-c7cccc(S(=O)(=O)[O-])c7F)c7ccc4[nH]7)C=C6)C=C5)cc3)cn2)cc1Br
REMARK SMILES IDX 17 1 16 2 15 3 13 4 14 5 12 7 9 8 10 9 87 10 11 11 86 12
REMARK SMILES IDX 8 13 7 14 6 16 3 17 4 18 89 19 5 20 88 21 90 22 2 23 1 24
REMARK SMILES IDX 18 25 19 26 20 27 21 28 22 30 23 31 24 32 85 33 25 34 84 35
REMARK SMILES IDX 26 36 27 37 28 38 78 39 29 40 83 41 77 42 79 43 30 44 82 45
REMARK SMILES IDX 76 46 75 47 31 49 63 50 43 51 62 52 44 53 47 54 61 55 80 56
REMARK SMILES IDX 45 57 46 58 60 60 81 61 48 62 32 63 33 64 41 65 34 66 36 67
REMARK SMILES IDX 42 68 35 69 37 70 38 71 39 72 40 73 64 74 65 75 73 76 66 77
REMARK SMILES IDX 68 78 74 79 67 80 69 81 70 82 71 83 72 84 49 85 50 86 58 87
REMARK SMILES IDX 51 88 53 89 59 90 52 91 54 92 55 93 56 94 57 95
REMARK H PARENT 15 6 7 15 20 29 79 48 47 59
REMARK Flexibility Score: inf
ROOT
ATOM      1  C   UNL A   1      37.551  21.514  24.795  1.00  0.00     0.023 C 
ENDROOT
BRANCH   1   2
ATOM      2  C   UNL A   1      36.127  21.694  25.321  1.00  0.00     0.116 C 
BRANCH   2   3
ATOM      3  N   UNL A   1      35.355  20.480  25.146  1.00  0.00    -0.352 N 
ATOM      4  C   UNL A   1      34.018  20.223  25.310  1.00  0.00     0.252 C 
ATOM      5  O   UNL A   1      33.598  19.103  25.020  1.00  0.00    -0.269 OA
ATOM      6  H   UNL A   1      35.884  19.700  24.858  1.00  0.00     0.163 HD
BRANCH   4   7
ATOM      7  C   UNL A   1      33.049  21.240  25.776  1.00  0.00     0.058 A 
ATOM      8  C   UNL A   1      31.045  23.033  26.453  1.00  0.00     0.059 A 
ATOM      9  C   UNL A   1      32.209  22.992  27.215  1.00  0.00     0.026 A 
ATOM     10  N   UNL A   1      30.854  22.205  25.391  1.00  0.00    -0.259 NA
ATOM     11  C   UNL A   1      33.211  22.080  26.877  1.00  0.00     0.017 A 
ATOM     12  C   UNL A   1      31.844  21.327  25.092  1.00  0.00     0.125 A 
BRANCH   8  13
ATOM     13  C   UNL A   1      29.928  23.991  26.837  1.00  0.00     0.169 C 
BRANCH  13  14
ATOM     14  N   UNL A   1      30.318  25.375  26.611  1.00  0.00    -0.379 N 
ATOM     15  H   UNL A   1      30.601  25.884  27.404  1.00  0.00     0.160 HD
BRANCH  14  16
ATOM     16  C   UNL A   1      30.335  26.049  25.409  1.00  0.00     0.036 A 
ATOM     17  C   UNL A   1      30.527  27.556  23.022  1.00  0.00     0.133 A 
ATOM     18  C   UNL A   1      29.293  27.081  23.461  1.00  0.00     0.050 A 
ATOM     19  C   UNL A   1      31.666  27.319  23.790  1.00  0.00     0.062 A 
ATOM     20  C   UNL A   1      29.200  26.343  24.649  1.00  0.00     0.029 A 
ATOM     21  C   UNL A   1      31.563  26.563  24.964  1.00  0.00     0.045 A 
ATOM     22  Br  UNL A   1      33.363  28.040  23.346  1.00  0.00    -0.047 Br
BRANCH  17  23
ATOM     23  O   UNL A   1      30.524  28.324  21.889  1.00  0.00    -0.496 OA
ATOM     24  C   UNL A   1      29.993  29.626  22.139  1.00  0.00     0.278 C 
ENDBRANCH  17  23
ENDBRANCH  14  16
ENDBRANCH  13  14
ENDBRANCH   8  13
ENDBRANCH   4   7
ENDBRANCH   2   3
ENDBRANCH   1   2
BRANCH   1  25
ATOM     25  C   UNL A   1      38.241  20.227  25.255  1.00  0.00     0.023 C 
BRANCH  25  26
ATOM     26  C   UNL A   1      39.500  20.435  26.091  1.00  0.00     0.116 C 
BRANCH  26  27
ATOM     27  N   UNL A   1      40.421  19.309  26.035  1.00  0.00    -0.352 N 
ATOM     28  C   UNL A   1      41.792  19.324  26.149  1.00  0.00     0.251 C 
ATOM     29  H   UNL A   1      40.009  18.425  25.897  1.00  0.00     0.163 HD
ATOM     30  O   UNL A   1      42.437  18.302  25.981  1.00  0.00    -0.269 OA
BRANCH  28  31
ATOM     31  C   UNL A   1      42.470  20.607  26.435  1.00  0.00     0.039 A 
ATOM     32  C   UNL A   1      42.940  21.371  25.365  1.00  0.00     0.014 A 
ATOM     33  C   UNL A   1      42.595  21.068  27.747  1.00  0.00     0.014 A 
ATOM     34  C   UNL A   1      43.477  22.638  25.607  1.00  0.00     0.010 A 
ATOM     35  C   UNL A   1      43.069  22.355  27.980  1.00  0.00     0.010 A 
ATOM     36  C   UNL A   1      43.512  23.152  26.913  1.00  0.00    -0.014 A 
BRANCH  36  37
ATOM     37  C   UNL A   1      43.990  24.529  27.190  1.00  0.00     0.031 A 
ATOM     38  C   UNL A   1      43.032  25.571  27.699  1.00  0.00     0.074 A 
ATOM     39  C   UNL A   1      45.257  24.866  26.879  1.00  0.00     0.049 A 
ATOM     40  N   UNL A   1      43.240  26.842  27.920  1.00  0.00    -0.248 NA
ATOM     41  C   UNL A   1      41.652  25.133  27.966  1.00  0.00     0.031 C 
ATOM     42  C   UNL A   1      46.254  23.965  26.298  1.00  0.00     0.029 A 
ATOM     43  N   UNL A   1      45.913  26.067  26.978  1.00  0.00    -0.354 N 
ATOM     44  C   UNL A   1      42.013  27.363  28.312  1.00  0.00     0.074 A 
ATOM     45  C   UNL A   1      41.059  26.278  28.271  1.00  0.00     0.031 C 
ATOM     46  C   UNL A   1      47.393  24.645  26.090  1.00  0.00     0.029 A 
ATOM     47  C   UNL A   1      47.203  26.033  26.500  1.00  0.00     0.049 A 
ATOM     48  H   UNL A   1      45.500  26.878  27.355  1.00  0.00     0.167 HD
ATOM     49  C   UNL A   1      41.716  28.625  28.703  1.00  0.00     0.034 A 
ATOM     50  C   UNL A   1      48.125  27.010  26.402  1.00  0.00     0.034 A 
ATOM     51  C   UNL A   1      42.680  29.686  28.798  1.00  0.00     0.049 A 
ATOM     52  C   UNL A   1      47.786  28.387  26.903  1.00  0.00     0.074 A 
ATOM     53  C   UNL A   1      42.500  30.973  29.273  1.00  0.00     0.029 A 
ATOM     54  N   UNL A   1      44.007  29.584  28.412  1.00  0.00    -0.354 N 
ATOM     55  N   UNL A   1      46.666  28.820  27.429  1.00  0.00    -0.248 NA
ATOM     56  C   UNL A   1      48.849  29.401  26.837  1.00  0.00     0.031 C 
ATOM     57  C   UNL A   1      43.719  31.653  29.166  1.00  0.00     0.029 A 
ATOM     58  C   UNL A   1      44.660  30.784  28.637  1.00  0.00     0.049 A 
ATOM     59  H   UNL A   1      44.425  28.777  28.033  1.00  0.00     0.167 HD
ATOM     60  C   UNL A   1      46.898  30.142  27.789  1.00  0.00     0.074 A 
ATOM     61  C   UNL A   1      48.274  30.434  27.439  1.00  0.00     0.031 C 
ATOM     62  C   UNL A   1      46.046  31.038  28.344  1.00  0.00     0.034 A 
BRANCH  49  63
ATOM     63  C   UNL A   1      40.298  28.909  29.123  1.00  0.00     0.023 A 
ATOM     64  C   UNL A   1      39.331  29.195  28.138  1.00  0.00     0.012 A 
ATOM     65  C   UNL A   1      39.909  28.841  30.475  1.00  0.00     0.148 A 
ATOM     66  C   UNL A   1      38.006  29.443  28.493  1.00  0.00     0.002 A 
ATOM     67  C   UNL A   1      38.577  29.049  30.817  1.00  0.00     0.091 A 
ATOM     68  F   UNL A   1      40.847  28.592  31.400  1.00  0.00    -0.205 F 
ATOM     69  C   UNL A   1      37.628  29.359  29.830  1.00  0.00     0.022 A 
BRANCH  67  70
ATOM     70  S   UNL A   1      37.978  28.889  32.503  1.00  0.00     0.127 S 
ATOM     71  O   UNL A   1      36.594  29.338  32.368  1.00  0.00    -0.237 OA
ATOM     72  O   UNL A   1      38.132  27.454  32.752  1.00  0.00    -0.237 OA
ATOM     73  O   UNL A   1      38.840  29.739  33.315  1.00  0.00    -0.744 OA
ENDBRANCH  67  70
ENDBRANCH  49  63
BRANCH  50  74
ATOM     74  C   UNL A   1      49.487  26.695  25.884  1.00  0.00     0.023 A 
ATOM     75  C   UNL A   1      50.366  25.935  26.681  1.00  0.00     0.012 A 
ATOM     76  C   UNL A   1      49.904  27.107  24.604  1.00  0.00     0.148 A 
ATOM     77  C   UNL A   1      51.645  25.615  26.225  1.00  0.00     0.002 A 
ATOM     78  C   UNL A   1      51.161  26.739  24.134  1.00  0.00     0.091 A 
ATOM     79  F   UNL A   1      49.059  27.841  23.866  1.00  0.00    -0.205 F 
ATOM     80  C   UNL A   1      52.038  26.008  24.949  1.00  0.00     0.022 A 
BRANCH  78  81
ATOM     81  S   UNL A   1      51.696  27.089  22.455  1.00  0.00     0.127 S 
ATOM     82  O   UNL A   1      52.874  26.235  22.332  1.00  0.00    -0.237 OA
ATOM     83  O   UNL A   1      50.538  26.660  21.670  1.00  0.00    -0.237 OA
ATOM     84  O   UNL A   1      51.942  28.524  22.418  1.00  0.00    -0.744 OA
ENDBRANCH  78  81
ENDBRANCH  50  74
BRANCH  62  85
ATOM     85  C   UNL A   1      46.577  32.414  28.646  1.00  0.00     0.023 A 
ATOM     86  C   UNL A   1      47.131  32.684  29.913  1.00  0.00     0.012 A 
ATOM     87  C   UNL A   1      46.607  33.409  27.650  1.00  0.00     0.148 A 
ATOM     88  C   UNL A   1      47.686  33.932  30.190  1.00  0.00     0.002 A 
ATOM     89  C   UNL A   1      47.202  34.635  27.919  1.00  0.00     0.091 A 
ATOM     90  F   UNL A   1      46.055  33.138  26.457  1.00  0.00    -0.205 F 
ATOM     91  C   UNL A   1      47.732  34.903  29.191  1.00  0.00     0.022 A 
BRANCH  89  92
ATOM     92  S   UNL A   1      47.389  35.906  26.663  1.00  0.00     0.127 S 
ATOM     93  O   UNL A   1      48.107  35.185  25.613  1.00  0.00    -0.237 OA
ATOM     94  O   UNL A   1      45.999  36.231  26.337  1.00  0.00    -0.237 OA
ATOM     95  O   UNL A   1      48.127  36.989  27.298  1.00  0.00    -0.744 OA
ENDBRANCH  89  92
ENDBRANCH  62  85
ENDBRANCH  36  37
ENDBRANCH  28  31
ENDBRANCH  26  27
ENDBRANCH  25  26
ENDBRANCH   1  25
TORSDOF 18
ENDMDL
MODEL 3
REMARK VINA RESULT:     -10.8      5.885     11.565
REMARK SMILES COc1ccc(NCc2ccc(C(=O)NCCCCNC(=O)c3ccc(-c4c5nc(c(-c6cccc(S(=O)(=O)[O-])c6F)c6ccc([nH]6)c(-c6cccc(S(=O)(=O)[O-])c6F)c6nc(c(-c7cccc(S(=O)(=O)[O-])c7F)c7ccc4[nH]7)C=C6)C=C5)cc3)cn2)cc1Br
REMARK SMILES IDX 17 1 16 2 15 3 13 4 14 5 12 7 9 8 10 9 87 10 11 11 86 12
REMARK SMILES IDX 8 13 7 14 6 16 3 17 4 18 89 19 5 20 88 21 90 22 2 23 1 24
REMARK SMILES IDX 18 25 19 26 20 27 21 28 22 30 23 31 24 32 85 33 25 34 84 35
REMARK SMILES IDX 26 36 27 37 28 38 78 39 29 40 83 41 77 42 79 43 30 44 82 45
REMARK SMILES IDX 76 46 75 47 31 49 63 50 43 51 62 52 44 53 47 54 61 55 80 56
REMARK SMILES IDX 45 57 46 58 60 60 81 61 48 62 32 63 33 64 41 65 34 66 36 67
REMARK SMILES IDX 42 68 35 69 37 70 38 71 39 72 40 73 64 74 65 75 73 76 66 77
REMARK SMILES IDX 68 78 74 79 67 80 69 81 70 82 71 83 72 84 49 85 50 86 58 87
REMARK SMILES IDX 51 88 53 89 59 90 52 91 54 92 55 93 56 94 57 95
REMARK H PARENT 15 6 7 15 20 29 79 48 47 59
REMARK Flexibility Score: inf
ROOT
ATOM      1  C   UNL A   1      34.807  34.990  28.823  1.00  0.00     0.023 C 
ENDROOT
BRANCH   1   2
ATOM      2  C   UNL A   1      33.326  34.686  29.049  1.00  0.00     0.116 C 
BRANCH   2   3
ATOM      3  N   UNL A   1      32.702  35.721  29.849  1.00  0.00    -0.352 N 
ATOM      4  C   UNL A   1      32.853  36.063  31.168  1.00  0.00     0.252 C 
ATOM      5  O   UNL A   1      32.247  37.048  31.590  1.00  0.00    -0.269 OA
ATOM      6  H   UNL A   1      32.054  36.278  29.359  1.00  0.00     0.163 HD
BRANCH   4   7
ATOM      7  C   UNL A   1      33.745  35.332  32.097  1.00  0.00     0.058 A 
ATOM      8  C   UNL A   1      35.527  34.227  33.910  1.00  0.00     0.059 A 
ATOM      9  C   UNL A   1      34.559  33.415  33.325  1.00  0.00     0.026 A 
ATOM     10  N   UNL A   1      35.615  35.554  33.631  1.00  0.00    -0.259 NA
ATOM     11  C   UNL A   1      33.656  33.980  32.420  1.00  0.00     0.017 A 
ATOM     12  C   UNL A   1      34.720  36.073  32.752  1.00  0.00     0.125 A 
BRANCH   8  13
ATOM     13  C   UNL A   1      36.488  33.634  34.930  1.00  0.00     0.169 C 
BRANCH  13  14
ATOM     14  N   UNL A   1      37.565  32.905  34.279  1.00  0.00    -0.379 N 
ATOM     15  H   UNL A   1      37.531  31.923  34.343  1.00  0.00     0.160 HD
BRANCH  14  16
ATOM     16  C   UNL A   1      38.629  33.438  33.582  1.00  0.00     0.036 A 
ATOM     17  C   UNL A   1      40.743  34.422  31.980  1.00  0.00     0.133 A 
ATOM     18  C   UNL A   1      40.948  34.147  33.331  1.00  0.00     0.050 A 
ATOM     19  C   UNL A   1      39.497  34.169  31.411  1.00  0.00     0.062 A 
ATOM     20  C   UNL A   1      39.901  33.651  34.119  1.00  0.00     0.029 A 
ATOM     21  C   UNL A   1      38.453  33.693  32.213  1.00  0.00     0.045 A 
ATOM     22  Br  UNL A   1      39.161  34.383  29.556  1.00  0.00    -0.047 Br
BRANCH  17  23
ATOM     23  O   UNL A   1      41.833  34.842  31.265  1.00  0.00    -0.496 OA
ATOM     24  C   UNL A   1      42.743  35.579  32.081  1.00  0.00     0.278 C 
ENDBRANCH  17  23
ENDBRANCH  14  16
ENDBRANCH  13  14
ENDBRANCH   8  13
ENDBRANCH   4   7
ENDBRANCH   2   3
ENDBRANCH   1   2
BRANCH   1  25
ATOM     25  C   UNL A   1      35.644  33.784  28.388  1.00  0.00     0.023 C 
BRANCH  25  26
ATOM     26  C   UNL A   1      35.460  32.531  29.240  1.00  0.00     0.116 C 
BRANCH  26  27
ATOM     27  N   UNL A   1      34.577  31.546  28.631  1.00  0.00    -0.352 N 
ATOM     28  C   UNL A   1      34.884  30.271  28.212  1.00  0.00     0.251 C 
ATOM     29  H   UNL A   1      33.643  31.828  28.504  1.00  0.00     0.163 HD
ATOM     30  O   UNL A   1      34.053  29.597  27.627  1.00  0.00    -0.269 OA
BRANCH  28  31
ATOM     31  C   UNL A   1      36.250  29.754  28.444  1.00  0.00     0.039 A 
ATOM     32  C   UNL A   1      37.230  29.987  27.477  1.00  0.00     0.014 A 
ATOM     33  C   UNL A   1      36.566  29.088  29.630  1.00  0.00     0.014 A 
ATOM     34  C   UNL A   1      38.551  29.609  27.731  1.00  0.00     0.010 A 
ATOM     35  C   UNL A   1      37.891  28.771  29.908  1.00  0.00     0.010 A 
ATOM     36  C   UNL A   1      38.895  29.031  28.963  1.00  0.00    -0.014 A 
BRANCH  36  37
ATOM     37  C   UNL A   1      40.303  28.705  29.297  1.00  0.00     0.031 A 
ATOM     38  C   UNL A   1      40.992  27.554  28.617  1.00  0.00     0.074 A 
ATOM     39  C   UNL A   1      40.923  29.376  30.288  1.00  0.00     0.049 A 
ATOM     40  N   UNL A   1      42.185  27.065  28.832  1.00  0.00    -0.248 NA
ATOM     41  C   UNL A   1      40.228  26.840  27.580  1.00  0.00     0.031 C 
ATOM     42  C   UNL A   1      40.328  30.454  31.080  1.00  0.00     0.029 A 
ATOM     43  N   UNL A   1      42.179  29.227  30.821  1.00  0.00    -0.354 N 
ATOM     44  C   UNL A   1      42.300  25.965  27.990  1.00  0.00     0.074 A 
ATOM     45  C   UNL A   1      41.046  25.841  27.282  1.00  0.00     0.031 C 
ATOM     46  C   UNL A   1      41.217  30.868  31.998  1.00  0.00     0.029 A 
ATOM     47  C   UNL A   1      42.435  30.071  31.876  1.00  0.00     0.049 A 
ATOM     48  H   UNL A   1      42.836  28.577  30.480  1.00  0.00     0.167 HD
ATOM     49  C   UNL A   1      43.366  25.152  27.801  1.00  0.00     0.034 A 
ATOM     50  C   UNL A   1      43.525  30.188  32.659  1.00  0.00     0.034 A 
ATOM     51  C   UNL A   1      44.630  25.315  28.464  1.00  0.00     0.049 A 
ATOM     52  C   UNL A   1      44.718  29.314  32.383  1.00  0.00     0.074 A 
ATOM     53  C   UNL A   1      45.801  24.604  28.272  1.00  0.00     0.029 A 
ATOM     54  N   UNL A   1      44.890  26.256  29.449  1.00  0.00    -0.354 N 
ATOM     55  N   UNL A   1      44.867  28.388  31.467  1.00  0.00    -0.248 NA
ATOM     56  C   UNL A   1      45.908  29.526  33.220  1.00  0.00     0.031 C 
ATOM     57  C   UNL A   1      46.769  25.111  29.148  1.00  0.00     0.029 A 
ATOM     58  C   UNL A   1      46.202  26.146  29.875  1.00  0.00     0.049 A 
ATOM     59  H   UNL A   1      44.237  26.907  29.795  1.00  0.00     0.167 HD
ATOM     60  C   UNL A   1      46.175  27.934  31.591  1.00  0.00     0.074 A 
ATOM     61  C   UNL A   1      46.782  28.700  32.661  1.00  0.00     0.031 C 
ATOM     62  C   UNL A   1      46.810  26.960  30.895  1.00  0.00     0.034 A 
BRANCH  49  63
ATOM     63  C   UNL A   1      43.232  24.051  26.782  1.00  0.00     0.023 A 
ATOM     64  C   UNL A   1      43.837  24.204  25.518  1.00  0.00     0.012 A 
ATOM     65  C   UNL A   1      42.560  22.852  27.087  1.00  0.00     0.148 A 
ATOM     66  C   UNL A   1      43.748  23.196  24.561  1.00  0.00     0.002 A 
ATOM     67  C   UNL A   1      42.511  21.833  26.141  1.00  0.00     0.091 A 
ATOM     68  F   UNL A   1      41.970  22.734  28.285  1.00  0.00    -0.205 F 
ATOM     69  C   UNL A   1      43.095  22.007  24.876  1.00  0.00     0.022 A 
BRANCH  67  70
ATOM     70  S   UNL A   1      41.757  20.238  26.479  1.00  0.00     0.127 S 
ATOM     71  O   UNL A   1      40.336  20.579  26.485  1.00  0.00    -0.237 OA
ATOM     72  O   UNL A   1      42.188  19.442  25.329  1.00  0.00    -0.237 OA
ATOM     73  O   UNL A   1      42.305  19.801  27.756  1.00  0.00    -0.744 OA
ENDBRANCH  67  70
ENDBRANCH  49  63
BRANCH  50  74
ATOM     74  C   UNL A   1      43.568  31.232  33.721  1.00  0.00     0.023 A 
ATOM     75  C   UNL A   1      44.239  32.444  33.466  1.00  0.00     0.012 A 
ATOM     76  C   UNL A   1      42.922  31.053  34.960  1.00  0.00     0.148 A 
ATOM     77  C   UNL A   1      44.292  33.447  34.435  1.00  0.00     0.002 A 
ATOM     78  C   UNL A   1      42.934  32.077  35.901  1.00  0.00     0.091 A 
ATOM     79  F   UNL A   1      42.301  29.888  35.190  1.00  0.00    -0.205 F 
ATOM     80  C   UNL A   1      43.632  33.268  35.647  1.00  0.00     0.022 A 
BRANCH  78  81
ATOM     81  S   UNL A   1      41.999  31.983  37.432  1.00  0.00     0.127 S 
ATOM     82  O   UNL A   1      40.668  31.626  36.949  1.00  0.00    -0.237 OA
ATOM     83  O   UNL A   1      42.700  30.920  38.153  1.00  0.00    -0.237 OA
ATOM     84  O   UNL A   1      42.123  33.300  38.044  1.00  0.00    -0.744 OA
ENDBRANCH  78  81
ENDBRANCH  50  74
BRANCH  62  85
ATOM     85  C   UNL A   1      48.250  26.683  31.235  1.00  0.00     0.023 A 
ATOM     86  C   UNL A   1      49.270  27.420  30.602  1.00  0.00     0.012 A 
ATOM     87  C   UNL A   1      48.587  25.757  32.242  1.00  0.00     0.148 A 
ATOM     88  C   UNL A   1      50.605  27.224  30.950  1.00  0.00     0.002 A 
ATOM     89  C   UNL A   1      49.916  25.599  32.615  1.00  0.00     0.091 A 
ATOM     90  F   UNL A   1      47.603  25.050  32.817  1.00  0.00    -0.205 F 
ATOM     91  C   UNL A   1      50.927  26.323  31.963  1.00  0.00     0.022 A 
BRANCH  89  92
ATOM     92  S   UNL A   1      50.409  24.531  33.973  1.00  0.00     0.127 S 
ATOM     93  O   UNL A   1      49.887  23.236  33.540  1.00  0.00    -0.237 OA
ATOM     94  O   UNL A   1      51.869  24.641  33.943  1.00  0.00    -0.237 OA
ATOM     95  O   UNL A   1      49.789  25.092  35.166  1.00  0.00    -0.744 OA
ENDBRANCH  89  92
ENDBRANCH  62  85
ENDBRANCH  36  37
ENDBRANCH  28  31
ENDBRANCH  26  27
ENDBRANCH  25  26
ENDBRANCH   1  25
TORSDOF 18
ENDMDL
