MODEL 1
REMARK VINA RESULT:     -10.1      0.000      0.000
REMARK SMILES O=C(NCCCCNC(=O)c1ccc(N2C(=O)/C(=C\C3=Cc4ccccc4OC3)SC2=S)cc1)c1ccc(-c2c3nc(c(-c4cccc(S(=O)(=O)[O-])c4F)c4ccc([nH]4)c(-c4cccc(S(=O)(=O)[O-])c4F)c4nc(c(-c5cccc(S(=O)(=O)[O-])c5F)c5ccc2[nH]5)C=C4)C=C3)cc1
REMARK SMILES IDX 5 1 4 2 3 3 1 4 2 5 35 7 36 8 97 9 37 10 96 11 38 12 39 13
REMARK SMILES IDX 40 14 90 15 41 16 95 17 89 18 91 19 42 20 94 21 88 22 87 23
REMARK SMILES IDX 43 25 75 26 55 27 74 28 56 29 59 30 73 31 92 32 57 33 58 34
REMARK SMILES IDX 72 36 93 37 60 38 44 39 45 40 53 41 46 42 48 43 54 44 47 45
REMARK SMILES IDX 49 46 50 47 51 48 52 49 76 50 77 51 85 52 78 53 80 54 86 55
REMARK SMILES IDX 79 56 81 57 82 58 83 59 84 60 61 61 62 62 70 63 63 64 65 65
REMARK SMILES IDX 71 66 64 67 66 68 67 69 68 70 69 71 6 72 7 73 8 74 9 75
REMARK SMILES IDX 10 77 11 78 12 79 34 80 13 81 33 82 14 83 15 84 16 85 31 86
REMARK SMILES IDX 17 87 18 88 30 89 32 90 19 91 20 92 21 93 29 94 22 95 28 96
REMARK SMILES IDX 23 97 27 98 24 99 26 100 25 101
REMARK H PARENT 3 6 91 24 59 35 8 76
REMARK Flexibility Score: inf
ROOT
ATOM      1  C   UNL A   1      42.394  21.322  26.435  1.00  0.00     0.023 C 
ENDROOT
BRANCH   1   2
ATOM      2  C   UNL A   1      41.175  21.411  27.350  1.00  0.00     0.116 C 
BRANCH   2   3
ATOM      3  N   UNL A   1      39.931  21.560  26.615  1.00  0.00    -0.352 N 
ATOM      4  O   UNL A   1      38.045  22.541  25.896  1.00  0.00    -0.269 OA
ATOM      5  C   UNL A   1      39.144  22.673  26.429  1.00  0.00     0.251 C 
ATOM      6  H   UNL A   1      39.600  20.740  26.184  1.00  0.00     0.163 HD
BRANCH   5   7
ATOM      7  C   UNL A   1      39.594  24.008  26.888  1.00  0.00     0.039 A 
ATOM      8  C   UNL A   1      39.623  24.345  28.244  1.00  0.00     0.014 A 
ATOM      9  C   UNL A   1      40.034  24.930  25.933  1.00  0.00     0.014 A 
ATOM     10  C   UNL A   1      39.977  25.637  28.637  1.00  0.00     0.010 A 
ATOM     11  C   UNL A   1      40.444  26.205  26.331  1.00  0.00     0.010 A 
ATOM     12  C   UNL A   1      40.391  26.581  27.683  1.00  0.00    -0.014 A 
BRANCH  12  13
ATOM     13  C   UNL A   1      40.811  27.942  28.098  1.00  0.00     0.031 A 
ATOM     14  C   UNL A   1      42.267  28.314  28.150  1.00  0.00     0.074 A 
ATOM     15  C   UNL A   1      39.878  28.829  28.491  1.00  0.00     0.049 A 
ATOM     16  N   UNL A   1      42.819  29.428  28.556  1.00  0.00    -0.248 NA
ATOM     17  C   UNL A   1      43.231  27.298  27.698  1.00  0.00     0.031 C 
ATOM     18  C   UNL A   1      38.439  28.571  28.529  1.00  0.00     0.029 A 
ATOM     19  N   UNL A   1      40.001  30.111  28.966  1.00  0.00    -0.354 N 
ATOM     20  C   UNL A   1      44.191  29.237  28.451  1.00  0.00     0.074 A 
ATOM     21  C   UNL A   1      44.390  27.894  27.945  1.00  0.00     0.031 C 
ATOM     22  C   UNL A   1      37.812  29.651  29.020  1.00  0.00     0.029 A 
ATOM     23  C   UNL A   1      38.807  30.662  29.367  1.00  0.00     0.049 A 
ATOM     24  H   UNL A   1      40.860  30.590  29.013  1.00  0.00     0.167 HD
ATOM     25  C   UNL A   1      45.193  30.103  28.733  1.00  0.00     0.034 A 
ATOM     26  C   UNL A   1      38.540  31.835  29.973  1.00  0.00     0.034 A 
ATOM     27  C   UNL A   1      44.991  31.450  29.197  1.00  0.00     0.049 A 
ATOM     28  C   UNL A   1      39.664  32.791  30.253  1.00  0.00     0.074 A 
ATOM     29  C   UNL A   1      45.940  32.431  29.428  1.00  0.00     0.029 A 
ATOM     30  N   UNL A   1      43.760  32.004  29.511  1.00  0.00    -0.354 N 
ATOM     31  N   UNL A   1      40.943  32.648  30.007  1.00  0.00    -0.248 NA
ATOM     32  C   UNL A   1      39.310  34.081  30.862  1.00  0.00     0.031 C 
ATOM     33  C   UNL A   1      45.282  33.574  29.895  1.00  0.00     0.029 A 
ATOM     34  C   UNL A   1      43.923  33.309  29.942  1.00  0.00     0.049 A 
ATOM     35  H   UNL A   1      42.896  31.537  29.437  1.00  0.00     0.167 HD
ATOM     36  C   UNL A   1      41.544  33.837  30.404  1.00  0.00     0.074 A 
ATOM     37  C   UNL A   1      40.486  34.696  30.893  1.00  0.00     0.031 C 
ATOM     38  C   UNL A   1      42.856  34.177  30.373  1.00  0.00     0.034 A 
BRANCH  25  39
ATOM     39  C   UNL A   1      46.606  29.636  28.504  1.00  0.00     0.023 A 
ATOM     40  C   UNL A   1      47.194  29.804  27.235  1.00  0.00     0.012 A 
ATOM     41  C   UNL A   1      47.368  29.081  29.550  1.00  0.00     0.148 A 
ATOM     42  C   UNL A   1      48.508  29.400  27.001  1.00  0.00     0.002 A 
ATOM     43  C   UNL A   1      48.689  28.711  29.319  1.00  0.00     0.091 A 
ATOM     44  F   UNL A   1      46.787  28.902  30.745  1.00  0.00    -0.205 F 
ATOM     45  C   UNL A   1      49.258  28.862  28.044  1.00  0.00     0.022 A 
BRANCH  43  46
ATOM     46  S   UNL A   1      49.739  28.078  30.632  1.00  0.00     0.127 S 
ATOM     47  O   UNL A   1      51.037  28.001  29.963  1.00  0.00    -0.237 OA
ATOM     48  O   UNL A   1      49.643  29.125  31.651  1.00  0.00    -0.237 OA
ATOM     49  O   UNL A   1      49.145  26.806  31.022  1.00  0.00    -0.744 OA
ENDBRANCH  43  46
ENDBRANCH  25  39
BRANCH  26  50
ATOM     50  C   UNL A   1      37.127  32.170  30.304  1.00  0.00     0.023 A 
ATOM     51  C   UNL A   1      36.647  31.934  31.606  1.00  0.00     0.012 A 
ATOM     52  C   UNL A   1      36.294  32.811  29.366  1.00  0.00     0.148 A 
ATOM     53  C   UNL A   1      35.358  32.325  31.967  1.00  0.00     0.002 A 
ATOM     54  C   UNL A   1      35.032  33.248  29.749  1.00  0.00     0.091 A 
ATOM     55  F   UNL A   1      36.770  33.015  28.129  1.00  0.00    -0.205 F 
ATOM     56  C   UNL A   1      34.556  32.994  31.045  1.00  0.00     0.022 A 
BRANCH  54  57
ATOM     57  S   UNL A   1      33.989  34.245  28.677  1.00  0.00     0.127 S 
ATOM     58  O   UNL A   1      32.825  34.480  29.527  1.00  0.00    -0.237 OA
ATOM     59  O   UNL A   1      34.831  35.417  28.444  1.00  0.00    -0.237 OA
ATOM     60  O   UNL A   1      33.751  33.431  27.492  1.00  0.00    -0.744 OA
ENDBRANCH  54  57
ENDBRANCH  26  50
BRANCH  38  61
ATOM     61  C   UNL A   1      43.239  35.549  30.859  1.00  0.00     0.023 A 
ATOM     62  C   UNL A   1      43.589  35.736  32.211  1.00  0.00     0.012 A 
ATOM     63  C   UNL A   1      43.359  36.624  29.956  1.00  0.00     0.148 A 
ATOM     64  C   UNL A   1      44.039  36.977  32.659  1.00  0.00     0.002 A 
ATOM     65  C   UNL A   1      43.846  37.847  30.403  1.00  0.00     0.091 A 
ATOM     66  F   UNL A   1      43.001  36.428  28.679  1.00  0.00    -0.205 F 
ATOM     67  C   UNL A   1      44.180  38.027  31.754  1.00  0.00     0.022 A 
BRANCH  65  68
ATOM     68  S   UNL A   1      44.146  39.228  29.293  1.00  0.00     0.127 S 
ATOM     69  O   UNL A   1      45.016  38.619  28.289  1.00  0.00    -0.237 OA
ATOM     70  O   UNL A   1      42.799  39.547  28.822  1.00  0.00    -0.237 OA
ATOM     71  O   UNL A   1      44.764  40.269  30.105  1.00  0.00    -0.744 OA
ENDBRANCH  65  68
ENDBRANCH  38  61
ENDBRANCH  12  13
ENDBRANCH   5   7
ENDBRANCH   2   3
ENDBRANCH   1   2
BRANCH   1  72
ATOM     72  C   UNL A   1      42.552  22.460  25.422  1.00  0.00     0.023 C 
BRANCH  72  73
ATOM     73  C   UNL A   1      43.370  23.663  25.889  1.00  0.00     0.116 C 
BRANCH  73  74
ATOM     74  N   UNL A   1      44.802  23.419  25.866  1.00  0.00    -0.352 N 
ATOM     75  C   UNL A   1      45.757  23.614  26.832  1.00  0.00     0.251 C 
ATOM     76  H   UNL A   1      45.144  23.057  25.017  1.00  0.00     0.163 HD
ATOM     77  O   UNL A   1      46.942  23.443  26.554  1.00  0.00    -0.269 OA
BRANCH  75  78
ATOM     78  C   UNL A   1      45.397  24.063  28.198  1.00  0.00     0.039 A 
ATOM     79  C   UNL A   1      46.279  24.913  28.864  1.00  0.00     0.016 A 
ATOM     80  C   UNL A   1      44.246  23.631  28.852  1.00  0.00     0.016 A 
ATOM     81  C   UNL A   1      45.972  25.390  30.146  1.00  0.00     0.027 A 
ATOM     82  C   UNL A   1      43.936  24.123  30.129  1.00  0.00     0.027 A 
ATOM     83  C   UNL A   1      44.788  25.018  30.802  1.00  0.00     0.051 A 
BRANCH  83  84
ATOM     84  N   UNL A   1      44.401  25.608  32.055  1.00  0.00    -0.261 N 
ATOM     85  C   UNL A   1      43.995  26.943  32.109  1.00  0.00     0.270 C 
ATOM     86  C   UNL A   1      44.416  24.971  33.290  1.00  0.00     0.152 C 
ATOM     87  O   UNL A   1      44.350  27.872  31.409  1.00  0.00    -0.268 OA
ATOM     88  C   UNL A   1      43.146  27.141  33.319  1.00  0.00     0.081 C 
ATOM     89  S   UNL A   1      43.673  26.017  34.517  1.00  0.00    -0.054 SA
ATOM     90  S   UNL A   1      45.084  23.507  33.754  1.00  0.00    -0.051 S 
ATOM     91  C   UNL A   1      42.016  27.851  33.467  1.00  0.00     0.028 C 
BRANCH  91  92
ATOM     92  C   UNL A   1      41.179  28.503  32.453  1.00  0.00    -0.009 C 
ATOM     93  C   UNL A   1      39.843  28.655  32.555  1.00  0.00     0.019 C 
ATOM     94  C   UNL A   1      41.864  29.739  31.880  1.00  0.00     0.265 C 
ATOM     95  C   UNL A   1      39.510  29.944  33.235  1.00  0.00     0.017 A 
ATOM     96  O   UNL A   1      41.743  30.844  32.799  1.00  0.00    -0.488 OA
ATOM     97  C   UNL A   1      38.260  30.115  33.833  1.00  0.00     0.012 A 
ATOM     98  C   UNL A   1      40.489  30.948  33.365  1.00  0.00     0.127 A 
ATOM     99  C   UNL A   1      38.007  31.254  34.598  1.00  0.00     0.001 A 
ATOM    100  C   UNL A   1      40.240  32.074  34.143  1.00  0.00     0.047 A 
ATOM    101  C   UNL A   1      38.999  32.223  34.762  1.00  0.00     0.004 A 
ENDBRANCH  91  92
ENDBRANCH  83  84
ENDBRANCH  75  78
ENDBRANCH  73  74
ENDBRANCH  72  73
ENDBRANCH   1  72
TORSDOF 16
ENDMDL
MODEL 2
REMARK VINA RESULT:      -9.9      0.371      7.448
REMARK SMILES O=C(NCCCCNC(=O)c1ccc(N2C(=O)/C(=C\C3=Cc4ccccc4OC3)SC2=S)cc1)c1ccc(-c2c3nc(c(-c4cccc(S(=O)(=O)[O-])c4F)c4ccc([nH]4)c(-c4cccc(S(=O)(=O)[O-])c4F)c4nc(c(-c5cccc(S(=O)(=O)[O-])c5F)c5ccc2[nH]5)C=C4)C=C3)cc1
REMARK SMILES IDX 5 1 4 2 3 3 1 4 2 5 35 7 36 8 97 9 37 10 96 11 38 12 39 13
REMARK SMILES IDX 40 14 90 15 41 16 95 17 89 18 91 19 42 20 94 21 88 22 87 23
REMARK SMILES IDX 43 25 75 26 55 27 74 28 56 29 59 30 73 31 92 32 57 33 58 34
REMARK SMILES IDX 72 36 93 37 60 38 44 39 45 40 53 41 46 42 48 43 54 44 47 45
REMARK SMILES IDX 49 46 50 47 51 48 52 49 76 50 77 51 85 52 78 53 80 54 86 55
REMARK SMILES IDX 79 56 81 57 82 58 83 59 84 60 61 61 62 62 70 63 63 64 65 65
REMARK SMILES IDX 71 66 64 67 66 68 67 69 68 70 69 71 6 72 7 73 8 74 9 75
REMARK SMILES IDX 10 77 11 78 12 79 34 80 13 81 33 82 14 83 15 84 16 85 31 86
REMARK SMILES IDX 17 87 18 88 30 89 32 90 19 91 20 92 21 93 29 94 22 95 28 96
REMARK SMILES IDX 23 97 27 98 24 99 26 100 25 101
REMARK H PARENT 3 6 91 24 59 35 8 76
REMARK Flexibility Score: inf
ROOT
ATOM      1  C   UNL A   1      42.268  21.523  26.112  1.00  0.00     0.023 C 
ENDROOT
BRANCH   1   2
ATOM      2  C   UNL A   1      41.094  21.602  27.085  1.00  0.00     0.116 C 
BRANCH   2   3
ATOM      3  N   UNL A   1      39.817  21.769  26.412  1.00  0.00    -0.352 N 
ATOM      4  O   UNL A   1      37.888  22.753  25.828  1.00  0.00    -0.269 OA
ATOM      5  C   UNL A   1      39.006  22.875  26.321  1.00  0.00     0.251 C 
ATOM      6  H   UNL A   1      39.482  20.967  25.950  1.00  0.00     0.163 HD
BRANCH   5   7
ATOM      7  C   UNL A   1      39.453  24.191  26.835  1.00  0.00     0.039 A 
ATOM      8  C   UNL A   1      39.940  25.184  25.981  1.00  0.00     0.014 A 
ATOM      9  C   UNL A   1      39.343  24.445  28.207  1.00  0.00     0.014 A 
ATOM     10  C   UNL A   1      40.425  26.383  26.507  1.00  0.00     0.010 A 
ATOM     11  C   UNL A   1      39.775  25.669  28.726  1.00  0.00     0.010 A 
ATOM     12  C   UNL A   1      40.348  26.637  27.885  1.00  0.00    -0.014 A 
BRANCH  12  13
ATOM     13  C   UNL A   1      40.822  27.927  28.446  1.00  0.00     0.031 A 
ATOM     14  C   UNL A   1      39.842  28.957  28.935  1.00  0.00     0.074 A 
ATOM     15  C   UNL A   1      42.140  28.198  28.455  1.00  0.00     0.049 A 
ATOM     16  N   UNL A   1      40.071  30.163  29.386  1.00  0.00    -0.248 NA
ATOM     17  C   UNL A   1      38.417  28.590  28.904  1.00  0.00     0.031 C 
ATOM     18  C   UNL A   1      43.184  27.298  27.964  1.00  0.00     0.029 A 
ATOM     19  N   UNL A   1      42.824  29.317  28.857  1.00  0.00    -0.354 N 
ATOM     20  C   UNL A   1      38.825  30.716  29.652  1.00  0.00     0.074 A 
ATOM     21  C   UNL A   1      37.839  29.714  29.308  1.00  0.00     0.031 C 
ATOM     22  C   UNL A   1      44.375  27.907  28.075  1.00  0.00     0.029 A 
ATOM     23  C   UNL A   1      44.174  29.251  28.607  1.00  0.00     0.049 A 
ATOM     24  H   UNL A   1      42.391  30.091  29.284  1.00  0.00     0.167 HD
ATOM     25  C   UNL A   1      38.528  31.940  30.152  1.00  0.00     0.034 A 
ATOM     26  C   UNL A   1      45.143  30.176  28.760  1.00  0.00     0.034 A 
ATOM     27  C   UNL A   1      39.512  32.919  30.532  1.00  0.00     0.049 A 
ATOM     28  C   UNL A   1      44.795  31.517  29.341  1.00  0.00     0.074 A 
ATOM     29  C   UNL A   1      39.312  34.152  31.127  1.00  0.00     0.029 A 
ATOM     30  N   UNL A   1      40.879  32.783  30.344  1.00  0.00    -0.354 N 
ATOM     31  N   UNL A   1      43.625  31.965  29.725  1.00  0.00    -0.248 NA
ATOM     32  C   UNL A   1      45.898  32.467  29.540  1.00  0.00     0.031 C 
ATOM     33  C   UNL A   1      40.558  34.767  31.287  1.00  0.00     0.029 A 
ATOM     34  C   UNL A   1      41.535  33.912  30.802  1.00  0.00     0.049 A 
ATOM     35  H   UNL A   1      41.318  31.998  29.944  1.00  0.00     0.167 HD
ATOM     36  C   UNL A   1      43.853  33.237  30.238  1.00  0.00     0.074 A 
ATOM     37  C   UNL A   1      45.276  33.482  30.128  1.00  0.00     0.031 C 
ATOM     38  C   UNL A   1      42.959  34.123  30.742  1.00  0.00     0.034 A 
BRANCH  25  39
ATOM     39  C   UNL A   1      37.075  32.275  30.363  1.00  0.00     0.023 A 
ATOM     40  C   UNL A   1      36.477  32.009  31.611  1.00  0.00     0.012 A 
ATOM     41  C   UNL A   1      36.318  32.897  29.352  1.00  0.00     0.148 A 
ATOM     42  C   UNL A   1      35.139  32.328  31.840  1.00  0.00     0.002 A 
ATOM     43  C   UNL A   1      34.993  33.245  29.600  1.00  0.00     0.091 A 
ATOM     44  F   UNL A   1      36.892  33.120  28.162  1.00  0.00    -0.205 F 
ATOM     45  C   UNL A   1      34.400  32.954  30.839  1.00  0.00     0.022 A 
BRANCH  43  46
ATOM     46  S   UNL A   1      34.000  34.117  28.383  1.00  0.00     0.127 S 
ATOM     47  O   UNL A   1      33.844  33.100  27.344  1.00  0.00    -0.237 OA
ATOM     48  O   UNL A   1      32.775  34.416  29.127  1.00  0.00    -0.237 OA
ATOM     49  O   UNL A   1      34.780  35.291  28.017  1.00  0.00    -0.744 OA
ENDBRANCH  43  46
ENDBRANCH  25  39
BRANCH  26  50
ATOM     50  C   UNL A   1      46.542  29.822  28.392  1.00  0.00     0.023 A 
ATOM     51  C   UNL A   1      47.041  30.195  27.130  1.00  0.00     0.012 A 
ATOM     52  C   UNL A   1      47.405  29.210  29.323  1.00  0.00     0.148 A 
ATOM     53  C   UNL A   1      48.375  29.958  26.798  1.00  0.00     0.002 A 
ATOM     54  C   UNL A   1      48.745  29.028  29.006  1.00  0.00     0.091 A 
ATOM     55  F   UNL A   1      46.903  28.854  30.514  1.00  0.00    -0.205 F 
ATOM     56  C   UNL A   1      49.230  29.389  27.739  1.00  0.00     0.022 A 
BRANCH  54  57
ATOM     57  S   UNL A   1      49.949  28.440  30.203  1.00  0.00     0.127 S 
ATOM     58  O   UNL A   1      49.802  29.416  31.280  1.00  0.00    -0.237 OA
ATOM     59  O   UNL A   1      49.441  27.103  30.509  1.00  0.00    -0.237 OA
ATOM     60  O   UNL A   1      51.231  28.451  29.511  1.00  0.00    -0.744 OA
ENDBRANCH  54  57
ENDBRANCH  26  50
BRANCH  38  61
ATOM     61  C   UNL A   1      43.482  35.441  31.244  1.00  0.00     0.023 A 
ATOM     62  C   UNL A   1      44.011  35.530  32.547  1.00  0.00     0.012 A 
ATOM     63  C   UNL A   1      43.551  36.560  30.390  1.00  0.00     0.148 A 
ATOM     64  C   UNL A   1      44.588  36.717  32.997  1.00  0.00     0.002 A 
ATOM     65  C   UNL A   1      44.163  37.727  30.832  1.00  0.00     0.091 A 
ATOM     66  F   UNL A   1      43.023  36.459  29.161  1.00  0.00    -0.205 F 
ATOM     67  C   UNL A   1      44.676  37.810  32.136  1.00  0.00     0.022 A 
BRANCH  65  68
ATOM     68  S   UNL A   1      44.402  39.154  29.765  1.00  0.00     0.127 S 
ATOM     69  O   UNL A   1      43.044  39.393  29.279  1.00  0.00    -0.237 OA
ATOM     70  O   UNL A   1      44.902  40.161  30.700  1.00  0.00    -0.237 OA
ATOM     71  O   UNL A   1      45.364  38.740  28.751  1.00  0.00    -0.744 OA
ENDBRANCH  65  68
ENDBRANCH  38  61
ENDBRANCH  12  13
ENDBRANCH   5   7
ENDBRANCH   2   3
ENDBRANCH   1   2
BRANCH   1  72
ATOM     72  C   UNL A   1      42.595  22.813  25.355  1.00  0.00     0.023 C 
BRANCH  72  73
ATOM     73  C   UNL A   1      43.386  23.863  26.134  1.00  0.00     0.116 C 
BRANCH  73  74
ATOM     74  N   UNL A   1      44.817  23.614  26.131  1.00  0.00    -0.352 N 
ATOM     75  C   UNL A   1      45.759  23.806  27.111  1.00  0.00     0.251 C 
ATOM     76  H   UNL A   1      45.169  23.249  25.288  1.00  0.00     0.163 HD
ATOM     77  O   UNL A   1      46.947  23.629  26.850  1.00  0.00    -0.269 OA
BRANCH  75  78
ATOM     78  C   UNL A   1      45.381  24.258  28.471  1.00  0.00     0.039 A 
ATOM     79  C   UNL A   1      46.241  25.133  29.134  1.00  0.00     0.016 A 
ATOM     80  C   UNL A   1      44.236  23.807  29.122  1.00  0.00     0.016 A 
ATOM     81  C   UNL A   1      45.916  25.614  30.410  1.00  0.00     0.027 A 
ATOM     82  C   UNL A   1      43.908  24.303  30.393  1.00  0.00     0.027 A 
ATOM     83  C   UNL A   1      44.737  25.221  31.063  1.00  0.00     0.051 A 
BRANCH  83  84
ATOM     84  N   UNL A   1      44.330  25.814  32.309  1.00  0.00    -0.261 N 
ATOM     85  C   UNL A   1      43.905  27.144  32.351  1.00  0.00     0.270 C 
ATOM     86  C   UNL A   1      44.343  25.185  33.548  1.00  0.00     0.152 C 
ATOM     87  O   UNL A   1      44.254  28.074  31.648  1.00  0.00    -0.268 OA
ATOM     88  C   UNL A   1      43.042  27.337  33.552  1.00  0.00     0.081 C 
ATOM     89  S   UNL A   1      43.573  26.228  34.762  1.00  0.00    -0.054 SA
ATOM     90  S   UNL A   1      45.027  23.733  34.027  1.00  0.00    -0.051 S 
ATOM     91  C   UNL A   1      41.901  28.031  33.685  1.00  0.00     0.028 C 
BRANCH  91  92
ATOM     92  C   UNL A   1      41.064  28.665  32.660  1.00  0.00    -0.009 C 
ATOM     93  C   UNL A   1      39.729  28.820  32.758  1.00  0.00     0.019 C 
ATOM     94  C   UNL A   1      41.749  29.891  32.065  1.00  0.00     0.265 C 
ATOM     95  C   UNL A   1      39.395  30.120  33.415  1.00  0.00     0.017 A 
ATOM     96  O   UNL A   1      41.628  31.013  32.964  1.00  0.00    -0.488 OA
ATOM     97  C   UNL A   1      38.144  30.301  34.009  1.00  0.00     0.012 A 
ATOM     98  C   UNL A   1      40.374  31.126  33.528  1.00  0.00     0.127 A 
ATOM     99  C   UNL A   1      37.892  31.454  34.754  1.00  0.00     0.001 A 
ATOM    100  C   UNL A   1      40.125  32.265  34.286  1.00  0.00     0.047 A 
ATOM    101  C   UNL A   1      38.883  32.426  34.902  1.00  0.00     0.004 A 
ENDBRANCH  91  92
ENDBRANCH  83  84
ENDBRANCH  75  78
ENDBRANCH  73  74
ENDBRANCH  72  73
ENDBRANCH   1  72
TORSDOF 16
ENDMDL
MODEL 3
REMARK VINA RESULT:      -9.4      5.135     10.856
REMARK SMILES O=C(NCCCCNC(=O)c1ccc(N2C(=O)/C(=C\C3=Cc4ccccc4OC3)SC2=S)cc1)c1ccc(-c2c3nc(c(-c4cccc(S(=O)(=O)[O-])c4F)c4ccc([nH]4)c(-c4cccc(S(=O)(=O)[O-])c4F)c4nc(c(-c5cccc(S(=O)(=O)[O-])c5F)c5ccc2[nH]5)C=C4)C=C3)cc1
REMARK SMILES IDX 5 1 4 2 3 3 1 4 2 5 35 7 36 8 97 9 37 10 96 11 38 12 39 13
REMARK SMILES IDX 40 14 90 15 41 16 95 17 89 18 91 19 42 20 94 21 88 22 87 23
REMARK SMILES IDX 43 25 75 26 55 27 74 28 56 29 59 30 73 31 92 32 57 33 58 34
REMARK SMILES IDX 72 36 93 37 60 38 44 39 45 40 53 41 46 42 48 43 54 44 47 45
REMARK SMILES IDX 49 46 50 47 51 48 52 49 76 50 77 51 85 52 78 53 80 54 86 55
REMARK SMILES IDX 79 56 81 57 82 58 83 59 84 60 61 61 62 62 70 63 63 64 65 65
REMARK SMILES IDX 71 66 64 67 66 68 67 69 68 70 69 71 6 72 7 73 8 74 9 75
REMARK SMILES IDX 10 77 11 78 12 79 34 80 13 81 33 82 14 83 15 84 16 85 31 86
REMARK SMILES IDX 17 87 18 88 30 89 32 90 19 91 20 92 21 93 29 94 22 95 28 96
REMARK SMILES IDX 23 97 27 98 24 99 26 100 25 101
REMARK H PARENT 3 6 91 24 59 35 8 76
REMARK Flexibility Score: inf
ROOT
ATOM      1  C   UNL A   1      31.433  31.924  26.518  1.00  0.00     0.023 C 
ENDROOT
BRANCH   1   2
ATOM      2  C   UNL A   1      32.658  32.503  27.221  1.00  0.00     0.116 C 
BRANCH   2   3
ATOM      3  N   UNL A   1      32.454  33.870  27.667  1.00  0.00    -0.352 N 
ATOM      4  O   UNL A   1      32.686  35.695  28.951  1.00  0.00    -0.269 OA
ATOM      5  C   UNL A   1      33.125  34.595  28.623  1.00  0.00     0.251 C 
ATOM      6  H   UNL A   1      31.725  34.352  27.214  1.00  0.00     0.163 HD
BRANCH   5   7
ATOM      7  C   UNL A   1      34.341  34.054  29.276  1.00  0.00     0.039 A 
ATOM      8  C   UNL A   1      35.622  34.363  28.811  1.00  0.00     0.014 A 
ATOM      9  C   UNL A   1      34.188  33.247  30.408  1.00  0.00     0.014 A 
ATOM     10  C   UNL A   1      36.741  33.775  29.401  1.00  0.00     0.010 A 
ATOM     11  C   UNL A   1      35.313  32.704  31.034  1.00  0.00     0.010 A 
ATOM     12  C   UNL A   1      36.598  32.937  30.518  1.00  0.00    -0.014 A 
BRANCH  12  13
ATOM     13  C   UNL A   1      37.787  32.343  31.177  1.00  0.00     0.031 A 
ATOM     14  C   UNL A   1      38.514  31.186  30.552  1.00  0.00     0.074 A 
ATOM     15  C   UNL A   1      38.176  32.808  32.380  1.00  0.00     0.049 A 
ATOM     16  N   UNL A   1      39.523  30.496  31.018  1.00  0.00    -0.248 NA
ATOM     17  C   UNL A   1      38.040  30.735  29.233  1.00  0.00     0.031 C 
ATOM     18  C   UNL A   1      37.522  33.894  33.110  1.00  0.00     0.029 A 
ATOM     19  N   UNL A   1      39.188  32.405  33.214  1.00  0.00    -0.354 N 
ATOM     20  C   UNL A   1      39.779  29.507  30.078  1.00  0.00     0.074 A 
ATOM     21  C   UNL A   1      38.815  29.681  29.011  1.00  0.00     0.031 C 
ATOM     22  C   UNL A   1      38.136  34.059  34.291  1.00  0.00     0.029 A 
ATOM     23  C   UNL A   1      39.199  33.067  34.419  1.00  0.00     0.049 A 
ATOM     24  H   UNL A   1      39.843  31.710  32.973  1.00  0.00     0.167 HD
ATOM     25  C   UNL A   1      40.738  28.550  30.091  1.00  0.00     0.034 A 
ATOM     26  C   UNL A   1      39.958  32.882  35.517  1.00  0.00     0.034 A 
ATOM     27  C   UNL A   1      41.721  28.405  31.133  1.00  0.00     0.049 A 
ATOM     28  C   UNL A   1      41.033  31.832  35.500  1.00  0.00     0.074 A 
ATOM     29  C   UNL A   1      42.785  27.522  31.193  1.00  0.00     0.029 A 
ATOM     30  N   UNL A   1      41.755  29.152  32.300  1.00  0.00    -0.354 N 
ATOM     31  N   UNL A   1      41.355  31.004  34.536  1.00  0.00    -0.248 NA
ATOM     32  C   UNL A   1      41.870  31.712  36.702  1.00  0.00     0.031 C 
ATOM     33  C   UNL A   1      43.454  27.726  32.404  1.00  0.00     0.029 A 
ATOM     34  C   UNL A   1      42.814  28.745  33.092  1.00  0.00     0.049 A 
ATOM     35  H   UNL A   1      41.119  29.867  32.531  1.00  0.00     0.167 HD
ATOM     36  C   UNL A   1      42.448  30.282  35.003  1.00  0.00     0.074 A 
ATOM     37  C   UNL A   1      42.742  30.782  36.330  1.00  0.00     0.031 C 
ATOM     38  C   UNL A   1      43.135  29.289  34.388  1.00  0.00     0.034 A 
BRANCH  25  39
ATOM     39  C   UNL A   1      40.803  27.609  28.918  1.00  0.00     0.023 A 
ATOM     40  C   UNL A   1      39.877  26.551  28.825  1.00  0.00     0.012 A 
ATOM     41  C   UNL A   1      41.741  27.799  27.884  1.00  0.00     0.148 A 
ATOM     42  C   UNL A   1      39.902  25.678  27.739  1.00  0.00     0.002 A 
ATOM     43  C   UNL A   1      41.737  26.945  26.786  1.00  0.00     0.091 A 
ATOM     44  F   UNL A   1      42.633  28.793  27.998  1.00  0.00    -0.205 F 
ATOM     45  C   UNL A   1      40.825  25.879  26.715  1.00  0.00     0.022 A 
BRANCH  43  46
ATOM     46  S   UNL A   1      42.850  27.184  25.395  1.00  0.00     0.127 S 
ATOM     47  O   UNL A   1      42.235  28.324  24.717  1.00  0.00    -0.237 OA
ATOM     48  O   UNL A   1      44.123  27.484  26.054  1.00  0.00    -0.237 OA
ATOM     49  O   UNL A   1      42.836  25.923  24.667  1.00  0.00    -0.744 OA
ENDBRANCH  43  46
ENDBRANCH  25  39
BRANCH  26  50
ATOM     50  C   UNL A   1      39.739  33.758  36.700  1.00  0.00     0.023 A 
ATOM     51  C   UNL A   1      40.060  35.126  36.617  1.00  0.00     0.012 A 
ATOM     52  C   UNL A   1      39.123  33.262  37.867  1.00  0.00     0.148 A 
ATOM     53  C   UNL A   1      39.777  35.985  37.679  1.00  0.00     0.002 A 
ATOM     54  C   UNL A   1      38.794  34.134  38.898  1.00  0.00     0.091 A 
ATOM     55  F   UNL A   1      38.838  31.954  37.927  1.00  0.00    -0.205 F 
ATOM     56  C   UNL A   1      39.132  35.494  38.812  1.00  0.00     0.022 A 
BRANCH  54  57
ATOM     57  S   UNL A   1      37.835  33.620  40.328  1.00  0.00     0.127 S 
ATOM     58  O   UNL A   1      38.703  32.606  40.922  1.00  0.00    -0.237 OA
ATOM     59  O   UNL A   1      37.733  34.867  41.086  1.00  0.00    -0.237 OA
ATOM     60  O   UNL A   1      36.567  33.135  39.797  1.00  0.00    -0.744 OA
ENDBRANCH  54  57
ENDBRANCH  26  50
BRANCH  38  61
ATOM     61  C   UNL A   1      44.297  28.678  35.122  1.00  0.00     0.023 A 
ATOM     62  C   UNL A   1      45.590  29.209  34.944  1.00  0.00     0.012 A 
ATOM     63  C   UNL A   1      44.092  27.655  36.069  1.00  0.00     0.148 A 
ATOM     64  C   UNL A   1      46.663  28.721  35.688  1.00  0.00     0.002 A 
ATOM     65  C   UNL A   1      45.160  27.201  36.835  1.00  0.00     0.091 A 
ATOM     66  F   UNL A   1      42.857  27.151  36.208  1.00  0.00    -0.205 F 
ATOM     67  C   UNL A   1      46.447  27.728  36.642  1.00  0.00     0.022 A 
BRANCH  65  68
ATOM     68  S   UNL A   1      44.959  25.989  38.147  1.00  0.00     0.127 S 
ATOM     69  O   UNL A   1      46.271  26.029  38.791  1.00  0.00    -0.237 OA
ATOM     70  O   UNL A   1      43.873  26.565  38.939  1.00  0.00    -0.237 OA
ATOM     71  O   UNL A   1      44.626  24.734  37.487  1.00  0.00    -0.744 OA
ENDBRANCH  65  68
ENDBRANCH  38  61
ENDBRANCH  12  13
ENDBRANCH   5   7
ENDBRANCH   2   3
ENDBRANCH   1   2
BRANCH   1  72
ATOM     72  C   UNL A   1      31.426  30.404  26.333  1.00  0.00     0.023 C 
BRANCH  72  73
ATOM     73  C   UNL A   1      32.280  29.865  25.186  1.00  0.00     0.116 C 
BRANCH  73  74
ATOM     74  N   UNL A   1      31.528  29.675  23.958  1.00  0.00    -0.352 N 
ATOM     75  C   UNL A   1      31.264  28.535  23.241  1.00  0.00     0.251 C 
ATOM     76  H   UNL A   1      31.148  30.499  23.577  1.00  0.00     0.163 HD
ATOM     77  O   UNL A   1      30.694  28.623  22.155  1.00  0.00    -0.269 OA
BRANCH  75  78
ATOM     78  C   UNL A   1      31.682  27.199  23.726  1.00  0.00     0.039 A 
ATOM     79  C   UNL A   1      33.036  26.870  23.661  1.00  0.00     0.016 A 
ATOM     80  C   UNL A   1      30.775  26.251  24.196  1.00  0.00     0.016 A 
ATOM     81  C   UNL A   1      33.488  25.630  24.134  1.00  0.00     0.027 A 
ATOM     82  C   UNL A   1      31.235  25.018  24.682  1.00  0.00     0.027 A 
ATOM     83  C   UNL A   1      32.601  24.682  24.668  1.00  0.00     0.051 A 
BRANCH  83  84
ATOM     84  N   UNL A   1      33.071  23.468  25.280  1.00  0.00    -0.261 N 
ATOM     85  C   UNL A   1      34.091  22.727  24.679  1.00  0.00     0.270 C 
ATOM     86  C   UNL A   1      32.576  22.905  26.449  1.00  0.00     0.152 C 
ATOM     87  O   UNL A   1      34.353  22.617  23.496  1.00  0.00    -0.268 OA
ATOM     88  C   UNL A   1      34.760  21.895  25.720  1.00  0.00     0.081 C 
ATOM     89  S   UNL A   1      33.585  21.526  26.929  1.00  0.00    -0.054 SA
ATOM     90  S   UNL A   1      31.201  23.265  27.335  1.00  0.00    -0.051 S 
ATOM     91  C   UNL A   1      36.064  21.634  25.903  1.00  0.00     0.028 C 
BRANCH  91  92
ATOM     92  C   UNL A   1      37.238  22.221  25.246  1.00  0.00    -0.009 C 
ATOM     93  C   UNL A   1      38.214  22.889  25.893  1.00  0.00     0.019 C 
ATOM     94  C   UNL A   1      37.784  21.302  24.159  1.00  0.00     0.265 C 
ATOM     95  C   UNL A   1      39.294  21.952  26.330  1.00  0.00     0.017 A 
ATOM     96  O   UNL A   1      38.555  20.236  24.751  1.00  0.00    -0.488 OA
ATOM     97  C   UNL A   1      40.159  22.317  27.364  1.00  0.00     0.012 A 
ATOM     98  C   UNL A   1      39.376  20.661  25.774  1.00  0.00     0.127 A 
ATOM     99  C   UNL A   1      41.062  21.384  27.873  1.00  0.00     0.001 A 
ATOM    100  C   UNL A   1      40.266  19.728  26.297  1.00  0.00     0.047 A 
ATOM    101  C   UNL A   1      41.106  20.091  27.350  1.00  0.00     0.004 A 
ENDBRANCH  91  92
ENDBRANCH  83  84
ENDBRANCH  75  78
ENDBRANCH  73  74
ENDBRANCH  72  73
ENDBRANCH   1  72
TORSDOF 16
ENDMDL
