MODEL 1
REMARK VINA RESULT:     -12.3      0.000      0.000
REMARK SMILES CC1(C)O[C@](C)(C(C)(C)O)CC[C@H]1C(=O)NCCCCNC(=O)c1ccc(-c2c3nc(c(-c4cccc(S(=O)(=O)[O-])c4F)c4ccc([nH]4)c(-c4cccc(S(=O)(=O)[O-])c4F)c4nc(c(-c5cccc(S(=O)(=O)[O-])c5F)c5ccc2[nH]5)C=C4)C=C3)cc1
REMARK SMILES IDX 19 1 18 2 17 3 16 4 14 5 15 6 13 8 1 9 2 10 3 11 4 12 5 13
REMARK SMILES IDX 12 14 6 15 11 16 7 17 8 18 9 19 10 20 20 22 21 23 22 24
REMARK SMILES IDX 23 26 24 27 25 28 86 29 26 30 85 31 27 32 28 33 29 34 79 35
REMARK SMILES IDX 30 36 84 37 78 38 80 39 31 40 83 41 77 42 76 43 32 45 64 46
REMARK SMILES IDX 44 47 63 48 45 49 48 50 62 51 81 52 46 53 47 54 61 56 82 57
REMARK SMILES IDX 49 58 33 59 34 60 42 61 35 62 37 63 43 64 36 65 38 66 39 67
REMARK SMILES IDX 40 68 41 69 65 70 66 71 74 72 67 73 69 74 75 75 68 76 70 77
REMARK SMILES IDX 71 78 72 79 73 80 50 81 51 82 59 83 52 84 54 85 60 86 53 87
REMARK SMILES IDX 55 88 56 89 57 90 58 91
REMARK H PARENT 16 7 10 21 21 25 80 44 48 55
REMARK Flexibility Score: inf
ROOT
ATOM      1  C   UNL A   1      35.299  21.761  24.627  1.00  0.00     0.023 C 
ENDROOT
BRANCH   1   2
ATOM      2  C   UNL A   1      34.229  20.995  25.385  1.00  0.00     0.023 C 
BRANCH   2   3
ATOM      3  C   UNL A   1      32.790  21.403  25.073  1.00  0.00     0.116 C 
BRANCH   3   4
ATOM      4  N   UNL A   1      32.166  22.096  26.181  1.00  0.00    -0.356 N 
ATOM      5  C   UNL A   1      31.964  23.413  26.435  1.00  0.00     0.226 C 
ATOM      6  O   UNL A   1      31.428  23.691  27.515  1.00  0.00    -0.275 OA
ATOM      7  H   UNL A   1      31.824  21.496  26.883  1.00  0.00     0.163 HD
BRANCH   5   8
ATOM      8  C   UNL A   1      32.355  24.546  25.481  1.00  0.00     0.110 C 
ATOM      9  C   UNL A   1      29.920  25.583  25.531  1.00  0.00     0.043 C 
ATOM     10  C   UNL A   1      31.177  25.235  24.736  1.00  0.00     0.075 C 
ATOM     11  C   UNL A   1      30.684  24.274  23.626  1.00  0.00     0.043 C 
ATOM     12  O   UNL A   1      31.574  26.419  24.025  1.00  0.00    -0.366 OA
ATOM     13  C   UNL A   1      32.493  27.350  24.620  1.00  0.00     0.094 C 
ATOM     14  C   UNL A   1      33.471  25.454  26.009  1.00  0.00     0.019 C 
ATOM     15  C   UNL A   1      31.896  28.076  25.848  1.00  0.00     0.045 C 
ATOM     16  C   UNL A   1      33.768  26.589  25.032  1.00  0.00     0.039 C 
BRANCH  13  17
ATOM     17  C   UNL A   1      32.787  28.432  23.499  1.00  0.00     0.088 C 
ATOM     18  C   UNL A   1      33.759  27.919  22.423  1.00  0.00     0.045 C 
ATOM     19  C   UNL A   1      31.490  28.875  22.790  1.00  0.00     0.045 C 
BRANCH  17  20
ATOM     20  O   UNL A   1      33.380  29.598  24.090  1.00  0.00    -0.387 OA
ATOM     21  H   UNL A   1      32.864  29.864  24.868  1.00  0.00     0.211 HD
ENDBRANCH  17  20
ENDBRANCH  13  17
ENDBRANCH   5   8
ENDBRANCH   3   4
ENDBRANCH   2   3
ENDBRANCH   1   2
BRANCH   1  22
ATOM     22  C   UNL A   1      36.525  22.112  25.448  1.00  0.00     0.116 C 
BRANCH  22  23
ATOM     23  N   UNL A   1      37.536  21.059  25.472  1.00  0.00    -0.352 N 
ATOM     24  C   UNL A   1      38.838  21.141  25.911  1.00  0.00     0.251 C 
ATOM     25  H   UNL A   1      37.250  20.180  25.132  1.00  0.00     0.163 HD
ATOM     26  O   UNL A   1      39.608  20.195  25.779  1.00  0.00    -0.269 OA
BRANCH  24  27
ATOM     27  C   UNL A   1      39.293  22.411  26.506  1.00  0.00     0.039 A 
ATOM     28  C   UNL A   1      40.386  22.405  27.374  1.00  0.00     0.014 A 
ATOM     29  C   UNL A   1      38.707  23.611  26.099  1.00  0.00     0.014 A 
ATOM     30  C   UNL A   1      40.947  23.621  27.770  1.00  0.00     0.010 A 
ATOM     31  C   UNL A   1      39.330  24.810  26.408  1.00  0.00     0.010 A 
ATOM     32  C   UNL A   1      40.451  24.829  27.254  1.00  0.00    -0.014 A 
BRANCH  32  33
ATOM     33  C   UNL A   1      41.071  26.136  27.585  1.00  0.00     0.031 A 
ATOM     34  C   UNL A   1      42.495  26.402  27.180  1.00  0.00     0.074 A 
ATOM     35  C   UNL A   1      40.398  27.029  28.338  1.00  0.00     0.049 A 
ATOM     36  N   UNL A   1      43.255  27.427  27.459  1.00  0.00    -0.248 NA
ATOM     37  C   UNL A   1      43.171  25.355  26.391  1.00  0.00     0.031 C 
ATOM     38  C   UNL A   1      39.047  26.844  28.875  1.00  0.00     0.029 A 
ATOM     39  N   UNL A   1      40.771  28.264  28.807  1.00  0.00    -0.354 N 
ATOM     40  C   UNL A   1      44.503  27.129  26.927  1.00  0.00     0.074 A 
ATOM     41  C   UNL A   1      44.415  25.809  26.348  1.00  0.00     0.031 C 
ATOM     42  C   UNL A   1      38.703  27.930  29.587  1.00  0.00     0.029 A 
ATOM     43  C   UNL A   1      39.813  28.877  29.580  1.00  0.00     0.049 A 
ATOM     44  H   UNL A   1      41.644  28.673  28.608  1.00  0.00     0.167 HD
ATOM     45  C   UNL A   1      45.612  27.902  26.882  1.00  0.00     0.034 A 
ATOM     46  C   UNL A   1      39.829  30.069  30.208  1.00  0.00     0.034 A 
ATOM     47  C   UNL A   1      45.670  29.246  27.386  1.00  0.00     0.049 A 
ATOM     48  C   UNL A   1      41.047  30.944  30.070  1.00  0.00     0.074 A 
ATOM     49  C   UNL A   1      46.710  30.152  27.303  1.00  0.00     0.029 A 
ATOM     50  N   UNL A   1      44.634  29.879  28.055  1.00  0.00    -0.354 N 
ATOM     51  N   UNL A   1      42.163  30.709  29.421  1.00  0.00    -0.248 NA
ATOM     52  C   UNL A   1      40.996  32.265  30.714  1.00  0.00     0.031 C 
ATOM     53  C   UNL A   1      46.303  31.337  27.924  1.00  0.00     0.029 A 
ATOM     54  C   UNL A   1      45.007  31.169  28.386  1.00  0.00     0.049 A 
ATOM     55  H   UNL A   1      43.763  29.472  28.264  1.00  0.00     0.167 HD
ATOM     56  C   UNL A   1      42.929  31.861  29.548  1.00  0.00     0.074 A 
ATOM     57  C   UNL A   1      42.140  32.804  30.316  1.00  0.00     0.031 C 
ATOM     58  C   UNL A   1      44.179  32.113  29.090  1.00  0.00     0.034 A 
BRANCH  45  59
ATOM     59  C   UNL A   1      46.826  27.342  26.190  1.00  0.00     0.023 A 
ATOM     60  C   UNL A   1      46.959  27.505  24.796  1.00  0.00     0.012 A 
ATOM     61  C   UNL A   1      47.850  26.701  26.913  1.00  0.00     0.148 A 
ATOM     62  C   UNL A   1      48.076  27.010  24.126  1.00  0.00     0.002 A 
ATOM     63  C   UNL A   1      48.982  26.249  26.244  1.00  0.00     0.091 A 
ATOM     64  F   UNL A   1      47.692  26.534  28.234  1.00  0.00    -0.205 F 
ATOM     65  C   UNL A   1      49.091  26.391  24.851  1.00  0.00     0.022 A 
BRANCH  63  66
ATOM     66  S   UNL A   1      50.379  25.505  27.094  1.00  0.00     0.127 S 
ATOM     67  O   UNL A   1      49.771  24.304  27.666  1.00  0.00    -0.237 OA
ATOM     68  O   UNL A   1      51.309  25.252  25.993  1.00  0.00    -0.237 OA
ATOM     69  O   UNL A   1      50.835  26.495  28.059  1.00  0.00    -0.744 OA
ENDBRANCH  63  66
ENDBRANCH  45  59
BRANCH  46  70
ATOM     70  C   UNL A   1      38.624  30.548  30.945  1.00  0.00     0.023 A 
ATOM     71  C   UNL A   1      38.531  30.314  32.331  1.00  0.00     0.012 A 
ATOM     72  C   UNL A   1      37.586  31.242  30.296  1.00  0.00     0.148 A 
ATOM     73  C   UNL A   1      37.410  30.729  33.050  1.00  0.00     0.002 A 
ATOM     74  C   UNL A   1      36.495  31.700  31.029  1.00  0.00     0.091 A 
ATOM     75  F   UNL A   1      37.683  31.444  28.974  1.00  0.00    -0.205 F 
ATOM     76  C   UNL A   1      36.397  31.430  32.402  1.00  0.00     0.022 A 
BRANCH  74  77
ATOM     77  S   UNL A   1      35.213  32.722  30.293  1.00  0.00     0.127 S 
ATOM     78  O   UNL A   1      34.725  31.863  29.219  1.00  0.00    -0.237 OA
ATOM     79  O   UNL A   1      34.283  32.900  31.410  1.00  0.00    -0.237 OA
ATOM     80  O   UNL A   1      35.888  33.945  29.881  1.00  0.00    -0.744 OA
ENDBRANCH  74  77
ENDBRANCH  46  70
BRANCH  58  81
ATOM     81  C   UNL A   1      44.766  33.469  29.370  1.00  0.00     0.023 A 
ATOM     82  C   UNL A   1      45.446  33.696  30.583  1.00  0.00     0.012 A 
ATOM     83  C   UNL A   1      44.722  34.487  28.397  1.00  0.00     0.148 A 
ATOM     84  C   UNL A   1      46.052  34.926  30.834  1.00  0.00     0.002 A 
ATOM     85  C   UNL A   1      45.366  35.694  28.637  1.00  0.00     0.091 A 
ATOM     86  F   UNL A   1      44.053  34.257  27.259  1.00  0.00    -0.205 F 
ATOM     87  C   UNL A   1      46.023  35.919  29.858  1.00  0.00     0.022 A 
BRANCH  85  88
ATOM     88  S   UNL A   1      45.462  36.991  27.397  1.00  0.00     0.127 S 
ATOM     89  O   UNL A   1      44.055  37.352  27.236  1.00  0.00    -0.237 OA
ATOM     90  O   UNL A   1      46.280  38.004  28.065  1.00  0.00    -0.237 OA
ATOM     91  O   UNL A   1      46.092  36.383  26.232  1.00  0.00    -0.744 OA
ENDBRANCH  85  88
ENDBRANCH  58  81
ENDBRANCH  32  33
ENDBRANCH  24  27
ENDBRANCH  22  23
ENDBRANCH   1  22
TORSDOF 16
ENDMDL
MODEL 2
REMARK VINA RESULT:     -12.2      5.291     10.151
REMARK SMILES CC1(C)O[C@](C)(C(C)(C)O)CC[C@H]1C(=O)NCCCCNC(=O)c1ccc(-c2c3nc(c(-c4cccc(S(=O)(=O)[O-])c4F)c4ccc([nH]4)c(-c4cccc(S(=O)(=O)[O-])c4F)c4nc(c(-c5cccc(S(=O)(=O)[O-])c5F)c5ccc2[nH]5)C=C4)C=C3)cc1
REMARK SMILES IDX 19 1 18 2 17 3 16 4 14 5 15 6 13 8 1 9 2 10 3 11 4 12 5 13
REMARK SMILES IDX 12 14 6 15 11 16 7 17 8 18 9 19 10 20 20 22 21 23 22 24
REMARK SMILES IDX 23 26 24 27 25 28 86 29 26 30 85 31 27 32 28 33 29 34 79 35
REMARK SMILES IDX 30 36 84 37 78 38 80 39 31 40 83 41 77 42 76 43 32 45 64 46
REMARK SMILES IDX 44 47 63 48 45 49 48 50 62 51 81 52 46 53 47 54 61 56 82 57
REMARK SMILES IDX 49 58 33 59 34 60 42 61 35 62 37 63 43 64 36 65 38 66 39 67
REMARK SMILES IDX 40 68 41 69 65 70 66 71 74 72 67 73 69 74 75 75 68 76 70 77
REMARK SMILES IDX 71 78 72 79 73 80 50 81 51 82 59 83 52 84 54 85 60 86 53 87
REMARK SMILES IDX 55 88 56 89 57 90 58 91
REMARK H PARENT 16 7 10 21 21 25 80 44 48 55
REMARK Flexibility Score: inf
ROOT
ATOM      1  C   UNL A   1      32.947  29.153  24.907  1.00  0.00     0.023 C 
ENDROOT
BRANCH   1   2
ATOM      2  C   UNL A   1      31.727  29.228  24.005  1.00  0.00     0.023 C 
BRANCH   2   3
ATOM      3  C   UNL A   1      31.235  27.888  23.461  1.00  0.00     0.116 C 
BRANCH   3   4
ATOM      4  N   UNL A   1      32.137  27.336  22.472  1.00  0.00    -0.356 N 
ATOM      5  C   UNL A   1      32.965  26.262  22.492  1.00  0.00     0.226 C 
ATOM      6  O   UNL A   1      33.654  26.075  21.482  1.00  0.00    -0.275 OA
ATOM      7  H   UNL A   1      32.151  27.835  21.623  1.00  0.00     0.163 HD
BRANCH   5   8
ATOM      8  C   UNL A   1      33.092  25.292  23.672  1.00  0.00     0.110 C 
ATOM      9  C   UNL A   1      33.124  23.178  22.081  1.00  0.00     0.043 C 
ATOM     10  C   UNL A   1      32.666  23.825  23.386  1.00  0.00     0.075 C 
ATOM     11  C   UNL A   1      31.119  23.778  23.325  1.00  0.00     0.043 C 
ATOM     12  O   UNL A   1      33.005  22.921  24.451  1.00  0.00    -0.366 OA
ATOM     13  C   UNL A   1      34.273  23.025  25.118  1.00  0.00     0.094 C 
ATOM     14  C   UNL A   1      34.352  25.499  24.521  1.00  0.00     0.019 C 
ATOM     15  C   UNL A   1      35.463  22.663  24.198  1.00  0.00     0.045 C 
ATOM     16  C   UNL A   1      34.438  24.465  25.642  1.00  0.00     0.039 C 
BRANCH  13  17
ATOM     17  C   UNL A   1      34.220  21.969  26.299  1.00  0.00     0.088 C 
ATOM     18  C   UNL A   1      33.713  22.581  27.616  1.00  0.00     0.045 C 
ATOM     19  C   UNL A   1      33.305  20.777  25.948  1.00  0.00     0.045 C 
BRANCH  17  20
ATOM     20  O   UNL A   1      35.536  21.449  26.547  1.00  0.00    -0.387 OA
ATOM     21  H   UNL A   1      36.184  21.951  26.029  1.00  0.00     0.211 HD
ENDBRANCH  17  20
ENDBRANCH  13  17
ENDBRANCH   5   8
ENDBRANCH   3   4
ENDBRANCH   2   3
ENDBRANCH   1   2
BRANCH   1  22
ATOM     22  C   UNL A   1      32.667  29.435  26.371  1.00  0.00     0.116 C 
BRANCH  22  23
ATOM     23  N   UNL A   1      32.471  30.851  26.668  1.00  0.00    -0.352 N 
ATOM     24  C   UNL A   1      33.317  31.702  27.343  1.00  0.00     0.251 C 
ATOM     25  H   UNL A   1      31.630  31.247  26.344  1.00  0.00     0.163 HD
ATOM     26  O   UNL A   1      32.975  32.850  27.606  1.00  0.00    -0.269 OA
BRANCH  24  27
ATOM     27  C   UNL A   1      34.627  31.182  27.776  1.00  0.00     0.039 A 
ATOM     28  C   UNL A   1      35.689  32.070  27.953  1.00  0.00     0.014 A 
ATOM     29  C   UNL A   1      34.753  29.835  28.122  1.00  0.00     0.014 A 
ATOM     30  C   UNL A   1      36.861  31.617  28.561  1.00  0.00     0.010 A 
ATOM     31  C   UNL A   1      35.875  29.417  28.820  1.00  0.00     0.010 A 
ATOM     32  C   UNL A   1      36.945  30.299  29.039  1.00  0.00    -0.014 A 
BRANCH  32  33
ATOM     33  C   UNL A   1      38.141  29.804  29.764  1.00  0.00     0.031 A 
ATOM     34  C   UNL A   1      38.439  30.327  31.143  1.00  0.00     0.074 A 
ATOM     35  C   UNL A   1      39.008  28.977  29.146  1.00  0.00     0.049 A 
ATOM     36  N   UNL A   1      39.479  30.105  31.902  1.00  0.00    -0.248 NA
ATOM     37  C   UNL A   1      37.458  31.257  31.730  1.00  0.00     0.031 C 
ATOM     38  C   UNL A   1      38.879  28.479  27.773  1.00  0.00     0.029 A 
ATOM     39  N   UNL A   1      40.189  28.431  29.584  1.00  0.00    -0.354 N 
ATOM     40  C   UNL A   1      39.302  30.902  33.027  1.00  0.00     0.074 A 
ATOM     41  C   UNL A   1      38.079  31.647  32.833  1.00  0.00     0.031 C 
ATOM     42  C   UNL A   1      39.931  27.693  27.489  1.00  0.00     0.029 A 
ATOM     43  C   UNL A   1      40.820  27.648  28.644  1.00  0.00     0.049 A 
ATOM     44  H   UNL A   1      40.550  28.584  30.486  1.00  0.00     0.167 HD
ATOM     45  C   UNL A   1      40.063  30.974  34.142  1.00  0.00     0.034 A 
ATOM     46  C   UNL A   1      41.984  26.971  28.712  1.00  0.00     0.034 A 
ATOM     47  C   UNL A   1      41.232  30.171  34.365  1.00  0.00     0.049 A 
ATOM     48  C   UNL A   1      42.767  27.004  29.998  1.00  0.00     0.074 A 
ATOM     49  C   UNL A   1      42.019  30.091  35.498  1.00  0.00     0.029 A 
ATOM     50  N   UNL A   1      41.773  29.295  33.436  1.00  0.00    -0.354 N 
ATOM     51  N   UNL A   1      42.495  27.638  31.113  1.00  0.00    -0.248 NA
ATOM     52  C   UNL A   1      43.995  26.196  30.051  1.00  0.00     0.031 C 
ATOM     53  C   UNL A   1      43.039  29.166  35.254  1.00  0.00     0.029 A 
ATOM     54  C   UNL A   1      42.880  28.664  33.973  1.00  0.00     0.049 A 
ATOM     55  H   UNL A   1      41.421  29.144  32.530  1.00  0.00     0.167 HD
ATOM     56  C   UNL A   1      43.496  27.280  32.009  1.00  0.00     0.074 A 
ATOM     57  C   UNL A   1      44.366  26.353  31.314  1.00  0.00     0.031 C 
ATOM     58  C   UNL A   1      43.690  27.692  33.286  1.00  0.00     0.034 A 
BRANCH  45  59
ATOM     59  C   UNL A   1      39.604  31.895  35.242  1.00  0.00     0.023 A 
ATOM     60  C   UNL A   1      39.933  33.264  35.175  1.00  0.00     0.012 A 
ATOM     61  C   UNL A   1      38.818  31.423  36.309  1.00  0.00     0.148 A 
ATOM     62  C   UNL A   1      39.514  34.145  36.170  1.00  0.00     0.002 A 
ATOM     63  C   UNL A   1      38.366  32.316  37.275  1.00  0.00     0.091 A 
ATOM     64  F   UNL A   1      38.538  30.113  36.368  1.00  0.00    -0.205 F 
ATOM     65  C   UNL A   1      38.723  33.673  37.214  1.00  0.00     0.022 A 
BRANCH  63  66
ATOM     66  S   UNL A   1      37.281  31.824  38.620  1.00  0.00     0.127 S 
ATOM     67  O   UNL A   1      37.028  30.421  38.297  1.00  0.00    -0.237 OA
ATOM     68  O   UNL A   1      38.130  32.037  39.793  1.00  0.00    -0.237 OA
ATOM     69  O   UNL A   1      36.122  32.702  38.541  1.00  0.00    -0.744 OA
ENDBRANCH  63  66
ENDBRANCH  45  59
BRANCH  46  70
ATOM     70  C   UNL A   1      42.432  26.131  27.565  1.00  0.00     0.023 A 
ATOM     71  C   UNL A   1      43.297  26.690  26.603  1.00  0.00     0.012 A 
ATOM     72  C   UNL A   1      42.029  24.790  27.426  1.00  0.00     0.148 A 
ATOM     73  C   UNL A   1      43.723  25.940  25.506  1.00  0.00     0.002 A 
ATOM     74  C   UNL A   1      42.498  24.032  26.357  1.00  0.00     0.091 A 
ATOM     75  F   UNL A   1      41.194  24.277  28.341  1.00  0.00    -0.205 F 
ATOM     76  C   UNL A   1      43.331  24.610  25.387  1.00  0.00     0.022 A 
BRANCH  74  77
ATOM     77  S   UNL A   1      42.145  22.277  26.205  1.00  0.00     0.127 S 
ATOM     78  O   UNL A   1      42.892  21.924  25.001  1.00  0.00    -0.237 OA
ATOM     79  O   UNL A   1      42.698  21.743  27.451  1.00  0.00    -0.237 OA
ATOM     80  O   UNL A   1      40.695  22.184  26.110  1.00  0.00    -0.744 OA
ENDBRANCH  74  77
ENDBRANCH  46  70
BRANCH  58  81
ATOM     81  C   UNL A   1      44.866  27.124  34.033  1.00  0.00     0.023 A 
ATOM     82  C   UNL A   1      46.104  27.795  33.994  1.00  0.00     0.012 A 
ATOM     83  C   UNL A   1      44.720  25.981  34.841  1.00  0.00     0.148 A 
ATOM     84  C   UNL A   1      47.188  27.319  34.730  1.00  0.00     0.002 A 
ATOM     85  C   UNL A   1      45.791  25.539  35.606  1.00  0.00     0.091 A 
ATOM     86  F   UNL A   1      43.538  25.347  34.847  1.00  0.00    -0.205 F 
ATOM     87  C   UNL A   1      47.028  26.201  35.545  1.00  0.00     0.022 A 
BRANCH  85  88
ATOM     88  S   UNL A   1      45.645  24.166  36.756  1.00  0.00     0.127 S 
ATOM     89  O   UNL A   1      46.989  24.113  37.328  1.00  0.00    -0.237 OA
ATOM     90  O   UNL A   1      44.608  24.635  37.675  1.00  0.00    -0.237 OA
ATOM     91  O   UNL A   1      45.259  23.013  35.953  1.00  0.00    -0.744 OA
ENDBRANCH  85  88
ENDBRANCH  58  81
ENDBRANCH  32  33
ENDBRANCH  24  27
ENDBRANCH  22  23
ENDBRANCH   1  22
TORSDOF 16
ENDMDL
MODEL 3
REMARK VINA RESULT:     -12.1      4.884     10.137
REMARK SMILES CC1(C)O[C@](C)(C(C)(C)O)CC[C@H]1C(=O)NCCCCNC(=O)c1ccc(-c2c3nc(c(-c4cccc(S(=O)(=O)[O-])c4F)c4ccc([nH]4)c(-c4cccc(S(=O)(=O)[O-])c4F)c4nc(c(-c5cccc(S(=O)(=O)[O-])c5F)c5ccc2[nH]5)C=C4)C=C3)cc1
REMARK SMILES IDX 19 1 18 2 17 3 16 4 14 5 15 6 13 8 1 9 2 10 3 11 4 12 5 13
REMARK SMILES IDX 12 14 6 15 11 16 7 17 8 18 9 19 10 20 20 22 21 23 22 24
REMARK SMILES IDX 23 26 24 27 25 28 86 29 26 30 85 31 27 32 28 33 29 34 79 35
REMARK SMILES IDX 30 36 84 37 78 38 80 39 31 40 83 41 77 42 76 43 32 45 64 46
REMARK SMILES IDX 44 47 63 48 45 49 48 50 62 51 81 52 46 53 47 54 61 56 82 57
REMARK SMILES IDX 49 58 33 59 34 60 42 61 35 62 37 63 43 64 36 65 38 66 39 67
REMARK SMILES IDX 40 68 41 69 65 70 66 71 74 72 67 73 69 74 75 75 68 76 70 77
REMARK SMILES IDX 71 78 72 79 73 80 50 81 51 82 59 83 52 84 54 85 60 86 53 87
REMARK SMILES IDX 55 88 56 89 57 90 58 91
REMARK H PARENT 16 7 10 21 21 25 80 44 48 55
REMARK Flexibility Score: inf
ROOT
ATOM      1  C   UNL A   1      31.862  28.448  25.974  1.00  0.00     0.023 C 
ENDROOT
BRANCH   1   2
ATOM      2  C   UNL A   1      32.375  27.023  26.080  1.00  0.00     0.023 C 
BRANCH   2   3
ATOM      3  C   UNL A   1      31.963  26.096  24.936  1.00  0.00     0.116 C 
BRANCH   3   4
ATOM      4  N   UNL A   1      32.760  26.309  23.746  1.00  0.00    -0.356 N 
ATOM      5  C   UNL A   1      33.373  25.451  22.893  1.00  0.00     0.226 C 
ATOM      6  O   UNL A   1      34.028  25.958  21.975  1.00  0.00    -0.275 OA
ATOM      7  H   UNL A   1      32.879  27.259  23.512  1.00  0.00     0.163 HD
BRANCH   5   8
ATOM      8  C   UNL A   1      33.299  23.925  23.005  1.00  0.00     0.110 C 
ATOM      9  C   UNL A   1      34.599  23.916  25.311  1.00  0.00     0.043 C 
ATOM     10  C   UNL A   1      34.344  23.268  23.952  1.00  0.00     0.075 C 
ATOM     11  C   UNL A   1      35.720  23.296  23.240  1.00  0.00     0.043 C 
ATOM     12  O   UNL A   1      34.096  21.872  24.184  1.00  0.00    -0.366 OA
ATOM     13  C   UNL A   1      32.757  21.397  24.399  1.00  0.00     0.094 C 
ATOM     14  C   UNL A   1      31.873  23.366  23.049  1.00  0.00     0.019 C 
ATOM     15  C   UNL A   1      32.149  21.905  25.727  1.00  0.00     0.045 C 
ATOM     16  C   UNL A   1      31.878  21.848  23.216  1.00  0.00     0.039 C 
BRANCH  13  17
ATOM     17  C   UNL A   1      32.874  19.818  24.480  1.00  0.00     0.088 C 
ATOM     18  C   UNL A   1      32.290  19.119  23.240  1.00  0.00     0.045 C 
ATOM     19  C   UNL A   1      34.343  19.369  24.627  1.00  0.00     0.045 C 
BRANCH  17  20
ATOM     20  O   UNL A   1      32.153  19.334  25.624  1.00  0.00    -0.387 OA
ATOM     21  H   UNL A   1      32.776  18.937  26.253  1.00  0.00     0.211 HD
ENDBRANCH  17  20
ENDBRANCH  13  17
ENDBRANCH   5   8
ENDBRANCH   3   4
ENDBRANCH   2   3
ENDBRANCH   1   2
BRANCH   1  22
ATOM     22  C   UNL A   1      32.943  29.495  25.779  1.00  0.00     0.116 C 
BRANCH  22  23
ATOM     23  N   UNL A   1      32.585  30.811  26.299  1.00  0.00    -0.352 N 
ATOM     24  C   UNL A   1      33.279  31.584  27.202  1.00  0.00     0.251 C 
ATOM     25  H   UNL A   1      31.744  31.194  25.961  1.00  0.00     0.163 HD
ATOM     26  O   UNL A   1      32.806  32.634  27.626  1.00  0.00    -0.269 OA
BRANCH  24  27
ATOM     27  C   UNL A   1      34.586  31.096  27.677  1.00  0.00     0.039 A 
ATOM     28  C   UNL A   1      35.612  32.012  27.915  1.00  0.00     0.014 A 
ATOM     29  C   UNL A   1      34.741  29.746  28.001  1.00  0.00     0.014 A 
ATOM     30  C   UNL A   1      36.773  31.582  28.560  1.00  0.00     0.010 A 
ATOM     31  C   UNL A   1      35.847  29.347  28.734  1.00  0.00     0.010 A 
ATOM     32  C   UNL A   1      36.879  30.257  29.014  1.00  0.00    -0.014 A 
BRANCH  32  33
ATOM     33  C   UNL A   1      38.061  29.783  29.776  1.00  0.00     0.031 A 
ATOM     34  C   UNL A   1      38.302  30.305  31.166  1.00  0.00     0.074 A 
ATOM     35  C   UNL A   1      38.965  28.977  29.183  1.00  0.00     0.049 A 
ATOM     36  N   UNL A   1      39.320  30.101  31.959  1.00  0.00    -0.248 NA
ATOM     37  C   UNL A   1      37.282  31.211  31.725  1.00  0.00     0.031 C 
ATOM     38  C   UNL A   1      38.893  28.484  27.805  1.00  0.00     0.029 A 
ATOM     39  N   UNL A   1      40.142  28.454  29.658  1.00  0.00    -0.354 N 
ATOM     40  C   UNL A   1      39.089  30.888  33.081  1.00  0.00     0.074 A 
ATOM     41  C   UNL A   1      37.858  31.608  32.850  1.00  0.00     0.031 C 
ATOM     42  C   UNL A   1      39.969  27.722  27.552  1.00  0.00     0.029 A 
ATOM     43  C   UNL A   1      40.821  27.690  28.736  1.00  0.00     0.049 A 
ATOM     44  H   UNL A   1      40.470  28.610  30.572  1.00  0.00     0.167 HD
ATOM     45  C   UNL A   1      39.811  30.970  34.221  1.00  0.00     0.034 A 
ATOM     46  C   UNL A   1      41.995  27.037  28.839  1.00  0.00     0.034 A 
ATOM     47  C   UNL A   1      40.989  30.190  34.479  1.00  0.00     0.049 A 
ATOM     48  C   UNL A   1      42.734  27.079  30.151  1.00  0.00     0.074 A 
ATOM     49  C   UNL A   1      41.739  30.121  35.638  1.00  0.00     0.029 A 
ATOM     50  N   UNL A   1      41.578  29.331  33.565  1.00  0.00    -0.354 N 
ATOM     51  N   UNL A   1      42.413  27.702  31.260  1.00  0.00    -0.248 NA
ATOM     52  C   UNL A   1      43.976  26.297  30.242  1.00  0.00     0.031 C 
ATOM     53  C   UNL A   1      42.786  29.219  35.424  1.00  0.00     0.029 A 
ATOM     54  C   UNL A   1      42.680  28.720  34.135  1.00  0.00     0.049 A 
ATOM     55  H   UNL A   1      41.260  29.177  32.646  1.00  0.00     0.167 HD
ATOM     56  C   UNL A   1      43.390  27.359  32.187  1.00  0.00     0.074 A 
ATOM     57  C   UNL A   1      44.302  26.455  31.517  1.00  0.00     0.031 C 
ATOM     58  C   UNL A   1      43.533  27.770  33.471  1.00  0.00     0.034 A 
BRANCH  45  59
ATOM     59  C   UNL A   1      39.297  31.875  35.309  1.00  0.00     0.023 A 
ATOM     60  C   UNL A   1      38.306  31.395  36.191  1.00  0.00     0.012 A 
ATOM     61  C   UNL A   1      39.818  33.169  35.491  1.00  0.00     0.148 A 
ATOM     62  C   UNL A   1      37.817  32.202  37.216  1.00  0.00     0.002 A 
ATOM     63  C   UNL A   1      39.357  33.952  36.544  1.00  0.00     0.091 A 
ATOM     64  F   UNL A   1      40.741  33.615  34.628  1.00  0.00    -0.205 F 
ATOM     65  C   UNL A   1      38.349  33.476  37.399  1.00  0.00     0.022 A 
BRANCH  63  66
ATOM     66  S   UNL A   1      40.028  35.577  36.911  1.00  0.00     0.127 S 
ATOM     67  O   UNL A   1      39.373  35.887  38.182  1.00  0.00    -0.237 OA
ATOM     68  O   UNL A   1      41.461  35.301  37.016  1.00  0.00    -0.237 OA
ATOM     69  O   UNL A   1      39.653  36.429  35.791  1.00  0.00    -0.744 OA
ENDBRANCH  63  66
ENDBRANCH  45  59
BRANCH  46  70
ATOM     70  C   UNL A   1      42.499  26.212  27.704  1.00  0.00     0.023 A 
ATOM     71  C   UNL A   1      43.424  26.778  26.804  1.00  0.00     0.012 A 
ATOM     72  C   UNL A   1      42.090  24.879  27.517  1.00  0.00     0.148 A 
ATOM     73  C   UNL A   1      43.903  26.044  25.718  1.00  0.00     0.002 A 
ATOM     74  C   UNL A   1      42.612  24.136  26.463  1.00  0.00     0.091 A 
ATOM     75  F   UNL A   1      41.199  24.360  28.374  1.00  0.00    -0.205 F 
ATOM     76  C   UNL A   1      43.504  24.721  25.552  1.00  0.00     0.022 A 
BRANCH  74  77
ATOM     77  S   UNL A   1      42.249  22.387  26.258  1.00  0.00     0.127 S 
ATOM     78  O   UNL A   1      42.753  21.828  27.508  1.00  0.00    -0.237 OA
ATOM     79  O   UNL A   1      40.791  22.389  26.126  1.00  0.00    -0.237 OA
ATOM     80  O   UNL A   1      42.954  21.989  25.047  1.00  0.00    -0.744 OA
ENDBRANCH  74  77
ENDBRANCH  46  70
BRANCH  58  81
ATOM     81  C   UNL A   1      44.695  27.222  34.254  1.00  0.00     0.023 A 
ATOM     82  C   UNL A   1      45.917  27.923  34.266  1.00  0.00     0.012 A 
ATOM     83  C   UNL A   1      44.548  26.066  35.045  1.00  0.00     0.148 A 
ATOM     84  C   UNL A   1      46.986  27.466  35.036  1.00  0.00     0.002 A 
ATOM     85  C   UNL A   1      45.603  25.643  35.844  1.00  0.00     0.091 A 
ATOM     86  F   UNL A   1      43.383  25.404  35.002  1.00  0.00    -0.205 F 
ATOM     87  C   UNL A   1      46.824  26.335  35.834  1.00  0.00     0.022 A 
BRANCH  85  88
ATOM     88  S   UNL A   1      45.450  24.254  36.974  1.00  0.00     0.127 S 
ATOM     89  O   UNL A   1      46.822  24.112  37.457  1.00  0.00    -0.237 OA
ATOM     90  O   UNL A   1      44.502  24.760  37.967  1.00  0.00    -0.237 OA
ATOM     91  O   UNL A   1      44.946  23.144  36.175  1.00  0.00    -0.744 OA
ENDBRANCH  85  88
ENDBRANCH  58  81
ENDBRANCH  32  33
ENDBRANCH  24  27
ENDBRANCH  22  23
ENDBRANCH   1  22
TORSDOF 16
ENDMDL
