MODEL 1
REMARK VINA RESULT:     -11.3      0.000      0.000
REMARK SMILES O=C(NCCCCNC(=O)c1ccc(-c2c3nc(c(-c4cccc(S(=O)(=O)[O-])c4F)c4ccc([nH]4)c(-c4cccc(S(=O)(=O)[O-])c4F)c4nc(c(-c5cccc(S(=O)(=O)[O-])c5F)c5ccc2[nH]5)C=C4)C=C3)cc1)c1ccc(/[NH+]=C2\S[C@@H](Cc3ccc(F)cc3)C(=O)N2Cc2ccccc2)cc1
REMARK SMILES IDX 5 1 4 2 3 3 1 4 2 5 74 7 75 8 101 9 76 10 100 11 77 12 78 13
REMARK SMILES IDX 79 14 80 16 92 17 81 18 90 19 91 20 93 21 94 22 95 23 99 24
REMARK SMILES IDX 96 25 98 26 97 27 82 28 83 29 84 30 89 31 85 32 88 33 86 34
REMARK SMILES IDX 87 35 6 36 7 37 8 38 9 39 10 41 11 42 12 43 73 44 13 45
REMARK SMILES IDX 72 46 14 47 15 48 16 49 66 50 17 51 71 52 65 53 67 54 18 55
REMARK SMILES IDX 70 56 64 57 63 58 19 60 51 61 31 62 50 63 32 64 35 65 49 66
REMARK SMILES IDX 68 67 33 68 34 69 48 71 69 72 36 73 20 74 21 75 29 76 22 77
REMARK SMILES IDX 24 78 30 79 23 80 25 81 26 82 27 83 28 84 52 85 53 86 61 87
REMARK SMILES IDX 54 88 56 89 62 90 55 91 57 92 58 93 59 94 60 95 37 96 38 97
REMARK SMILES IDX 46 98 39 99 41 100 47 101 40 102 42 103 43 104 44 105 45 106
REMARK H PARENT 3 6 78 15 8 40 67 59 35 70
REMARK Flexibility Score: inf
ROOT
ATOM      1  C   UNL A   1      34.913  35.559  28.450  1.00  0.00     0.023 C 
ENDROOT
BRANCH   1   2
ATOM      2  C   UNL A   1      35.054  34.098  28.041  1.00  0.00     0.116 C 
BRANCH   2   3
ATOM      3  N   UNL A   1      35.261  33.216  29.179  1.00  0.00    -0.352 N 
ATOM      4  O   UNL A   1      35.017  31.334  30.414  1.00  0.00    -0.269 OA
ATOM      5  C   UNL A   1      34.910  31.897  29.328  1.00  0.00     0.251 C 
ATOM      6  H   UNL A   1      35.717  33.622  29.952  1.00  0.00     0.163 HD
BRANCH   5   7
ATOM      7  C   UNL A   1      34.397  31.144  28.167  1.00  0.00     0.040 A 
ATOM      8  C   UNL A   1      33.156  31.469  27.619  1.00  0.00     0.018 A 
ATOM      9  C   UNL A   1      35.174  30.128  27.604  1.00  0.00     0.018 A 
ATOM     10  C   UNL A   1      32.654  30.706  26.572  1.00  0.00     0.052 A 
ATOM     11  C   UNL A   1      34.680  29.393  26.521  1.00  0.00     0.052 A 
ATOM     12  C   UNL A   1      33.406  29.662  26.019  1.00  0.00     0.125 A 
BRANCH  12  13
ATOM     13  N   UNL A   1      32.892  29.046  24.881  1.00  0.00    -0.235 N 
ATOM     14  C   UNL A   1      32.544  27.808  24.837  1.00  0.00     0.320 C 
ATOM     15  H   UNL A   1      32.788  29.588  24.065  1.00  0.00     0.313 HD
ATOM     16  S   UNL A   1      32.807  26.573  26.032  1.00  0.00    -0.022 SA
ATOM     17  N   UNL A   1      31.856  27.312  23.763  1.00  0.00    -0.186 N 
ATOM     18  C   UNL A   1      32.361  25.240  24.870  1.00  0.00     0.178 C 
ATOM     19  C   UNL A   1      31.632  25.952  23.736  1.00  0.00     0.324 C 
ATOM     20  O   UNL A   1      31.005  25.379  22.851  1.00  0.00    -0.245 OA
BRANCH  17  21
ATOM     21  C   UNL A   1      31.373  28.174  22.687  1.00  0.00     0.283 C 
BRANCH  21  22
ATOM     22  C   UNL A   1      29.988  28.746  22.928  1.00  0.00    -0.006 A 
ATOM     23  C   UNL A   1      28.873  27.914  23.092  1.00  0.00     0.008 A 
ATOM     24  C   UNL A   1      29.787  30.135  22.970  1.00  0.00     0.008 A 
ATOM     25  C   UNL A   1      27.601  28.461  23.297  1.00  0.00     0.000 A 
ATOM     26  C   UNL A   1      28.528  30.682  23.217  1.00  0.00     0.000 A 
ATOM     27  C   UNL A   1      27.431  29.844  23.375  1.00  0.00     0.000 A 
ENDBRANCH  21  22
ENDBRANCH  17  21
BRANCH  18  28
ATOM     28  C   UNL A   1      31.550  24.147  25.569  1.00  0.00     0.063 C 
BRANCH  28  29
ATOM     29  C   UNL A   1      32.162  22.765  25.459  1.00  0.00    -0.046 A 
ATOM     30  C   UNL A   1      33.076  22.328  26.432  1.00  0.00     0.007 A 
ATOM     31  C   UNL A   1      31.807  21.894  24.417  1.00  0.00     0.007 A 
ATOM     32  C   UNL A   1      33.598  21.036  26.385  1.00  0.00     0.039 A 
ATOM     33  C   UNL A   1      32.330  20.599  24.373  1.00  0.00     0.039 A 
ATOM     34  C   UNL A   1      33.213  20.181  25.361  1.00  0.00     0.123 A 
ATOM     35  F   UNL A   1      33.701  18.933  25.325  1.00  0.00    -0.207 F 
ENDBRANCH  28  29
ENDBRANCH  18  28
ENDBRANCH  12  13
ENDBRANCH   5   7
ENDBRANCH   2   3
ENDBRANCH   1   2
BRANCH   1  36
ATOM     36  C   UNL A   1      33.505  35.984  28.857  1.00  0.00     0.023 C 
BRANCH  36  37
ATOM     37  C   UNL A   1      32.850  35.137  29.942  1.00  0.00     0.116 C 
BRANCH  37  38
ATOM     38  N   UNL A   1      32.602  35.873  31.172  1.00  0.00    -0.352 N 
ATOM     39  C   UNL A   1      33.242  35.795  32.386  1.00  0.00     0.251 C 
ATOM     40  H   UNL A   1      31.866  36.525  31.129  1.00  0.00     0.163 HD
ATOM     41  O   UNL A   1      32.797  36.424  33.344  1.00  0.00    -0.269 OA
BRANCH  39  42
ATOM     42  C   UNL A   1      34.437  34.936  32.554  1.00  0.00     0.039 A 
ATOM     43  C   UNL A   1      35.662  35.396  32.068  1.00  0.00     0.014 A 
ATOM     44  C   UNL A   1      34.361  33.693  33.190  1.00  0.00     0.014 A 
ATOM     45  C   UNL A   1      36.820  34.642  32.280  1.00  0.00     0.010 A 
ATOM     46  C   UNL A   1      35.528  32.985  33.474  1.00  0.00     0.010 A 
ATOM     47  C   UNL A   1      36.771  33.450  33.021  1.00  0.00    -0.014 A 
BRANCH  47  48
ATOM     48  C   UNL A   1      38.021  32.722  33.364  1.00  0.00     0.031 A 
ATOM     49  C   UNL A   1      38.805  33.057  34.604  1.00  0.00     0.074 A 
ATOM     50  C   UNL A   1      38.486  31.784  32.514  1.00  0.00     0.049 A 
ATOM     51  N   UNL A   1      39.876  32.476  35.080  1.00  0.00    -0.248 NA
ATOM     52  C   UNL A   1      38.344  34.204  35.400  1.00  0.00     0.031 C 
ATOM     53  C   UNL A   1      37.880  31.435  31.226  1.00  0.00     0.029 A 
ATOM     54  N   UNL A   1      39.578  30.957  32.599  1.00  0.00    -0.354 N 
ATOM     55  C   UNL A   1      40.237  33.202  36.209  1.00  0.00     0.074 A 
ATOM     56  C   UNL A   1      39.289  34.289  36.327  1.00  0.00     0.031 C 
ATOM     57  C   UNL A   1      38.587  30.446  30.659  1.00  0.00     0.029 A 
ATOM     58  C   UNL A   1      39.710  30.106  31.526  1.00  0.00     0.049 A 
ATOM     59  H   UNL A   1      40.209  30.972  33.355  1.00  0.00     0.167 HD
ATOM     60  C   UNL A   1      41.245  32.970  37.085  1.00  0.00     0.034 A 
ATOM     61  C   UNL A   1      40.623  29.148  31.273  1.00  0.00     0.034 A 
ATOM     62  C   UNL A   1      42.166  31.869  36.983  1.00  0.00     0.049 A 
ATOM     63  C   UNL A   1      41.696  28.873  32.291  1.00  0.00     0.074 A 
ATOM     64  C   UNL A   1      43.153  31.486  37.875  1.00  0.00     0.029 A 
ATOM     65  N   UNL A   1      42.230  30.984  35.918  1.00  0.00    -0.354 N 
ATOM     66  N   UNL A   1      41.902  29.447  33.450  1.00  0.00    -0.248 NA
ATOM     67  C   UNL A   1      42.638  27.787  31.981  1.00  0.00     0.031 C 
ATOM     68  C   UNL A   1      43.834  30.390  37.333  1.00  0.00     0.029 A 
ATOM     69  C   UNL A   1      43.249  30.068  36.119  1.00  0.00     0.049 A 
ATOM     70  H   UNL A   1      41.636  31.004  35.132  1.00  0.00     0.167 HD
ATOM     71  C   UNL A   1      42.975  28.774  34.024  1.00  0.00     0.074 A 
ATOM     72  C   UNL A   1      43.354  27.729  33.095  1.00  0.00     0.031 C 
ATOM     73  C   UNL A   1      43.600  29.010  35.205  1.00  0.00     0.034 A 
BRANCH  60  74
ATOM     74  C   UNL A   1      41.378  33.907  38.260  1.00  0.00     0.023 A 
ATOM     75  C   UNL A   1      42.280  34.990  38.191  1.00  0.00     0.012 A 
ATOM     76  C   UNL A   1      40.580  33.749  39.409  1.00  0.00     0.148 A 
ATOM     77  C   UNL A   1      42.416  35.873  39.262  1.00  0.00     0.002 A 
ATOM     78  C   UNL A   1      40.687  34.661  40.454  1.00  0.00     0.091 A 
ATOM     79  F   UNL A   1      39.744  32.703  39.469  1.00  0.00    -0.205 F 
ATOM     80  C   UNL A   1      41.613  35.715  40.387  1.00  0.00     0.022 A 
BRANCH  78  81
ATOM     81  S   UNL A   1      39.637  34.591  41.910  1.00  0.00     0.127 S 
ATOM     82  O   UNL A   1      40.115  35.743  42.674  1.00  0.00    -0.237 OA
ATOM     83  O   UNL A   1      38.301  34.753  41.336  1.00  0.00    -0.237 OA
ATOM     84  O   UNL A   1      39.881  33.291  42.518  1.00  0.00    -0.744 OA
ENDBRANCH  78  81
ENDBRANCH  60  74
BRANCH  61  85
ATOM     85  C   UNL A   1      40.504  28.316  30.043  1.00  0.00     0.023 A 
ATOM     86  C   UNL A   1      39.451  27.385  29.941  1.00  0.00     0.012 A 
ATOM     87  C   UNL A   1      41.396  28.464  28.965  1.00  0.00     0.148 A 
ATOM     88  C   UNL A   1      39.307  26.595  28.800  1.00  0.00     0.002 A 
ATOM     89  C   UNL A   1      41.213  27.715  27.808  1.00  0.00     0.091 A 
ATOM     90  F   UNL A   1      42.396  29.349  29.087  1.00  0.00    -0.205 F 
ATOM     91  C   UNL A   1      40.181  26.768  27.730  1.00  0.00     0.022 A 
BRANCH  89  92
ATOM     92  S   UNL A   1      42.205  27.964  26.332  1.00  0.00     0.127 S 
ATOM     93  O   UNL A   1      42.002  29.387  26.072  1.00  0.00    -0.237 OA
ATOM     94  O   UNL A   1      43.542  27.608  26.805  1.00  0.00    -0.237 OA
ATOM     95  O   UNL A   1      41.660  27.057  25.333  1.00  0.00    -0.744 OA
ENDBRANCH  89  92
ENDBRANCH  61  85
BRANCH  73  96
ATOM     96  C   UNL A   1      44.750  28.105  35.570  1.00  0.00     0.023 A 
ATOM     97  C   UNL A   1      46.075  28.525  35.336  1.00  0.00     0.012 A 
ATOM     98  C   UNL A   1      44.522  26.854  36.174  1.00  0.00     0.148 A 
ATOM     99  C   UNL A   1      47.151  27.695  35.650  1.00  0.00     0.002 A 
ATOM    100  C   UNL A   1      45.600  26.053  36.533  1.00  0.00     0.091 A 
ATOM    101  F   UNL A   1      43.255  26.459  36.373  1.00  0.00    -0.205 F 
ATOM    102  C   UNL A   1      46.914  26.464  36.256  1.00  0.00     0.022 A 
BRANCH 100 103
ATOM    103  S   UNL A   1      45.389  24.497  37.406  1.00  0.00     0.127 S 
ATOM    104  O   UNL A   1      44.629  24.915  38.583  1.00  0.00    -0.237 OA
ATOM    105  O   UNL A   1      44.632  23.698  36.443  1.00  0.00    -0.237 OA
ATOM    106  O   UNL A   1      46.735  24.004  37.669  1.00  0.00    -0.744 OA
ENDBRANCH 100 103
ENDBRANCH  73  96
ENDBRANCH  47  48
ENDBRANCH  39  42
ENDBRANCH  37  38
ENDBRANCH  36  37
ENDBRANCH   1  36
TORSDOF 19
ENDMDL
MODEL 2
REMARK VINA RESULT:     -11.3      6.613      9.207
REMARK SMILES O=C(NCCCCNC(=O)c1ccc(-c2c3nc(c(-c4cccc(S(=O)(=O)[O-])c4F)c4ccc([nH]4)c(-c4cccc(S(=O)(=O)[O-])c4F)c4nc(c(-c5cccc(S(=O)(=O)[O-])c5F)c5ccc2[nH]5)C=C4)C=C3)cc1)c1ccc(/[NH+]=C2\S[C@@H](Cc3ccc(F)cc3)C(=O)N2Cc2ccccc2)cc1
REMARK SMILES IDX 5 1 4 2 3 3 1 4 2 5 74 7 75 8 101 9 76 10 100 11 77 12 78 13
REMARK SMILES IDX 79 14 80 16 92 17 81 18 90 19 91 20 93 21 94 22 95 23 99 24
REMARK SMILES IDX 96 25 98 26 97 27 82 28 83 29 84 30 89 31 85 32 88 33 86 34
REMARK SMILES IDX 87 35 6 36 7 37 8 38 9 39 10 41 11 42 12 43 73 44 13 45
REMARK SMILES IDX 72 46 14 47 15 48 16 49 66 50 17 51 71 52 65 53 67 54 18 55
REMARK SMILES IDX 70 56 64 57 63 58 19 60 51 61 31 62 50 63 32 64 35 65 49 66
REMARK SMILES IDX 68 67 33 68 34 69 48 71 69 72 36 73 20 74 21 75 29 76 22 77
REMARK SMILES IDX 24 78 30 79 23 80 25 81 26 82 27 83 28 84 52 85 53 86 61 87
REMARK SMILES IDX 54 88 56 89 62 90 55 91 57 92 58 93 59 94 60 95 37 96 38 97
REMARK SMILES IDX 46 98 39 99 41 100 47 101 40 102 42 103 43 104 44 105 45 106
REMARK H PARENT 3 6 78 15 8 40 67 59 35 70
REMARK Flexibility Score: inf
ROOT
ATOM      1  C   UNL A   1      35.150  32.037  31.799  1.00  0.00     0.023 C 
ENDROOT
BRANCH   1   2
ATOM      2  C   UNL A   1      35.625  32.214  30.362  1.00  0.00     0.116 C 
BRANCH   2   3
ATOM      3  N   UNL A   1      34.761  33.097  29.593  1.00  0.00    -0.352 N 
ATOM      4  O   UNL A   1      33.536  33.757  27.807  1.00  0.00    -0.269 OA
ATOM      5  C   UNL A   1      34.104  32.853  28.413  1.00  0.00     0.251 C 
ATOM      6  H   UNL A   1      34.630  33.997  29.971  1.00  0.00     0.163 HD
BRANCH   5   7
ATOM      7  C   UNL A   1      34.079  31.484  27.862  1.00  0.00     0.040 A 
ATOM      8  C   UNL A   1      32.872  30.916  27.454  1.00  0.00     0.018 A 
ATOM      9  C   UNL A   1      35.276  30.774  27.723  1.00  0.00     0.018 A 
ATOM     10  C   UNL A   1      32.855  29.602  27.005  1.00  0.00     0.052 A 
ATOM     11  C   UNL A   1      35.256  29.466  27.226  1.00  0.00     0.052 A 
ATOM     12  C   UNL A   1      34.041  28.866  26.892  1.00  0.00     0.125 A 
BRANCH  12  13
ATOM     13  N   UNL A   1      33.952  27.611  26.294  1.00  0.00    -0.235 N 
ATOM     14  C   UNL A   1      33.139  27.336  25.335  1.00  0.00     0.320 C 
ATOM     15  H   UNL A   1      34.542  26.896  26.623  1.00  0.00     0.313 HD
ATOM     16  S   UNL A   1      31.850  28.317  24.703  1.00  0.00    -0.022 SA
ATOM     17  N   UNL A   1      33.238  26.155  24.651  1.00  0.00    -0.186 N 
ATOM     18  C   UNL A   1      31.137  26.920  23.770  1.00  0.00     0.178 C 
ATOM     19  C   UNL A   1      32.254  25.884  23.725  1.00  0.00     0.324 C 
ATOM     20  O   UNL A   1      32.234  24.880  23.020  1.00  0.00    -0.245 OA
BRANCH  17  21
ATOM     21  C   UNL A   1      34.332  25.216  24.881  1.00  0.00     0.283 C 
BRANCH  21  22
ATOM     22  C   UNL A   1      33.981  24.078  25.822  1.00  0.00    -0.006 A 
ATOM     23  C   UNL A   1      32.737  24.017  26.463  1.00  0.00     0.008 A 
ATOM     24  C   UNL A   1      34.912  23.061  26.091  1.00  0.00     0.008 A 
ATOM     25  C   UNL A   1      32.439  22.968  27.340  1.00  0.00     0.000 A 
ATOM     26  C   UNL A   1      34.602  21.992  26.931  1.00  0.00     0.000 A 
ATOM     27  C   UNL A   1      33.364  21.948  27.561  1.00  0.00     0.000 A 
ENDBRANCH  21  22
ENDBRANCH  17  21
BRANCH  18  28
ATOM     28  C   UNL A   1      30.624  27.374  22.402  1.00  0.00     0.063 C 
BRANCH  28  29
ATOM     29  C   UNL A   1      29.674  28.554  22.465  1.00  0.00    -0.046 A 
ATOM     30  C   UNL A   1      28.396  28.391  23.025  1.00  0.00     0.007 A 
ATOM     31  C   UNL A   1      30.059  29.822  22.004  1.00  0.00     0.007 A 
ATOM     32  C   UNL A   1      27.535  29.479  23.153  1.00  0.00     0.039 A 
ATOM     33  C   UNL A   1      29.195  30.912  22.136  1.00  0.00     0.039 A 
ATOM     34  C   UNL A   1      27.945  30.731  22.715  1.00  0.00     0.123 A 
ATOM     35  F   UNL A   1      27.124  31.781  22.855  1.00  0.00    -0.207 F 
ENDBRANCH  28  29
ENDBRANCH  18  28
ENDBRANCH  12  13
ENDBRANCH   5   7
ENDBRANCH   2   3
ENDBRANCH   1   2
BRANCH   1  36
ATOM     36  C   UNL A   1      35.884  32.886  32.832  1.00  0.00     0.023 C 
BRANCH  36  37
ATOM     37  C   UNL A   1      36.771  32.116  33.806  1.00  0.00     0.116 C 
BRANCH  37  38
ATOM     38  N   UNL A   1      36.789  30.684  33.555  1.00  0.00    -0.352 N 
ATOM     39  C   UNL A   1      37.613  29.945  32.739  1.00  0.00     0.251 C 
ATOM     40  H   UNL A   1      36.109  30.165  34.042  1.00  0.00     0.163 HD
ATOM     41  O   UNL A   1      37.384  28.750  32.573  1.00  0.00    -0.269 OA
BRANCH  39  42
ATOM     42  C   UNL A   1      38.748  30.587  32.036  1.00  0.00     0.039 A 
ATOM     43  C   UNL A   1      39.874  30.949  32.779  1.00  0.00     0.014 A 
ATOM     44  C   UNL A   1      38.716  30.826  30.659  1.00  0.00     0.014 A 
ATOM     45  C   UNL A   1      40.990  31.485  32.132  1.00  0.00     0.010 A 
ATOM     46  C   UNL A   1      39.860  31.281  30.005  1.00  0.00     0.010 A 
ATOM     47  C   UNL A   1      41.010  31.617  30.733  1.00  0.00    -0.014 A 
BRANCH  47  48
ATOM     48  C   UNL A   1      42.246  32.057  30.034  1.00  0.00     0.031 A 
ATOM     49  C   UNL A   1      42.496  33.510  29.728  1.00  0.00     0.074 A 
ATOM     50  C   UNL A   1      43.130  31.127  29.619  1.00  0.00     0.049 A 
ATOM     51  N   UNL A   1      43.548  34.065  29.186  1.00  0.00    -0.248 NA
ATOM     52  C   UNL A   1      41.418  34.458  30.048  1.00  0.00     0.031 C 
ATOM     53  C   UNL A   1      42.960  29.679  29.758  1.00  0.00     0.029 A 
ATOM     54  N   UNL A   1      44.343  31.257  28.990  1.00  0.00    -0.354 N 
ATOM     55  C   UNL A   1      43.251  35.418  29.070  1.00  0.00     0.074 A 
ATOM     56  C   UNL A   1      41.903  35.594  29.567  1.00  0.00     0.031 C 
ATOM     57  C   UNL A   1      44.040  29.058  29.262  1.00  0.00     0.029 A 
ATOM     58  C   UNL A   1      44.969  30.058  28.746  1.00  0.00     0.049 A 
ATOM     59  H   UNL A   1      44.728  32.127  28.736  1.00  0.00     0.167 HD
ATOM     60  C   UNL A   1      44.036  36.428  28.620  1.00  0.00     0.034 A 
ATOM     61  C   UNL A   1      46.164  29.790  28.184  1.00  0.00     0.034 A 
ATOM     62  C   UNL A   1      45.388  36.254  28.157  1.00  0.00     0.049 A 
ATOM     63  C   UNL A   1      47.040  30.932  27.748  1.00  0.00     0.074 A 
ATOM     64  C   UNL A   1      46.301  37.225  27.782  1.00  0.00     0.029 A 
ATOM     65  N   UNL A   1      46.018  35.030  27.986  1.00  0.00    -0.354 N 
ATOM     66  N   UNL A   1      46.817  32.221  27.827  1.00  0.00    -0.248 NA
ATOM     67  C   UNL A   1      48.350  30.582  27.182  1.00  0.00     0.031 C 
ATOM     68  C   UNL A   1      47.471  36.585  27.354  1.00  0.00     0.029 A 
ATOM     69  C   UNL A   1      47.299  35.218  27.494  1.00  0.00     0.049 A 
ATOM     70  H   UNL A   1      45.612  34.156  28.186  1.00  0.00     0.167 HD
ATOM     71  C   UNL A   1      47.969  32.837  27.352  1.00  0.00     0.074 A 
ATOM     72  C   UNL A   1      48.898  31.777  27.016  1.00  0.00     0.031 C 
ATOM     73  C   UNL A   1      48.230  34.159  27.193  1.00  0.00     0.034 A 
BRANCH  60  74
ATOM     74  C   UNL A   1      43.463  37.823  28.647  1.00  0.00     0.023 A 
ATOM     75  C   UNL A   1      43.741  38.670  29.740  1.00  0.00     0.012 A 
ATOM     76  C   UNL A   1      42.695  38.314  27.574  1.00  0.00     0.148 A 
ATOM     77  C   UNL A   1      43.227  39.966  29.785  1.00  0.00     0.002 A 
ATOM     78  C   UNL A   1      42.226  39.623  27.604  1.00  0.00     0.091 A 
ATOM     79  F   UNL A   1      42.421  37.490  26.553  1.00  0.00    -0.205 F 
ATOM     80  C   UNL A   1      42.480  40.445  28.714  1.00  0.00     0.022 A 
BRANCH  78  81
ATOM     81  S   UNL A   1      41.325  40.359  26.235  1.00  0.00     0.127 S 
ATOM     82  O   UNL A   1      40.649  39.193  25.667  1.00  0.00    -0.237 OA
ATOM     83  O   UNL A   1      40.440  41.302  26.920  1.00  0.00    -0.237 OA
ATOM     84  O   UNL A   1      42.328  40.980  25.382  1.00  0.00    -0.744 OA
ENDBRANCH  78  81
ENDBRANCH  60  74
BRANCH  61  85
ATOM     85  C   UNL A   1      46.640  28.382  28.089  1.00  0.00     0.023 A 
ATOM     86  C   UNL A   1      47.329  27.812  29.179  1.00  0.00     0.012 A 
ATOM     87  C   UNL A   1      46.386  27.593  26.951  1.00  0.00     0.148 A 
ATOM     88  C   UNL A   1      47.781  26.494  29.124  1.00  0.00     0.002 A 
ATOM     89  C   UNL A   1      46.789  26.264  26.926  1.00  0.00     0.091 A 
ATOM     90  F   UNL A   1      45.736  28.158  25.922  1.00  0.00    -0.205 F 
ATOM     91  C   UNL A   1      47.502  25.717  28.004  1.00  0.00     0.022 A 
BRANCH  89  92
ATOM     92  S   UNL A   1      46.357  25.150  25.584  1.00  0.00     0.127 S 
ATOM     93  O   UNL A   1      47.005  23.910  26.005  1.00  0.00    -0.237 OA
ATOM     94  O   UNL A   1      44.896  25.140  25.662  1.00  0.00    -0.237 OA
ATOM     95  O   UNL A   1      46.890  25.763  24.376  1.00  0.00    -0.744 OA
ENDBRANCH  89  92
ENDBRANCH  61  85
BRANCH  73  96
ATOM     96  C   UNL A   1      49.584  34.536  26.649  1.00  0.00     0.023 A 
ATOM     97  C   UNL A   1      49.758  34.718  25.261  1.00  0.00     0.012 A 
ATOM     98  C   UNL A   1      50.679  34.741  27.511  1.00  0.00     0.148 A 
ATOM     99  C   UNL A   1      51.007  35.049  24.738  1.00  0.00     0.002 A 
ATOM    100  C   UNL A   1      51.909  35.121  26.988  1.00  0.00     0.091 A 
ATOM    101  F   UNL A   1      50.505  34.545  28.827  1.00  0.00    -0.205 F 
ATOM    102  C   UNL A   1      52.080  35.259  25.600  1.00  0.00     0.022 A 
BRANCH 100 103
ATOM    103  S   UNL A   1      53.317  35.508  28.034  1.00  0.00     0.127 S 
ATOM    104  O   UNL A   1      53.574  34.221  28.678  1.00  0.00    -0.237 OA
ATOM    105  O   UNL A   1      54.330  35.914  27.058  1.00  0.00    -0.237 OA
ATOM    106  O   UNL A   1      52.873  36.577  28.918  1.00  0.00    -0.744 OA
ENDBRANCH 100 103
ENDBRANCH  73  96
ENDBRANCH  47  48
ENDBRANCH  39  42
ENDBRANCH  37  38
ENDBRANCH  36  37
ENDBRANCH   1  36
TORSDOF 19
ENDMDL
MODEL 3
REMARK VINA RESULT:     -11.1      4.844      9.098
REMARK SMILES O=C(NCCCCNC(=O)c1ccc(-c2c3nc(c(-c4cccc(S(=O)(=O)[O-])c4F)c4ccc([nH]4)c(-c4cccc(S(=O)(=O)[O-])c4F)c4nc(c(-c5cccc(S(=O)(=O)[O-])c5F)c5ccc2[nH]5)C=C4)C=C3)cc1)c1ccc(/[NH+]=C2\S[C@@H](Cc3ccc(F)cc3)C(=O)N2Cc2ccccc2)cc1
REMARK SMILES IDX 5 1 4 2 3 3 1 4 2 5 74 7 75 8 101 9 76 10 100 11 77 12 78 13
REMARK SMILES IDX 79 14 80 16 92 17 81 18 90 19 91 20 93 21 94 22 95 23 99 24
REMARK SMILES IDX 96 25 98 26 97 27 82 28 83 29 84 30 89 31 85 32 88 33 86 34
REMARK SMILES IDX 87 35 6 36 7 37 8 38 9 39 10 41 11 42 12 43 73 44 13 45
REMARK SMILES IDX 72 46 14 47 15 48 16 49 66 50 17 51 71 52 65 53 67 54 18 55
REMARK SMILES IDX 70 56 64 57 63 58 19 60 51 61 31 62 50 63 32 64 35 65 49 66
REMARK SMILES IDX 68 67 33 68 34 69 48 71 69 72 36 73 20 74 21 75 29 76 22 77
REMARK SMILES IDX 24 78 30 79 23 80 25 81 26 82 27 83 28 84 52 85 53 86 61 87
REMARK SMILES IDX 54 88 56 89 62 90 55 91 57 92 58 93 59 94 60 95 37 96 38 97
REMARK SMILES IDX 46 98 39 99 41 100 47 101 40 102 42 103 43 104 44 105 45 106
REMARK H PARENT 3 6 78 15 8 40 67 59 35 70
REMARK Flexibility Score: inf
ROOT
ATOM      1  C   UNL A   1      37.106  33.400  31.837  1.00  0.00     0.023 C 
ENDROOT
BRANCH   1   2
ATOM      2  C   UNL A   1      38.213  34.419  31.598  1.00  0.00     0.116 C 
BRANCH   2   3
ATOM      3  N   UNL A   1      38.938  34.752  32.814  1.00  0.00    -0.352 N 
ATOM      4  O   UNL A   1      40.733  34.876  34.188  1.00  0.00    -0.269 OA
ATOM      5  C   UNL A   1      40.289  34.712  33.056  1.00  0.00     0.251 C 
ATOM      6  H   UNL A   1      38.382  35.049  33.571  1.00  0.00     0.163 HD
BRANCH   5   7
ATOM      7  C   UNL A   1      41.222  34.465  31.939  1.00  0.00     0.040 A 
ATOM      8  C   UNL A   1      40.732  34.297  30.644  1.00  0.00     0.018 A 
ATOM      9  C   UNL A   1      42.598  34.433  32.183  1.00  0.00     0.018 A 
ATOM     10  C   UNL A   1      41.615  33.996  29.615  1.00  0.00     0.052 A 
ATOM     11  C   UNL A   1      43.485  34.173  31.133  1.00  0.00     0.052 A 
ATOM     12  C   UNL A   1      42.994  33.926  29.851  1.00  0.00     0.125 A 
BRANCH  12  13
ATOM     13  N   UNL A   1      43.817  33.765  28.739  1.00  0.00    -0.235 N 
ATOM     14  C   UNL A   1      44.115  32.619  28.234  1.00  0.00     0.320 C 
ATOM     15  H   UNL A   1      44.191  34.571  28.315  1.00  0.00     0.313 HD
ATOM     16  S   UNL A   1      43.786  31.040  28.881  1.00  0.00    -0.022 SA
ATOM     17  N   UNL A   1      44.753  32.532  27.026  1.00  0.00    -0.186 N 
ATOM     18  C   UNL A   1      44.924  30.232  27.705  1.00  0.00     0.178 C 
ATOM     19  C   UNL A   1      45.148  31.276  26.617  1.00  0.00     0.324 C 
ATOM     20  O   UNL A   1      45.702  31.047  25.546  1.00  0.00    -0.245 OA
BRANCH  17  21
ATOM     21  C   UNL A   1      45.010  33.707  26.198  1.00  0.00     0.283 C 
BRANCH  21  22
ATOM     22  C   UNL A   1      46.371  34.339  26.428  1.00  0.00    -0.006 A 
ATOM     23  C   UNL A   1      46.555  35.725  26.349  1.00  0.00     0.008 A 
ATOM     24  C   UNL A   1      47.492  33.539  26.706  1.00  0.00     0.008 A 
ATOM     25  C   UNL A   1      47.822  36.287  26.548  1.00  0.00     0.000 A 
ATOM     26  C   UNL A   1      48.746  34.100  26.946  1.00  0.00     0.000 A 
ATOM     27  C   UNL A   1      48.913  35.476  26.861  1.00  0.00     0.000 A 
ENDBRANCH  21  22
ENDBRANCH  17  21
BRANCH  18  28
ATOM     28  C   UNL A   1      44.354  28.901  27.212  1.00  0.00     0.063 C 
BRANCH  28  29
ATOM     29  C   UNL A   1      45.413  27.892  26.813  1.00  0.00    -0.046 A 
ATOM     30  C   UNL A   1      45.513  27.480  25.474  1.00  0.00     0.007 A 
ATOM     31  C   UNL A   1      46.322  27.383  27.754  1.00  0.00     0.007 A 
ATOM     32  C   UNL A   1      46.524  26.606  25.076  1.00  0.00     0.039 A 
ATOM     33  C   UNL A   1      47.335  26.509  27.352  1.00  0.00     0.039 A 
ATOM     34  C   UNL A   1      47.430  26.135  26.017  1.00  0.00     0.123 A 
ATOM     35  F   UNL A   1      48.412  25.308  25.631  1.00  0.00    -0.207 F 
ENDBRANCH  28  29
ENDBRANCH  18  28
ENDBRANCH  12  13
ENDBRANCH   5   7
ENDBRANCH   2   3
ENDBRANCH   1   2
BRANCH   1  36
ATOM     36  C   UNL A   1      35.736  33.794  31.292  1.00  0.00     0.023 C 
BRANCH  36  37
ATOM     37  C   UNL A   1      34.706  32.671  31.227  1.00  0.00     0.116 C 
BRANCH  37  38
ATOM     38  N   UNL A   1      34.252  32.387  29.875  1.00  0.00    -0.352 N 
ATOM     39  C   UNL A   1      34.864  31.669  28.875  1.00  0.00     0.251 C 
ATOM     40  H   UNL A   1      33.375  32.767  29.639  1.00  0.00     0.163 HD
ATOM     41  O   UNL A   1      34.363  31.648  27.754  1.00  0.00    -0.269 OA
BRANCH  39  42
ATOM     42  C   UNL A   1      36.134  30.952  29.133  1.00  0.00     0.039 A 
ATOM     43  C   UNL A   1      37.316  31.479  28.608  1.00  0.00     0.014 A 
ATOM     44  C   UNL A   1      36.170  29.776  29.889  1.00  0.00     0.014 A 
ATOM     45  C   UNL A   1      38.538  30.867  28.899  1.00  0.00     0.010 A 
ATOM     46  C   UNL A   1      37.396  29.217  30.247  1.00  0.00     0.010 A 
ATOM     47  C   UNL A   1      38.594  29.754  29.755  1.00  0.00    -0.014 A 
BRANCH  47  48
ATOM     48  C   UNL A   1      39.904  29.189  30.173  1.00  0.00     0.031 A 
ATOM     49  C   UNL A   1      40.673  29.772  31.329  1.00  0.00     0.074 A 
ATOM     50  C   UNL A   1      40.435  28.172  29.465  1.00  0.00     0.049 A 
ATOM     51  N   UNL A   1      41.794  29.358  31.861  1.00  0.00    -0.248 NA
ATOM     52  C   UNL A   1      40.129  30.988  31.952  1.00  0.00     0.031 C 
ATOM     53  C   UNL A   1      39.844  27.583  28.261  1.00  0.00     0.029 A 
ATOM     54  N   UNL A   1      41.592  27.457  29.647  1.00  0.00    -0.354 N 
ATOM     55  C   UNL A   1      42.107  30.275  32.857  1.00  0.00     0.074 A 
ATOM     56  C   UNL A   1      41.074  31.289  32.831  1.00  0.00     0.031 C 
ATOM     57  C   UNL A   1      40.623  26.578  27.833  1.00  0.00     0.029 A 
ATOM     58  C   UNL A   1      41.781  26.465  28.714  1.00  0.00     0.049 A 
ATOM     59  H   UNL A   1      42.228  27.638  30.377  1.00  0.00     0.167 HD
ATOM     60  C   UNL A   1      43.142  30.262  33.733  1.00  0.00     0.034 A 
ATOM     61  C   UNL A   1      42.766  25.555  28.587  1.00  0.00     0.034 A 
ATOM     62  C   UNL A   1      44.149  29.235  33.777  1.00  0.00     0.049 A 
ATOM     63  C   UNL A   1      43.870  25.525  29.609  1.00  0.00     0.074 A 
ATOM     64  C   UNL A   1      45.175  29.073  34.693  1.00  0.00     0.029 A 
ATOM     65  N   UNL A   1      44.272  28.204  32.858  1.00  0.00    -0.354 N 
ATOM     66  N   UNL A   1      44.042  26.286  30.662  1.00  0.00    -0.248 NA
ATOM     67  C   UNL A   1      44.895  24.484  29.444  1.00  0.00     0.031 C 
ATOM     68  C   UNL A   1      45.937  27.964  34.307  1.00  0.00     0.029 A 
ATOM     69  C   UNL A   1      45.366  27.414  33.171  1.00  0.00     0.049 A 
ATOM     70  H   UNL A   1      43.669  28.056  32.093  1.00  0.00     0.167 HD
ATOM     71  C   UNL A   1      45.174  25.797  31.305  1.00  0.00     0.074 A 
ATOM     72  C   UNL A   1      45.626  24.655  30.536  1.00  0.00     0.031 C 
ATOM     73  C   UNL A   1      45.792  26.259  32.420  1.00  0.00     0.034 A 
BRANCH  60  74
ATOM     74  C   UNL A   1      43.211  31.376  34.748  1.00  0.00     0.023 A 
ATOM     75  C   UNL A   1      44.101  32.451  34.545  1.00  0.00     0.012 A 
ATOM     76  C   UNL A   1      42.366  31.387  35.874  1.00  0.00     0.148 A 
ATOM     77  C   UNL A   1      44.179  33.495  35.466  1.00  0.00     0.002 A 
ATOM     78  C   UNL A   1      42.415  32.455  36.764  1.00  0.00     0.091 A 
ATOM     79  F   UNL A   1      41.541  30.347  36.066  1.00  0.00    -0.205 F 
ATOM     80  C   UNL A   1      43.330  33.502  36.568  1.00  0.00     0.022 A 
BRANCH  78  81
ATOM     81  S   UNL A   1      41.304  32.596  38.168  1.00  0.00     0.127 S 
ATOM     82  O   UNL A   1      41.963  31.738  39.152  1.00  0.00    -0.237 OA
ATOM     83  O   UNL A   1      41.367  34.026  38.469  1.00  0.00    -0.237 OA
ATOM     84  O   UNL A   1      40.006  32.132  37.701  1.00  0.00    -0.744 OA
ENDBRANCH  78  81
ENDBRANCH  60  74
BRANCH  61  85
ATOM     85  C   UNL A   1      42.701  24.537  27.502  1.00  0.00     0.023 A 
ATOM     86  C   UNL A   1      43.577  24.642  26.404  1.00  0.00     0.012 A 
ATOM     87  C   UNL A   1      41.809  23.450  27.565  1.00  0.00     0.148 A 
ATOM     88  C   UNL A   1      43.546  23.701  25.374  1.00  0.00     0.002 A 
ATOM     89  C   UNL A   1      41.823  22.484  26.566  1.00  0.00     0.091 A 
ATOM     90  F   UNL A   1      40.977  23.373  28.615  1.00  0.00    -0.205 F 
ATOM     91  C   UNL A   1      42.677  22.618  25.461  1.00  0.00     0.022 A 
BRANCH  89  92
ATOM     92  S   UNL A   1      40.836  20.987  26.658  1.00  0.00     0.127 S 
ATOM     93  O   UNL A   1      39.505  21.484  26.319  1.00  0.00    -0.237 OA
ATOM     94  O   UNL A   1      41.462  20.151  25.633  1.00  0.00    -0.237 OA
ATOM     95  O   UNL A   1      40.997  20.491  28.017  1.00  0.00    -0.744 OA
ENDBRANCH  89  92
ENDBRANCH  61  85
BRANCH  73  96
ATOM     96  C   UNL A   1      47.017  25.516  32.890  1.00  0.00     0.023 A 
ATOM     97  C   UNL A   1      48.295  25.930  32.464  1.00  0.00     0.012 A 
ATOM     98  C   UNL A   1      46.906  24.429  33.778  1.00  0.00     0.148 A 
ATOM     99  C   UNL A   1      49.438  25.243  32.874  1.00  0.00     0.002 A 
ATOM    100  C   UNL A   1      48.053  23.782  34.224  1.00  0.00     0.091 A 
ATOM    101  F   UNL A   1      45.682  24.034  34.160  1.00  0.00    -0.205 F 
ATOM    102  C   UNL A   1      49.318  24.176  33.760  1.00  0.00     0.022 A 
BRANCH 100 103
ATOM    103  S   UNL A   1      47.996  22.462  35.442  1.00  0.00     0.127 S 
ATOM    104  O   UNL A   1      49.402  22.349  35.826  1.00  0.00    -0.237 OA
ATOM    105  O   UNL A   1      47.124  23.025  36.473  1.00  0.00    -0.237 OA
ATOM    106  O   UNL A   1      47.438  21.308  34.750  1.00  0.00    -0.744 OA
ENDBRANCH 100 103
ENDBRANCH  73  96
ENDBRANCH  47  48
ENDBRANCH  39  42
ENDBRANCH  37  38
ENDBRANCH  36  37
ENDBRANCH   1  36
TORSDOF 19
ENDMDL
