MODEL 1
REMARK VINA RESULT:     -12.7      0.000      0.000
REMARK SMILES O=C(NCCCCNC(=O)[C@@H]1CCCC[C@@H]1C(=O)Nc1cccc(C(F)(F)F)c1)c1ccc(-c2c3nc(c(-c4cccc(S(=O)(=O)[O-])c4F)c4ccc([nH]4)c(-c4cccc(S(=O)(=O)[O-])c4F)c4nc(c(-c5cccc(S(=O)(=O)[O-])c5F)c5ccc2[nH]5)C=C4)C=C3)cc1
REMARK SMILES IDX 5 1 4 2 3 3 1 4 2 5 30 7 31 8 92 9 32 10 91 11 33 12 34 13
REMARK SMILES IDX 35 14 85 15 36 16 90 17 84 18 86 19 37 20 89 21 83 22 82 23
REMARK SMILES IDX 38 25 70 26 50 27 69 28 51 29 54 30 68 31 87 32 52 33 53 34
REMARK SMILES IDX 67 36 88 37 55 38 39 39 40 40 48 41 41 42 43 43 49 44 42 45
REMARK SMILES IDX 44 46 45 47 46 48 47 49 71 50 72 51 80 52 73 53 75 54 81 55
REMARK SMILES IDX 74 56 76 57 77 58 78 59 79 60 56 61 57 62 65 63 58 64 60 65
REMARK SMILES IDX 66 66 59 67 61 68 62 69 63 70 64 71 6 72 7 73 8 74 9 75
REMARK SMILES IDX 10 77 11 78 12 79 16 80 13 81 15 82 14 83 17 84 18 85 19 86
REMARK SMILES IDX 20 88 21 89 29 90 22 91 24 92 23 93 25 94 26 95 27 96 28 97
REMARK H PARENT 3 6 86 24 54 35 8 76 19 87
REMARK Flexibility Score: inf
ROOT
ATOM      1  C   UNL A   1      31.567  28.913  26.928  1.00  0.00     0.023 C 
ENDROOT
BRANCH   1   2
ATOM      2  C   UNL A   1      32.578  29.882  26.334  1.00  0.00     0.116 C 
BRANCH   2   3
ATOM      3  N   UNL A   1      32.319  31.277  26.666  1.00  0.00    -0.352 N 
ATOM      4  O   UNL A   1      32.745  33.283  27.621  1.00  0.00    -0.269 OA
ATOM      5  C   UNL A   1      33.136  32.152  27.348  1.00  0.00     0.251 C 
ATOM      6  H   UNL A   1      31.455  31.639  26.365  1.00  0.00     0.163 HD
BRANCH   5   7
ATOM      7  C   UNL A   1      34.465  31.678  27.780  1.00  0.00     0.039 A 
ATOM      8  C   UNL A   1      34.657  30.327  28.077  1.00  0.00     0.014 A 
ATOM      9  C   UNL A   1      35.484  32.607  28.000  1.00  0.00     0.014 A 
ATOM     10  C   UNL A   1      35.798  29.938  28.765  1.00  0.00     0.010 A 
ATOM     11  C   UNL A   1      36.671  32.192  28.608  1.00  0.00     0.010 A 
ATOM     12  C   UNL A   1      36.814  30.867  29.048  1.00  0.00    -0.014 A 
BRANCH  12  13
ATOM     13  C   UNL A   1      38.018  30.415  29.791  1.00  0.00     0.031 A 
ATOM     14  C   UNL A   1      38.246  30.810  31.226  1.00  0.00     0.074 A 
ATOM     15  C   UNL A   1      38.895  29.607  29.164  1.00  0.00     0.049 A 
ATOM     16  N   UNL A   1      39.214  30.451  32.031  1.00  0.00    -0.248 NA
ATOM     17  C   UNL A   1      37.275  31.733  31.839  1.00  0.00     0.031 C 
ATOM     18  C   UNL A   1      38.799  29.192  27.763  1.00  0.00     0.029 A 
ATOM     19  N   UNL A   1      40.026  28.982  29.619  1.00  0.00    -0.354 N 
ATOM     20  C   UNL A   1      39.001  31.139  33.220  1.00  0.00     0.074 A 
ATOM     21  C   UNL A   1      37.811  31.940  33.034  1.00  0.00     0.031 C 
ATOM     22  C   UNL A   1      39.800  28.346  27.485  1.00  0.00     0.029 A 
ATOM     23  C   UNL A   1      40.637  28.196  28.671  1.00  0.00     0.049 A 
ATOM     24  H   UNL A   1      40.368  29.084  30.537  1.00  0.00     0.167 HD
ATOM     25  C   UNL A   1      39.722  31.094  34.367  1.00  0.00     0.034 A 
ATOM     26  C   UNL A   1      41.747  27.439  28.743  1.00  0.00     0.034 A 
ATOM     27  C   UNL A   1      40.869  30.247  34.566  1.00  0.00     0.049 A 
ATOM     28  C   UNL A   1      42.487  27.359  30.047  1.00  0.00     0.074 A 
ATOM     29  C   UNL A   1      41.625  30.080  35.714  1.00  0.00     0.029 A 
ATOM     30  N   UNL A   1      41.424  29.424  33.599  1.00  0.00    -0.354 N 
ATOM     31  N   UNL A   1      42.196  27.923  31.195  1.00  0.00    -0.248 NA
ATOM     32  C   UNL A   1      43.690  26.518  30.076  1.00  0.00     0.031 C 
ATOM     33  C   UNL A   1      42.643  29.161  35.437  1.00  0.00     0.029 A 
ATOM     34  C   UNL A   1      42.514  28.747  34.121  1.00  0.00     0.049 A 
ATOM     35  H   UNL A   1      41.092  29.334  32.677  1.00  0.00     0.167 HD
ATOM     36  C   UNL A   1      43.165  27.485  32.089  1.00  0.00     0.074 A 
ATOM     37  C   UNL A   1      44.033  26.587  31.354  1.00  0.00     0.031 C 
ATOM     38  C   UNL A   1      43.333  27.813  33.392  1.00  0.00     0.034 A 
BRANCH  25  39
ATOM     39  C   UNL A   1      39.271  31.954  35.519  1.00  0.00     0.023 A 
ATOM     40  C   UNL A   1      38.431  31.409  36.510  1.00  0.00     0.012 A 
ATOM     41  C   UNL A   1      39.738  33.277  35.662  1.00  0.00     0.148 A 
ATOM     42  C   UNL A   1      38.042  32.171  37.611  1.00  0.00     0.002 A 
ATOM     43  C   UNL A   1      39.377  34.019  36.782  1.00  0.00     0.091 A 
ATOM     44  F   UNL A   1      40.517  33.789  34.699  1.00  0.00    -0.205 F 
ATOM     45  C   UNL A   1      38.523  33.470  37.753  1.00  0.00     0.022 A 
BRANCH  43  46
ATOM     46  S   UNL A   1      40.008  35.674  37.085  1.00  0.00     0.127 S 
ATOM     47  O   UNL A   1      39.311  36.035  38.318  1.00  0.00    -0.237 OA
ATOM     48  O   UNL A   1      41.443  35.437  37.244  1.00  0.00    -0.237 OA
ATOM     49  O   UNL A   1      39.653  36.455  35.908  1.00  0.00    -0.744 OA
ENDBRANCH  43  46
ENDBRANCH  25  39
BRANCH  26  50
ATOM     50  C   UNL A   1      42.171  26.641  27.559  1.00  0.00     0.023 A 
ATOM     51  C   UNL A   1      42.972  27.245  26.572  1.00  0.00     0.012 A 
ATOM     52  C   UNL A   1      41.843  25.278  27.440  1.00  0.00     0.148 A 
ATOM     53  C   UNL A   1      43.423  26.510  25.475  1.00  0.00     0.002 A 
ATOM     54  C   UNL A   1      42.345  24.536  26.377  1.00  0.00     0.091 A 
ATOM     55  F   UNL A   1      41.063  24.725  28.381  1.00  0.00    -0.205 F 
ATOM     56  C   UNL A   1      43.122  25.153  25.385  1.00  0.00     0.022 A 
BRANCH  54  57
ATOM     57  S   UNL A   1      42.129  22.755  26.278  1.00  0.00     0.127 S 
ATOM     58  O   UNL A   1      42.844  22.300  27.467  1.00  0.00    -0.237 OA
ATOM     59  O   UNL A   1      40.674  22.617  26.341  1.00  0.00    -0.237 OA
ATOM     60  O   UNL A   1      42.708  22.369  24.997  1.00  0.00    -0.744 OA
ENDBRANCH  54  57
ENDBRANCH  26  50
BRANCH  38  61
ATOM     61  C   UNL A   1      44.488  27.179  34.120  1.00  0.00     0.023 A 
ATOM     62  C   UNL A   1      45.755  27.792  34.081  1.00  0.00     0.012 A 
ATOM     63  C   UNL A   1      44.307  26.010  34.883  1.00  0.00     0.148 A 
ATOM     64  C   UNL A   1      46.833  27.233  34.765  1.00  0.00     0.002 A 
ATOM     65  C   UNL A   1      45.375  25.482  35.598  1.00  0.00     0.091 A 
ATOM     66  F   UNL A   1      43.099  25.426  34.889  1.00  0.00    -0.205 F 
ATOM     67  C   UNL A   1      46.642  26.086  35.533  1.00  0.00     0.022 A 
BRANCH  65  68
ATOM     68  S   UNL A   1      45.184  24.060  36.678  1.00  0.00     0.127 S 
ATOM     69  O   UNL A   1      44.549  23.091  35.787  1.00  0.00    -0.237 OA
ATOM     70  O   UNL A   1      46.568  23.744  37.035  1.00  0.00    -0.237 OA
ATOM     71  O   UNL A   1      44.369  24.522  37.794  1.00  0.00    -0.744 OA
ENDBRANCH  65  68
ENDBRANCH  38  61
ENDBRANCH  12  13
ENDBRANCH   5   7
ENDBRANCH   2   3
ENDBRANCH   1   2
BRANCH   1  72
ATOM     72  C   UNL A   1      31.949  27.440  26.838  1.00  0.00     0.023 C 
BRANCH  72  73
ATOM     73  C   UNL A   1      30.932  26.546  26.138  1.00  0.00     0.116 C 
BRANCH  73  74
ATOM     74  N   UNL A   1      30.572  27.065  24.838  1.00  0.00    -0.356 N 
ATOM     75  C   UNL A   1      30.716  26.611  23.577  1.00  0.00     0.223 C 
ATOM     76  H   UNL A   1      30.124  27.940  24.883  1.00  0.00     0.163 HD
ATOM     77  O   UNL A   1      30.299  27.358  22.683  1.00  0.00    -0.275 OA
BRANCH  75  78
ATOM     78  C   UNL A   1      31.334  25.273  23.176  1.00  0.00     0.091 C 
ATOM     79  C   UNL A   1      31.083  24.017  23.990  1.00  0.00     0.014 C 
ATOM     80  C   UNL A   1      32.803  25.400  22.732  1.00  0.00     0.091 C 
ATOM     81  C   UNL A   1      31.347  22.785  23.133  1.00  0.00     0.001 C 
ATOM     82  C   UNL A   1      33.284  24.133  22.012  1.00  0.00     0.014 C 
ATOM     83  C   UNL A   1      32.722  22.782  22.473  1.00  0.00     0.001 C 
BRANCH  80  84
ATOM     84  C   UNL A   1      33.724  26.137  23.727  1.00  0.00     0.228 C 
ATOM     85  O   UNL A   1      33.988  27.328  23.515  1.00  0.00    -0.274 OA
ATOM     86  N   UNL A   1      34.151  25.662  24.926  1.00  0.00    -0.326 N 
ATOM     87  H   UNL A   1      34.327  26.376  25.579  1.00  0.00     0.169 HD
BRANCH  86  88
ATOM     88  C   UNL A   1      34.396  24.390  25.437  1.00  0.00     0.041 A 
ATOM     89  C   UNL A   1      33.607  23.944  26.501  1.00  0.00     0.026 A 
ATOM     90  C   UNL A   1      35.457  23.604  25.011  1.00  0.00     0.039 A 
ATOM     91  C   UNL A   1      33.774  22.659  27.018  1.00  0.00     0.003 A 
ATOM     92  C   UNL A   1      35.647  22.307  25.523  1.00  0.00     0.058 A 
ATOM     93  C   UNL A   1      34.776  21.833  26.512  1.00  0.00     0.013 A 
BRANCH  92  94
ATOM     94  C   UNL A   1      36.731  21.415  24.975  1.00  0.00     0.416 C 
ATOM     95  F   UNL A   1      37.134  21.773  23.724  1.00  0.00    -0.166 F 
ATOM     96  F   UNL A   1      37.853  21.437  25.749  1.00  0.00    -0.166 F 
ATOM     97  F   UNL A   1      36.368  20.105  24.889  1.00  0.00    -0.166 F 
ENDBRANCH  92  94
ENDBRANCH  86  88
ENDBRANCH  80  84
ENDBRANCH  75  78
ENDBRANCH  73  74
ENDBRANCH  72  73
ENDBRANCH   1  72
TORSDOF 17
ENDMDL
MODEL 2
REMARK VINA RESULT:     -12.6      1.757      2.550
REMARK SMILES O=C(NCCCCNC(=O)[C@@H]1CCCC[C@@H]1C(=O)Nc1cccc(C(F)(F)F)c1)c1ccc(-c2c3nc(c(-c4cccc(S(=O)(=O)[O-])c4F)c4ccc([nH]4)c(-c4cccc(S(=O)(=O)[O-])c4F)c4nc(c(-c5cccc(S(=O)(=O)[O-])c5F)c5ccc2[nH]5)C=C4)C=C3)cc1
REMARK SMILES IDX 5 1 4 2 3 3 1 4 2 5 30 7 31 8 92 9 32 10 91 11 33 12 34 13
REMARK SMILES IDX 35 14 85 15 36 16 90 17 84 18 86 19 37 20 89 21 83 22 82 23
REMARK SMILES IDX 38 25 70 26 50 27 69 28 51 29 54 30 68 31 87 32 52 33 53 34
REMARK SMILES IDX 67 36 88 37 55 38 39 39 40 40 48 41 41 42 43 43 49 44 42 45
REMARK SMILES IDX 44 46 45 47 46 48 47 49 71 50 72 51 80 52 73 53 75 54 81 55
REMARK SMILES IDX 74 56 76 57 77 58 78 59 79 60 56 61 57 62 65 63 58 64 60 65
REMARK SMILES IDX 66 66 59 67 61 68 62 69 63 70 64 71 6 72 7 73 8 74 9 75
REMARK SMILES IDX 10 77 11 78 12 79 16 80 13 81 15 82 14 83 17 84 18 85 19 86
REMARK SMILES IDX 20 88 21 89 29 90 22 91 24 92 23 93 25 94 26 95 27 96 28 97
REMARK H PARENT 3 6 86 24 54 35 8 76 19 87
REMARK Flexibility Score: inf
ROOT
ATOM      1  C   UNL A   1      32.113  29.507  27.065  1.00  0.00     0.023 C 
ENDROOT
BRANCH   1   2
ATOM      2  C   UNL A   1      33.034  30.541  26.435  1.00  0.00     0.116 C 
BRANCH   2   3
ATOM      3  N   UNL A   1      32.847  31.888  26.958  1.00  0.00    -0.352 N 
ATOM      4  O   UNL A   1      33.373  33.717  28.181  1.00  0.00    -0.269 OA
ATOM      5  C   UNL A   1      33.706  32.616  27.752  1.00  0.00     0.251 C 
ATOM      6  H   UNL A   1      32.004  32.334  26.713  1.00  0.00     0.163 HD
BRANCH   5   7
ATOM      7  C   UNL A   1      35.006  32.017  28.111  1.00  0.00     0.039 A 
ATOM      8  C   UNL A   1      35.068  30.681  28.511  1.00  0.00     0.014 A 
ATOM      9  C   UNL A   1      36.142  32.828  28.157  1.00  0.00     0.014 A 
ATOM     10  C   UNL A   1      36.217  30.210  29.132  1.00  0.00     0.010 A 
ATOM     11  C   UNL A   1      37.326  32.320  28.697  1.00  0.00     0.010 A 
ATOM     12  C   UNL A   1      37.356  31.026  29.241  1.00  0.00    -0.014 A 
BRANCH  12  13
ATOM     13  C   UNL A   1      38.565  30.489  29.916  1.00  0.00     0.031 A 
ATOM     14  C   UNL A   1      38.906  30.872  31.333  1.00  0.00     0.074 A 
ATOM     15  C   UNL A   1      39.342  29.617  29.246  1.00  0.00     0.049 A 
ATOM     16  N   UNL A   1      39.890  30.446  32.083  1.00  0.00    -0.248 NA
ATOM     17  C   UNL A   1      38.042  31.866  31.993  1.00  0.00     0.031 C 
ATOM     18  C   UNL A   1      39.134  29.204  27.856  1.00  0.00     0.029 A 
ATOM     19  N   UNL A   1      40.449  28.912  29.640  1.00  0.00    -0.354 N 
ATOM     20  C   UNL A   1      39.798  31.152  33.276  1.00  0.00     0.074 A 
ATOM     21  C   UNL A   1      38.661  32.038  33.154  1.00  0.00     0.031 C 
ATOM     22  C   UNL A   1      40.052  28.286  27.527  1.00  0.00     0.029 A 
ATOM     23  C   UNL A   1      40.944  28.080  28.663  1.00  0.00     0.049 A 
ATOM     24  H   UNL A   1      40.851  28.992  30.535  1.00  0.00     0.167 HD
ATOM     25  C   UNL A   1      40.580  31.059  34.380  1.00  0.00     0.034 A 
ATOM     26  C   UNL A   1      41.999  27.243  28.678  1.00  0.00     0.034 A 
ATOM     27  C   UNL A   1      41.671  30.130  34.519  1.00  0.00     0.049 A 
ATOM     28  C   UNL A   1      42.806  27.114  29.937  1.00  0.00     0.074 A 
ATOM     29  C   UNL A   1      42.479  29.912  35.622  1.00  0.00     0.029 A 
ATOM     30  N   UNL A   1      42.107  29.265  33.528  1.00  0.00    -0.354 N 
ATOM     31  N   UNL A   1      42.625  27.702  31.095  1.00  0.00    -0.248 NA
ATOM     32  C   UNL A   1      43.944  26.187  29.902  1.00  0.00     0.031 C 
ATOM     33  C   UNL A   1      43.410  28.920  35.294  1.00  0.00     0.029 A 
ATOM     34  C   UNL A   1      43.173  28.512  33.991  1.00  0.00     0.049 A 
ATOM     35  H   UNL A   1      41.716  29.196  32.627  1.00  0.00     0.167 HD
ATOM     36  C   UNL A   1      43.609  27.197  31.934  1.00  0.00     0.074 A 
ATOM     37  C   UNL A   1      44.365  26.235  31.158  1.00  0.00     0.031 C 
ATOM     38  C   UNL A   1      43.877  27.517  33.223  1.00  0.00     0.034 A 
BRANCH  25  39
ATOM     39  C   UNL A   1      40.262  31.954  35.549  1.00  0.00     0.023 A 
ATOM     40  C   UNL A   1      41.046  33.101  35.783  1.00  0.00     0.012 A 
ATOM     41  C   UNL A   1      39.143  31.704  36.370  1.00  0.00     0.148 A 
ATOM     42  C   UNL A   1      40.739  33.972  36.829  1.00  0.00     0.002 A 
ATOM     43  C   UNL A   1      38.821  32.597  37.387  1.00  0.00     0.091 A 
ATOM     44  F   UNL A   1      38.421  30.597  36.150  1.00  0.00    -0.205 F 
ATOM     45  C   UNL A   1      39.622  33.726  37.622  1.00  0.00     0.022 A 
BRANCH  43  46
ATOM     46  S   UNL A   1      37.358  32.400  38.412  1.00  0.00     0.127 S 
ATOM     47  O   UNL A   1      37.275  30.946  38.534  1.00  0.00    -0.237 OA
ATOM     48  O   UNL A   1      37.744  33.093  39.643  1.00  0.00    -0.237 OA
ATOM     49  O   UNL A   1      36.271  33.036  37.679  1.00  0.00    -0.744 OA
ENDBRANCH  43  46
ENDBRANCH  25  39
BRANCH  26  50
ATOM     50  C   UNL A   1      42.293  26.412  27.477  1.00  0.00     0.023 A 
ATOM     51  C   UNL A   1      43.030  26.970  26.416  1.00  0.00     0.012 A 
ATOM     52  C   UNL A   1      41.906  25.060  27.411  1.00  0.00     0.148 A 
ATOM     53  C   UNL A   1      43.360  26.201  25.299  1.00  0.00     0.002 A 
ATOM     54  C   UNL A   1      42.291  24.284  26.324  1.00  0.00     0.091 A 
ATOM     55  F   UNL A   1      41.188  24.552  28.423  1.00  0.00    -0.205 F 
ATOM     56  C   UNL A   1      43.004  24.855  25.260  1.00  0.00     0.022 A 
BRANCH  54  57
ATOM     57  S   UNL A   1      42.003  22.511  26.276  1.00  0.00     0.127 S 
ATOM     58  O   UNL A   1      42.642  22.070  27.512  1.00  0.00    -0.237 OA
ATOM     59  O   UNL A   1      40.541  22.436  26.276  1.00  0.00    -0.237 OA
ATOM     60  O   UNL A   1      42.621  22.055  25.038  1.00  0.00    -0.744 OA
ENDBRANCH  54  57
ENDBRANCH  26  50
BRANCH  38  61
ATOM     61  C   UNL A   1      45.024  26.802  33.887  1.00  0.00     0.023 A 
ATOM     62  C   UNL A   1      46.323  27.339  33.799  1.00  0.00     0.012 A 
ATOM     63  C   UNL A   1      44.807  25.633  34.640  1.00  0.00     0.148 A 
ATOM     64  C   UNL A   1      47.395  26.706  34.425  1.00  0.00     0.002 A 
ATOM     65  C   UNL A   1      45.872  25.030  35.298  1.00  0.00     0.091 A 
ATOM     66  F   UNL A   1      43.567  25.122  34.693  1.00  0.00    -0.205 F 
ATOM     67  C   UNL A   1      47.169  25.558  35.183  1.00  0.00     0.022 A 
BRANCH  65  68
ATOM     68  S   UNL A   1      45.644  23.603  36.364  1.00  0.00     0.127 S 
ATOM     69  O   UNL A   1      44.875  24.173  37.468  1.00  0.00    -0.237 OA
ATOM     70  O   UNL A   1      44.890  22.685  35.507  1.00  0.00    -0.237 OA
ATOM     71  O   UNL A   1      46.986  23.144  36.697  1.00  0.00    -0.744 OA
ENDBRANCH  65  68
ENDBRANCH  38  61
ENDBRANCH  12  13
ENDBRANCH   5   7
ENDBRANCH   2   3
ENDBRANCH   1   2
BRANCH   1  72
ATOM     72  C   UNL A   1      32.762  28.161  27.370  1.00  0.00     0.023 C 
BRANCH  72  73
ATOM     73  C   UNL A   1      33.915  27.772  26.454  1.00  0.00     0.116 C 
BRANCH  73  74
ATOM     74  N   UNL A   1      33.451  27.430  25.129  1.00  0.00    -0.356 N 
ATOM     75  C   UNL A   1      33.593  26.347  24.338  1.00  0.00     0.223 C 
ATOM     76  H   UNL A   1      32.913  28.141  24.713  1.00  0.00     0.163 HD
ATOM     77  O   UNL A   1      33.064  26.419  23.222  1.00  0.00    -0.275 OA
BRANCH  75  78
ATOM     78  C   UNL A   1      34.337  25.065  24.707  1.00  0.00     0.091 C 
ATOM     79  C   UNL A   1      34.668  24.020  23.657  1.00  0.00     0.014 C 
ATOM     80  C   UNL A   1      33.838  24.438  26.021  1.00  0.00     0.091 C 
ATOM     81  C   UNL A   1      35.817  23.145  24.143  1.00  0.00     0.001 C 
ATOM     82  C   UNL A   1      34.815  23.376  26.543  1.00  0.00     0.014 C 
ATOM     83  C   UNL A   1      35.580  22.529  25.517  1.00  0.00     0.001 C 
BRANCH  80  84
ATOM     84  C   UNL A   1      32.314  24.211  26.100  1.00  0.00     0.228 C 
ATOM     85  O   UNL A   1      31.651  24.920  26.870  1.00  0.00    -0.274 OA
ATOM     86  N   UNL A   1      31.579  23.420  25.276  1.00  0.00    -0.326 N 
ATOM     87  H   UNL A   1      30.650  23.729  25.179  1.00  0.00     0.169 HD
BRANCH  86  88
ATOM     88  C   UNL A   1      31.845  22.268  24.540  1.00  0.00     0.041 A 
ATOM     89  C   UNL A   1      31.758  22.341  23.147  1.00  0.00     0.026 A 
ATOM     90  C   UNL A   1      32.079  21.037  25.136  1.00  0.00     0.039 A 
ATOM     91  C   UNL A   1      32.066  21.232  22.359  1.00  0.00     0.003 A 
ATOM     92  C   UNL A   1      32.386  19.905  24.360  1.00  0.00     0.058 A 
ATOM     93  C   UNL A   1      32.404  20.023  22.964  1.00  0.00     0.013 A 
BRANCH  92  94
ATOM     94  C   UNL A   1      32.750  18.597  25.016  1.00  0.00     0.416 C 
ATOM     95  F   UNL A   1      31.897  17.586  24.697  1.00  0.00    -0.166 F 
ATOM     96  F   UNL A   1      33.991  18.169  24.649  1.00  0.00    -0.166 F 
ATOM     97  F   UNL A   1      32.768  18.657  26.377  1.00  0.00    -0.166 F 
ENDBRANCH  92  94
ENDBRANCH  86  88
ENDBRANCH  80  84
ENDBRANCH  75  78
ENDBRANCH  73  74
ENDBRANCH  72  73
ENDBRANCH   1  72
TORSDOF 17
ENDMDL
MODEL 3
REMARK VINA RESULT:     -12.6      4.726      9.734
REMARK SMILES O=C(NCCCCNC(=O)[C@@H]1CCCC[C@@H]1C(=O)Nc1cccc(C(F)(F)F)c1)c1ccc(-c2c3nc(c(-c4cccc(S(=O)(=O)[O-])c4F)c4ccc([nH]4)c(-c4cccc(S(=O)(=O)[O-])c4F)c4nc(c(-c5cccc(S(=O)(=O)[O-])c5F)c5ccc2[nH]5)C=C4)C=C3)cc1
REMARK SMILES IDX 5 1 4 2 3 3 1 4 2 5 30 7 31 8 92 9 32 10 91 11 33 12 34 13
REMARK SMILES IDX 35 14 85 15 36 16 90 17 84 18 86 19 37 20 89 21 83 22 82 23
REMARK SMILES IDX 38 25 70 26 50 27 69 28 51 29 54 30 68 31 87 32 52 33 53 34
REMARK SMILES IDX 67 36 88 37 55 38 39 39 40 40 48 41 41 42 43 43 49 44 42 45
REMARK SMILES IDX 44 46 45 47 46 48 47 49 71 50 72 51 80 52 73 53 75 54 81 55
REMARK SMILES IDX 74 56 76 57 77 58 78 59 79 60 56 61 57 62 65 63 58 64 60 65
REMARK SMILES IDX 66 66 59 67 61 68 62 69 63 70 64 71 6 72 7 73 8 74 9 75
REMARK SMILES IDX 10 77 11 78 12 79 16 80 13 81 15 82 14 83 17 84 18 85 19 86
REMARK SMILES IDX 20 88 21 89 29 90 22 91 24 92 23 93 25 94 26 95 27 96 28 97
REMARK H PARENT 3 6 86 24 54 35 8 76 19 87
REMARK Flexibility Score: inf
ROOT
ATOM      1  C   UNL A   1      36.039  21.932  24.126  1.00  0.00     0.023 C 
ENDROOT
BRANCH   1   2
ATOM      2  C   UNL A   1      36.855  21.921  25.410  1.00  0.00     0.116 C 
BRANCH   2   3
ATOM      3  N   UNL A   1      37.861  20.868  25.456  1.00  0.00    -0.352 N 
ATOM      4  O   UNL A   1      39.902  19.983  25.861  1.00  0.00    -0.269 OA
ATOM      5  C   UNL A   1      39.139  20.938  25.964  1.00  0.00     0.251 C 
ATOM      6  H   UNL A   1      37.594  19.999  25.077  1.00  0.00     0.163 HD
BRANCH   5   7
ATOM      7  C   UNL A   1      39.577  22.202  26.588  1.00  0.00     0.039 A 
ATOM      8  C   UNL A   1      39.087  23.418  26.108  1.00  0.00     0.014 A 
ATOM      9  C   UNL A   1      40.565  22.171  27.574  1.00  0.00     0.014 A 
ATOM     10  C   UNL A   1      39.717  24.598  26.479  1.00  0.00     0.010 A 
ATOM     11  C   UNL A   1      41.132  23.369  28.015  1.00  0.00     0.010 A 
ATOM     12  C   UNL A   1      40.753  24.587  27.429  1.00  0.00    -0.014 A 
BRANCH  12  13
ATOM     13  C   UNL A   1      41.407  25.869  27.797  1.00  0.00     0.031 A 
ATOM     14  C   UNL A   1      42.803  26.197  27.334  1.00  0.00     0.074 A 
ATOM     15  C   UNL A   1      40.711  26.759  28.531  1.00  0.00     0.049 A 
ATOM     16  N   UNL A   1      43.491  27.295  27.519  1.00  0.00    -0.248 NA
ATOM     17  C   UNL A   1      43.527  25.163  26.577  1.00  0.00     0.031 C 
ATOM     18  C   UNL A   1      39.368  26.534  29.069  1.00  0.00     0.029 A 
ATOM     19  N   UNL A   1      41.024  28.029  28.938  1.00  0.00    -0.354 N 
ATOM     20  C   UNL A   1      44.739  27.068  26.952  1.00  0.00     0.074 A 
ATOM     21  C   UNL A   1      44.717  25.725  26.414  1.00  0.00     0.031 C 
ATOM     22  C   UNL A   1      38.954  27.643  29.696  1.00  0.00     0.029 A 
ATOM     23  C   UNL A   1      40.017  28.640  29.648  1.00  0.00     0.049 A 
ATOM     24  H   UNL A   1      41.886  28.463  28.741  1.00  0.00     0.167 HD
ATOM     25  C   UNL A   1      45.801  27.907  26.872  1.00  0.00     0.034 A 
ATOM     26  C   UNL A   1      39.955  29.866  30.200  1.00  0.00     0.034 A 
ATOM     27  C   UNL A   1      45.794  29.264  27.353  1.00  0.00     0.049 A 
ATOM     28  C   UNL A   1      41.122  30.796  30.038  1.00  0.00     0.074 A 
ATOM     29  C   UNL A   1      46.795  30.215  27.258  1.00  0.00     0.029 A 
ATOM     30  N   UNL A   1      44.736  29.864  28.017  1.00  0.00    -0.354 N 
ATOM     31  N   UNL A   1      42.246  30.602  29.390  1.00  0.00    -0.248 NA
ATOM     32  C   UNL A   1      41.003  32.122  30.657  1.00  0.00     0.031 C 
ATOM     33  C   UNL A   1      46.345  31.389  27.872  1.00  0.00     0.029 A 
ATOM     34  C   UNL A   1      45.059  31.172  28.340  1.00  0.00     0.049 A 
ATOM     35  H   UNL A   1      43.881  29.425  28.229  1.00  0.00     0.167 HD
ATOM     36  C   UNL A   1      42.957  31.790  29.500  1.00  0.00     0.074 A 
ATOM     37  C   UNL A   1      42.124  32.705  30.254  1.00  0.00     0.031 C 
ATOM     38  C   UNL A   1      44.196  32.088  29.040  1.00  0.00     0.034 A 
BRANCH  25  39
ATOM     39  C   UNL A   1      47.052  27.402  26.201  1.00  0.00     0.023 A 
ATOM     40  C   UNL A   1      47.270  27.676  24.836  1.00  0.00     0.012 A 
ATOM     41  C   UNL A   1      48.045  26.724  26.936  1.00  0.00     0.148 A 
ATOM     42  C   UNL A   1      48.444  27.261  24.206  1.00  0.00     0.002 A 
ATOM     43  C   UNL A   1      49.230  26.347  26.311  1.00  0.00     0.091 A 
ATOM     44  F   UNL A   1      47.812  26.451  28.228  1.00  0.00    -0.205 F 
ATOM     45  C   UNL A   1      49.427  26.609  24.946  1.00  0.00     0.022 A 
BRANCH  43  46
ATOM     46  S   UNL A   1      50.581  25.567  27.201  1.00  0.00     0.127 S 
ATOM     47  O   UNL A   1      50.865  26.560  28.237  1.00  0.00    -0.237 OA
ATOM     48  O   UNL A   1      49.963  24.335  27.692  1.00  0.00    -0.237 OA
ATOM     49  O   UNL A   1      51.637  25.362  26.219  1.00  0.00    -0.744 OA
ENDBRANCH  43  46
ENDBRANCH  25  39
BRANCH  26  50
ATOM     50  C   UNL A   1      38.707  30.298  30.890  1.00  0.00     0.023 A 
ATOM     51  C   UNL A   1      38.586  30.107  32.279  1.00  0.00     0.012 A 
ATOM     52  C   UNL A   1      37.675  30.953  30.192  1.00  0.00     0.148 A 
ATOM     53  C   UNL A   1      37.448  30.544  32.958  1.00  0.00     0.002 A 
ATOM     54  C   UNL A   1      36.572  31.439  30.884  1.00  0.00     0.091 A 
ATOM     55  F   UNL A   1      37.801  31.108  28.866  1.00  0.00    -0.205 F 
ATOM     56  C   UNL A   1      36.449  31.222  32.265  1.00  0.00     0.022 A 
BRANCH  54  57
ATOM     57  S   UNL A   1      35.324  32.455  30.086  1.00  0.00     0.127 S 
ATOM     58  O   UNL A   1      34.364  32.656  31.169  1.00  0.00    -0.237 OA
ATOM     59  O   UNL A   1      36.089  33.644  29.711  1.00  0.00    -0.237 OA
ATOM     60  O   UNL A   1      34.855  31.667  28.954  1.00  0.00    -0.744 OA
ENDBRANCH  54  57
ENDBRANCH  26  50
BRANCH  38  61
ATOM     61  C   UNL A   1      44.720  33.472  29.316  1.00  0.00     0.023 A 
ATOM     62  C   UNL A   1      45.391  33.732  30.526  1.00  0.00     0.012 A 
ATOM     63  C   UNL A   1      44.595  34.496  28.358  1.00  0.00     0.148 A 
ATOM     64  C   UNL A   1      45.904  35.000  30.792  1.00  0.00     0.002 A 
ATOM     65  C   UNL A   1      45.146  35.746  28.612  1.00  0.00     0.091 A 
ATOM     66  F   UNL A   1      43.930  34.236  27.222  1.00  0.00    -0.205 F 
ATOM     67  C   UNL A   1      45.792  36.004  29.832  1.00  0.00     0.022 A 
BRANCH  65  68
ATOM     68  S   UNL A   1      45.119  37.060  27.388  1.00  0.00     0.127 S 
ATOM     69  O   UNL A   1      45.685  38.180  28.137  1.00  0.00    -0.237 OA
ATOM     70  O   UNL A   1      45.988  36.530  26.335  1.00  0.00    -0.237 OA
ATOM     71  O   UNL A   1      43.723  37.202  26.996  1.00  0.00    -0.744 OA
ENDBRANCH  65  68
ENDBRANCH  38  61
ENDBRANCH  12  13
ENDBRANCH   5   7
ENDBRANCH   2   3
ENDBRANCH   1   2
BRANCH   1  72
ATOM     72  C   UNL A   1      35.840  23.307  23.495  1.00  0.00     0.023 C 
BRANCH  72  73
ATOM     73  C   UNL A   1      34.461  23.922  23.699  1.00  0.00     0.116 C 
BRANCH  73  74
ATOM     74  N   UNL A   1      34.445  24.833  24.821  1.00  0.00    -0.356 N 
ATOM     75  C   UNL A   1      33.654  25.865  25.177  1.00  0.00     0.223 C 
ATOM     76  H   UNL A   1      35.169  24.663  25.466  1.00  0.00     0.163 HD
ATOM     77  O   UNL A   1      33.966  26.450  26.222  1.00  0.00    -0.275 OA
BRANCH  75  78
ATOM     78  C   UNL A   1      32.428  26.355  24.410  1.00  0.00     0.091 C 
ATOM     79  C   UNL A   1      32.072  27.830  24.357  1.00  0.00     0.014 C 
ATOM     80  C   UNL A   1      31.192  25.461  24.619  1.00  0.00     0.091 C 
ATOM     81  C   UNL A   1      31.175  28.103  23.156  1.00  0.00     0.001 C 
ATOM     82  C   UNL A   1      30.100  25.761  23.584  1.00  0.00     0.014 C 
ATOM     83  C   UNL A   1      29.942  27.207  23.097  1.00  0.00     0.001 C 
BRANCH  80  84
ATOM     84  C   UNL A   1      30.825  25.189  26.093  1.00  0.00     0.228 C 
ATOM     85  O   UNL A   1      30.180  26.048  26.709  1.00  0.00    -0.274 OA
ATOM     86  N   UNL A   1      30.989  24.014  26.754  1.00  0.00    -0.326 N 
ATOM     87  H   UNL A   1      30.331  23.887  27.476  1.00  0.00     0.169 HD
BRANCH  86  88
ATOM     88  C   UNL A   1      31.878  22.949  26.641  1.00  0.00     0.041 A 
ATOM     89  C   UNL A   1      32.884  22.824  27.603  1.00  0.00     0.026 A 
ATOM     90  C   UNL A   1      31.873  22.083  25.556  1.00  0.00     0.039 A 
ATOM     91  C   UNL A   1      33.769  21.746  27.567  1.00  0.00     0.003 A 
ATOM     92  C   UNL A   1      32.760  20.993  25.498  1.00  0.00     0.058 A 
ATOM     93  C   UNL A   1      33.691  20.818  26.530  1.00  0.00     0.013 A 
BRANCH  92  94
ATOM     94  C   UNL A   1      32.675  19.990  24.375  1.00  0.00     0.416 C 
ATOM     95  F   UNL A   1      32.211  20.530  23.214  1.00  0.00    -0.166 F 
ATOM     96  F   UNL A   1      33.890  19.450  24.076  1.00  0.00    -0.166 F 
ATOM     97  F   UNL A   1      31.859  18.934  24.649  1.00  0.00    -0.166 F 
ENDBRANCH  92  94
ENDBRANCH  86  88
ENDBRANCH  80  84
ENDBRANCH  75  78
ENDBRANCH  73  74
ENDBRANCH  72  73
ENDBRANCH   1  72
TORSDOF 17
ENDMDL
