MODEL 1
REMARK VINA RESULT:     -12.0      0.000      0.000
REMARK SMILES CC(C)[C@H](NC(=O)CCC1=c2ccccc2=NC1)C(=O)NCCCCNC(=O)c1ccc(-c2c3nc(c(-c4cccc(S(=O)(=O)[O-])c4F)c4ccc([nH]4)c(-c4cccc(S(=O)(=O)[O-])c4F)c4nc(c(-c5cccc(S(=O)(=O)[O-])c5F)c5ccc2[nH]5)C=C4)C=C3)cc1
REMARK SMILES IDX 23 1 22 2 21 3 19 4 20 5 4 7 2 8 1 9 3 10 5 11 6 12 7 14
REMARK SMILES IDX 8 15 9 16 10 17 11 18 18 19 12 20 16 21 17 22 13 23 15 24
REMARK SMILES IDX 14 25 24 26 25 27 26 28 27 29 28 31 29 32 30 33 91 34 31 35
REMARK SMILES IDX 90 36 32 37 33 38 34 39 84 40 35 41 89 42 83 43 85 44 36 45
REMARK SMILES IDX 88 46 82 47 81 48 37 50 69 51 49 52 68 53 50 54 53 55 67 56
REMARK SMILES IDX 86 57 51 58 52 59 66 61 87 62 54 63 38 64 39 65 47 66 40 67
REMARK SMILES IDX 42 68 48 69 41 70 43 71 44 72 45 73 46 74 70 75 71 76 79 77
REMARK SMILES IDX 72 78 74 79 80 80 73 81 75 82 76 83 77 84 78 85 55 86 56 87
REMARK SMILES IDX 64 88 57 89 59 90 65 91 58 92 60 93 61 94 62 95 63 96
REMARK H PARENT 21 6 5 13 26 30 85 49 53 60
REMARK Flexibility Score: inf
ROOT
ATOM      1  C   UNL A   1      32.250  29.568  26.693  1.00  0.00     0.023 C 
ENDROOT
BRANCH   1   2
ATOM      2  C   UNL A   1      31.832  28.690  25.522  1.00  0.00     0.116 C 
BRANCH   2   3
ATOM      3  N   UNL A   1      31.595  29.321  24.243  1.00  0.00    -0.354 N 
ATOM      4  C   UNL A   1      30.924  28.859  23.135  1.00  0.00     0.242 C 
ATOM      5  O   UNL A   1      30.702  29.707  22.255  1.00  0.00    -0.273 OA
ATOM      6  H   UNL A   1      31.975  30.224  24.150  1.00  0.00     0.163 HD
BRANCH   4   7
ATOM      7  C   UNL A   1      30.530  27.337  22.845  1.00  0.00     0.173 C 
BRANCH   7   8
ATOM      8  C   UNL A   1      29.734  26.292  24.038  1.00  0.00     0.015 C 
ATOM      9  C   UNL A   1      30.569  25.407  25.940  1.00  0.00     0.010 C 
ATOM     10  C   UNL A   1      28.124  26.961  23.776  1.00  0.00     0.010 C 
ENDBRANCH   7   8
BRANCH   7  11
ATOM     11  N   UNL A   1      31.486  26.603  21.921  1.00  0.00    -0.344 N 
ATOM     12  C   UNL A   1      32.844  26.431  21.853  1.00  0.00     0.220 C 
ATOM     13  H   UNL A   1      31.014  26.138  21.192  1.00  0.00     0.164 HD
ATOM     14  O   UNL A   1      33.270  25.978  20.782  1.00  0.00    -0.275 OA
BRANCH  12  15
ATOM     15  C   UNL A   1      33.854  26.700  22.997  1.00  0.00     0.104 C 
BRANCH  15  16
ATOM     16  C   UNL A   1      33.776  25.975  24.384  1.00  0.00     0.043 C 
BRANCH  16  17
ATOM     17  C   UNL A   1      34.091  24.510  24.303  1.00  0.00    -0.039 C 
ATOM     18  C   UNL A   1      33.288  23.204  23.888  1.00  0.00     0.001 A 
ATOM     19  C   UNL A   1      35.554  24.004  25.555  1.00  0.00     0.174 C 
ATOM     20  C   UNL A   1      32.318  22.829  22.904  1.00  0.00     0.010 A 
ATOM     21  C   UNL A   1      33.993  21.634  24.887  1.00  0.00     0.065 A 
ATOM     22  N   UNL A   1      35.201  22.034  25.890  1.00  0.00    -0.280 NA
ATOM     23  C   UNL A   1      32.048  21.522  22.705  1.00  0.00     0.001 A 
ATOM     24  C   UNL A   1      33.420  20.342  24.490  1.00  0.00     0.028 A 
ATOM     25  C   UNL A   1      32.541  20.364  23.471  1.00  0.00     0.002 A 
ENDBRANCH  16  17
ENDBRANCH  15  16
ENDBRANCH  12  15
ENDBRANCH   7  11
ENDBRANCH   4   7
ENDBRANCH   2   3
ENDBRANCH   1   2
BRANCH   1  26
ATOM     26  C   UNL A   1      32.008  31.063  26.551  1.00  0.00     0.023 C 
BRANCH  26  27
ATOM     27  C   UNL A   1      32.946  31.980  27.330  1.00  0.00     0.116 C 
BRANCH  27  28
ATOM     28  N   UNL A   1      32.484  33.360  27.473  1.00  0.00    -0.352 N 
ATOM     29  C   UNL A   1      32.989  34.368  28.274  1.00  0.00     0.251 C 
ATOM     30  H   UNL A   1      31.706  33.607  26.923  1.00  0.00     0.163 HD
ATOM     31  O   UNL A   1      32.462  35.475  28.303  1.00  0.00    -0.269 OA
BRANCH  29  32
ATOM     32  C   UNL A   1      34.149  34.063  29.138  1.00  0.00     0.039 A 
ATOM     33  C   UNL A   1      35.436  34.271  28.646  1.00  0.00     0.014 A 
ATOM     34  C   UNL A   1      33.947  33.408  30.355  1.00  0.00     0.014 A 
ATOM     35  C   UNL A   1      36.495  33.595  29.235  1.00  0.00     0.010 A 
ATOM     36  C   UNL A   1      35.040  32.836  31.013  1.00  0.00     0.010 A 
ATOM     37  C   UNL A   1      36.312  32.861  30.419  1.00  0.00    -0.014 A 
BRANCH  37  38
ATOM     38  C   UNL A   1      37.468  32.142  31.019  1.00  0.00     0.031 A 
ATOM     39  C   UNL A   1      37.898  32.387  32.444  1.00  0.00     0.074 A 
ATOM     40  C   UNL A   1      38.114  31.225  30.271  1.00  0.00     0.049 A 
ATOM     41  N   UNL A   1      38.900  31.856  33.098  1.00  0.00    -0.248 NA
ATOM     42  C   UNL A   1      37.114  33.346  33.241  1.00  0.00     0.031 C 
ATOM     43  C   UNL A   1      37.794  30.900  28.878  1.00  0.00     0.029 A 
ATOM     44  N   UNL A   1      39.161  30.393  30.571  1.00  0.00    -0.354 N 
ATOM     45  C   UNL A   1      38.898  32.446  34.357  1.00  0.00     0.074 A 
ATOM     46  C   UNL A   1      37.790  33.375  34.383  1.00  0.00     0.031 C 
ATOM     47  C   UNL A   1      38.592  29.911  28.460  1.00  0.00     0.029 A 
ATOM     48  C   UNL A   1      39.537  29.589  29.522  1.00  0.00     0.049 A 
ATOM     49  H   UNL A   1      39.601  30.375  31.452  1.00  0.00     0.167 HD
ATOM     50  C   UNL A   1      39.737  32.224  35.397  1.00  0.00     0.034 A 
ATOM     51  C   UNL A   1      40.547  28.708  29.405  1.00  0.00     0.034 A 
ATOM     52  C   UNL A   1      40.806  31.262  35.384  1.00  0.00     0.049 A 
ATOM     53  C   UNL A   1      41.465  28.490  30.567  1.00  0.00     0.074 A 
ATOM     54  C   UNL A   1      41.679  30.939  36.408  1.00  0.00     0.029 A 
ATOM     55  N   UNL A   1      41.149  30.469  34.300  1.00  0.00    -0.354 N 
ATOM     56  N   UNL A   1      41.414  29.026  31.760  1.00  0.00    -0.248 NA
ATOM     57  C   UNL A   1      42.570  27.542  30.374  1.00  0.00     0.031 C 
ATOM     58  C   UNL A   1      42.563  29.964  35.938  1.00  0.00     0.029 A 
ATOM     59  C   UNL A   1      42.223  29.663  34.629  1.00  0.00     0.049 A 
ATOM     60  H   UNL A   1      40.695  30.478  33.426  1.00  0.00     0.167 HD
ATOM     61  C   UNL A   1      42.467  28.469  32.471  1.00  0.00     0.074 A 
ATOM     62  C   UNL A   1      43.133  27.543  31.577  1.00  0.00     0.031 C 
ATOM     63  C   UNL A   1      42.850  28.713  33.746  1.00  0.00     0.034 A 
BRANCH  50  64
ATOM     64  C   UNL A   1      39.527  32.999  36.672  1.00  0.00     0.023 A 
ATOM     65  C   UNL A   1      40.096  34.281  36.805  1.00  0.00     0.012 A 
ATOM     66  C   UNL A   1      38.658  32.518  37.672  1.00  0.00     0.148 A 
ATOM     67  C   UNL A   1      39.807  35.072  37.917  1.00  0.00     0.002 A 
ATOM     68  C   UNL A   1      38.351  33.324  38.762  1.00  0.00     0.091 A 
ATOM     69  F   UNL A   1      38.134  31.293  37.524  1.00  0.00    -0.205 F 
ATOM     70  C   UNL A   1      38.927  34.599  38.888  1.00  0.00     0.022 A 
BRANCH  68  71
ATOM     71  S   UNL A   1      37.188  32.834  40.042  1.00  0.00     0.127 S 
ATOM     72  O   UNL A   1      37.752  31.559  40.480  1.00  0.00    -0.237 OA
ATOM     73  O   UNL A   1      37.319  33.924  41.008  1.00  0.00    -0.237 OA
ATOM     74  O   UNL A   1      35.888  32.743  39.392  1.00  0.00    -0.744 OA
ENDBRANCH  68  71
ENDBRANCH  50  64
BRANCH  51  75
ATOM     75  C   UNL A   1      40.703  27.962  28.129  1.00  0.00     0.023 A 
ATOM     76  C   UNL A   1      41.286  28.604  27.023  1.00  0.00     0.012 A 
ATOM     77  C   UNL A   1      40.381  26.592  28.048  1.00  0.00     0.148 A 
ATOM     78  C   UNL A   1      41.548  27.894  25.851  1.00  0.00     0.002 A 
ATOM     79  C   UNL A   1      40.684  25.881  26.895  1.00  0.00     0.091 A 
ATOM     80  F   UNL A   1      39.833  26.007  29.122  1.00  0.00    -0.205 F 
ATOM     81  C   UNL A   1      41.259  26.532  25.792  1.00  0.00     0.022 A 
BRANCH  79  82
ATOM     82  S   UNL A   1      40.456  24.105  26.765  1.00  0.00     0.127 S 
ATOM     83  O   UNL A   1      40.797  23.662  28.114  1.00  0.00    -0.237 OA
ATOM     84  O   UNL A   1      39.036  24.011  26.426  1.00  0.00    -0.237 OA
ATOM     85  O   UNL A   1      41.362  23.664  25.713  1.00  0.00    -0.744 OA
ENDBRANCH  79  82
ENDBRANCH  51  75
BRANCH  63  86
ATOM     86  C   UNL A   1      44.030  27.956  34.284  1.00  0.00     0.023 A 
ATOM     87  C   UNL A   1      45.310  28.538  34.234  1.00  0.00     0.012 A 
ATOM     88  C   UNL A   1      43.844  26.730  34.950  1.00  0.00     0.148 A 
ATOM     89  C   UNL A   1      46.395  27.904  34.839  1.00  0.00     0.002 A 
ATOM     90  C   UNL A   1      44.923  26.122  35.580  1.00  0.00     0.091 A 
ATOM     91  F   UNL A   1      42.614  26.198  34.975  1.00  0.00    -0.205 F 
ATOM     92  C   UNL A   1      46.200  26.706  35.521  1.00  0.00     0.022 A 
BRANCH  90  93
ATOM     93  S   UNL A   1      44.758  24.614  36.542  1.00  0.00     0.127 S 
ATOM     94  O   UNL A   1      46.133  24.395  36.989  1.00  0.00    -0.237 OA
ATOM     95  O   UNL A   1      43.830  25.024  37.598  1.00  0.00    -0.237 OA
ATOM     96  O   UNL A   1      44.237  23.605  35.630  1.00  0.00    -0.744 OA
ENDBRANCH  90  93
ENDBRANCH  63  86
ENDBRANCH  37  38
ENDBRANCH  29  32
ENDBRANCH  27  28
ENDBRANCH  26  27
ENDBRANCH   1  26
TORSDOF 19
ENDMDL
MODEL 2
REMARK VINA RESULT:     -12.0      1.630      7.709
REMARK SMILES CC(C)[C@H](NC(=O)CCC1=c2ccccc2=NC1)C(=O)NCCCCNC(=O)c1ccc(-c2c3nc(c(-c4cccc(S(=O)(=O)[O-])c4F)c4ccc([nH]4)c(-c4cccc(S(=O)(=O)[O-])c4F)c4nc(c(-c5cccc(S(=O)(=O)[O-])c5F)c5ccc2[nH]5)C=C4)C=C3)cc1
REMARK SMILES IDX 23 1 22 2 21 3 19 4 20 5 4 7 2 8 1 9 3 10 5 11 6 12 7 14
REMARK SMILES IDX 8 15 9 16 10 17 11 18 18 19 12 20 16 21 17 22 13 23 15 24
REMARK SMILES IDX 14 25 24 26 25 27 26 28 27 29 28 31 29 32 30 33 91 34 31 35
REMARK SMILES IDX 90 36 32 37 33 38 34 39 84 40 35 41 89 42 83 43 85 44 36 45
REMARK SMILES IDX 88 46 82 47 81 48 37 50 69 51 49 52 68 53 50 54 53 55 67 56
REMARK SMILES IDX 86 57 51 58 52 59 66 61 87 62 54 63 38 64 39 65 47 66 40 67
REMARK SMILES IDX 42 68 48 69 41 70 43 71 44 72 45 73 46 74 70 75 71 76 79 77
REMARK SMILES IDX 72 78 74 79 80 80 73 81 75 82 76 83 77 84 78 85 55 86 56 87
REMARK SMILES IDX 64 88 57 89 59 90 65 91 58 92 60 93 61 94 62 95 63 96
REMARK H PARENT 21 6 5 13 26 30 85 49 53 60
REMARK Flexibility Score: inf
ROOT
ATOM      1  C   UNL A   1      31.753  30.850  26.809  1.00  0.00     0.023 C 
ENDROOT
BRANCH   1   2
ATOM      2  C   UNL A   1      31.949  30.060  25.523  1.00  0.00     0.116 C 
BRANCH   2   3
ATOM      3  N   UNL A   1      31.031  30.292  24.430  1.00  0.00    -0.354 N 
ATOM      4  C   UNL A   1      30.430  29.403  23.570  1.00  0.00     0.242 C 
ATOM      5  O   UNL A   1      29.524  29.874  22.864  1.00  0.00    -0.273 OA
ATOM      6  H   UNL A   1      30.799  31.236  24.277  1.00  0.00     0.163 HD
BRANCH   4   7
ATOM      7  C   UNL A   1      30.879  27.887  23.326  1.00  0.00     0.173 C 
BRANCH   7   8
ATOM      8  C   UNL A   1      30.670  26.603  24.533  1.00  0.00     0.015 C 
ATOM      9  C   UNL A   1      31.539  26.444  26.610  1.00  0.00     0.010 C 
ATOM     10  C   UNL A   1      29.045  26.163  24.007  1.00  0.00     0.010 C 
ENDBRANCH   7   8
BRANCH   7  11
ATOM     11  N   UNL A   1      32.116  27.726  22.460  1.00  0.00    -0.344 N 
ATOM     12  C   UNL A   1      32.779  26.672  21.887  1.00  0.00     0.220 C 
ATOM     13  H   UNL A   1      32.547  28.589  22.263  1.00  0.00     0.164 HD
ATOM     14  O   UNL A   1      33.916  26.924  21.468  1.00  0.00    -0.275 OA
BRANCH  12  15
ATOM     15  C   UNL A   1      32.212  25.245  21.678  1.00  0.00     0.104 C 
BRANCH  15  16
ATOM     16  C   UNL A   1      33.123  23.972  21.614  1.00  0.00     0.043 C 
BRANCH  16  17
ATOM     17  C   UNL A   1      33.365  23.351  22.959  1.00  0.00    -0.039 C 
ATOM     18  C   UNL A   1      32.548  23.250  24.318  1.00  0.00     0.001 A 
ATOM     19  C   UNL A   1      35.309  23.190  23.354  1.00  0.00     0.174 C 
ATOM     20  C   UNL A   1      31.187  23.073  24.721  1.00  0.00     0.010 A 
ATOM     21  C   UNL A   1      33.809  23.135  25.853  1.00  0.00     0.065 A 
ATOM     22  N   UNL A   1      35.359  23.179  25.383  1.00  0.00    -0.280 NA
ATOM     23  C   UNL A   1      30.910  22.784  26.010  1.00  0.00     0.001 A 
ATOM     24  C   UNL A   1      33.175  22.902  27.157  1.00  0.00     0.028 A 
ATOM     25  C   UNL A   1      31.839  22.737  27.152  1.00  0.00     0.002 A 
ENDBRANCH  16  17
ENDBRANCH  15  16
ENDBRANCH  12  15
ENDBRANCH   7  11
ENDBRANCH   4   7
ENDBRANCH   2   3
ENDBRANCH   1   2
BRANCH   1  26
ATOM     26  C   UNL A   1      32.999  31.144  27.631  1.00  0.00     0.023 C 
BRANCH  26  27
ATOM     27  C   UNL A   1      33.739  32.437  27.303  1.00  0.00     0.116 C 
BRANCH  27  28
ATOM     28  N   UNL A   1      33.016  33.664  27.635  1.00  0.00    -0.352 N 
ATOM     29  C   UNL A   1      33.243  34.555  28.668  1.00  0.00     0.251 C 
ATOM     30  H   UNL A   1      32.263  33.888  27.041  1.00  0.00     0.163 HD
ATOM     31  O   UNL A   1      32.519  35.532  28.830  1.00  0.00    -0.269 OA
BRANCH  29  32
ATOM     32  C   UNL A   1      34.349  34.273  29.607  1.00  0.00     0.039 A 
ATOM     33  C   UNL A   1      35.655  34.581  29.232  1.00  0.00     0.014 A 
ATOM     34  C   UNL A   1      34.094  33.544  30.771  1.00  0.00     0.014 A 
ATOM     35  C   UNL A   1      36.705  33.939  29.871  1.00  0.00     0.010 A 
ATOM     36  C   UNL A   1      35.165  33.003  31.488  1.00  0.00     0.010 A 
ATOM     37  C   UNL A   1      36.476  33.133  31.001  1.00  0.00    -0.014 A 
BRANCH  37  38
ATOM     38  C   UNL A   1      37.625  32.453  31.657  1.00  0.00     0.031 A 
ATOM     39  C   UNL A   1      38.367  31.327  30.980  1.00  0.00     0.074 A 
ATOM     40  C   UNL A   1      38.025  32.887  32.868  1.00  0.00     0.049 A 
ATOM     41  N   UNL A   1      39.371  30.621  31.434  1.00  0.00    -0.248 NA
ATOM     42  C   UNL A   1      37.935  30.938  29.626  1.00  0.00     0.031 C 
ATOM     43  C   UNL A   1      37.386  33.967  33.626  1.00  0.00     0.029 A 
ATOM     44  N   UNL A   1      39.062  32.490  33.670  1.00  0.00    -0.354 N 
ATOM     45  C   UNL A   1      39.658  29.679  30.452  1.00  0.00     0.074 A 
ATOM     46  C   UNL A   1      38.727  29.904  29.369  1.00  0.00     0.031 C 
ATOM     47  C   UNL A   1      38.069  34.177  34.758  1.00  0.00     0.029 A 
ATOM     48  C   UNL A   1      39.142  33.194  34.848  1.00  0.00     0.049 A 
ATOM     49  H   UNL A   1      39.689  31.770  33.427  1.00  0.00     0.167 HD
ATOM     50  C   UNL A   1      40.618  28.724  30.452  1.00  0.00     0.034 A 
ATOM     51  C   UNL A   1      39.962  33.053  35.906  1.00  0.00     0.034 A 
ATOM     52  C   UNL A   1      41.576  28.536  31.509  1.00  0.00     0.049 A 
ATOM     53  C   UNL A   1      41.007  31.982  35.882  1.00  0.00     0.074 A 
ATOM     54  C   UNL A   1      42.612  27.621  31.574  1.00  0.00     0.029 A 
ATOM     55  N   UNL A   1      41.619  29.272  32.682  1.00  0.00    -0.354 N 
ATOM     56  N   UNL A   1      41.287  31.135  34.924  1.00  0.00    -0.248 NA
ATOM     57  C   UNL A   1      41.854  31.851  37.075  1.00  0.00     0.031 C 
ATOM     58  C   UNL A   1      43.270  27.791  32.794  1.00  0.00     0.029 A 
ATOM     59  C   UNL A   1      42.659  28.829  33.478  1.00  0.00     0.049 A 
ATOM     60  H   UNL A   1      41.001  30.004  32.914  1.00  0.00     0.167 HD
ATOM     61  C   UNL A   1      42.356  30.381  35.386  1.00  0.00     0.074 A 
ATOM     62  C   UNL A   1      42.681  30.879  36.708  1.00  0.00     0.031 C 
ATOM     63  C   UNL A   1      43.000  29.361  34.772  1.00  0.00     0.034 A 
BRANCH  50  64
ATOM     64  C   UNL A   1      40.729  27.812  29.257  1.00  0.00     0.023 A 
ATOM     65  C   UNL A   1      39.860  26.710  29.142  1.00  0.00     0.012 A 
ATOM     66  C   UNL A   1      41.595  28.128  28.190  1.00  0.00     0.148 A 
ATOM     67  C   UNL A   1      39.851  25.931  27.985  1.00  0.00     0.002 A 
ATOM     68  C   UNL A   1      41.560  27.365  27.028  1.00  0.00     0.091 A 
ATOM     69  F   UNL A   1      42.416  29.178  28.325  1.00  0.00    -0.205 F 
ATOM     70  C   UNL A   1      40.692  26.265  26.925  1.00  0.00     0.022 A 
BRANCH  68  71
ATOM     71  S   UNL A   1      42.560  27.741  25.583  1.00  0.00     0.127 S 
ATOM     72  O   UNL A   1      43.899  27.826  26.165  1.00  0.00    -0.237 OA
ATOM     73  O   UNL A   1      42.335  26.567  24.740  1.00  0.00    -0.237 OA
ATOM     74  O   UNL A   1      42.041  28.991  25.045  1.00  0.00    -0.744 OA
ENDBRANCH  68  71
ENDBRANCH  50  64
BRANCH  51  75
ATOM     75  C   UNL A   1      39.817  33.985  37.054  1.00  0.00     0.023 A 
ATOM     76  C   UNL A   1      40.185  35.332  36.899  1.00  0.00     0.012 A 
ATOM     77  C   UNL A   1      39.212  33.563  38.256  1.00  0.00     0.148 A 
ATOM     78  C   UNL A   1      39.954  36.251  37.923  1.00  0.00     0.002 A 
ATOM     79  C   UNL A   1      38.945  34.490  39.253  1.00  0.00     0.091 A 
ATOM     80  F   UNL A   1      38.866  32.273  38.371  1.00  0.00    -0.205 F 
ATOM     81  C   UNL A   1      39.323  35.833  39.093  1.00  0.00     0.022 A 
BRANCH  79  82
ATOM     82  S   UNL A   1      38.035  34.073  40.745  1.00  0.00     0.127 S 
ATOM     83  O   UNL A   1      36.868  33.386  40.197  1.00  0.00    -0.237 OA
ATOM     84  O   UNL A   1      38.987  33.209  41.443  1.00  0.00    -0.237 OA
ATOM     85  O   UNL A   1      37.761  35.339  41.411  1.00  0.00    -0.744 OA
ENDBRANCH  79  82
ENDBRANCH  51  75
BRANCH  63  86
ATOM     86  C   UNL A   1      44.148  28.716  35.494  1.00  0.00     0.023 A 
ATOM     87  C   UNL A   1      45.444  29.244  35.351  1.00  0.00     0.012 A 
ATOM     88  C   UNL A   1      43.915  27.671  36.409  1.00  0.00     0.148 A 
ATOM     89  C   UNL A   1      46.499  28.736  36.108  1.00  0.00     0.002 A 
ATOM     90  C   UNL A   1      44.964  27.193  37.185  1.00  0.00     0.091 A 
ATOM     91  F   UNL A   1      42.671  27.185  36.518  1.00  0.00    -0.205 F 
ATOM     92  C   UNL A   1      46.257  27.722  37.032  1.00  0.00     0.022 A 
BRANCH  90  93
ATOM     93  S   UNL A   1      44.738  25.939  38.451  1.00  0.00     0.127 S 
ATOM     94  O   UNL A   1      43.999  26.680  39.472  1.00  0.00    -0.237 OA
ATOM     95  O   UNL A   1      43.955  24.926  37.743  1.00  0.00    -0.237 OA
ATOM     96  O   UNL A   1      46.074  25.513  38.844  1.00  0.00    -0.744 OA
ENDBRANCH  90  93
ENDBRANCH  63  86
ENDBRANCH  37  38
ENDBRANCH  29  32
ENDBRANCH  27  28
ENDBRANCH  26  27
ENDBRANCH   1  26
TORSDOF 19
ENDMDL
MODEL 3
REMARK VINA RESULT:     -11.2      3.396      8.492
REMARK SMILES CC(C)[C@H](NC(=O)CCC1=c2ccccc2=NC1)C(=O)NCCCCNC(=O)c1ccc(-c2c3nc(c(-c4cccc(S(=O)(=O)[O-])c4F)c4ccc([nH]4)c(-c4cccc(S(=O)(=O)[O-])c4F)c4nc(c(-c5cccc(S(=O)(=O)[O-])c5F)c5ccc2[nH]5)C=C4)C=C3)cc1
REMARK SMILES IDX 23 1 22 2 21 3 19 4 20 5 4 7 2 8 1 9 3 10 5 11 6 12 7 14
REMARK SMILES IDX 8 15 9 16 10 17 11 18 18 19 12 20 16 21 17 22 13 23 15 24
REMARK SMILES IDX 14 25 24 26 25 27 26 28 27 29 28 31 29 32 30 33 91 34 31 35
REMARK SMILES IDX 90 36 32 37 33 38 34 39 84 40 35 41 89 42 83 43 85 44 36 45
REMARK SMILES IDX 88 46 82 47 81 48 37 50 69 51 49 52 68 53 50 54 53 55 67 56
REMARK SMILES IDX 86 57 51 58 52 59 66 61 87 62 54 63 38 64 39 65 47 66 40 67
REMARK SMILES IDX 42 68 48 69 41 70 43 71 44 72 45 73 46 74 70 75 71 76 79 77
REMARK SMILES IDX 72 78 74 79 80 80 73 81 75 82 76 83 77 84 78 85 55 86 56 87
REMARK SMILES IDX 64 88 57 89 59 90 65 91 58 92 60 93 61 94 62 95 63 96
REMARK H PARENT 21 6 5 13 26 30 85 49 53 60
REMARK Flexibility Score: inf
ROOT
ATOM      1  C   UNL A   1      32.346  29.931  25.409  1.00  0.00     0.023 C 
ENDROOT
BRANCH   1   2
ATOM      2  C   UNL A   1      30.900  30.167  24.998  1.00  0.00     0.116 C 
BRANCH   2   3
ATOM      3  N   UNL A   1      30.568  30.103  23.592  1.00  0.00    -0.354 N 
ATOM      4  C   UNL A   1      30.452  29.019  22.754  1.00  0.00     0.242 C 
ATOM      5  O   UNL A   1      29.948  29.255  21.645  1.00  0.00    -0.273 OA
ATOM      6  H   UNL A   1      30.397  30.975  23.167  1.00  0.00     0.163 HD
BRANCH   4   7
ATOM      7  C   UNL A   1      31.015  27.550  23.042  1.00  0.00     0.173 C 
BRANCH   7   8
ATOM      8  C   UNL A   1      30.476  26.548  24.404  1.00  0.00     0.015 C 
ATOM      9  C   UNL A   1      31.248  26.494  26.525  1.00  0.00     0.010 C 
ATOM     10  C   UNL A   1      28.802  26.443  23.863  1.00  0.00     0.010 C 
ENDBRANCH   7   8
BRANCH   7  11
ATOM     11  N   UNL A   1      32.472  27.347  22.663  1.00  0.00    -0.344 N 
ATOM     12  C   UNL A   1      33.191  26.367  22.029  1.00  0.00     0.220 C 
ATOM     13  H   UNL A   1      33.038  28.103  22.943  1.00  0.00     0.164 HD
ATOM     14  O   UNL A   1      34.420  26.448  22.148  1.00  0.00    -0.275 OA
BRANCH  12  15
ATOM     15  C   UNL A   1      32.605  25.231  21.152  1.00  0.00     0.104 C 
BRANCH  15  16
ATOM     16  C   UNL A   1      32.800  23.714  21.490  1.00  0.00     0.043 C 
BRANCH  16  17
ATOM     17  C   UNL A   1      33.290  23.479  22.889  1.00  0.00    -0.039 C 
ATOM     18  C   UNL A   1      34.637  22.944  23.538  1.00  0.00     0.001 A 
ATOM     19  C   UNL A   1      31.783  23.145  24.147  1.00  0.00     0.174 C 
ATOM     20  C   UNL A   1      36.043  23.056  23.296  1.00  0.00     0.010 A 
ATOM     21  C   UNL A   1      34.241  22.052  25.271  1.00  0.00     0.065 A 
ATOM     22  N   UNL A   1      32.659  22.061  25.623  1.00  0.00    -0.280 NA
ATOM     23  C   UNL A   1      36.913  22.644  24.241  1.00  0.00     0.001 A 
ATOM     24  C   UNL A   1      35.423  21.632  26.034  1.00  0.00     0.028 A 
ATOM     25  C   UNL A   1      36.620  21.949  25.506  1.00  0.00     0.002 A 
ENDBRANCH  16  17
ENDBRANCH  15  16
ENDBRANCH  12  15
ENDBRANCH   7  11
ENDBRANCH   4   7
ENDBRANCH   2   3
ENDBRANCH   1   2
BRANCH   1  26
ATOM     26  C   UNL A   1      32.654  29.981  26.898  1.00  0.00     0.023 C 
BRANCH  26  27
ATOM     27  C   UNL A   1      33.998  30.586  27.293  1.00  0.00     0.116 C 
BRANCH  27  28
ATOM     28  N   UNL A   1      33.959  31.468  28.460  1.00  0.00    -0.352 N 
ATOM     29  C   UNL A   1      34.922  31.666  29.433  1.00  0.00     0.251 C 
ATOM     30  H   UNL A   1      33.134  31.993  28.568  1.00  0.00     0.163 HD
ATOM     31  O   UNL A   1      34.720  32.426  30.374  1.00  0.00    -0.269 OA
BRANCH  29  32
ATOM     32  C   UNL A   1      36.181  30.897  29.340  1.00  0.00     0.039 A 
ATOM     33  C   UNL A   1      36.313  29.719  30.072  1.00  0.00     0.014 A 
ATOM     34  C   UNL A   1      37.275  31.448  28.670  1.00  0.00     0.014 A 
ATOM     35  C   UNL A   1      37.586  29.243  30.349  1.00  0.00     0.010 A 
ATOM     36  C   UNL A   1      38.542  30.885  28.850  1.00  0.00     0.010 A 
ATOM     37  C   UNL A   1      38.719  29.824  29.752  1.00  0.00    -0.014 A 
BRANCH  37  38
ATOM     38  C   UNL A   1      40.069  29.292  30.078  1.00  0.00     0.031 A 
ATOM     39  C   UNL A   1      40.681  28.155  29.297  1.00  0.00     0.074 A 
ATOM     40  C   UNL A   1      40.768  29.875  31.073  1.00  0.00     0.049 A 
ATOM     41  N   UNL A   1      41.837  27.568  29.479  1.00  0.00    -0.248 NA
ATOM     42  C   UNL A   1      39.907  27.602  28.173  1.00  0.00     0.031 C 
ATOM     43  C   UNL A   1      40.282  30.981  31.904  1.00  0.00     0.029 A 
ATOM     44  N   UNL A   1      42.028  29.632  31.551  1.00  0.00    -0.354 N 
ATOM     45  C   UNL A   1      41.908  26.552  28.532  1.00  0.00     0.074 A 
ATOM     46  C   UNL A   1      40.682  26.602  27.769  1.00  0.00     0.031 C 
ATOM     47  C   UNL A   1      41.247  31.351  32.755  1.00  0.00     0.029 A 
ATOM     48  C   UNL A   1      42.386  30.456  32.591  1.00  0.00     0.049 A 
ATOM     49  H   UNL A   1      42.620  28.934  31.186  1.00  0.00     0.167 HD
ATOM     50  C   UNL A   1      42.911  25.668  28.314  1.00  0.00     0.034 A 
ATOM     51  C   UNL A   1      43.492  30.480  33.357  1.00  0.00     0.034 A 
ATOM     52  C   UNL A   1      44.152  25.655  29.042  1.00  0.00     0.049 A 
ATOM     53  C   UNL A   1      44.580  29.484  33.101  1.00  0.00     0.074 A 
ATOM     54  C   UNL A   1      45.242  24.822  28.860  1.00  0.00     0.029 A 
ATOM     55  N   UNL A   1      44.470  26.509  30.086  1.00  0.00    -0.354 N 
ATOM     56  N   UNL A   1      44.643  28.564  32.171  1.00  0.00    -0.248 NA
ATOM     57  C   UNL A   1      45.750  29.533  33.987  1.00  0.00     0.031 C 
ATOM     58  C   UNL A   1      46.213  25.160  29.806  1.00  0.00     0.029 A 
ATOM     59  C   UNL A   1      45.737  26.219  30.560  1.00  0.00     0.049 A 
ATOM     60  H   UNL A   1      43.883  27.217  30.437  1.00  0.00     0.167 HD
ATOM     61  C   UNL A   1      45.867  27.935  32.344  1.00  0.00     0.074 A 
ATOM     62  C   UNL A   1      46.520  28.587  33.462  1.00  0.00     0.031 C 
ATOM     63  C   UNL A   1      46.394  26.903  31.644  1.00  0.00     0.034 A 
BRANCH  50  64
ATOM     64  C   UNL A   1      42.749  24.649  27.216  1.00  0.00     0.023 A 
ATOM     65  C   UNL A   1      43.305  24.903  25.947  1.00  0.00     0.012 A 
ATOM     66  C   UNL A   1      42.173  23.391  27.483  1.00  0.00     0.148 A 
ATOM     67  C   UNL A   1      43.285  23.921  24.956  1.00  0.00     0.002 A 
ATOM     68  C   UNL A   1      42.184  22.407  26.500  1.00  0.00     0.091 A 
ATOM     69  F   UNL A   1      41.646  23.176  28.697  1.00  0.00    -0.205 F 
ATOM     70  C   UNL A   1      42.736  22.672  25.236  1.00  0.00     0.022 A 
BRANCH  68  71
ATOM     71  S   UNL A   1      41.553  20.746  26.774  1.00  0.00     0.127 S 
ATOM     72  O   UNL A   1      42.326  20.327  27.943  1.00  0.00    -0.237 OA
ATOM     73  O   UNL A   1      40.136  20.997  27.038  1.00  0.00    -0.237 OA
ATOM     74  O   UNL A   1      41.827  20.003  25.553  1.00  0.00    -0.744 OA
ENDBRANCH  68  71
ENDBRANCH  50  64
BRANCH  51  75
ATOM     75  C   UNL A   1      43.606  31.512  34.420  1.00  0.00     0.023 A 
ATOM     76  C   UNL A   1      44.317  32.696  34.157  1.00  0.00     0.012 A 
ATOM     77  C   UNL A   1      42.919  31.371  35.642  1.00  0.00     0.148 A 
ATOM     78  C   UNL A   1      44.344  33.727  35.095  1.00  0.00     0.002 A 
ATOM     79  C   UNL A   1      42.913  32.418  36.553  1.00  0.00     0.091 A 
ATOM     80  F   UNL A   1      42.244  30.233  35.861  1.00  0.00    -0.205 F 
ATOM     81  C   UNL A   1      43.632  33.594  36.286  1.00  0.00     0.022 A 
BRANCH  79  82
ATOM     82  S   UNL A   1      41.934  32.386  38.059  1.00  0.00     0.127 S 
ATOM     83  O   UNL A   1      40.642  31.920  37.563  1.00  0.00    -0.237 OA
ATOM     84  O   UNL A   1      42.669  31.417  38.871  1.00  0.00    -0.237 OA
ATOM     85  O   UNL A   1      41.953  33.749  38.574  1.00  0.00    -0.744 OA
ENDBRANCH  79  82
ENDBRANCH  51  75
BRANCH  63  86
ATOM     86  C   UNL A   1      47.759  26.414  32.032  1.00  0.00     0.023 A 
ATOM     87  C   UNL A   1      47.886  25.414  33.014  1.00  0.00     0.012 A 
ATOM     88  C   UNL A   1      48.898  26.855  31.332  1.00  0.00     0.148 A 
ATOM     89  C   UNL A   1      49.134  24.860  33.299  1.00  0.00     0.002 A 
ATOM     90  C   UNL A   1      50.133  26.274  31.597  1.00  0.00     0.091 A 
ATOM     91  F   UNL A   1      48.747  27.813  30.407  1.00  0.00    -0.205 F 
ATOM     92  C   UNL A   1      50.252  25.280  32.582  1.00  0.00     0.022 A 
BRANCH  90  93
ATOM     93  S   UNL A   1      51.618  26.698  30.679  1.00  0.00     0.127 S 
ATOM     94  O   UNL A   1      52.660  26.092  31.506  1.00  0.00    -0.237 OA
ATOM     95  O   UNL A   1      51.388  26.028  29.398  1.00  0.00    -0.237 OA
ATOM     96  O   UNL A   1      51.652  28.152  30.610  1.00  0.00    -0.744 OA
ENDBRANCH  90  93
ENDBRANCH  63  86
ENDBRANCH  37  38
ENDBRANCH  29  32
ENDBRANCH  27  28
ENDBRANCH  26  27
ENDBRANCH   1  26
TORSDOF 19
ENDMDL
