MODEL 1
REMARK VINA RESULT:     -10.2      0.000      0.000
REMARK SMILES O=C(CSC(=S)N1CCCC1)NCCCCNC(=O)c1ccc(-c2c3nc(c(-c4cccc(S(=O)(=O)[O-])c4F)c4ccc([nH]4)c(-c4cccc(S(=O)(=O)[O-])c4F)c4nc(c(-c5cccc(S(=O)(=O)[O-])c5F)c5ccc2[nH]5)C=C4)C=C3)cc1
REMARK SMILES IDX 14 1 13 2 12 3 1 4 2 5 3 7 4 8 5 9 6 10 7 11 8 12 11 13 9 14
REMARK SMILES IDX 10 15 15 16 16 17 17 18 18 19 19 21 20 22 21 23 82 24 22 25
REMARK SMILES IDX 81 26 23 27 24 28 25 29 75 30 26 31 80 32 74 33 76 34 27 35
REMARK SMILES IDX 79 36 73 37 72 38 28 40 60 41 40 42 59 43 41 44 44 45 58 46
REMARK SMILES IDX 77 47 42 48 43 49 57 51 78 52 45 53 29 54 30 55 38 56 31 57
REMARK SMILES IDX 33 58 39 59 32 60 34 61 35 62 36 63 37 64 61 65 62 66 70 67
REMARK SMILES IDX 63 68 65 69 71 70 64 71 66 72 67 73 68 74 69 75 46 76 47 77
REMARK SMILES IDX 55 78 48 79 50 80 56 81 49 82 51 83 52 84 53 85 54 86
REMARK H PARENT 12 6 17 20 76 39 44 50
REMARK Flexibility Score: inf
ROOT
ATOM      1  C   UNL A   1      31.568  29.032  23.967  1.00  0.00     0.023 C 
ENDROOT
BRANCH   1   2
ATOM      2  C   UNL A   1      30.675  27.851  24.337  1.00  0.00     0.116 C 
BRANCH   2   3
ATOM      3  N   UNL A   1      31.416  26.680  24.760  1.00  0.00    -0.355 N 
ATOM      4  O   UNL A   1      30.114  25.182  23.619  1.00  0.00    -0.274 OA
ATOM      5  C   UNL A   1      31.116  25.417  24.294  1.00  0.00     0.230 C 
ATOM      6  H   UNL A   1      32.157  26.790  25.400  1.00  0.00     0.163 HD
BRANCH   5   7
ATOM      7  C   UNL A   1      32.042  24.296  24.740  1.00  0.00     0.177 C 
BRANCH   7   8
ATOM      8  S   UNL A   1      33.264  24.758  25.990  1.00  0.00    -0.087 SA
BRANCH   8   9
ATOM      9  C   UNL A   1      34.032  23.263  26.534  1.00  0.00     0.136 C 
ATOM     10  S   UNL A   1      33.439  22.246  27.731  1.00  0.00    -0.053 S 
BRANCH   9  11
ATOM     11  N   UNL A   1      35.175  22.948  25.803  1.00  0.00    -0.358 N 
ATOM     12  C   UNL A   1      36.374  23.773  25.657  1.00  0.00     0.118 C 
ATOM     13  C   UNL A   1      35.340  21.696  25.066  1.00  0.00     0.118 C 
ATOM     14  C   UNL A   1      37.011  23.282  24.371  1.00  0.00     0.023 C 
ATOM     15  C   UNL A   1      36.692  21.793  24.369  1.00  0.00     0.023 C 
ENDBRANCH   9  11
ENDBRANCH   8   9
ENDBRANCH   7   8
ENDBRANCH   5   7
ENDBRANCH   2   3
ENDBRANCH   1   2
BRANCH   1  16
ATOM     16  C   UNL A   1      32.673  29.355  24.976  1.00  0.00     0.023 C 
BRANCH  16  17
ATOM     17  C   UNL A   1      32.202  29.752  26.372  1.00  0.00     0.116 C 
BRANCH  17  18
ATOM     18  N   UNL A   1      32.125  31.193  26.568  1.00  0.00    -0.352 N 
ATOM     19  C   UNL A   1      32.987  32.028  27.239  1.00  0.00     0.251 C 
ATOM     20  H   UNL A   1      31.344  31.631  26.160  1.00  0.00     0.163 HD
ATOM     21  O   UNL A   1      32.690  33.211  27.398  1.00  0.00    -0.269 OA
BRANCH  19  22
ATOM     22  C   UNL A   1      34.255  31.506  27.799  1.00  0.00     0.039 A 
ATOM     23  C   UNL A   1      35.290  32.404  28.078  1.00  0.00     0.014 A 
ATOM     24  C   UNL A   1      34.429  30.143  28.055  1.00  0.00     0.014 A 
ATOM     25  C   UNL A   1      36.466  31.946  28.681  1.00  0.00     0.010 A 
ATOM     26  C   UNL A   1      35.569  29.701  28.726  1.00  0.00     0.010 A 
ATOM     27  C   UNL A   1      36.600  30.597  29.048  1.00  0.00    -0.014 A 
BRANCH  27  28
ATOM     28  C   UNL A   1      37.797  30.111  29.789  1.00  0.00     0.031 A 
ATOM     29  C   UNL A   1      38.079  30.595  31.187  1.00  0.00     0.074 A 
ATOM     30  C   UNL A   1      38.680  29.300  29.172  1.00  0.00     0.049 A 
ATOM     31  N   UNL A   1      39.098  30.327  31.963  1.00  0.00    -0.248 NA
ATOM     32  C   UNL A   1      37.102  31.522  31.784  1.00  0.00     0.031 C 
ATOM     33  C   UNL A   1      38.564  28.816  27.794  1.00  0.00     0.029 A 
ATOM     34  N   UNL A   1      39.864  28.761  29.612  1.00  0.00    -0.354 N 
ATOM     35  C   UNL A   1      38.908  31.077  33.116  1.00  0.00     0.074 A 
ATOM     36  C   UNL A   1      37.691  31.836  32.930  1.00  0.00     0.031 C 
ATOM     37  C   UNL A   1      39.627  28.047  27.506  1.00  0.00     0.029 A 
ATOM     38  C   UNL A   1      40.518  28.012  28.661  1.00  0.00     0.049 A 
ATOM     39  H   UNL A   1      40.212  28.896  30.523  1.00  0.00     0.167 HD
ATOM     40  C   UNL A   1      39.664  31.115  34.241  1.00  0.00     0.034 A 
ATOM     41  C   UNL A   1      41.705  27.376  28.707  1.00  0.00     0.034 A 
ATOM     42  C   UNL A   1      40.852  30.330  34.443  1.00  0.00     0.049 A 
ATOM     43  C   UNL A   1      42.510  27.413  29.979  1.00  0.00     0.074 A 
ATOM     44  C   UNL A   1      41.631  30.229  35.583  1.00  0.00     0.029 A 
ATOM     45  N   UNL A   1      41.444  29.525  33.483  1.00  0.00    -0.354 N 
ATOM     46  N   UNL A   1      42.230  28.001  31.116  1.00  0.00    -0.248 NA
ATOM     47  C   UNL A   1      43.779  26.669  29.984  1.00  0.00     0.031 C 
ATOM     48  C   UNL A   1      42.714  29.390  35.300  1.00  0.00     0.029 A 
ATOM     49  C   UNL A   1      42.587  28.937  33.997  1.00  0.00     0.049 A 
ATOM     50  H   UNL A   1      41.101  29.391  32.570  1.00  0.00     0.167 HD
ATOM     51  C   UNL A   1      43.264  27.665  31.984  1.00  0.00     0.074 A 
ATOM     52  C   UNL A   1      44.167  26.807  31.245  1.00  0.00     0.031 C 
ATOM     53  C   UNL A   1      43.453  28.043  33.272  1.00  0.00     0.034 A 
BRANCH  40  54
ATOM     54  C   UNL A   1      39.206  32.009  35.366  1.00  0.00     0.023 A 
ATOM     55  C   UNL A   1      38.310  31.513  36.334  1.00  0.00     0.012 A 
ATOM     56  C   UNL A   1      39.717  33.315  35.503  1.00  0.00     0.148 A 
ATOM     57  C   UNL A   1      37.900  32.313  37.400  1.00  0.00     0.002 A 
ATOM     58  C   UNL A   1      39.341  34.090  36.594  1.00  0.00     0.091 A 
ATOM     59  F   UNL A   1      40.554  33.776  34.563  1.00  0.00    -0.205 F 
ATOM     60  C   UNL A   1      38.424  33.596  37.536  1.00  0.00     0.022 A 
BRANCH  58  61
ATOM     61  S   UNL A   1      40.022  35.724  36.903  1.00  0.00     0.127 S 
ATOM     62  O   UNL A   1      39.352  36.089  38.150  1.00  0.00    -0.237 OA
ATOM     63  O   UNL A   1      41.451  35.439  37.040  1.00  0.00    -0.237 OA
ATOM     64  O   UNL A   1      39.671  36.533  35.746  1.00  0.00    -0.744 OA
ENDBRANCH  58  61
ENDBRANCH  40  54
BRANCH  41  65
ATOM     65  C   UNL A   1      42.185  26.599  27.528  1.00  0.00     0.023 A 
ATOM     66  C   UNL A   1      42.911  27.255  26.515  1.00  0.00     0.012 A 
ATOM     67  C   UNL A   1      41.938  25.217  27.411  1.00  0.00     0.148 A 
ATOM     68  C   UNL A   1      43.350  26.559  25.388  1.00  0.00     0.002 A 
ATOM     69  C   UNL A   1      42.428  24.518  26.313  1.00  0.00     0.091 A 
ATOM     70  F   UNL A   1      41.236  24.612  28.379  1.00  0.00    -0.205 F 
ATOM     71  C   UNL A   1      43.117  25.190  25.291  1.00  0.00     0.022 A 
BRANCH  69  72
ATOM     72  S   UNL A   1      42.286  22.733  26.166  1.00  0.00     0.127 S 
ATOM     73  O   UNL A   1      42.999  22.278  27.357  1.00  0.00    -0.237 OA
ATOM     74  O   UNL A   1      40.835  22.542  26.205  1.00  0.00    -0.237 OA
ATOM     75  O   UNL A   1      42.902  22.393  24.891  1.00  0.00    -0.744 OA
ENDBRANCH  69  72
ENDBRANCH  41  65
BRANCH  53  76
ATOM     76  C   UNL A   1      44.659  27.498  33.994  1.00  0.00     0.023 A 
ATOM     77  C   UNL A   1      45.869  28.221  33.994  1.00  0.00     0.012 A 
ATOM     78  C   UNL A   1      44.569  26.301  34.733  1.00  0.00     0.148 A 
ATOM     79  C   UNL A   1      46.979  27.743  34.690  1.00  0.00     0.002 A 
ATOM     80  C   UNL A   1      45.663  25.859  35.467  1.00  0.00     0.091 A 
ATOM     81  F   UNL A   1      43.415  25.619  34.706  1.00  0.00    -0.205 F 
ATOM     82  C   UNL A   1      46.873  26.570  35.435  1.00  0.00     0.022 A 
BRANCH  80  83
ATOM     83  S   UNL A   1      45.588  24.417  36.535  1.00  0.00     0.127 S 
ATOM     84  O   UNL A   1      46.761  24.614  37.385  1.00  0.00    -0.237 OA
ATOM     85  O   UNL A   1      44.305  24.600  37.214  1.00  0.00    -0.237 OA
ATOM     86  O   UNL A   1      45.646  23.258  35.653  1.00  0.00    -0.744 OA
ENDBRANCH  80  83
ENDBRANCH  53  76
ENDBRANCH  27  28
ENDBRANCH  19  22
ENDBRANCH  17  18
ENDBRANCH  16  17
ENDBRANCH   1  16
TORSDOF 17
ENDMDL
MODEL 2
REMARK VINA RESULT:     -10.1      1.675      8.005
REMARK SMILES O=C(CSC(=S)N1CCCC1)NCCCCNC(=O)c1ccc(-c2c3nc(c(-c4cccc(S(=O)(=O)[O-])c4F)c4ccc([nH]4)c(-c4cccc(S(=O)(=O)[O-])c4F)c4nc(c(-c5cccc(S(=O)(=O)[O-])c5F)c5ccc2[nH]5)C=C4)C=C3)cc1
REMARK SMILES IDX 14 1 13 2 12 3 1 4 2 5 3 7 4 8 5 9 6 10 7 11 8 12 11 13 9 14
REMARK SMILES IDX 10 15 15 16 16 17 17 18 18 19 19 21 20 22 21 23 82 24 22 25
REMARK SMILES IDX 81 26 23 27 24 28 25 29 75 30 26 31 80 32 74 33 76 34 27 35
REMARK SMILES IDX 79 36 73 37 72 38 28 40 60 41 40 42 59 43 41 44 44 45 58 46
REMARK SMILES IDX 77 47 42 48 43 49 57 51 78 52 45 53 29 54 30 55 38 56 31 57
REMARK SMILES IDX 33 58 39 59 32 60 34 61 35 62 36 63 37 64 61 65 62 66 70 67
REMARK SMILES IDX 63 68 65 69 71 70 64 71 66 72 67 73 68 74 69 75 46 76 47 77
REMARK SMILES IDX 55 78 48 79 50 80 56 81 49 82 51 83 52 84 53 85 54 86
REMARK H PARENT 12 6 17 20 76 39 44 50
REMARK Flexibility Score: inf
ROOT
ATOM      1  C   UNL A   1      32.029  28.844  23.653  1.00  0.00     0.023 C 
ENDROOT
BRANCH   1   2
ATOM      2  C   UNL A   1      31.139  28.015  22.729  1.00  0.00     0.116 C 
BRANCH   2   3
ATOM      3  N   UNL A   1      31.323  26.586  22.884  1.00  0.00    -0.355 N 
ATOM      4  O   UNL A   1      29.405  26.257  24.091  1.00  0.00    -0.274 OA
ATOM      5  C   UNL A   1      30.380  25.791  23.501  1.00  0.00     0.230 C 
ATOM      6  H   UNL A   1      32.146  26.170  22.540  1.00  0.00     0.163 HD
BRANCH   5   7
ATOM      7  C   UNL A   1      30.654  24.295  23.501  1.00  0.00     0.177 C 
BRANCH   7   8
ATOM      8  S   UNL A   1      31.125  23.599  25.102  1.00  0.00    -0.087 SA
BRANCH   8   9
ATOM      9  C   UNL A   1      32.879  23.762  25.238  1.00  0.00     0.136 C 
ATOM     10  S   UNL A   1      33.704  25.205  25.474  1.00  0.00    -0.053 S 
BRANCH   9  11
ATOM     11  N   UNL A   1      33.537  22.536  25.209  1.00  0.00    -0.358 N 
ATOM     12  C   UNL A   1      34.849  22.235  25.781  1.00  0.00     0.118 C 
ATOM     13  C   UNL A   1      32.977  21.335  24.589  1.00  0.00     0.118 C 
ATOM     14  C   UNL A   1      35.327  21.023  25.002  1.00  0.00     0.023 C 
ATOM     15  C   UNL A   1      34.042  20.254  24.729  1.00  0.00     0.023 C 
ENDBRANCH   9  11
ENDBRANCH   8   9
ENDBRANCH   7   8
ENDBRANCH   5   7
ENDBRANCH   2   3
ENDBRANCH   1   2
BRANCH   1  16
ATOM     16  C   UNL A   1      31.392  29.238  24.988  1.00  0.00     0.023 C 
BRANCH  16  17
ATOM     17  C   UNL A   1      32.346  29.801  26.038  1.00  0.00     0.116 C 
BRANCH  17  18
ATOM     18  N   UNL A   1      32.098  31.200  26.353  1.00  0.00    -0.352 N 
ATOM     19  C   UNL A   1      32.827  32.058  27.143  1.00  0.00     0.251 C 
ATOM     20  H   UNL A   1      31.293  31.588  25.941  1.00  0.00     0.163 HD
ATOM     21  O   UNL A   1      32.392  33.182  27.387  1.00  0.00    -0.269 OA
BRANCH  19  22
ATOM     22  C   UNL A   1      34.118  31.626  27.728  1.00  0.00     0.039 A 
ATOM     23  C   UNL A   1      35.092  32.591  28.001  1.00  0.00     0.014 A 
ATOM     24  C   UNL A   1      34.372  30.281  28.014  1.00  0.00     0.014 A 
ATOM     25  C   UNL A   1      36.286  32.218  28.627  1.00  0.00     0.010 A 
ATOM     26  C   UNL A   1      35.527  29.924  28.708  1.00  0.00     0.010 A 
ATOM     27  C   UNL A   1      36.498  30.888  29.022  1.00  0.00    -0.014 A 
BRANCH  27  28
ATOM     28  C   UNL A   1      37.713  30.491  29.787  1.00  0.00     0.031 A 
ATOM     29  C   UNL A   1      38.705  29.524  29.199  1.00  0.00     0.074 A 
ATOM     30  C   UNL A   1      37.879  30.935  31.050  1.00  0.00     0.049 A 
ATOM     31  N   UNL A   1      39.786  29.021  29.738  1.00  0.00    -0.248 NA
ATOM     32  C   UNL A   1      38.436  29.035  27.836  1.00  0.00     0.031 C 
ATOM     33  C   UNL A   1      36.955  31.817  31.766  1.00  0.00     0.029 A 
ATOM     34  N   UNL A   1      38.871  30.682  31.967  1.00  0.00    -0.354 N 
ATOM     35  C   UNL A   1      40.303  28.134  28.803  1.00  0.00     0.074 A 
ATOM     36  C   UNL A   1      39.402  28.142  27.671  1.00  0.00     0.031 C 
ATOM     37  C   UNL A   1      37.426  32.038  33.004  1.00  0.00     0.029 A 
ATOM     38  C   UNL A   1      38.663  31.287  33.186  1.00  0.00     0.049 A 
ATOM     39  H   UNL A   1      39.656  30.122  31.770  1.00  0.00     0.167 HD
ATOM     40  C   UNL A   1      41.438  27.395  28.866  1.00  0.00     0.034 A 
ATOM     41  C   UNL A   1      39.381  31.235  34.325  1.00  0.00     0.034 A 
ATOM     42  C   UNL A   1      42.355  27.417  29.974  1.00  0.00     0.049 A 
ATOM     43  C   UNL A   1      40.652  30.428  34.358  1.00  0.00     0.074 A 
ATOM     44  C   UNL A   1      43.577  26.777  30.090  1.00  0.00     0.029 A 
ATOM     45  N   UNL A   1      42.148  28.100  31.162  1.00  0.00    -0.354 N 
ATOM     46  N   UNL A   1      41.206  29.722  33.403  1.00  0.00    -0.248 NA
ATOM     47  C   UNL A   1      41.414  30.439  35.616  1.00  0.00     0.031 C 
ATOM     48  C   UNL A   1      44.092  27.044  31.362  1.00  0.00     0.029 A 
ATOM     49  C   UNL A   1      43.211  27.884  32.024  1.00  0.00     0.049 A 
ATOM     50  H   UNL A   1      41.362  28.657  31.363  1.00  0.00     0.167 HD
ATOM     51  C   UNL A   1      42.399  29.239  33.930  1.00  0.00     0.074 A 
ATOM     52  C   UNL A   1      42.496  29.750  35.281  1.00  0.00     0.031 C 
ATOM     53  C   UNL A   1      43.325  28.437  33.349  1.00  0.00     0.034 A 
BRANCH  40  54
ATOM     54  C   UNL A   1      41.777  26.524  27.683  1.00  0.00     0.023 A 
ATOM     55  C   UNL A   1      42.462  27.075  26.582  1.00  0.00     0.012 A 
ATOM     56  C   UNL A   1      41.479  25.146  27.692  1.00  0.00     0.148 A 
ATOM     57  C   UNL A   1      42.815  26.279  25.492  1.00  0.00     0.002 A 
ATOM     58  C   UNL A   1      41.875  24.350  26.624  1.00  0.00     0.091 A 
ATOM     59  F   UNL A   1      40.811  24.643  28.740  1.00  0.00    -0.205 F 
ATOM     60  C   UNL A   1      42.531  24.916  25.519  1.00  0.00     0.022 A 
BRANCH  58  61
ATOM     61  S   UNL A   1      41.631  22.570  26.599  1.00  0.00     0.127 S 
ATOM     62  O   UNL A   1      42.278  22.203  25.341  1.00  0.00    -0.237 OA
ATOM     63  O   UNL A   1      42.350  22.145  27.800  1.00  0.00    -0.237 OA
ATOM     64  O   UNL A   1      40.191  22.360  26.645  1.00  0.00    -0.744 OA
ENDBRANCH  58  61
ENDBRANCH  40  54
BRANCH  41  65
ATOM     65  C   UNL A   1      38.947  32.016  35.519  1.00  0.00     0.023 A 
ATOM     66  C   UNL A   1      39.194  33.402  35.567  1.00  0.00     0.012 A 
ATOM     67  C   UNL A   1      38.284  31.399  36.598  1.00  0.00     0.148 A 
ATOM     68  C   UNL A   1      38.823  34.154  36.683  1.00  0.00     0.002 A 
ATOM     69  C   UNL A   1      37.866  32.164  37.681  1.00  0.00     0.091 A 
ATOM     70  F   UNL A   1      38.068  30.078  36.539  1.00  0.00    -0.205 F 
ATOM     71  C   UNL A   1      38.151  33.537  37.735  1.00  0.00     0.022 A 
BRANCH  69  72
ATOM     72  S   UNL A   1      36.884  31.481  39.021  1.00  0.00     0.127 S 
ATOM     73  O   UNL A   1      37.777  31.651  40.164  1.00  0.00    -0.237 OA
ATOM     74  O   UNL A   1      35.714  32.361  39.015  1.00  0.00    -0.237 OA
ATOM     75  O   UNL A   1      36.600  30.104  38.639  1.00  0.00    -0.744 OA
ENDBRANCH  69  72
ENDBRANCH  41  65
BRANCH  53  76
ATOM     76  C   UNL A   1      44.555  28.092  34.148  1.00  0.00     0.023 A 
ATOM     77  C   UNL A   1      45.675  28.948  34.126  1.00  0.00     0.012 A 
ATOM     78  C   UNL A   1      44.572  26.953  34.979  1.00  0.00     0.148 A 
ATOM     79  C   UNL A   1      46.805  28.656  34.890  1.00  0.00     0.002 A 
ATOM     80  C   UNL A   1      45.679  26.698  35.777  1.00  0.00     0.091 A 
ATOM     81  F   UNL A   1      43.503  26.142  34.972  1.00  0.00    -0.205 F 
ATOM     82  C   UNL A   1      46.802  27.539  35.725  1.00  0.00     0.022 A 
BRANCH  80  83
ATOM     83  S   UNL A   1      45.726  25.343  36.955  1.00  0.00     0.127 S 
ATOM     84  O   UNL A   1      45.667  24.178  36.073  1.00  0.00    -0.237 OA
ATOM     85  O   UNL A   1      47.018  25.547  37.611  1.00  0.00    -0.237 OA
ATOM     86  O   UNL A   1      44.571  25.524  37.825  1.00  0.00    -0.744 OA
ENDBRANCH  80  83
ENDBRANCH  53  76
ENDBRANCH  27  28
ENDBRANCH  19  22
ENDBRANCH  17  18
ENDBRANCH  16  17
ENDBRANCH   1  16
TORSDOF 17
ENDMDL
MODEL 3
REMARK VINA RESULT:     -10.1      4.871      9.744
REMARK SMILES O=C(CSC(=S)N1CCCC1)NCCCCNC(=O)c1ccc(-c2c3nc(c(-c4cccc(S(=O)(=O)[O-])c4F)c4ccc([nH]4)c(-c4cccc(S(=O)(=O)[O-])c4F)c4nc(c(-c5cccc(S(=O)(=O)[O-])c5F)c5ccc2[nH]5)C=C4)C=C3)cc1
REMARK SMILES IDX 14 1 13 2 12 3 1 4 2 5 3 7 4 8 5 9 6 10 7 11 8 12 11 13 9 14
REMARK SMILES IDX 10 15 15 16 16 17 17 18 18 19 19 21 20 22 21 23 82 24 22 25
REMARK SMILES IDX 81 26 23 27 24 28 25 29 75 30 26 31 80 32 74 33 76 34 27 35
REMARK SMILES IDX 79 36 73 37 72 38 28 40 60 41 40 42 59 43 41 44 44 45 58 46
REMARK SMILES IDX 77 47 42 48 43 49 57 51 78 52 45 53 29 54 30 55 38 56 31 57
REMARK SMILES IDX 33 58 39 59 32 60 34 61 35 62 36 63 37 64 61 65 62 66 70 67
REMARK SMILES IDX 63 68 65 69 71 70 64 71 66 72 67 73 68 74 69 75 46 76 47 77
REMARK SMILES IDX 55 78 48 79 50 80 56 81 49 82 51 83 52 84 53 85 54 86
REMARK H PARENT 12 6 17 20 76 39 44 50
REMARK Flexibility Score: inf
ROOT
ATOM      1  C   UNL A   1      33.849  24.161  25.852  1.00  0.00     0.023 C 
ENDROOT
BRANCH   1   2
ATOM      2  C   UNL A   1      33.448  23.747  24.438  1.00  0.00     0.116 C 
BRANCH   2   3
ATOM      3  N   UNL A   1      33.773  24.740  23.434  1.00  0.00    -0.355 N 
ATOM      4  O   UNL A   1      31.610  25.083  22.767  1.00  0.00    -0.274 OA
ATOM      5  C   UNL A   1      32.798  25.400  22.716  1.00  0.00     0.230 C 
ATOM      6  H   UNL A   1      34.719  24.951  23.259  1.00  0.00     0.163 HD
BRANCH   5   7
ATOM      7  C   UNL A   1      33.278  26.492  21.771  1.00  0.00     0.177 C 
BRANCH   7   8
ATOM      8  S   UNL A   1      33.584  28.098  22.542  1.00  0.00    -0.087 SA
BRANCH   8   9
ATOM      9  C   UNL A   1      32.188  28.448  23.569  1.00  0.00     0.136 C 
ATOM     10  S   UNL A   1      30.668  28.901  23.018  1.00  0.00    -0.053 S 
BRANCH   9  11
ATOM     11  N   UNL A   1      32.447  28.233  24.920  1.00  0.00    -0.358 N 
ATOM     12  C   UNL A   1      31.503  27.740  25.922  1.00  0.00     0.118 C 
ATOM     13  C   UNL A   1      33.751  28.469  25.538  1.00  0.00     0.118 C 
ATOM     14  C   UNL A   1      32.067  28.231  27.241  1.00  0.00     0.023 C 
ATOM     15  C   UNL A   1      33.573  28.169  27.022  1.00  0.00     0.023 C 
ENDBRANCH   9  11
ENDBRANCH   8   9
ENDBRANCH   7   8
ENDBRANCH   5   7
ENDBRANCH   2   3
ENDBRANCH   1   2
BRANCH   1  16
ATOM     16  C   UNL A   1      35.055  23.417  26.431  1.00  0.00     0.023 C 
BRANCH  16  17
ATOM     17  C   UNL A   1      36.410  23.778  25.830  1.00  0.00     0.116 C 
BRANCH  17  18
ATOM     18  N   UNL A   1      37.373  22.688  25.878  1.00  0.00    -0.352 N 
ATOM     19  C   UNL A   1      38.695  22.710  26.259  1.00  0.00     0.251 C 
ATOM     20  H   UNL A   1      37.028  21.810  25.599  1.00  0.00     0.163 HD
ATOM     21  O   UNL A   1      39.386  21.701  26.120  1.00  0.00    -0.269 OA
BRANCH  19  22
ATOM     22  C   UNL A   1      39.299  23.947  26.806  1.00  0.00     0.039 A 
ATOM     23  C   UNL A   1      39.929  24.834  25.928  1.00  0.00     0.014 A 
ATOM     24  C   UNL A   1      39.244  24.240  28.171  1.00  0.00     0.014 A 
ATOM     25  C   UNL A   1      40.436  26.046  26.408  1.00  0.00     0.010 A 
ATOM     26  C   UNL A   1      39.679  25.481  28.634  1.00  0.00     0.010 A 
ATOM     27  C   UNL A   1      40.280  26.399  27.759  1.00  0.00    -0.014 A 
BRANCH  27  28
ATOM     28  C   UNL A   1      40.713  27.730  28.267  1.00  0.00     0.031 A 
ATOM     29  C   UNL A   1      42.176  28.048  28.427  1.00  0.00     0.074 A 
ATOM     30  C   UNL A   1      39.787  28.624  28.668  1.00  0.00     0.049 A 
ATOM     31  N   UNL A   1      42.738  29.129  28.906  1.00  0.00    -0.248 NA
ATOM     32  C   UNL A   1      43.136  27.007  28.020  1.00  0.00     0.031 C 
ATOM     33  C   UNL A   1      38.337  28.413  28.636  1.00  0.00     0.029 A 
ATOM     34  N   UNL A   1      39.925  29.880  29.208  1.00  0.00    -0.354 N 
ATOM     35  C   UNL A   1      44.105  28.886  28.895  1.00  0.00     0.074 A 
ATOM     36  C   UNL A   1      44.291  27.543  28.390  1.00  0.00     0.031 C 
ATOM     37  C   UNL A   1      37.723  29.502  29.125  1.00  0.00     0.029 A 
ATOM     38  C   UNL A   1      38.729  30.473  29.541  1.00  0.00     0.049 A 
ATOM     39  H   UNL A   1      40.798  30.315  29.343  1.00  0.00     0.167 HD
ATOM     40  C   UNL A   1      45.120  29.712  29.251  1.00  0.00     0.034 A 
ATOM     41  C   UNL A   1      38.470  31.661  30.124  1.00  0.00     0.034 A 
ATOM     42  C   UNL A   1      44.937  31.061  29.715  1.00  0.00     0.049 A 
ATOM     43  C   UNL A   1      39.616  32.569  30.483  1.00  0.00     0.074 A 
ATOM     44  C   UNL A   1      45.906  32.006  30.008  1.00  0.00     0.029 A 
ATOM     45  N   UNL A   1      43.711  31.654  29.969  1.00  0.00    -0.354 N 
ATOM     46  N   UNL A   1      40.902  32.382  30.314  1.00  0.00    -0.248 NA
ATOM     47  C   UNL A   1      39.271  33.868  31.081  1.00  0.00     0.031 C 
ATOM     48  C   UNL A   1      45.265  33.159  30.474  1.00  0.00     0.029 A 
ATOM     49  C   UNL A   1      43.897  32.946  30.432  1.00  0.00     0.049 A 
ATOM     50  H   UNL A   1      42.837  31.221  29.839  1.00  0.00     0.167 HD
ATOM     51  C   UNL A   1      41.517  33.552  30.746  1.00  0.00     0.074 A 
ATOM     52  C   UNL A   1      40.460  34.449  31.166  1.00  0.00     0.031 C 
ATOM     53  C   UNL A   1      42.838  33.852  30.799  1.00  0.00     0.034 A 
BRANCH  40  54
ATOM     54  C   UNL A   1      46.529  29.194  29.113  1.00  0.00     0.023 A 
ATOM     55  C   UNL A   1      47.186  28.645  30.233  1.00  0.00     0.012 A 
ATOM     56  C   UNL A   1      47.177  29.188  27.862  1.00  0.00     0.148 A 
ATOM     57  C   UNL A   1      48.477  28.131  30.120  1.00  0.00     0.002 A 
ATOM     58  C   UNL A   1      48.445  28.631  27.746  1.00  0.00     0.091 A 
ATOM     59  F   UNL A   1      46.544  29.731  26.811  1.00  0.00    -0.205 F 
ATOM     60  C   UNL A   1      49.101  28.114  28.875  1.00  0.00     0.022 A 
BRANCH  58  61
ATOM     61  S   UNL A   1      49.300  28.487  26.173  1.00  0.00     0.127 S 
ATOM     62  O   UNL A   1      50.110  27.289  26.388  1.00  0.00    -0.237 OA
ATOM     63  O   UNL A   1      48.190  28.311  25.235  1.00  0.00    -0.237 OA
ATOM     64  O   UNL A   1      50.049  29.724  26.005  1.00  0.00    -0.744 OA
ENDBRANCH  58  61
ENDBRANCH  40  54
BRANCH  41  65
ATOM     65  C   UNL A   1      37.061  32.089  30.356  1.00  0.00     0.023 A 
ATOM     66  C   UNL A   1      36.539  32.071  31.665  1.00  0.00     0.012 A 
ATOM     67  C   UNL A   1      36.242  32.523  29.296  1.00  0.00     0.148 A 
ATOM     68  C   UNL A   1      35.215  32.442  31.908  1.00  0.00     0.002 A 
ATOM     69  C   UNL A   1      34.942  32.945  29.554  1.00  0.00     0.091 A 
ATOM     70  F   UNL A   1      36.752  32.522  28.057  1.00  0.00    -0.205 F 
ATOM     71  C   UNL A   1      34.420  32.887  30.856  1.00  0.00     0.022 A 
BRANCH  69  72
ATOM     72  S   UNL A   1      33.889  33.653  28.283  1.00  0.00     0.127 S 
ATOM     73  O   UNL A   1      32.909  34.387  29.080  1.00  0.00    -0.237 OA
ATOM     74  O   UNL A   1      34.834  34.491  27.542  1.00  0.00    -0.237 OA
ATOM     75  O   UNL A   1      33.369  32.522  27.526  1.00  0.00    -0.744 OA
ENDBRANCH  69  72
ENDBRANCH  41  65
BRANCH  53  76
ATOM     76  C   UNL A   1      43.228  35.224  31.286  1.00  0.00     0.023 A 
ATOM     77  C   UNL A   1      43.469  35.445  32.657  1.00  0.00     0.012 A 
ATOM     78  C   UNL A   1      43.427  36.277  30.371  1.00  0.00     0.148 A 
ATOM     79  C   UNL A   1      43.866  36.701  33.113  1.00  0.00     0.002 A 
ATOM     80  C   UNL A   1      43.874  37.511  30.826  1.00  0.00     0.091 A 
ATOM     81  F   UNL A   1      43.176  36.052  29.073  1.00  0.00    -0.205 F 
ATOM     82  C   UNL A   1      44.080  37.730  32.197  1.00  0.00     0.022 A 
BRANCH  80  83
ATOM     83  S   UNL A   1      44.273  38.862  29.712  1.00  0.00     0.127 S 
ATOM     84  O   UNL A   1      42.974  39.138  29.099  1.00  0.00    -0.237 OA
ATOM     85  O   UNL A   1      44.744  39.896  30.634  1.00  0.00    -0.237 OA
ATOM     86  O   UNL A   1      45.293  38.350  28.806  1.00  0.00    -0.744 OA
ENDBRANCH  80  83
ENDBRANCH  53  76
ENDBRANCH  27  28
ENDBRANCH  19  22
ENDBRANCH  17  18
ENDBRANCH  16  17
ENDBRANCH   1  16
TORSDOF 17
ENDMDL
