MODEL 1
REMARK VINA RESULT:     -11.7      0.000      0.000
REMARK SMILES C[C@@H]1[C@@H](C(=O)NCCCCNC(=O)c2ccc(-c3c4nc(c(-c5cccc(S(=O)(=O)[O-])c5F)c5ccc([nH]5)c(-c5cccc(S(=O)(=O)[O-])c5F)c5nc(c(-c6cccc(S(=O)(=O)[O-])c6F)c6ccc3[nH]6)C=C5)C=C4)cc2)CCN1C(=O)Nc1nccs1
REMARK SMILES IDX 9 1 8 2 7 3 6 4 4 5 5 6 3 8 1 9 2 10 79 11 77 12 78 13 80 14
REMARK SMILES IDX 81 15 82 16 83 18 84 19 87 20 85 21 86 22 10 23 11 24 12 25
REMARK SMILES IDX 13 27 14 28 15 29 76 30 16 31 75 32 17 33 18 34 19 35 69 36
REMARK SMILES IDX 20 37 74 38 68 39 70 40 21 41 73 42 67 43 66 44 22 46 54 47
REMARK SMILES IDX 34 48 53 49 35 50 38 51 52 52 71 53 36 54 37 55 51 57 72 58
REMARK SMILES IDX 39 59 23 60 24 61 32 62 25 63 27 64 33 65 26 66 28 67 29 68
REMARK SMILES IDX 30 69 31 70 55 71 56 72 64 73 57 74 59 75 65 76 58 77 60 78
REMARK SMILES IDX 61 79 62 80 63 81 40 82 41 83 49 84 42 85 44 86 50 87 43 88
REMARK SMILES IDX 45 89 46 90 47 91 48 92
REMARK H PARENT 6 7 82 17 11 26 70 45 38 56
REMARK Flexibility Score: inf
ROOT
ATOM      1  C   UNL A   1      37.924  19.267  24.971  1.00  0.00     0.023 C 
ENDROOT
BRANCH   1   2
ATOM      2  C   UNL A   1      36.603  20.020  24.827  1.00  0.00     0.023 C 
BRANCH   2   3
ATOM      3  C   UNL A   1      36.554  21.386  25.500  1.00  0.00     0.116 C 
BRANCH   3   4
ATOM      4  N   UNL A   1      35.552  21.476  26.543  1.00  0.00    -0.356 N 
ATOM      5  C   UNL A   1      34.487  22.328  26.624  1.00  0.00     0.225 C 
ATOM      6  O   UNL A   1      33.714  22.201  27.572  1.00  0.00    -0.275 OA
ATOM      7  H   UNL A   1      35.653  20.843  27.289  1.00  0.00     0.163 HD
BRANCH   5   8
ATOM      8  C   UNL A   1      34.352  23.426  25.574  1.00  0.00     0.102 C 
ATOM      9  C   UNL A   1      34.002  25.908  25.380  1.00  0.00     0.032 C 
ATOM     10  C   UNL A   1      33.538  24.627  26.091  1.00  0.00     0.096 C 
ATOM     11  N   UNL A   1      32.147  24.315  25.733  1.00  0.00    -0.321 N 
ATOM     12  C   UNL A   1      33.555  22.995  24.342  1.00  0.00     0.037 C 
ATOM     13  C   UNL A   1      32.112  23.262  24.732  1.00  0.00     0.122 C 
BRANCH  11  14
ATOM     14  C   UNL A   1      30.967  24.626  26.345  1.00  0.00     0.323 C 
ATOM     15  O   UNL A   1      30.507  23.879  27.222  1.00  0.00    -0.248 OA
ATOM     16  N   UNL A   1      30.311  25.789  26.179  1.00  0.00    -0.283 N 
ATOM     17  H   UNL A   1      29.692  26.004  26.914  1.00  0.00     0.174 HD
BRANCH  16  18
ATOM     18  C   UNL A   1      30.335  26.724  25.196  1.00  0.00     0.190 A 
ATOM     19  N   UNL A   1      31.071  27.797  25.059  1.00  0.00    -0.228 NA
ATOM     20  S   UNL A   1      29.244  26.403  23.917  1.00  0.00    -0.105 S 
ATOM     21  C   UNL A   1      30.660  28.503  23.949  1.00  0.00     0.125 A 
ATOM     22  C   UNL A   1      29.643  27.921  23.223  1.00  0.00     0.088 A 
ENDBRANCH  16  18
ENDBRANCH  11  14
ENDBRANCH   5   8
ENDBRANCH   3   4
ENDBRANCH   2   3
ENDBRANCH   1   2
BRANCH   1  23
ATOM     23  C   UNL A   1      39.035  20.022  25.692  1.00  0.00     0.116 C 
BRANCH  23  24
ATOM     24  N   UNL A   1      40.196  19.191  25.975  1.00  0.00    -0.352 N 
ATOM     25  C   UNL A   1      41.468  19.560  26.357  1.00  0.00     0.251 C 
ATOM     26  H   UNL A   1      40.051  18.222  25.879  1.00  0.00     0.163 HD
ATOM     27  O   UNL A   1      42.355  18.720  26.414  1.00  0.00    -0.269 OA
BRANCH  25  28
ATOM     28  C   UNL A   1      41.758  20.977  26.669  1.00  0.00     0.039 A 
ATOM     29  C   UNL A   1      42.204  21.310  27.950  1.00  0.00     0.014 A 
ATOM     30  C   UNL A   1      41.611  21.968  25.697  1.00  0.00     0.014 A 
ATOM     31  C   UNL A   1      42.573  22.628  28.231  1.00  0.00     0.010 A 
ATOM     32  C   UNL A   1      42.067  23.256  25.950  1.00  0.00     0.010 A 
ATOM     33  C   UNL A   1      42.544  23.606  27.222  1.00  0.00    -0.014 A 
BRANCH  33  34
ATOM     34  C   UNL A   1      43.000  24.998  27.474  1.00  0.00     0.031 A 
ATOM     35  C   UNL A   1      42.070  25.989  28.123  1.00  0.00     0.074 A 
ATOM     36  C   UNL A   1      44.213  25.397  27.040  1.00  0.00     0.049 A 
ATOM     37  N   UNL A   1      42.257  27.262  28.361  1.00  0.00    -0.248 NA
ATOM     38  C   UNL A   1      40.744  25.494  28.528  1.00  0.00     0.031 C 
ATOM     39  C   UNL A   1      45.177  24.556  26.328  1.00  0.00     0.029 A 
ATOM     40  N   UNL A   1      44.831  26.620  27.110  1.00  0.00    -0.354 N 
ATOM     41  C   UNL A   1      41.063  27.725  28.903  1.00  0.00     0.074 A 
ATOM     42  C   UNL A   1      40.146  26.608  28.920  1.00  0.00     0.031 C 
ATOM     43  C   UNL A   1      46.266  25.285  26.036  1.00  0.00     0.029 A 
ATOM     44  C   UNL A   1      46.067  26.651  26.508  1.00  0.00     0.049 A 
ATOM     45  H   UNL A   1      44.428  27.403  27.552  1.00  0.00     0.167 HD
ATOM     46  C   UNL A   1      40.765  28.960  29.374  1.00  0.00     0.034 A 
ATOM     47  C   UNL A   1      46.939  27.666  26.347  1.00  0.00     0.034 A 
ATOM     48  C   UNL A   1      41.693  30.056  29.396  1.00  0.00     0.049 A 
ATOM     49  C   UNL A   1      46.601  29.018  26.915  1.00  0.00     0.074 A 
ATOM     50  C   UNL A   1      41.519  31.321  29.929  1.00  0.00     0.029 A 
ATOM     51  N   UNL A   1      42.970  30.023  28.856  1.00  0.00    -0.354 N 
ATOM     52  N   UNL A   1      45.524  29.397  27.560  1.00  0.00    -0.248 NA
ATOM     53  C   UNL A   1      47.614  30.073  26.768  1.00  0.00     0.031 C 
ATOM     54  C   UNL A   1      42.680  32.062  29.686  1.00  0.00     0.029 A 
ATOM     55  C   UNL A   1      43.593  31.247  29.036  1.00  0.00     0.049 A 
ATOM     56  H   UNL A   1      43.375  29.244  28.410  1.00  0.00     0.167 HD
ATOM     57  C   UNL A   1      45.748  30.717  27.934  1.00  0.00     0.074 A 
ATOM     58  C   UNL A   1      47.070  31.067  27.457  1.00  0.00     0.031 C 
ATOM     59  C   UNL A   1      44.930  31.565  28.606  1.00  0.00     0.034 A 
BRANCH  46  60
ATOM     60  C   UNL A   1      39.389  29.173  29.952  1.00  0.00     0.023 A 
ATOM     61  C   UNL A   1      39.102  28.723  31.257  1.00  0.00     0.012 A 
ATOM     62  C   UNL A   1      38.395  29.855  29.224  1.00  0.00     0.148 A 
ATOM     63  C   UNL A   1      37.837  28.909  31.812  1.00  0.00     0.002 A 
ATOM     64  C   UNL A   1      37.152  30.081  29.803  1.00  0.00     0.091 A 
ATOM     65  F   UNL A   1      38.678  30.258  27.977  1.00  0.00    -0.205 F 
ATOM     66  C   UNL A   1      36.866  29.597  31.090  1.00  0.00     0.022 A 
BRANCH  64  67
ATOM     67  S   UNL A   1      35.863  31.031  28.990  1.00  0.00     0.127 S 
ATOM     68  O   UNL A   1      35.089  31.516  30.132  1.00  0.00    -0.237 OA
ATOM     69  O   UNL A   1      36.633  32.062  28.294  1.00  0.00    -0.237 OA
ATOM     70  O   UNL A   1      35.168  30.098  28.115  1.00  0.00    -0.744 OA
ENDBRANCH  64  67
ENDBRANCH  46  60
BRANCH  47  71
ATOM     71  C   UNL A   1      48.250  27.426  25.678  1.00  0.00     0.023 A 
ATOM     72  C   UNL A   1      49.367  27.061  26.456  1.00  0.00     0.012 A 
ATOM     73  C   UNL A   1      48.393  27.532  24.281  1.00  0.00     0.148 A 
ATOM     74  C   UNL A   1      50.609  26.842  25.862  1.00  0.00     0.002 A 
ATOM     75  C   UNL A   1      49.620  27.258  23.689  1.00  0.00     0.091 A 
ATOM     76  F   UNL A   1      47.321  27.887  23.558  1.00  0.00    -0.205 F 
ATOM     77  C   UNL A   1      50.734  26.932  24.478  1.00  0.00     0.022 A 
BRANCH  75  78
ATOM     78  S   UNL A   1      49.846  27.221  21.906  1.00  0.00     0.127 S 
ATOM     79  O   UNL A   1      49.674  28.628  21.554  1.00  0.00    -0.237 OA
ATOM     80  O   UNL A   1      51.214  26.717  21.788  1.00  0.00    -0.237 OA
ATOM     81  O   UNL A   1      48.825  26.313  21.398  1.00  0.00    -0.744 OA
ENDBRANCH  75  78
ENDBRANCH  47  71
BRANCH  59  82
ATOM     82  C   UNL A   1      45.452  32.942  28.921  1.00  0.00     0.023 A 
ATOM     83  C   UNL A   1      46.208  33.163  30.090  1.00  0.00     0.012 A 
ATOM     84  C   UNL A   1      45.255  34.003  28.015  1.00  0.00     0.148 A 
ATOM     85  C   UNL A   1      46.727  34.428  30.369  1.00  0.00     0.002 A 
ATOM     86  C   UNL A   1      45.820  35.245  28.273  1.00  0.00     0.091 A 
ATOM     87  F   UNL A   1      44.517  33.778  26.917  1.00  0.00    -0.205 F 
ATOM     88  C   UNL A   1      46.545  35.463  29.455  1.00  0.00     0.022 A 
BRANCH  86  89
ATOM     89  S   UNL A   1      45.722  36.607  27.106  1.00  0.00     0.127 S 
ATOM     90  O   UNL A   1      46.452  37.658  27.812  1.00  0.00    -0.237 OA
ATOM     91  O   UNL A   1      46.416  36.064  25.937  1.00  0.00    -0.237 OA
ATOM     92  O   UNL A   1      44.302  36.861  26.901  1.00  0.00    -0.744 OA
ENDBRANCH  86  89
ENDBRANCH  59  82
ENDBRANCH  33  34
ENDBRANCH  25  28
ENDBRANCH  23  24
ENDBRANCH   1  23
TORSDOF 16
ENDMDL
MODEL 2
REMARK VINA RESULT:     -11.6      6.364     11.727
REMARK SMILES C[C@@H]1[C@@H](C(=O)NCCCCNC(=O)c2ccc(-c3c4nc(c(-c5cccc(S(=O)(=O)[O-])c5F)c5ccc([nH]5)c(-c5cccc(S(=O)(=O)[O-])c5F)c5nc(c(-c6cccc(S(=O)(=O)[O-])c6F)c6ccc3[nH]6)C=C5)C=C4)cc2)CCN1C(=O)Nc1nccs1
REMARK SMILES IDX 9 1 8 2 7 3 6 4 4 5 5 6 3 8 1 9 2 10 79 11 77 12 78 13 80 14
REMARK SMILES IDX 81 15 82 16 83 18 84 19 87 20 85 21 86 22 10 23 11 24 12 25
REMARK SMILES IDX 13 27 14 28 15 29 76 30 16 31 75 32 17 33 18 34 19 35 69 36
REMARK SMILES IDX 20 37 74 38 68 39 70 40 21 41 73 42 67 43 66 44 22 46 54 47
REMARK SMILES IDX 34 48 53 49 35 50 38 51 52 52 71 53 36 54 37 55 51 57 72 58
REMARK SMILES IDX 39 59 23 60 24 61 32 62 25 63 27 64 33 65 26 66 28 67 29 68
REMARK SMILES IDX 30 69 31 70 55 71 56 72 64 73 57 74 59 75 65 76 58 77 60 78
REMARK SMILES IDX 61 79 62 80 63 81 40 82 41 83 49 84 42 85 44 86 50 87 43 88
REMARK SMILES IDX 45 89 46 90 47 91 48 92
REMARK H PARENT 6 7 82 17 11 26 70 45 38 56
REMARK Flexibility Score: inf
ROOT
ATOM      1  C   UNL A   1      31.659  31.753  26.682  1.00  0.00     0.023 C 
ENDROOT
BRANCH   1   2
ATOM      2  C   UNL A   1      31.794  30.234  26.620  1.00  0.00     0.023 C 
BRANCH   2   3
ATOM      3  C   UNL A   1      32.656  29.702  25.482  1.00  0.00     0.116 C 
BRANCH   3   4
ATOM      4  N   UNL A   1      31.924  29.521  24.244  1.00  0.00    -0.356 N 
ATOM      5  C   UNL A   1      31.201  28.436  23.838  1.00  0.00     0.225 C 
ATOM      6  O   UNL A   1      30.601  28.507  22.767  1.00  0.00    -0.275 OA
ATOM      7  H   UNL A   1      31.952  30.278  23.615  1.00  0.00     0.163 HD
BRANCH   5   8
ATOM      8  C   UNL A   1      31.231  27.177  24.699  1.00  0.00     0.102 C 
ATOM      9  C   UNL A   1      32.852  25.623  25.829  1.00  0.00     0.032 C 
ATOM     10  C   UNL A   1      32.544  26.390  24.533  1.00  0.00     0.096 C 
ATOM     11  N   UNL A   1      32.281  25.455  23.431  1.00  0.00    -0.321 N 
ATOM     12  C   UNL A   1      30.177  26.143  24.301  1.00  0.00     0.037 C 
ATOM     13  C   UNL A   1      30.850  25.343  23.200  1.00  0.00     0.122 C 
BRANCH  11  14
ATOM     14  C   UNL A   1      33.104  24.932  22.475  1.00  0.00     0.323 C 
ATOM     15  O   UNL A   1      33.424  25.616  21.491  1.00  0.00    -0.248 OA
ATOM     16  N   UNL A   1      33.740  23.751  22.586  1.00  0.00    -0.283 N 
ATOM     17  H   UNL A   1      34.532  23.672  22.007  1.00  0.00     0.174 HD
BRANCH  16  18
ATOM     18  C   UNL A   1      33.501  22.647  23.339  1.00  0.00     0.190 A 
ATOM     19  N   UNL A   1      34.103  22.201  24.410  1.00  0.00    -0.228 NA
ATOM     20  S   UNL A   1      32.162  21.727  22.801  1.00  0.00    -0.105 S 
ATOM     21  C   UNL A   1      33.579  20.976  24.761  1.00  0.00     0.125 A 
ATOM     22  C   UNL A   1      32.539  20.532  23.973  1.00  0.00     0.088 A 
ENDBRANCH  16  18
ENDBRANCH  11  14
ENDBRANCH   5   8
ENDBRANCH   3   4
ENDBRANCH   2   3
ENDBRANCH   1   2
BRANCH   1  23
ATOM     23  C   UNL A   1      32.839  32.494  27.301  1.00  0.00     0.116 C 
BRANCH  23  24
ATOM     24  N   UNL A   1      32.537  33.881  27.620  1.00  0.00    -0.352 N 
ATOM     25  C   UNL A   1      33.079  34.698  28.589  1.00  0.00     0.251 C 
ATOM     26  H   UNL A   1      31.841  34.297  27.062  1.00  0.00     0.163 HD
ATOM     27  O   UNL A   1      32.594  35.800  28.798  1.00  0.00    -0.269 OA
BRANCH  25  28
ATOM     28  C   UNL A   1      34.229  34.222  29.389  1.00  0.00     0.039 A 
ATOM     29  C   UNL A   1      33.987  33.464  30.536  1.00  0.00     0.014 A 
ATOM     30  C   UNL A   1      35.539  34.504  28.997  1.00  0.00     0.014 A 
ATOM     31  C   UNL A   1      35.063  32.927  31.249  1.00  0.00     0.010 A 
ATOM     32  C   UNL A   1      36.602  33.892  29.651  1.00  0.00     0.010 A 
ATOM     33  C   UNL A   1      36.379  33.104  30.790  1.00  0.00    -0.014 A 
BRANCH  33  34
ATOM     34  C   UNL A   1      37.536  32.484  31.487  1.00  0.00     0.031 A 
ATOM     35  C   UNL A   1      38.275  31.338  30.847  1.00  0.00     0.074 A 
ATOM     36  C   UNL A   1      37.867  32.887  32.730  1.00  0.00     0.049 A 
ATOM     37  N   UNL A   1      39.259  30.621  31.326  1.00  0.00    -0.248 NA
ATOM     38  C   UNL A   1      37.828  30.920  29.509  1.00  0.00     0.031 C 
ATOM     39  C   UNL A   1      37.181  33.934  33.493  1.00  0.00     0.029 A 
ATOM     40  N   UNL A   1      38.847  32.447  33.584  1.00  0.00    -0.354 N 
ATOM     41  C   UNL A   1      39.520  29.648  30.368  1.00  0.00     0.074 A 
ATOM     42  C   UNL A   1      38.564  29.839  29.300  1.00  0.00     0.031 C 
ATOM     43  C   UNL A   1      37.767  34.059  34.694  1.00  0.00     0.029 A 
ATOM     44  C   UNL A   1      38.846  33.082  34.804  1.00  0.00     0.049 A 
ATOM     45  H   UNL A   1      39.491  31.741  33.345  1.00  0.00     0.167 HD
ATOM     46  C   UNL A   1      40.487  28.699  30.360  1.00  0.00     0.034 A 
ATOM     47  C   UNL A   1      39.621  32.896  35.890  1.00  0.00     0.034 A 
ATOM     48  C   UNL A   1      41.464  28.539  31.401  1.00  0.00     0.049 A 
ATOM     49  C   UNL A   1      40.715  31.864  35.841  1.00  0.00     0.074 A 
ATOM     50  C   UNL A   1      42.536  27.667  31.449  1.00  0.00     0.029 A 
ATOM     51  N   UNL A   1      41.485  29.264  32.584  1.00  0.00    -0.354 N 
ATOM     52  N   UNL A   1      41.042  31.053  34.863  1.00  0.00    -0.248 NA
ATOM     53  C   UNL A   1      41.572  31.746  37.029  1.00  0.00     0.031 C 
ATOM     54  C   UNL A   1      43.190  27.844  32.673  1.00  0.00     0.029 A 
ATOM     55  C   UNL A   1      42.548  28.854  33.371  1.00  0.00     0.049 A 
ATOM     56  H   UNL A   1      40.840  29.966  32.827  1.00  0.00     0.167 HD
ATOM     57  C   UNL A   1      42.166  30.363  35.299  1.00  0.00     0.074 A 
ATOM     58  C   UNL A   1      42.474  30.862  36.624  1.00  0.00     0.031 C 
ATOM     59  C   UNL A   1      42.877  29.398  34.664  1.00  0.00     0.034 A 
BRANCH  46  60
ATOM     60  C   UNL A   1      40.565  27.791  29.158  1.00  0.00     0.023 A 
ATOM     61  C   UNL A   1      39.695  26.686  29.062  1.00  0.00     0.012 A 
ATOM     62  C   UNL A   1      41.463  28.055  28.107  1.00  0.00     0.148 A 
ATOM     63  C   UNL A   1      39.748  25.832  27.961  1.00  0.00     0.002 A 
ATOM     64  C   UNL A   1      41.475  27.230  26.989  1.00  0.00     0.091 A 
ATOM     65  F   UNL A   1      42.297  29.099  28.224  1.00  0.00    -0.205 F 
ATOM     66  C   UNL A   1      40.630  26.110  26.920  1.00  0.00     0.022 A 
BRANCH  64  67
ATOM     67  S   UNL A   1      42.513  27.551  25.558  1.00  0.00     0.127 S 
ATOM     68  O   UNL A   1      41.914  28.775  25.029  1.00  0.00    -0.237 OA
ATOM     69  O   UNL A   1      43.830  27.732  26.168  1.00  0.00    -0.237 OA
ATOM     70  O   UNL A   1      42.395  26.378  24.705  1.00  0.00    -0.744 OA
ENDBRANCH  64  67
ENDBRANCH  46  60
BRANCH  47  71
ATOM     71  C   UNL A   1      39.439  33.757  37.094  1.00  0.00     0.023 A 
ATOM     72  C   UNL A   1      39.894  35.090  37.067  1.00  0.00     0.012 A 
ATOM     73  C   UNL A   1      38.798  33.274  38.252  1.00  0.00     0.148 A 
ATOM     74  C   UNL A   1      39.749  35.915  38.182  1.00  0.00     0.002 A 
ATOM     75  C   UNL A   1      38.607  34.118  39.340  1.00  0.00     0.091 A 
ATOM     76  F   UNL A   1      38.378  32.002  38.261  1.00  0.00    -0.205 F 
ATOM     77  C   UNL A   1      39.099  35.433  39.315  1.00  0.00     0.022 A 
BRANCH  75  78
ATOM     78  S   UNL A   1      37.667  33.628  40.790  1.00  0.00     0.127 S 
ATOM     79  O   UNL A   1      38.570  32.670  41.422  1.00  0.00    -0.237 OA
ATOM     80  O   UNL A   1      37.522  34.901  41.498  1.00  0.00    -0.237 OA
ATOM     81  O   UNL A   1      36.417  33.078  40.282  1.00  0.00    -0.744 OA
ENDBRANCH  75  78
ENDBRANCH  47  71
BRANCH  59  82
ATOM     82  C   UNL A   1      44.093  28.848  35.360  1.00  0.00     0.023 A 
ATOM     83  C   UNL A   1      45.357  29.434  35.148  1.00  0.00     0.012 A 
ATOM     84  C   UNL A   1      43.968  27.792  36.286  1.00  0.00     0.148 A 
ATOM     85  C   UNL A   1      46.482  28.955  35.819  1.00  0.00     0.002 A 
ATOM     86  C   UNL A   1      45.083  27.356  36.990  1.00  0.00     0.091 A 
ATOM     87  F   UNL A   1      42.761  27.235  36.461  1.00  0.00    -0.205 F 
ATOM     88  C   UNL A   1      46.343  27.926  36.748  1.00  0.00     0.022 A 
BRANCH  86  89
ATOM     89  S   UNL A   1      44.980  26.108  38.277  1.00  0.00     0.127 S 
ATOM     90  O   UNL A   1      46.361  26.054  38.751  1.00  0.00    -0.237 OA
ATOM     91  O   UNL A   1      44.035  26.710  39.218  1.00  0.00    -0.237 OA
ATOM     92  O   UNL A   1      44.494  24.898  37.626  1.00  0.00    -0.744 OA
ENDBRANCH  86  89
ENDBRANCH  59  82
ENDBRANCH  33  34
ENDBRANCH  25  28
ENDBRANCH  23  24
ENDBRANCH   1  23
TORSDOF 16
ENDMDL
MODEL 3
REMARK VINA RESULT:     -11.5      2.209      8.063
REMARK SMILES C[C@@H]1[C@@H](C(=O)NCCCCNC(=O)c2ccc(-c3c4nc(c(-c5cccc(S(=O)(=O)[O-])c5F)c5ccc([nH]5)c(-c5cccc(S(=O)(=O)[O-])c5F)c5nc(c(-c6cccc(S(=O)(=O)[O-])c6F)c6ccc3[nH]6)C=C5)C=C4)cc2)CCN1C(=O)Nc1nccs1
REMARK SMILES IDX 9 1 8 2 7 3 6 4 4 5 5 6 3 8 1 9 2 10 79 11 77 12 78 13 80 14
REMARK SMILES IDX 81 15 82 16 83 18 84 19 87 20 85 21 86 22 10 23 11 24 12 25
REMARK SMILES IDX 13 27 14 28 15 29 76 30 16 31 75 32 17 33 18 34 19 35 69 36
REMARK SMILES IDX 20 37 74 38 68 39 70 40 21 41 73 42 67 43 66 44 22 46 54 47
REMARK SMILES IDX 34 48 53 49 35 50 38 51 52 52 71 53 36 54 37 55 51 57 72 58
REMARK SMILES IDX 39 59 23 60 24 61 32 62 25 63 27 64 33 65 26 66 28 67 29 68
REMARK SMILES IDX 30 69 31 70 55 71 56 72 64 73 57 74 59 75 65 76 58 77 60 78
REMARK SMILES IDX 61 79 62 80 63 81 40 82 41 83 49 84 42 85 44 86 50 87 43 88
REMARK SMILES IDX 45 89 46 90 47 91 48 92
REMARK H PARENT 6 7 82 17 11 26 70 45 38 56
REMARK Flexibility Score: inf
ROOT
ATOM      1  C   UNL A   1      35.478  21.555  26.152  1.00  0.00     0.023 C 
ENDROOT
BRANCH   1   2
ATOM      2  C   UNL A   1      34.665  22.780  26.565  1.00  0.00     0.023 C 
BRANCH   2   3
ATOM      3  C   UNL A   1      33.198  22.514  26.878  1.00  0.00     0.116 C 
BRANCH   3   4
ATOM      4  N   UNL A   1      32.377  23.708  26.840  1.00  0.00    -0.356 N 
ATOM      5  C   UNL A   1      31.665  24.212  25.789  1.00  0.00     0.225 C 
ATOM      6  O   UNL A   1      30.979  25.215  25.983  1.00  0.00    -0.275 OA
ATOM      7  H   UNL A   1      32.327  24.220  27.678  1.00  0.00     0.163 HD
BRANCH   5   8
ATOM      8  C   UNL A   1      31.809  23.547  24.425  1.00  0.00     0.102 C 
ATOM      9  C   UNL A   1      33.560  22.932  22.729  1.00  0.00     0.032 C 
ATOM     10  C   UNL A   1      33.056  24.040  23.667  1.00  0.00     0.096 C 
ATOM     11  N   UNL A   1      32.587  25.197  22.892  1.00  0.00    -0.321 N 
ATOM     12  C   UNL A   1      30.678  23.895  23.456  1.00  0.00     0.037 C 
ATOM     13  C   UNL A   1      31.136  25.193  22.814  1.00  0.00     0.122 C 
BRANCH  11  14
ATOM     14  C   UNL A   1      33.224  26.342  22.505  1.00  0.00     0.323 C 
ATOM     15  O   UNL A   1      33.702  26.430  21.364  1.00  0.00    -0.248 OA
ATOM     16  N   UNL A   1      33.249  27.476  23.229  1.00  0.00    -0.283 N 
ATOM     17  H   UNL A   1      33.434  28.282  22.695  1.00  0.00     0.174 HD
BRANCH  16  18
ATOM     18  C   UNL A   1      33.070  27.726  24.551  1.00  0.00     0.190 A 
ATOM     19  N   UNL A   1      33.766  27.348  25.591  1.00  0.00    -0.228 NA
ATOM     20  S   UNL A   1      31.728  28.737  24.881  1.00  0.00    -0.105 S 
ATOM     21  C   UNL A   1      33.132  27.754  26.745  1.00  0.00     0.125 A 
ATOM     22  C   UNL A   1      31.980  28.487  26.560  1.00  0.00     0.088 A 
ENDBRANCH  16  18
ENDBRANCH  11  14
ENDBRANCH   5   8
ENDBRANCH   3   4
ENDBRANCH   2   3
ENDBRANCH   1   2
BRANCH   1  23
ATOM     23  C   UNL A   1      36.765  21.847  25.389  1.00  0.00     0.116 C 
BRANCH  23  24
ATOM     24  N   UNL A   1      37.791  20.835  25.595  1.00  0.00    -0.352 N 
ATOM     25  C   UNL A   1      39.090  20.977  26.031  1.00  0.00     0.251 C 
ATOM     26  H   UNL A   1      37.515  19.912  25.394  1.00  0.00     0.163 HD
ATOM     27  O   UNL A   1      39.849  20.019  26.007  1.00  0.00    -0.269 OA
BRANCH  25  28
ATOM     28  C   UNL A   1      39.566  22.298  26.497  1.00  0.00     0.039 A 
ATOM     29  C   UNL A   1      40.560  22.352  27.477  1.00  0.00     0.014 A 
ATOM     30  C   UNL A   1      39.050  23.477  25.956  1.00  0.00     0.014 A 
ATOM     31  C   UNL A   1      41.087  23.588  27.859  1.00  0.00     0.010 A 
ATOM     32  C   UNL A   1      39.640  24.697  26.267  1.00  0.00     0.010 A 
ATOM     33  C   UNL A   1      40.659  24.770  27.229  1.00  0.00    -0.014 A 
BRANCH  33  34
ATOM     34  C   UNL A   1      41.254  26.090  27.564  1.00  0.00     0.031 A 
ATOM     35  C   UNL A   1      42.670  26.402  27.159  1.00  0.00     0.074 A 
ATOM     36  C   UNL A   1      40.556  26.972  28.308  1.00  0.00     0.049 A 
ATOM     37  N   UNL A   1      43.387  27.465  27.420  1.00  0.00    -0.248 NA
ATOM     38  C   UNL A   1      43.387  25.372  26.389  1.00  0.00     0.031 C 
ATOM     39  C   UNL A   1      39.204  26.759  28.830  1.00  0.00     0.029 A 
ATOM     40  N   UNL A   1      40.898  28.215  28.778  1.00  0.00    -0.354 N 
ATOM     41  C   UNL A   1      44.646  27.214  26.883  1.00  0.00     0.074 A 
ATOM     42  C   UNL A   1      44.606  25.883  26.320  1.00  0.00     0.031 C 
ATOM     43  C   UNL A   1      38.831  27.836  29.538  1.00  0.00     0.029 A 
ATOM     44  C   UNL A   1      39.925  28.802  29.552  1.00  0.00     0.049 A 
ATOM     45  H   UNL A   1      41.761  28.647  28.579  1.00  0.00     0.167 HD
ATOM     46  C   UNL A   1      45.727  28.028  26.835  1.00  0.00     0.034 A 
ATOM     47  C   UNL A   1      39.915  29.981  30.204  1.00  0.00     0.034 A 
ATOM     48  C   UNL A   1      45.750  29.366  27.357  1.00  0.00     0.049 A 
ATOM     49  C   UNL A   1      41.115  30.885  30.100  1.00  0.00     0.074 A 
ATOM     50  C   UNL A   1      46.766  30.302  27.282  1.00  0.00     0.029 A 
ATOM     51  N   UNL A   1      44.710  29.960  28.057  1.00  0.00    -0.354 N 
ATOM     52  N   UNL A   1      42.242  30.690  29.459  1.00  0.00    -0.248 NA
ATOM     53  C   UNL A   1      41.027  32.187  30.777  1.00  0.00     0.031 C 
ATOM     54  C   UNL A   1      46.351  31.453  27.962  1.00  0.00     0.029 A 
ATOM     55  C   UNL A   1      45.062  31.247  28.427  1.00  0.00     0.049 A 
ATOM     56  H   UNL A   1      43.849  29.529  28.261  1.00  0.00     0.167 HD
ATOM     57  C   UNL A   1      42.977  31.859  29.617  1.00  0.00     0.074 A 
ATOM     58  C   UNL A   1      42.161  32.762  30.402  1.00  0.00     0.031 C 
ATOM     59  C   UNL A   1      44.219  32.156  29.160  1.00  0.00     0.034 A 
BRANCH  46  60
ATOM     60  C   UNL A   1      46.963  27.505  26.147  1.00  0.00     0.023 A 
ATOM     61  C   UNL A   1      47.171  27.782  24.779  1.00  0.00     0.012 A 
ATOM     62  C   UNL A   1      47.938  26.781  26.859  1.00  0.00     0.148 A 
ATOM     63  C   UNL A   1      48.306  27.309  24.122  1.00  0.00     0.002 A 
ATOM     64  C   UNL A   1      49.091  26.357  26.209  1.00  0.00     0.091 A 
ATOM     65  F   UNL A   1      47.715  26.509  28.153  1.00  0.00    -0.205 F 
ATOM     66  C   UNL A   1      49.270  26.606  24.839  1.00  0.00     0.022 A 
BRANCH  64  67
ATOM     67  S   UNL A   1      50.432  25.520  27.062  1.00  0.00     0.127 S 
ATOM     68  O   UNL A   1      51.380  25.293  25.972  1.00  0.00    -0.237 OA
ATOM     69  O   UNL A   1      50.853  26.526  28.036  1.00  0.00    -0.237 OA
ATOM     70  O   UNL A   1      49.850  24.319  27.644  1.00  0.00    -0.744 OA
ENDBRANCH  64  67
ENDBRANCH  46  60
BRANCH  47  71
ATOM     71  C   UNL A   1      38.700  30.410  30.955  1.00  0.00     0.023 A 
ATOM     72  C   UNL A   1      38.607  30.134  32.334  1.00  0.00     0.012 A 
ATOM     73  C   UNL A   1      37.653  31.107  30.322  1.00  0.00     0.148 A 
ATOM     74  C   UNL A   1      37.477  30.511  33.061  1.00  0.00     0.002 A 
ATOM     75  C   UNL A   1      36.556  31.529  31.064  1.00  0.00     0.091 A 
ATOM     76  F   UNL A   1      37.758  31.355  29.009  1.00  0.00    -0.205 F 
ATOM     77  C   UNL A   1      36.457  31.215  32.429  1.00  0.00     0.022 A 
BRANCH  75  78
ATOM     78  S   UNL A   1      35.255  32.554  30.367  1.00  0.00     0.127 S 
ATOM     79  O   UNL A   1      34.308  32.629  31.477  1.00  0.00    -0.237 OA
ATOM     80  O   UNL A   1      35.972  33.797  30.082  1.00  0.00    -0.237 OA
ATOM     81  O   UNL A   1      34.786  31.845  29.184  1.00  0.00    -0.744 OA
ENDBRANCH  75  78
ENDBRANCH  47  71
BRANCH  59  82
ATOM     82  C   UNL A   1      44.761  33.532  29.443  1.00  0.00     0.023 A 
ATOM     83  C   UNL A   1      45.408  33.801  30.665  1.00  0.00     0.012 A 
ATOM     84  C   UNL A   1      44.694  34.540  28.460  1.00  0.00     0.148 A 
ATOM     85  C   UNL A   1      45.947  35.063  30.919  1.00  0.00     0.002 A 
ATOM     86  C   UNL A   1      45.280  35.776  28.698  1.00  0.00     0.091 A 
ATOM     87  F   UNL A   1      44.059  34.270  27.310  1.00  0.00    -0.205 F 
ATOM     88  C   UNL A   1      45.894  36.044  29.932  1.00  0.00     0.022 A 
BRANCH  86  89
ATOM     89  S   UNL A   1      45.349  37.065  27.449  1.00  0.00     0.127 S 
ATOM     90  O   UNL A   1      43.932  37.354  27.241  1.00  0.00    -0.237 OA
ATOM     91  O   UNL A   1      46.094  38.122  28.134  1.00  0.00    -0.237 OA
ATOM     92  O   UNL A   1      46.042  36.481  26.308  1.00  0.00    -0.744 OA
ENDBRANCH  86  89
ENDBRANCH  59  82
ENDBRANCH  33  34
ENDBRANCH  25  28
ENDBRANCH  23  24
ENDBRANCH   1  23
TORSDOF 16
ENDMDL
