MODEL 1
REMARK VINA RESULT:     -12.0      0.000      0.000
REMARK SMILES O=C(COc1ccc2c(c1)O/C(=C\c1cccs1)C2=O)NCCCCNC(=O)c1ccc(-c2c3nc(c(-c4cccc(S(=O)(=O)[O-])c4F)c4ccc([nH]4)c(-c4cccc(S(=O)(=O)[O-])c4F)c4nc(c(-c5cccc(S(=O)(=O)[O-])c5F)c5ccc2[nH]5)C=C4)C=C3)cc1
REMARK SMILES IDX 23 1 22 2 21 3 1 4 2 5 3 7 4 8 5 9 6 10 10 11 7 12 9 13 8 14
REMARK SMILES IDX 11 15 19 16 12 17 20 18 13 19 14 20 15 21 18 22 16 23 17 24
REMARK SMILES IDX 24 25 25 26 26 27 27 28 28 30 29 31 30 32 91 33 31 34 90 35
REMARK SMILES IDX 32 36 33 37 34 38 84 39 35 40 89 41 83 42 85 43 36 44 88 45
REMARK SMILES IDX 82 46 81 47 37 49 69 50 49 51 68 52 50 53 53 54 67 55 86 56
REMARK SMILES IDX 51 57 52 58 66 60 87 61 54 62 38 63 39 64 47 65 40 66 42 67
REMARK SMILES IDX 48 68 41 69 43 70 44 71 45 72 46 73 70 74 71 75 79 76 72 77
REMARK SMILES IDX 74 78 80 79 73 80 75 81 76 82 77 83 78 84 55 85 56 86 64 87
REMARK SMILES IDX 57 88 59 89 65 90 58 91 60 92 61 93 62 94 63 95
REMARK H PARENT 21 6 26 29 85 48 53 59
REMARK Flexibility Score: inf
ROOT
ATOM      1  C   UNL A   1      31.602  29.539  25.604  1.00  0.00     0.023 C 
ENDROOT
BRANCH   1   2
ATOM      2  C   UNL A   1      31.040  29.108  24.255  1.00  0.00     0.116 C 
BRANCH   2   3
ATOM      3  N   UNL A   1      31.595  27.860  23.778  1.00  0.00    -0.353 N 
ATOM      4  O   UNL A   1      30.464  27.818  21.772  1.00  0.00    -0.271 OA
ATOM      5  C   UNL A   1      31.333  27.368  22.514  1.00  0.00     0.257 C 
ATOM      6  H   UNL A   1      32.183  27.343  24.376  1.00  0.00     0.163 HD
BRANCH   5   7
ATOM      7  C   UNL A   1      32.261  26.224  22.093  1.00  0.00     0.329 C 
BRANCH   7   8
ATOM      8  O   UNL A   1      33.585  26.299  22.630  1.00  0.00    -0.484 OA
BRANCH   8   9
ATOM      9  C   UNL A   1      33.838  25.346  23.584  1.00  0.00     0.123 A 
ATOM     10  C   UNL A   1      34.050  25.702  24.934  1.00  0.00     0.047 A 
ATOM     11  C   UNL A   1      33.748  24.003  23.203  1.00  0.00     0.094 A 
ATOM     12  C   UNL A   1      34.210  24.730  25.923  1.00  0.00     0.020 A 
ATOM     13  C   UNL A   1      33.908  23.053  24.191  1.00  0.00     0.142 A 
ATOM     14  C   UNL A   1      34.128  23.419  25.518  1.00  0.00     0.069 A 
ATOM     15  O   UNL A   1      33.847  21.690  24.018  1.00  0.00    -0.452 OA
ATOM     16  C   UNL A   1      34.203  22.198  26.305  1.00  0.00     0.232 C 
ATOM     17  C   UNL A   1      34.000  21.139  25.289  1.00  0.00     0.176 C 
ATOM     18  O   UNL A   1      34.401  22.091  27.497  1.00  0.00    -0.285 OA
ATOM     19  C   UNL A   1      33.937  19.839  25.601  1.00  0.00     0.070 C 
BRANCH  19  20
ATOM     20  C   UNL A   1      33.751  18.852  24.599  1.00  0.00     0.031 A 
ATOM     21  C   UNL A   1      34.595  17.824  24.217  1.00  0.00     0.020 A 
ATOM     22  S   UNL A   1      32.307  18.832  23.669  1.00  0.00    -0.144 S 
ATOM     23  C   UNL A   1      34.079  17.057  23.133  1.00  0.00     0.012 A 
ATOM     24  C   UNL A   1      32.851  17.518  22.721  1.00  0.00     0.065 A 
ENDBRANCH  19  20
ENDBRANCH   8   9
ENDBRANCH   7   8
ENDBRANCH   5   7
ENDBRANCH   2   3
ENDBRANCH   1   2
BRANCH   1  25
ATOM     25  C   UNL A   1      32.245  28.415  26.420  1.00  0.00     0.023 C 
BRANCH  25  26
ATOM     26  C   UNL A   1      33.491  28.802  27.210  1.00  0.00     0.116 C 
BRANCH  26  27
ATOM     27  N   UNL A   1      33.569  30.229  27.486  1.00  0.00    -0.352 N 
ATOM     28  C   UNL A   1      34.564  30.944  28.110  1.00  0.00     0.251 C 
ATOM     29  H   UNL A   1      32.798  30.759  27.182  1.00  0.00     0.163 HD
ATOM     30  O   UNL A   1      34.382  32.128  28.386  1.00  0.00    -0.269 OA
BRANCH  28  31
ATOM     31  C   UNL A   1      35.841  30.288  28.476  1.00  0.00     0.039 A 
ATOM     32  C   UNL A   1      36.914  30.353  27.583  1.00  0.00     0.014 A 
ATOM     33  C   UNL A   1      35.987  29.616  29.692  1.00  0.00     0.014 A 
ATOM     34  C   UNL A   1      38.150  29.806  27.940  1.00  0.00     0.010 A 
ATOM     35  C   UNL A   1      37.240  29.144  30.080  1.00  0.00     0.010 A 
ATOM     36  C   UNL A   1      38.337  29.233  29.208  1.00  0.00    -0.014 A 
BRANCH  36  37
ATOM     37  C   UNL A   1      39.672  28.742  29.645  1.00  0.00     0.031 A 
ATOM     38  C   UNL A   1      40.437  29.462  30.724  1.00  0.00     0.074 A 
ATOM     39  C   UNL A   1      40.234  27.691  29.017  1.00  0.00     0.049 A 
ATOM     40  N   UNL A   1      41.632  29.213  31.194  1.00  0.00    -0.248 NA
ATOM     41  C   UNL A   1      39.787  30.633  31.337  1.00  0.00     0.031 C 
ATOM     42  C   UNL A   1      39.633  26.949  27.906  1.00  0.00     0.029 A 
ATOM     43  N   UNL A   1      41.450  27.079  29.202  1.00  0.00    -0.354 N 
ATOM     44  C   UNL A   1      41.888  30.206  32.132  1.00  0.00     0.074 A 
ATOM     45  C   UNL A   1      40.741  31.087  32.135  1.00  0.00     0.031 C 
ATOM     46  C   UNL A   1      40.477  25.984  27.512  1.00  0.00     0.029 A 
ATOM     47  C   UNL A   1      41.695  26.058  28.312  1.00  0.00     0.049 A 
ATOM     48  H   UNL A   1      42.086  27.346  29.905  1.00  0.00     0.167 HD
ATOM     49  C   UNL A   1      42.968  30.359  32.936  1.00  0.00     0.034 A 
ATOM     50  C   UNL A   1      42.783  25.280  28.144  1.00  0.00     0.034 A 
ATOM     51  C   UNL A   1      44.099  29.470  32.949  1.00  0.00     0.049 A 
ATOM     52  C   UNL A   1      43.962  25.459  29.060  1.00  0.00     0.074 A 
ATOM     53  C   UNL A   1      45.205  29.499  33.780  1.00  0.00     0.029 A 
ATOM     54  N   UNL A   1      44.280  28.405  32.080  1.00  0.00    -0.354 N 
ATOM     55  N   UNL A   1      44.123  26.314  30.042  1.00  0.00    -0.248 NA
ATOM     56  C   UNL A   1      45.097  24.544  28.870  1.00  0.00     0.031 C 
ATOM     57  C   UNL A   1      46.073  28.473  33.389  1.00  0.00     0.029 A 
ATOM     58  C   UNL A   1      45.485  27.777  32.345  1.00  0.00     0.049 A 
ATOM     59  H   UNL A   1      43.644  28.134  31.380  1.00  0.00     0.167 HD
ATOM     60  C   UNL A   1      45.357  26.017  30.609  1.00  0.00     0.074 A 
ATOM     61  C   UNL A   1      45.893  24.889  29.875  1.00  0.00     0.031 C 
ATOM     62  C   UNL A   1      45.992  26.629  31.639  1.00  0.00     0.034 A 
BRANCH  49  63
ATOM     63  C   UNL A   1      42.961  31.518  33.903  1.00  0.00     0.023 A 
ATOM     64  C   UNL A   1      43.459  32.772  33.496  1.00  0.00     0.012 A 
ATOM     65  C   UNL A   1      42.411  31.381  35.193  1.00  0.00     0.148 A 
ATOM     66  C   UNL A   1      43.452  33.859  34.368  1.00  0.00     0.002 A 
ATOM     67  C   UNL A   1      42.361  32.482  36.041  1.00  0.00     0.091 A 
ATOM     68  F   UNL A   1      41.957  30.177  35.571  1.00  0.00    -0.205 F 
ATOM     69  C   UNL A   1      42.894  33.717  35.636  1.00  0.00     0.022 A 
BRANCH  67  70
ATOM     70  S   UNL A   1      41.587  32.426  37.660  1.00  0.00     0.127 S 
ATOM     71  O   UNL A   1      42.378  31.392  38.328  1.00  0.00    -0.237 OA
ATOM     72  O   UNL A   1      41.815  33.783  38.156  1.00  0.00    -0.237 OA
ATOM     73  O   UNL A   1      40.190  32.089  37.428  1.00  0.00    -0.744 OA
ENDBRANCH  67  70
ENDBRANCH  49  63
BRANCH  50  74
ATOM     74  C   UNL A   1      42.790  24.229  27.086  1.00  0.00     0.023 A 
ATOM     75  C   UNL A   1      43.482  24.456  25.881  1.00  0.00     0.012 A 
ATOM     76  C   UNL A   1      42.129  23.000  27.279  1.00  0.00     0.148 A 
ATOM     77  C   UNL A   1      43.488  23.491  24.873  1.00  0.00     0.002 A 
ATOM     78  C   UNL A   1      42.188  22.020  26.295  1.00  0.00     0.091 A 
ATOM     79  F   UNL A   1      41.469  22.809  28.430  1.00  0.00    -0.205 F 
ATOM     80  C   UNL A   1      42.850  22.270  25.083  1.00  0.00     0.022 A 
BRANCH  78  81
ATOM     81  S   UNL A   1      41.510  20.375  26.532  1.00  0.00     0.127 S 
ATOM     82  O   UNL A   1      40.073  20.637  26.510  1.00  0.00    -0.237 OA
ATOM     83  O   UNL A   1      42.026  19.667  25.361  1.00  0.00    -0.237 OA
ATOM     84  O   UNL A   1      42.045  19.905  27.803  1.00  0.00    -0.744 OA
ENDBRANCH  78  81
ENDBRANCH  50  74
BRANCH  62  85
ATOM     85  C   UNL A   1      47.322  26.068  32.074  1.00  0.00     0.023 A 
ATOM     86  C   UNL A   1      48.508  26.478  31.433  1.00  0.00     0.012 A 
ATOM     87  C   UNL A   1      47.399  25.185  33.170  1.00  0.00     0.148 A 
ATOM     88  C   UNL A   1      49.745  25.988  31.851  1.00  0.00     0.002 A 
ATOM     89  C   UNL A   1      48.639  24.744  33.616  1.00  0.00     0.091 A 
ATOM     90  F   UNL A   1      46.259  24.793  33.756  1.00  0.00    -0.205 F 
ATOM     91  C   UNL A   1      49.813  25.133  32.948  1.00  0.00     0.022 A 
BRANCH  89  92
ATOM     92  S   UNL A   1      48.831  23.721  35.079  1.00  0.00     0.127 S 
ATOM     93  O   UNL A   1      48.351  22.425  34.601  1.00  0.00    -0.237 OA
ATOM     94  O   UNL A   1      50.273  23.788  35.315  1.00  0.00    -0.237 OA
ATOM     95  O   UNL A   1      48.018  24.342  36.116  1.00  0.00    -0.744 OA
ENDBRANCH  89  92
ENDBRANCH  62  85
ENDBRANCH  36  37
ENDBRANCH  28  31
ENDBRANCH  26  27
ENDBRANCH  25  26
ENDBRANCH   1  25
TORSDOF 17
ENDMDL
MODEL 2
REMARK VINA RESULT:     -11.8      1.468      1.749
REMARK SMILES O=C(COc1ccc2c(c1)O/C(=C\c1cccs1)C2=O)NCCCCNC(=O)c1ccc(-c2c3nc(c(-c4cccc(S(=O)(=O)[O-])c4F)c4ccc([nH]4)c(-c4cccc(S(=O)(=O)[O-])c4F)c4nc(c(-c5cccc(S(=O)(=O)[O-])c5F)c5ccc2[nH]5)C=C4)C=C3)cc1
REMARK SMILES IDX 23 1 22 2 21 3 1 4 2 5 3 7 4 8 5 9 6 10 10 11 7 12 9 13 8 14
REMARK SMILES IDX 11 15 19 16 12 17 20 18 13 19 14 20 15 21 18 22 16 23 17 24
REMARK SMILES IDX 24 25 25 26 26 27 27 28 28 30 29 31 30 32 91 33 31 34 90 35
REMARK SMILES IDX 32 36 33 37 34 38 84 39 35 40 89 41 83 42 85 43 36 44 88 45
REMARK SMILES IDX 82 46 81 47 37 49 69 50 49 51 68 52 50 53 53 54 67 55 86 56
REMARK SMILES IDX 51 57 52 58 66 60 87 61 54 62 38 63 39 64 47 65 40 66 42 67
REMARK SMILES IDX 48 68 41 69 43 70 44 71 45 72 46 73 70 74 71 75 79 76 72 77
REMARK SMILES IDX 74 78 80 79 73 80 75 81 76 82 77 83 78 84 55 85 56 86 64 87
REMARK SMILES IDX 57 88 59 89 65 90 58 91 60 92 61 93 62 94 63 95
REMARK H PARENT 21 6 26 29 85 48 53 59
REMARK Flexibility Score: inf
ROOT
ATOM      1  C   UNL A   1      32.952  29.305  24.737  1.00  0.00     0.023 C 
ENDROOT
BRANCH   1   2
ATOM      2  C   UNL A   1      31.447  29.142  24.905  1.00  0.00     0.116 C 
BRANCH   2   3
ATOM      3  N   UNL A   1      31.001  27.774  24.759  1.00  0.00    -0.353 N 
ATOM      4  O   UNL A   1      30.057  28.024  22.674  1.00  0.00    -0.271 OA
ATOM      5  C   UNL A   1      30.427  27.301  23.595  1.00  0.00     0.257 C 
ATOM      6  H   UNL A   1      31.113  27.155  25.518  1.00  0.00     0.163 HD
BRANCH   5   7
ATOM      7  C   UNL A   1      30.330  25.774  23.530  1.00  0.00     0.329 C 
BRANCH   7   8
ATOM      8  O   UNL A   1      31.126  25.166  22.509  1.00  0.00    -0.484 OA
BRANCH   8   9
ATOM      9  C   UNL A   1      32.211  24.484  23.001  1.00  0.00     0.123 A 
ATOM     10  C   UNL A   1      33.325  25.169  23.533  1.00  0.00     0.047 A 
ATOM     11  C   UNL A   1      32.121  23.091  23.082  1.00  0.00     0.094 A 
ATOM     12  C   UNL A   1      34.385  24.480  24.122  1.00  0.00     0.020 A 
ATOM     13  C   UNL A   1      33.176  22.422  23.667  1.00  0.00     0.142 A 
ATOM     14  C   UNL A   1      34.276  23.110  24.177  1.00  0.00     0.069 A 
ATOM     15  O   UNL A   1      33.271  21.061  23.845  1.00  0.00    -0.452 OA
ATOM     16  C   UNL A   1      35.177  22.130  24.763  1.00  0.00     0.232 C 
ATOM     17  C   UNL A   1      34.467  20.850  24.529  1.00  0.00     0.176 C 
ATOM     18  O   UNL A   1      36.249  22.328  25.294  1.00  0.00    -0.285 OA
ATOM     19  C   UNL A   1      34.929  19.675  24.972  1.00  0.00     0.070 C 
BRANCH  19  20
ATOM     20  C   UNL A   1      34.226  18.468  24.720  1.00  0.00     0.031 A 
ATOM     21  C   UNL A   1      34.491  17.480  23.788  1.00  0.00     0.020 A 
ATOM     22  S   UNL A   1      32.837  18.073  25.649  1.00  0.00    -0.144 S 
ATOM     23  C   UNL A   1      33.529  16.431  23.803  1.00  0.00     0.012 A 
ATOM     24  C   UNL A   1      32.557  16.644  24.754  1.00  0.00     0.065 A 
ENDBRANCH  19  20
ENDBRANCH   8   9
ENDBRANCH   7   8
ENDBRANCH   5   7
ENDBRANCH   2   3
ENDBRANCH   1   2
BRANCH   1  25
ATOM     25  C   UNL A   1      33.798  28.563  25.774  1.00  0.00     0.023 C 
BRANCH  25  26
ATOM     26  C   UNL A   1      33.483  28.880  27.233  1.00  0.00     0.116 C 
BRANCH  26  27
ATOM     27  N   UNL A   1      33.557  30.302  27.534  1.00  0.00    -0.352 N 
ATOM     28  C   UNL A   1      34.547  31.007  28.178  1.00  0.00     0.251 C 
ATOM     29  H   UNL A   1      32.788  30.837  27.233  1.00  0.00     0.163 HD
ATOM     30  O   UNL A   1      34.361  32.185  28.474  1.00  0.00    -0.269 OA
BRANCH  28  31
ATOM     31  C   UNL A   1      35.821  30.347  28.542  1.00  0.00     0.039 A 
ATOM     32  C   UNL A   1      36.904  30.437  27.664  1.00  0.00     0.014 A 
ATOM     33  C   UNL A   1      35.955  29.644  29.743  1.00  0.00     0.014 A 
ATOM     34  C   UNL A   1      38.138  29.886  28.022  1.00  0.00     0.010 A 
ATOM     35  C   UNL A   1      37.205  29.167  30.133  1.00  0.00     0.010 A 
ATOM     36  C   UNL A   1      38.312  29.281  29.277  1.00  0.00    -0.014 A 
BRANCH  36  37
ATOM     37  C   UNL A   1      39.643  28.784  29.718  1.00  0.00     0.031 A 
ATOM     38  C   UNL A   1      40.414  29.505  30.791  1.00  0.00     0.074 A 
ATOM     39  C   UNL A   1      40.198  27.724  29.095  1.00  0.00     0.049 A 
ATOM     40  N   UNL A   1      41.607  29.251  31.263  1.00  0.00    -0.248 NA
ATOM     41  C   UNL A   1      39.772  30.684  31.397  1.00  0.00     0.031 C 
ATOM     42  C   UNL A   1      39.592  26.980  27.989  1.00  0.00     0.029 A 
ATOM     43  N   UNL A   1      41.410  27.105  29.285  1.00  0.00    -0.354 N 
ATOM     44  C   UNL A   1      41.870  30.248  32.195  1.00  0.00     0.074 A 
ATOM     45  C   UNL A   1      40.729  31.137  32.192  1.00  0.00     0.031 C 
ATOM     46  C   UNL A   1      40.429  26.006  27.601  1.00  0.00     0.029 A 
ATOM     47  C   UNL A   1      41.648  26.077  28.401  1.00  0.00     0.049 A 
ATOM     48  H   UNL A   1      42.048  27.372  29.986  1.00  0.00     0.167 HD
ATOM     49  C   UNL A   1      42.951  30.399  32.998  1.00  0.00     0.034 A 
ATOM     50  C   UNL A   1      42.730  25.290  28.238  1.00  0.00     0.034 A 
ATOM     51  C   UNL A   1      44.076  29.502  33.016  1.00  0.00     0.049 A 
ATOM     52  C   UNL A   1      43.911  25.467  29.153  1.00  0.00     0.074 A 
ATOM     53  C   UNL A   1      45.182  29.528  33.848  1.00  0.00     0.029 A 
ATOM     54  N   UNL A   1      44.249  28.430  32.155  1.00  0.00    -0.354 N 
ATOM     55  N   UNL A   1      44.077  26.327  30.130  1.00  0.00    -0.248 NA
ATOM     56  C   UNL A   1      45.039  24.543  28.970  1.00  0.00     0.031 C 
ATOM     57  C   UNL A   1      46.043  28.494  33.463  1.00  0.00     0.029 A 
ATOM     58  C   UNL A   1      45.450  27.795  32.424  1.00  0.00     0.049 A 
ATOM     59  H   UNL A   1      43.611  28.158  31.456  1.00  0.00     0.167 HD
ATOM     60  C   UNL A   1      45.309  26.025  30.698  1.00  0.00     0.074 A 
ATOM     61  C   UNL A   1      45.837  24.888  29.972  1.00  0.00     0.031 C 
ATOM     62  C   UNL A   1      45.949  26.638  31.725  1.00  0.00     0.034 A 
BRANCH  49  63
ATOM     63  C   UNL A   1      42.952  31.563  33.958  1.00  0.00     0.023 A 
ATOM     64  C   UNL A   1      43.400  32.827  33.523  1.00  0.00     0.012 A 
ATOM     65  C   UNL A   1      42.459  31.421  35.270  1.00  0.00     0.148 A 
ATOM     66  C   UNL A   1      43.399  33.920  34.389  1.00  0.00     0.002 A 
ATOM     67  C   UNL A   1      42.413  32.526  36.112  1.00  0.00     0.091 A 
ATOM     68  F   UNL A   1      42.052  30.208  35.673  1.00  0.00    -0.205 F 
ATOM     69  C   UNL A   1      42.896  33.772  35.678  1.00  0.00     0.022 A 
BRANCH  67  70
ATOM     70  S   UNL A   1      41.707  32.461  37.762  1.00  0.00     0.127 S 
ATOM     71  O   UNL A   1      41.962  33.818  38.245  1.00  0.00    -0.237 OA
ATOM     72  O   UNL A   1      40.301  32.169  37.481  1.00  0.00    -0.237 OA
ATOM     73  O   UNL A   1      42.420  31.405  38.464  1.00  0.00    -0.744 OA
ENDBRANCH  67  70
ENDBRANCH  49  63
BRANCH  50  74
ATOM     74  C   UNL A   1      42.730  24.232  27.188  1.00  0.00     0.023 A 
ATOM     75  C   UNL A   1      43.365  24.473  25.954  1.00  0.00     0.012 A 
ATOM     76  C   UNL A   1      42.118  22.984  27.414  1.00  0.00     0.148 A 
ATOM     77  C   UNL A   1      43.363  23.502  24.952  1.00  0.00     0.002 A 
ATOM     78  C   UNL A   1      42.170  22.000  26.434  1.00  0.00     0.091 A 
ATOM     79  F   UNL A   1      41.511  22.779  28.592  1.00  0.00    -0.205 F 
ATOM     80  C   UNL A   1      42.774  22.263  25.195  1.00  0.00     0.022 A 
BRANCH  78  81
ATOM     81  S   UNL A   1      41.557  20.335  26.708  1.00  0.00     0.127 S 
ATOM     82  O   UNL A   1      40.127  20.570  26.898  1.00  0.00    -0.237 OA
ATOM     83  O   UNL A   1      41.912  19.675  25.451  1.00  0.00    -0.237 OA
ATOM     84  O   UNL A   1      42.273  19.835  27.873  1.00  0.00    -0.744 OA
ENDBRANCH  78  81
ENDBRANCH  50  74
BRANCH  62  85
ATOM     85  C   UNL A   1      47.275  26.071  32.164  1.00  0.00     0.023 A 
ATOM     86  C   UNL A   1      47.337  25.167  33.242  1.00  0.00     0.012 A 
ATOM     87  C   UNL A   1      48.453  26.385  31.456  1.00  0.00     0.148 A 
ATOM     88  C   UNL A   1      48.556  24.614  33.634  1.00  0.00     0.002 A 
ATOM     89  C   UNL A   1      49.654  25.787  31.817  1.00  0.00     0.091 A 
ATOM     90  F   UNL A   1      48.376  27.260  30.443  1.00  0.00    -0.205 F 
ATOM     91  C   UNL A   1      49.711  24.913  32.915  1.00  0.00     0.022 A 
BRANCH  89  92
ATOM     92  S   UNL A   1      51.172  26.035  30.890  1.00  0.00     0.127 S 
ATOM     93  O   UNL A   1      51.374  27.476  31.029  1.00  0.00    -0.237 OA
ATOM     94  O   UNL A   1      52.126  25.212  31.634  1.00  0.00    -0.237 OA
ATOM     95  O   UNL A   1      50.899  25.573  29.536  1.00  0.00    -0.744 OA
ENDBRANCH  89  92
ENDBRANCH  62  85
ENDBRANCH  36  37
ENDBRANCH  28  31
ENDBRANCH  26  27
ENDBRANCH  25  26
ENDBRANCH   1  25
TORSDOF 17
ENDMDL
MODEL 3
REMARK VINA RESULT:     -11.6      3.555      8.684
REMARK SMILES O=C(COc1ccc2c(c1)O/C(=C\c1cccs1)C2=O)NCCCCNC(=O)c1ccc(-c2c3nc(c(-c4cccc(S(=O)(=O)[O-])c4F)c4ccc([nH]4)c(-c4cccc(S(=O)(=O)[O-])c4F)c4nc(c(-c5cccc(S(=O)(=O)[O-])c5F)c5ccc2[nH]5)C=C4)C=C3)cc1
REMARK SMILES IDX 23 1 22 2 21 3 1 4 2 5 3 7 4 8 5 9 6 10 10 11 7 12 9 13 8 14
REMARK SMILES IDX 11 15 19 16 12 17 20 18 13 19 14 20 15 21 18 22 16 23 17 24
REMARK SMILES IDX 24 25 25 26 26 27 27 28 28 30 29 31 30 32 91 33 31 34 90 35
REMARK SMILES IDX 32 36 33 37 34 38 84 39 35 40 89 41 83 42 85 43 36 44 88 45
REMARK SMILES IDX 82 46 81 47 37 49 69 50 49 51 68 52 50 53 53 54 67 55 86 56
REMARK SMILES IDX 51 57 52 58 66 60 87 61 54 62 38 63 39 64 47 65 40 66 42 67
REMARK SMILES IDX 48 68 41 69 43 70 44 71 45 72 46 73 70 74 71 75 79 76 72 77
REMARK SMILES IDX 74 78 80 79 73 80 75 81 76 82 77 83 78 84 55 85 56 86 64 87
REMARK SMILES IDX 57 88 59 89 65 90 58 91 60 92 61 93 62 94 63 95
REMARK H PARENT 21 6 26 29 85 48 53 59
REMARK Flexibility Score: inf
ROOT
ATOM      1  C   UNL A   1      31.697  30.980  26.632  1.00  0.00     0.023 C 
ENDROOT
BRANCH   1   2
ATOM      2  C   UNL A   1      32.234  29.978  25.619  1.00  0.00     0.116 C 
BRANCH   2   3
ATOM      3  N   UNL A   1      31.365  29.800  24.476  1.00  0.00    -0.353 N 
ATOM      4  O   UNL A   1      32.987  29.045  23.025  1.00  0.00    -0.271 OA
ATOM      5  C   UNL A   1      31.804  29.244  23.290  1.00  0.00     0.257 C 
ATOM      6  H   UNL A   1      30.425  30.086  24.546  1.00  0.00     0.163 HD
BRANCH   5   7
ATOM      7  C   UNL A   1      30.672  28.848  22.338  1.00  0.00     0.329 C 
BRANCH   7   8
ATOM      8  O   UNL A   1      30.592  27.449  22.051  1.00  0.00    -0.484 OA
BRANCH   8   9
ATOM      9  C   UNL A   1      30.626  26.662  23.175  1.00  0.00     0.123 A 
ATOM     10  C   UNL A   1      29.578  26.691  24.120  1.00  0.00     0.047 A 
ATOM     11  C   UNL A   1      31.666  25.733  23.286  1.00  0.00     0.094 A 
ATOM     12  C   UNL A   1      29.562  25.822  25.211  1.00  0.00     0.020 A 
ATOM     13  C   UNL A   1      31.637  24.879  24.370  1.00  0.00     0.142 A 
ATOM     14  C   UNL A   1      30.602  24.928  25.303  1.00  0.00     0.069 A 
ATOM     15  O   UNL A   1      32.560  23.898  24.650  1.00  0.00    -0.452 OA
ATOM     16  C   UNL A   1      30.841  23.878  26.281  1.00  0.00     0.232 C 
ATOM     17  C   UNL A   1      32.094  23.254  25.794  1.00  0.00     0.176 C 
ATOM     18  O   UNL A   1      30.176  23.605  27.258  1.00  0.00    -0.285 OA
ATOM     19  C   UNL A   1      32.647  22.187  26.383  1.00  0.00     0.070 C 
BRANCH  19  20
ATOM     20  C   UNL A   1      33.854  21.623  25.895  1.00  0.00     0.031 A 
ATOM     21  C   UNL A   1      34.046  20.460  25.170  1.00  0.00     0.020 A 
ATOM     22  S   UNL A   1      35.350  22.417  26.181  1.00  0.00    -0.144 S 
ATOM     23  C   UNL A   1      35.419  20.197  24.897  1.00  0.00     0.012 A 
ATOM     24  C   UNL A   1      36.238  21.173  25.416  1.00  0.00     0.065 A 
ENDBRANCH  19  20
ENDBRANCH   8   9
ENDBRANCH   7   8
ENDBRANCH   5   7
ENDBRANCH   2   3
ENDBRANCH   1   2
BRANCH   1  25
ATOM     25  C   UNL A   1      32.756  31.593  27.551  1.00  0.00     0.023 C 
BRANCH  25  26
ATOM     26  C   UNL A   1      33.427  32.861  27.031  1.00  0.00     0.116 C 
BRANCH  26  27
ATOM     27  N   UNL A   1      32.892  34.074  27.630  1.00  0.00    -0.352 N 
ATOM     28  C   UNL A   1      33.236  34.691  28.811  1.00  0.00     0.251 C 
ATOM     29  H   UNL A   1      32.180  34.519  27.117  1.00  0.00     0.163 HD
ATOM     30  O   UNL A   1      32.564  35.632  29.225  1.00  0.00    -0.269 OA
BRANCH  28  31
ATOM     31  C   UNL A   1      34.394  34.207  29.598  1.00  0.00     0.039 A 
ATOM     32  C   UNL A   1      34.165  33.369  30.692  1.00  0.00     0.014 A 
ATOM     33  C   UNL A   1      35.701  34.572  29.261  1.00  0.00     0.014 A 
ATOM     34  C   UNL A   1      35.248  32.840  31.402  1.00  0.00     0.010 A 
ATOM     35  C   UNL A   1      36.779  33.980  29.918  1.00  0.00     0.010 A 
ATOM     36  C   UNL A   1      36.566  33.108  30.997  1.00  0.00    -0.014 A 
BRANCH  36  37
ATOM     37  C   UNL A   1      37.726  32.470  31.674  1.00  0.00     0.031 A 
ATOM     38  C   UNL A   1      38.461  31.328  31.023  1.00  0.00     0.074 A 
ATOM     39  C   UNL A   1      38.075  32.866  32.915  1.00  0.00     0.049 A 
ATOM     40  N   UNL A   1      39.457  30.617  31.485  1.00  0.00    -0.248 NA
ATOM     41  C   UNL A   1      38.000  30.913  29.687  1.00  0.00     0.031 C 
ATOM     42  C   UNL A   1      37.399  33.909  33.690  1.00  0.00     0.029 A 
ATOM     43  N   UNL A   1      39.065  32.420  33.755  1.00  0.00    -0.354 N 
ATOM     44  C   UNL A   1      39.722  29.656  30.517  1.00  0.00     0.074 A 
ATOM     45  C   UNL A   1      38.755  29.849  29.458  1.00  0.00     0.031 C 
ATOM     46  C   UNL A   1      37.995  34.026  34.886  1.00  0.00     0.029 A 
ATOM     47  C   UNL A   1      39.069  33.041  34.983  1.00  0.00     0.049 A 
ATOM     48  H   UNL A   1      39.711  31.720  33.503  1.00  0.00     0.167 HD
ATOM     49  C   UNL A   1      40.696  28.714  30.496  1.00  0.00     0.034 A 
ATOM     50  C   UNL A   1      39.835  32.833  36.072  1.00  0.00     0.034 A 
ATOM     51  C   UNL A   1      41.671  28.538  31.538  1.00  0.00     0.049 A 
ATOM     52  C   UNL A   1      40.920  31.793  36.018  1.00  0.00     0.074 A 
ATOM     53  C   UNL A   1      42.743  27.663  31.573  1.00  0.00     0.029 A 
ATOM     54  N   UNL A   1      41.686  29.234  32.737  1.00  0.00    -0.354 N 
ATOM     55  N   UNL A   1      41.249  30.993  35.032  1.00  0.00    -0.248 NA
ATOM     56  C   UNL A   1      41.764  31.649  37.213  1.00  0.00     0.031 C 
ATOM     57  C   UNL A   1      43.383  27.803  32.809  1.00  0.00     0.029 A 
ATOM     58  C   UNL A   1      42.738  28.799  33.525  1.00  0.00     0.049 A 
ATOM     59  H   UNL A   1      41.044  29.936  32.990  1.00  0.00     0.167 HD
ATOM     60  C   UNL A   1      42.357  30.279  35.473  1.00  0.00     0.074 A 
ATOM     61  C   UNL A   1      42.658  30.757  36.807  1.00  0.00     0.031 C 
ATOM     62  C   UNL A   1      43.057  29.310  34.834  1.00  0.00     0.034 A 
BRANCH  49  63
ATOM     63  C   UNL A   1      40.779  27.821  29.283  1.00  0.00     0.023 A 
ATOM     64  C   UNL A   1      39.967  26.671  29.204  1.00  0.00     0.012 A 
ATOM     65  C   UNL A   1      41.618  28.148  28.199  1.00  0.00     0.148 A 
ATOM     66  C   UNL A   1      40.019  25.838  28.087  1.00  0.00     0.002 A 
ATOM     67  C   UNL A   1      41.627  27.340  27.067  1.00  0.00     0.091 A 
ATOM     68  F   UNL A   1      42.396  29.236  28.297  1.00  0.00    -0.205 F 
ATOM     69  C   UNL A   1      40.840  26.177  27.016  1.00  0.00     0.022 A 
BRANCH  67  70
ATOM     70  S   UNL A   1      42.585  27.735  25.600  1.00  0.00     0.127 S 
ATOM     71  O   UNL A   1      43.934  27.854  26.154  1.00  0.00    -0.237 OA
ATOM     72  O   UNL A   1      42.370  26.552  24.767  1.00  0.00    -0.237 OA
ATOM     73  O   UNL A   1      42.019  28.966  25.069  1.00  0.00    -0.744 OA
ENDBRANCH  67  70
ENDBRANCH  49  63
BRANCH  50  74
ATOM     74  C   UNL A   1      39.629  33.659  37.296  1.00  0.00     0.023 A 
ATOM     75  C   UNL A   1      40.215  34.937  37.383  1.00  0.00     0.012 A 
ATOM     76  C   UNL A   1      38.840  33.190  38.364  1.00  0.00     0.148 A 
ATOM     77  C   UNL A   1      40.047  35.720  38.526  1.00  0.00     0.002 A 
ATOM     78  C   UNL A   1      38.628  33.999  39.475  1.00  0.00     0.091 A 
ATOM     79  F   UNL A   1      38.299  31.968  38.265  1.00  0.00    -0.205 F 
ATOM     80  C   UNL A   1      39.246  35.256  39.567  1.00  0.00     0.022 A 
BRANCH  78  81
ATOM     81  S   UNL A   1      37.508  33.539  40.801  1.00  0.00     0.127 S 
ATOM     82  O   UNL A   1      36.339  33.073  40.058  1.00  0.00    -0.237 OA
ATOM     83  O   UNL A   1      38.266  32.489  41.482  1.00  0.00    -0.237 OA
ATOM     84  O   UNL A   1      37.311  34.747  41.591  1.00  0.00    -0.744 OA
ENDBRANCH  78  81
ENDBRANCH  50  74
BRANCH  62  85
ATOM     85  C   UNL A   1      44.252  28.724  35.543  1.00  0.00     0.023 A 
ATOM     86  C   UNL A   1      45.538  29.252  35.318  1.00  0.00     0.012 A 
ATOM     87  C   UNL A   1      44.085  27.692  36.488  1.00  0.00     0.148 A 
ATOM     88  C   UNL A   1      46.644  28.737  35.995  1.00  0.00     0.002 A 
ATOM     89  C   UNL A   1      45.182  27.222  37.198  1.00  0.00     0.091 A 
ATOM     90  F   UNL A   1      42.855  27.191  36.675  1.00  0.00    -0.205 F 
ATOM     91  C   UNL A   1      46.465  27.733  36.942  1.00  0.00     0.022 A 
BRANCH  89  92
ATOM     92  S   UNL A   1      45.034  25.999  38.506  1.00  0.00     0.127 S 
ATOM     93  O   UNL A   1      44.114  26.661  39.429  1.00  0.00    -0.237 OA
ATOM     94  O   UNL A   1      44.466  24.854  37.794  1.00  0.00    -0.237 OA
ATOM     95  O   UNL A   1      46.383  25.788  39.015  1.00  0.00    -0.744 OA
ENDBRANCH  89  92
ENDBRANCH  62  85
ENDBRANCH  36  37
ENDBRANCH  28  31
ENDBRANCH  26  27
ENDBRANCH  25  26
ENDBRANCH   1  25
TORSDOF 17
ENDMDL
