MODEL 1
REMARK VINA RESULT:     -11.4      0.000      0.000
REMARK SMILES C[C@H]1CN(CCC(=O)NCCCCNC(=O)c2ccc(-c3c4nc(c(-c5cccc(S(=O)(=O)[O-])c5F)c5ccc([nH]5)c(-c5cccc(S(=O)(=O)[O-])c5F)c5nc(c(-c6cccc(S(=O)(=O)[O-])c6F)c6ccc3[nH]6)C=C5)C=C4)cc2)S(=O)(=O)C1
REMARK SMILES IDX 12 1 11 2 10 3 9 4 7 5 8 6 6 8 5 9 4 10 1 11 2 12 3 13 83 14
REMARK SMILES IDX 80 15 81 16 82 17 13 18 14 19 15 20 16 22 17 23 18 24 79 25
REMARK SMILES IDX 19 26 78 27 20 28 21 29 22 30 72 31 23 32 77 33 71 34 73 35
REMARK SMILES IDX 24 36 76 37 70 38 69 39 25 41 57 42 37 43 56 44 38 45 41 46
REMARK SMILES IDX 55 47 74 48 39 49 40 50 54 52 75 53 42 54 26 55 27 56 35 57
REMARK SMILES IDX 28 58 30 59 36 60 29 61 31 62 32 63 33 64 34 65 58 66 59 67
REMARK SMILES IDX 67 68 60 69 62 70 68 71 61 72 63 73 64 74 65 75 66 76 43 77
REMARK SMILES IDX 44 78 52 79 45 80 47 81 53 82 46 83 48 84 49 85 50 86 51 87
REMARK H PARENT 9 7 14 21 73 40 41 51
REMARK Flexibility Score: inf
ROOT
ATOM      1  C   UNL A   1      31.467  29.084  25.402  1.00  0.00     0.023 C 
ENDROOT
BRANCH   1   2
ATOM      2  C   UNL A   1      30.734  29.567  24.160  1.00  0.00     0.023 C 
BRANCH   2   3
ATOM      3  C   UNL A   1      30.799  28.662  22.922  1.00  0.00     0.116 C 
BRANCH   3   4
ATOM      4  N   UNL A   1      32.142  28.531  22.384  1.00  0.00    -0.356 N 
ATOM      5  C   UNL A   1      33.027  27.496  22.374  1.00  0.00     0.221 C 
ATOM      6  O   UNL A   1      34.090  27.654  21.767  1.00  0.00    -0.275 OA
ATOM      7  H   UNL A   1      32.476  29.345  21.943  1.00  0.00     0.163 HD
BRANCH   5   8
ATOM      8  C   UNL A   1      32.733  26.161  23.031  1.00  0.00     0.116 C 
BRANCH   8   9
ATOM      9  C   UNL A   1      33.165  26.069  24.489  1.00  0.00     0.112 C 
BRANCH   9  10
ATOM     10  N   UNL A   1      32.794  24.825  25.192  1.00  0.00    -0.201 NA
ATOM     11  C   UNL A   1      32.335  22.396  22.893  1.00  0.00     0.010 C 
ATOM     12  C   UNL A   1      32.300  22.597  24.411  1.00  0.00     0.017 C 
ATOM     13  C   UNL A   1      33.421  23.536  24.909  1.00  0.00     0.106 C 
ATOM     14  C   UNL A   1      30.944  23.111  24.942  1.00  0.00     0.158 C 
ATOM     15  S   UNL A   1      31.281  24.601  25.885  1.00  0.00     0.214 S 
ATOM     16  O   UNL A   1      31.477  24.215  27.262  1.00  0.00    -0.212 OA
ATOM     17  O   UNL A   1      30.439  25.708  25.506  1.00  0.00    -0.212 OA
ENDBRANCH   9  10
ENDBRANCH   8   9
ENDBRANCH   5   8
ENDBRANCH   3   4
ENDBRANCH   2   3
ENDBRANCH   1   2
BRANCH   1  18
ATOM     18  C   UNL A   1      32.660  29.914  25.850  1.00  0.00     0.116 C 
BRANCH  18  19
ATOM     19  N   UNL A   1      32.359  31.137  26.590  1.00  0.00    -0.352 N 
ATOM     20  C   UNL A   1      33.210  31.906  27.366  1.00  0.00     0.251 C 
ATOM     21  H   UNL A   1      31.429  31.456  26.530  1.00  0.00     0.163 HD
ATOM     22  O   UNL A   1      32.814  32.948  27.879  1.00  0.00    -0.269 OA
BRANCH  20  23
ATOM     23  C   UNL A   1      34.579  31.409  27.633  1.00  0.00     0.039 A 
ATOM     24  C   UNL A   1      35.613  32.333  27.796  1.00  0.00     0.014 A 
ATOM     25  C   UNL A   1      34.795  30.059  27.906  1.00  0.00     0.014 A 
ATOM     26  C   UNL A   1      36.821  31.917  28.359  1.00  0.00     0.010 A 
ATOM     27  C   UNL A   1      35.933  29.686  28.610  1.00  0.00     0.010 A 
ATOM     28  C   UNL A   1      36.966  30.604  28.840  1.00  0.00    -0.014 A 
BRANCH  28  29
ATOM     29  C   UNL A   1      38.184  30.189  29.589  1.00  0.00     0.031 A 
ATOM     30  C   UNL A   1      38.408  30.663  31.004  1.00  0.00     0.074 A 
ATOM     31  C   UNL A   1      39.125  29.435  28.981  1.00  0.00     0.049 A 
ATOM     32  N   UNL A   1      39.385  30.376  31.824  1.00  0.00    -0.248 NA
ATOM     33  C   UNL A   1      37.430  31.615  31.560  1.00  0.00     0.031 C 
ATOM     34  C   UNL A   1      39.100  29.013  27.576  1.00  0.00     0.029 A 
ATOM     35  N   UNL A   1      40.292  28.892  29.461  1.00  0.00    -0.354 N 
ATOM     36  C   UNL A   1      39.157  31.133  32.966  1.00  0.00     0.074 A 
ATOM     37  C   UNL A   1      37.989  31.943  32.713  1.00  0.00     0.031 C 
ATOM     38  C   UNL A   1      40.174  28.245  27.324  1.00  0.00     0.029 A 
ATOM     39  C   UNL A   1      40.980  28.142  28.535  1.00  0.00     0.049 A 
ATOM     40  H   UNL A   1      40.606  29.027  30.384  1.00  0.00     0.167 HD
ATOM     41  C   UNL A   1      39.827  31.126  34.142  1.00  0.00     0.034 A 
ATOM     42  C   UNL A   1      42.125  27.440  28.650  1.00  0.00     0.034 A 
ATOM     43  C   UNL A   1      40.961  30.287  34.409  1.00  0.00     0.049 A 
ATOM     44  C   UNL A   1      42.810  27.386  29.989  1.00  0.00     0.074 A 
ATOM     45  C   UNL A   1      41.654  30.127  35.595  1.00  0.00     0.029 A 
ATOM     46  N   UNL A   1      41.576  29.471  33.473  1.00  0.00    -0.354 N 
ATOM     47  N   UNL A   1      42.471  27.969  31.114  1.00  0.00    -0.248 NA
ATOM     48  C   UNL A   1      44.008  26.541  30.088  1.00  0.00     0.031 C 
ATOM     49  C   UNL A   1      42.712  29.243  35.366  1.00  0.00     0.029 A 
ATOM     50  C   UNL A   1      42.649  28.815  34.049  1.00  0.00     0.049 A 
ATOM     51  H   UNL A   1      41.292  29.373  32.535  1.00  0.00     0.167 HD
ATOM     52  C   UNL A   1      43.392  27.535  32.061  1.00  0.00     0.074 A 
ATOM     53  C   UNL A   1      44.282  26.615  31.383  1.00  0.00     0.031 C 
ATOM     54  C   UNL A   1      43.503  27.876  33.370  1.00  0.00     0.034 A 
BRANCH  41  55
ATOM     55  C   UNL A   1      39.319  32.024  35.242  1.00  0.00     0.023 A 
ATOM     56  C   UNL A   1      38.346  31.545  36.146  1.00  0.00     0.012 A 
ATOM     57  C   UNL A   1      39.831  33.324  35.405  1.00  0.00     0.148 A 
ATOM     58  C   UNL A   1      37.861  32.361  37.167  1.00  0.00     0.002 A 
ATOM     59  C   UNL A   1      39.383  34.113  36.458  1.00  0.00     0.091 A 
ATOM     60  F   UNL A   1      40.737  33.770  34.522  1.00  0.00    -0.205 F 
ATOM     61  C   UNL A   1      38.387  33.639  37.329  1.00  0.00     0.022 A 
BRANCH  59  62
ATOM     62  S   UNL A   1      40.055  35.740  36.806  1.00  0.00     0.127 S 
ATOM     63  O   UNL A   1      41.488  35.458  36.876  1.00  0.00    -0.237 OA
ATOM     64  O   UNL A   1      39.640  36.500  35.627  1.00  0.00    -0.237 OA
ATOM     65  O   UNL A   1      39.445  36.170  38.057  1.00  0.00    -0.744 OA
ENDBRANCH  59  62
ENDBRANCH  41  55
BRANCH  42  66
ATOM     66  C   UNL A   1      42.662  26.673  27.487  1.00  0.00     0.023 A 
ATOM     67  C   UNL A   1      43.528  27.303  26.570  1.00  0.00     0.012 A 
ATOM     68  C   UNL A   1      42.326  25.320  27.289  1.00  0.00     0.148 A 
ATOM     69  C   UNL A   1      44.013  26.614  25.457  1.00  0.00     0.002 A 
ATOM     70  C   UNL A   1      42.860  24.623  26.213  1.00  0.00     0.091 A 
ATOM     71  F   UNL A   1      41.493  24.741  28.166  1.00  0.00    -0.205 F 
ATOM     72  C   UNL A   1      43.687  25.272  25.284  1.00  0.00     0.022 A 
BRANCH  70  73
ATOM     73  S   UNL A   1      42.601  22.860  25.986  1.00  0.00     0.127 S 
ATOM     74  O   UNL A   1      43.362  22.300  27.100  1.00  0.00    -0.237 OA
ATOM     75  O   UNL A   1      41.147  22.751  26.116  1.00  0.00    -0.237 OA
ATOM     76  O   UNL A   1      43.108  22.556  24.655  1.00  0.00    -0.744 OA
ENDBRANCH  70  73
ENDBRANCH  42  66
BRANCH  54  77
ATOM     77  C   UNL A   1      44.602  27.220  34.163  1.00  0.00     0.023 A 
ATOM     78  C   UNL A   1      45.899  27.770  34.167  1.00  0.00     0.012 A 
ATOM     79  C   UNL A   1      44.336  26.075  34.940  1.00  0.00     0.148 A 
ATOM     80  C   UNL A   1      46.927  27.157  34.882  1.00  0.00     0.002 A 
ATOM     81  C   UNL A   1      45.350  25.505  35.697  1.00  0.00     0.091 A 
ATOM     82  F   UNL A   1      43.099  25.557  34.914  1.00  0.00    -0.205 F 
ATOM     83  C   UNL A   1      46.650  26.032  35.654  1.00  0.00     0.022 A 
BRANCH  81  84
ATOM     84  S   UNL A   1      45.056  24.120  36.802  1.00  0.00     0.127 S 
ATOM     85  O   UNL A   1      44.132  24.705  37.772  1.00  0.00    -0.237 OA
ATOM     86  O   UNL A   1      44.456  23.131  35.906  1.00  0.00    -0.237 OA
ATOM     87  O   UNL A   1      46.362  23.744  37.326  1.00  0.00    -0.744 OA
ENDBRANCH  81  84
ENDBRANCH  54  77
ENDBRANCH  28  29
ENDBRANCH  20  23
ENDBRANCH  18  19
ENDBRANCH   1  18
TORSDOF 16
ENDMDL
MODEL 2
REMARK VINA RESULT:     -11.3      3.547      6.270
REMARK SMILES C[C@H]1CN(CCC(=O)NCCCCNC(=O)c2ccc(-c3c4nc(c(-c5cccc(S(=O)(=O)[O-])c5F)c5ccc([nH]5)c(-c5cccc(S(=O)(=O)[O-])c5F)c5nc(c(-c6cccc(S(=O)(=O)[O-])c6F)c6ccc3[nH]6)C=C5)C=C4)cc2)S(=O)(=O)C1
REMARK SMILES IDX 12 1 11 2 10 3 9 4 7 5 8 6 6 8 5 9 4 10 1 11 2 12 3 13 83 14
REMARK SMILES IDX 80 15 81 16 82 17 13 18 14 19 15 20 16 22 17 23 18 24 79 25
REMARK SMILES IDX 19 26 78 27 20 28 21 29 22 30 72 31 23 32 77 33 71 34 73 35
REMARK SMILES IDX 24 36 76 37 70 38 69 39 25 41 57 42 37 43 56 44 38 45 41 46
REMARK SMILES IDX 55 47 74 48 39 49 40 50 54 52 75 53 42 54 26 55 27 56 35 57
REMARK SMILES IDX 28 58 30 59 36 60 29 61 31 62 32 63 33 64 34 65 58 66 59 67
REMARK SMILES IDX 67 68 60 69 62 70 68 71 61 72 63 73 64 74 65 75 66 76 43 77
REMARK SMILES IDX 44 78 52 79 45 80 47 81 53 82 46 83 48 84 49 85 50 86 51 87
REMARK H PARENT 9 7 14 21 73 40 41 51
REMARK Flexibility Score: inf
ROOT
ATOM      1  C   UNL A   1      33.013  33.612  28.050  1.00  0.00     0.023 C 
ENDROOT
BRANCH   1   2
ATOM      2  C   UNL A   1      33.346  34.920  28.753  1.00  0.00     0.023 C 
BRANCH   2   3
ATOM      3  C   UNL A   1      33.702  34.831  30.244  1.00  0.00     0.116 C 
BRANCH   3   4
ATOM      4  N   UNL A   1      32.772  35.554  31.094  1.00  0.00    -0.356 N 
ATOM      5  C   UNL A   1      32.952  36.304  32.216  1.00  0.00     0.221 C 
ATOM      6  O   UNL A   1      31.964  36.870  32.694  1.00  0.00    -0.275 OA
ATOM      7  H   UNL A   1      31.833  35.488  30.805  1.00  0.00     0.163 HD
BRANCH   5   8
ATOM      8  C   UNL A   1      34.312  36.507  32.856  1.00  0.00     0.116 C 
BRANCH   8   9
ATOM      9  C   UNL A   1      34.741  35.381  33.789  1.00  0.00     0.112 C 
BRANCH   9  10
ATOM     10  N   UNL A   1      36.129  34.906  33.627  1.00  0.00    -0.201 NA
ATOM     11  C   UNL A   1      36.133  32.362  31.408  1.00  0.00     0.010 C 
ATOM     12  C   UNL A   1      37.110  33.174  32.263  1.00  0.00     0.017 C 
ATOM     13  C   UNL A   1      36.741  34.674  32.320  1.00  0.00     0.106 C 
ATOM     14  C   UNL A   1      37.268  32.643  33.706  1.00  0.00     0.158 C 
ATOM     15  S   UNL A   1      36.918  34.016  34.810  1.00  0.00     0.214 S 
ATOM     16  O   UNL A   1      38.170  34.674  35.101  1.00  0.00    -0.212 OA
ATOM     17  O   UNL A   1      35.965  33.680  35.838  1.00  0.00    -0.212 OA
ENDBRANCH   9  10
ENDBRANCH   8   9
ENDBRANCH   5   8
ENDBRANCH   3   4
ENDBRANCH   2   3
ENDBRANCH   1   2
BRANCH   1  18
ATOM     18  C   UNL A   1      34.064  32.515  28.127  1.00  0.00     0.116 C 
BRANCH  18  19
ATOM     19  N   UNL A   1      33.787  31.295  27.374  1.00  0.00    -0.352 N 
ATOM     20  C   UNL A   1      34.501  30.109  27.363  1.00  0.00     0.251 C 
ATOM     21  H   UNL A   1      32.990  31.321  26.797  1.00  0.00     0.163 HD
ATOM     22  O   UNL A   1      34.100  29.147  26.715  1.00  0.00    -0.269 OA
BRANCH  20  23
ATOM     23  C   UNL A   1      35.795  30.046  28.080  1.00  0.00     0.039 A 
ATOM     24  C   UNL A   1      35.830  29.505  29.366  1.00  0.00     0.014 A 
ATOM     25  C   UNL A   1      36.982  30.345  27.412  1.00  0.00     0.014 A 
ATOM     26  C   UNL A   1      37.057  29.142  29.924  1.00  0.00     0.010 A 
ATOM     27  C   UNL A   1      38.178  29.838  27.902  1.00  0.00     0.010 A 
ATOM     28  C   UNL A   1      38.238  29.236  29.167  1.00  0.00    -0.014 A 
BRANCH  28  29
ATOM     29  C   UNL A   1      39.528  28.704  29.684  1.00  0.00     0.031 A 
ATOM     30  C   UNL A   1      40.164  29.306  30.912  1.00  0.00     0.074 A 
ATOM     31  C   UNL A   1      40.166  27.716  29.018  1.00  0.00     0.049 A 
ATOM     32  N   UNL A   1      41.261  28.951  31.530  1.00  0.00    -0.248 NA
ATOM     33  C   UNL A   1      39.508  30.486  31.503  1.00  0.00     0.031 C 
ATOM     34  C   UNL A   1      39.730  27.130  27.746  1.00  0.00     0.029 A 
ATOM     35  N   UNL A   1      41.321  27.034  29.310  1.00  0.00    -0.354 N 
ATOM     36  C   UNL A   1      41.439  29.879  32.549  1.00  0.00     0.074 A 
ATOM     37  C   UNL A   1      40.379  30.850  32.430  1.00  0.00     0.031 C 
ATOM     38  C   UNL A   1      40.580  26.151  27.394  1.00  0.00     0.029 A 
ATOM     39  C   UNL A   1      41.638  26.057  28.394  1.00  0.00     0.049 A 
ATOM     40  H   UNL A   1      41.872  27.226  30.103  1.00  0.00     0.167 HD
ATOM     41  C   UNL A   1      42.372  29.899  33.529  1.00  0.00     0.034 A 
ATOM     42  C   UNL A   1      42.658  25.176  28.367  1.00  0.00     0.034 A 
ATOM     43  C   UNL A   1      43.399  28.906  33.675  1.00  0.00     0.049 A 
ATOM     44  C   UNL A   1      43.638  25.169  29.510  1.00  0.00     0.074 A 
ATOM     45  C   UNL A   1      44.334  28.776  34.686  1.00  0.00     0.029 A 
ATOM     46  N   UNL A   1      43.634  27.877  32.777  1.00  0.00    -0.354 N 
ATOM     47  N   UNL A   1      43.681  25.945  30.567  1.00  0.00    -0.248 NA
ATOM     48  C   UNL A   1      44.684  24.138  29.480  1.00  0.00     0.031 C 
ATOM     49  C   UNL A   1      45.158  27.689  34.379  1.00  0.00     0.029 A 
ATOM     50  C   UNL A   1      44.706  27.114  33.202  1.00  0.00     0.049 A 
ATOM     51  H   UNL A   1      43.114  27.714  31.957  1.00  0.00     0.167 HD
ATOM     52  C   UNL A   1      44.733  25.474  31.343  1.00  0.00     0.074 A 
ATOM     53  C   UNL A   1      45.279  24.326  30.650  1.00  0.00     0.031 C 
ATOM     54  C   UNL A   1      45.215  25.953  32.518  1.00  0.00     0.034 A 
BRANCH  41  55
ATOM     55  C   UNL A   1      42.293  31.010  34.547  1.00  0.00     0.023 A 
ATOM     56  C   UNL A   1      41.564  30.818  35.740  1.00  0.00     0.012 A 
ATOM     57  C   UNL A   1      42.970  32.226  34.340  1.00  0.00     0.148 A 
ATOM     58  C   UNL A   1      41.475  31.833  36.691  1.00  0.00     0.002 A 
ATOM     59  C   UNL A   1      42.922  33.213  35.317  1.00  0.00     0.091 A 
ATOM     60  F   UNL A   1      43.637  32.399  33.190  1.00  0.00    -0.205 F 
ATOM     61  C   UNL A   1      42.164  33.025  36.485  1.00  0.00     0.022 A 
BRANCH  59  62
ATOM     62  S   UNL A   1      43.840  34.750  35.188  1.00  0.00     0.127 S 
ATOM     63  O   UNL A   1      43.274  35.331  33.972  1.00  0.00    -0.237 OA
ATOM     64  O   UNL A   1      43.463  35.435  36.424  1.00  0.00    -0.237 OA
ATOM     65  O   UNL A   1      45.245  34.375  35.102  1.00  0.00    -0.744 OA
ENDBRANCH  59  62
ENDBRANCH  41  55
BRANCH  42  66
ATOM     66  C   UNL A   1      42.768  24.180  27.262  1.00  0.00     0.023 A 
ATOM     67  C   UNL A   1      43.538  24.482  26.119  1.00  0.00     0.012 A 
ATOM     68  C   UNL A   1      42.122  22.932  27.338  1.00  0.00     0.148 A 
ATOM     69  C   UNL A   1      43.626  23.578  25.059  1.00  0.00     0.002 A 
ATOM     70  C   UNL A   1      42.263  22.013  26.306  1.00  0.00     0.091 A 
ATOM     71  F   UNL A   1      41.386  22.666  28.427  1.00  0.00    -0.205 F 
ATOM     72  C   UNL A   1      42.997  22.341  25.156  1.00  0.00     0.022 A 
BRANCH  70  73
ATOM     73  S   UNL A   1      41.597  20.347  26.404  1.00  0.00     0.127 S 
ATOM     74  O   UNL A   1      42.048  19.923  27.727  1.00  0.00    -0.237 OA
ATOM     75  O   UNL A   1      40.158  20.592  26.292  1.00  0.00    -0.237 OA
ATOM     76  O   UNL A   1      42.173  19.627  25.277  1.00  0.00    -0.744 OA
ENDBRANCH  70  73
ENDBRANCH  42  66
BRANCH  54  77
ATOM     77  C   UNL A   1      46.367  25.214  33.145  1.00  0.00     0.023 A 
ATOM     78  C   UNL A   1      47.690  25.645  32.924  1.00  0.00     0.012 A 
ATOM     79  C   UNL A   1      46.132  24.110  33.989  1.00  0.00     0.148 A 
ATOM     80  C   UNL A   1      48.764  24.953  33.485  1.00  0.00     0.002 A 
ATOM     81  C   UNL A   1      47.202  23.463  34.592  1.00  0.00     0.091 A 
ATOM     82  F   UNL A   1      44.867  23.706  34.176  1.00  0.00    -0.205 F 
ATOM     83  C   UNL A   1      48.519  23.869  34.325  1.00  0.00     0.022 A 
BRANCH  81  84
ATOM     84  S   UNL A   1      46.971  22.128  35.770  1.00  0.00     0.127 S 
ATOM     85  O   UNL A   1      46.318  21.113  34.945  1.00  0.00    -0.237 OA
ATOM     86  O   UNL A   1      48.348  21.811  36.153  1.00  0.00    -0.237 OA
ATOM     87  O   UNL A   1      46.160  22.681  36.846  1.00  0.00    -0.744 OA
ENDBRANCH  81  84
ENDBRANCH  54  77
ENDBRANCH  28  29
ENDBRANCH  20  23
ENDBRANCH  18  19
ENDBRANCH   1  18
TORSDOF 16
ENDMDL
MODEL 3
REMARK VINA RESULT:     -11.1      1.498      1.822
REMARK SMILES C[C@H]1CN(CCC(=O)NCCCCNC(=O)c2ccc(-c3c4nc(c(-c5cccc(S(=O)(=O)[O-])c5F)c5ccc([nH]5)c(-c5cccc(S(=O)(=O)[O-])c5F)c5nc(c(-c6cccc(S(=O)(=O)[O-])c6F)c6ccc3[nH]6)C=C5)C=C4)cc2)S(=O)(=O)C1
REMARK SMILES IDX 12 1 11 2 10 3 9 4 7 5 8 6 6 8 5 9 4 10 1 11 2 12 3 13 83 14
REMARK SMILES IDX 80 15 81 16 82 17 13 18 14 19 15 20 16 22 17 23 18 24 79 25
REMARK SMILES IDX 19 26 78 27 20 28 21 29 22 30 72 31 23 32 77 33 71 34 73 35
REMARK SMILES IDX 24 36 76 37 70 38 69 39 25 41 57 42 37 43 56 44 38 45 41 46
REMARK SMILES IDX 55 47 74 48 39 49 40 50 54 52 75 53 42 54 26 55 27 56 35 57
REMARK SMILES IDX 28 58 30 59 36 60 29 61 31 62 32 63 33 64 34 65 58 66 59 67
REMARK SMILES IDX 67 68 60 69 62 70 68 71 61 72 63 73 64 74 65 75 66 76 43 77
REMARK SMILES IDX 44 78 52 79 45 80 47 81 53 82 46 83 48 84 49 85 50 86 51 87
REMARK H PARENT 9 7 14 21 73 40 41 51
REMARK Flexibility Score: inf
ROOT
ATOM      1  C   UNL A   1      31.973  29.379  25.012  1.00  0.00     0.023 C 
ENDROOT
BRANCH   1   2
ATOM      2  C   UNL A   1      32.410  28.923  23.627  1.00  0.00     0.023 C 
BRANCH   2   3
ATOM      3  C   UNL A   1      31.596  27.793  22.983  1.00  0.00     0.116 C 
BRANCH   3   4
ATOM      4  N   UNL A   1      32.255  27.203  21.830  1.00  0.00    -0.356 N 
ATOM      5  C   UNL A   1      32.664  25.933  21.561  1.00  0.00     0.221 C 
ATOM      6  O   UNL A   1      33.140  25.707  20.445  1.00  0.00    -0.275 OA
ATOM      7  H   UNL A   1      32.442  27.844  21.106  1.00  0.00     0.163 HD
BRANCH   5   8
ATOM      8  C   UNL A   1      32.509  24.795  22.552  1.00  0.00     0.116 C 
BRANCH   8   9
ATOM      9  C   UNL A   1      33.448  24.872  23.749  1.00  0.00     0.112 C 
BRANCH   9  10
ATOM     10  N   UNL A   1      33.687  23.601  24.461  1.00  0.00    -0.201 NA
ATOM     11  C   UNL A   1      32.117  21.128  22.784  1.00  0.00     0.010 C 
ATOM     12  C   UNL A   1      33.003  21.331  24.016  1.00  0.00     0.017 C 
ATOM     13  C   UNL A   1      34.113  22.379  23.781  1.00  0.00     0.106 C 
ATOM     14  C   UNL A   1      32.219  21.711  25.293  1.00  0.00     0.158 C 
ATOM     15  S   UNL A   1      32.940  23.232  25.917  1.00  0.00     0.214 S 
ATOM     16  O   UNL A   1      33.968  22.874  26.865  1.00  0.00    -0.212 OA
ATOM     17  O   UNL A   1      31.956  24.248  26.193  1.00  0.00    -0.212 OA
ENDBRANCH   9  10
ENDBRANCH   8   9
ENDBRANCH   5   8
ENDBRANCH   3   4
ENDBRANCH   2   3
ENDBRANCH   1   2
BRANCH   1  18
ATOM     18  C   UNL A   1      33.078  29.810  25.963  1.00  0.00     0.116 C 
BRANCH  18  19
ATOM     19  N   UNL A   1      32.812  30.995  26.775  1.00  0.00    -0.352 N 
ATOM     20  C   UNL A   1      33.689  31.702  27.580  1.00  0.00     0.251 C 
ATOM     21  H   UNL A   1      31.887  31.333  26.747  1.00  0.00     0.163 HD
ATOM     22  O   UNL A   1      33.320  32.720  28.157  1.00  0.00    -0.269 OA
BRANCH  20  23
ATOM     23  C   UNL A   1      35.051  31.165  27.798  1.00  0.00     0.039 A 
ATOM     24  C   UNL A   1      36.114  32.059  27.942  1.00  0.00     0.014 A 
ATOM     25  C   UNL A   1      35.240  29.806  28.043  1.00  0.00     0.014 A 
ATOM     26  C   UNL A   1      37.327  31.603  28.463  1.00  0.00     0.010 A 
ATOM     27  C   UNL A   1      36.388  29.392  28.706  1.00  0.00     0.010 A 
ATOM     28  C   UNL A   1      37.452  30.279  28.919  1.00  0.00    -0.014 A 
BRANCH  28  29
ATOM     29  C   UNL A   1      38.680  29.821  29.623  1.00  0.00     0.031 A 
ATOM     30  C   UNL A   1      39.020  30.359  30.991  1.00  0.00     0.074 A 
ATOM     31  C   UNL A   1      39.529  28.965  29.012  1.00  0.00     0.049 A 
ATOM     32  N   UNL A   1      40.022  30.049  31.773  1.00  0.00    -0.248 NA
ATOM     33  C   UNL A   1      38.146  31.410  31.541  1.00  0.00     0.031 C 
ATOM     34  C   UNL A   1      39.391  28.466  27.640  1.00  0.00     0.029 A 
ATOM     35  N   UNL A   1      40.681  28.368  29.460  1.00  0.00    -0.354 N 
ATOM     36  C   UNL A   1      39.916  30.886  32.876  1.00  0.00     0.074 A 
ATOM     37  C   UNL A   1      38.794  31.762  32.638  1.00  0.00     0.031 C 
ATOM     38  C   UNL A   1      40.391  27.608  27.377  1.00  0.00     0.029 A 
ATOM     39  C   UNL A   1      41.259  27.517  28.546  1.00  0.00     0.049 A 
ATOM     40  H   UNL A   1      41.059  28.533  30.355  1.00  0.00     0.167 HD
ATOM     41  C   UNL A   1      40.653  30.898  34.011  1.00  0.00     0.034 A 
ATOM     42  C   UNL A   1      42.358  26.741  28.641  1.00  0.00     0.034 A 
ATOM     43  C   UNL A   1      41.740  29.995  34.267  1.00  0.00     0.049 A 
ATOM     44  C   UNL A   1      43.115  26.715  29.941  1.00  0.00     0.074 A 
ATOM     45  C   UNL A   1      42.489  29.855  35.421  1.00  0.00     0.029 A 
ATOM     46  N   UNL A   1      42.239  29.083  33.351  1.00  0.00    -0.354 N 
ATOM     47  N   UNL A   1      42.886  27.386  31.044  1.00  0.00    -0.248 NA
ATOM     48  C   UNL A   1      44.256  25.793  30.026  1.00  0.00     0.031 C 
ATOM     49  C   UNL A   1      43.468  28.884  35.189  1.00  0.00     0.029 A 
ATOM     50  C   UNL A   1      43.297  28.386  33.907  1.00  0.00     0.049 A 
ATOM     51  H   UNL A   1      41.894  28.953  32.438  1.00  0.00     0.167 HD
ATOM     52  C   UNL A   1      43.829  26.942  31.964  1.00  0.00     0.074 A 
ATOM     53  C   UNL A   1      44.611  25.921  31.297  1.00  0.00     0.031 C 
ATOM     54  C   UNL A   1      44.041  27.349  33.241  1.00  0.00     0.034 A 
BRANCH  41  55
ATOM     55  C   UNL A   1      40.274  31.894  35.079  1.00  0.00     0.023 A 
ATOM     56  C   UNL A   1      40.922  33.147  35.132  1.00  0.00     0.012 A 
ATOM     57  C   UNL A   1      39.253  31.605  36.004  1.00  0.00     0.148 A 
ATOM     58  C   UNL A   1      40.589  34.079  36.114  1.00  0.00     0.002 A 
ATOM     59  C   UNL A   1      38.889  32.560  36.946  1.00  0.00     0.091 A 
ATOM     60  F   UNL A   1      38.667  30.401  35.954  1.00  0.00    -0.205 F 
ATOM     61  C   UNL A   1      39.565  33.790  37.012  1.00  0.00     0.022 A 
BRANCH  59  62
ATOM     62  S   UNL A   1      37.530  32.321  38.093  1.00  0.00     0.127 S 
ATOM     63  O   UNL A   1      38.048  32.962  39.301  1.00  0.00    -0.237 OA
ATOM     64  O   UNL A   1      36.444  33.049  37.435  1.00  0.00    -0.237 OA
ATOM     65  O   UNL A   1      37.330  30.882  38.189  1.00  0.00    -0.744 OA
ENDBRANCH  59  62
ENDBRANCH  41  55
BRANCH  42  66
ATOM     66  C   UNL A   1      42.769  25.870  27.500  1.00  0.00     0.023 A 
ATOM     67  C   UNL A   1      43.663  26.364  26.527  1.00  0.00     0.012 A 
ATOM     68  C   UNL A   1      42.287  24.554  27.378  1.00  0.00     0.148 A 
ATOM     69  C   UNL A   1      44.033  25.579  25.435  1.00  0.00     0.002 A 
ATOM     70  C   UNL A   1      42.707  23.756  26.321  1.00  0.00     0.091 A 
ATOM     71  F   UNL A   1      41.431  24.105  28.307  1.00  0.00    -0.205 F 
ATOM     72  C   UNL A   1      43.563  24.272  25.337  1.00  0.00     0.022 A 
BRANCH  70  73
ATOM     73  S   UNL A   1      42.258  22.022  26.187  1.00  0.00     0.127 S 
ATOM     74  O   UNL A   1      40.821  22.104  25.938  1.00  0.00    -0.237 OA
ATOM     75  O   UNL A   1      43.059  21.592  25.040  1.00  0.00    -0.237 OA
ATOM     76  O   UNL A   1      42.648  21.416  27.452  1.00  0.00    -0.744 OA
ENDBRANCH  70  73
ENDBRANCH  42  66
BRANCH  54  77
ATOM     77  C   UNL A   1      45.137  26.662  34.012  1.00  0.00     0.023 A 
ATOM     78  C   UNL A   1      46.448  27.180  33.994  1.00  0.00     0.012 A 
ATOM     79  C   UNL A   1      44.856  25.520  34.789  1.00  0.00     0.148 A 
ATOM     80  C   UNL A   1      47.473  26.537  34.689  1.00  0.00     0.002 A 
ATOM     81  C   UNL A   1      45.869  24.921  35.525  1.00  0.00     0.091 A 
ATOM     82  F   UNL A   1      43.606  25.034  34.783  1.00  0.00    -0.205 F 
ATOM     83  C   UNL A   1      47.181  25.416  35.461  1.00  0.00     0.022 A 
BRANCH  81  84
ATOM     84  S   UNL A   1      45.560  23.539  36.629  1.00  0.00     0.127 S 
ATOM     85  O   UNL A   1      46.919  23.108  36.952  1.00  0.00    -0.237 OA
ATOM     86  O   UNL A   1      44.844  24.179  37.734  1.00  0.00    -0.237 OA
ATOM     87  O   UNL A   1      44.763  22.589  35.866  1.00  0.00    -0.744 OA
ENDBRANCH  81  84
ENDBRANCH  54  77
ENDBRANCH  28  29
ENDBRANCH  20  23
ENDBRANCH  18  19
ENDBRANCH   1  18
TORSDOF 16
ENDMDL
