MODEL 1
REMARK VINA RESULT:     -12.3      0.000      0.000
REMARK SMILES O=C(NCCCCNC(=O)c1cccc(Oc2ncc([N+](=O)[O-])cc2Br)c1)c1ccc(-c2c3nc(c(-c4cccc(S(=O)(=O)[O-])c4F)c4ccc([nH]4)c(-c4cccc(S(=O)(=O)[O-])c4F)c4nc(c(-c5cccc(S(=O)(=O)[O-])c5F)c5ccc2[nH]5)C=C4)C=C3)cc1
REMARK SMILES IDX 5 1 4 2 3 3 1 4 2 5 28 7 29 8 90 9 30 10 89 11 31 12 32 13
REMARK SMILES IDX 33 14 83 15 34 16 88 17 82 18 84 19 35 20 87 21 81 22 80 23
REMARK SMILES IDX 36 25 68 26 48 27 67 28 49 29 52 30 66 31 85 32 50 33 51 34
REMARK SMILES IDX 65 36 86 37 53 38 37 39 38 40 46 41 39 42 41 43 47 44 40 45
REMARK SMILES IDX 42 46 43 47 44 48 45 49 69 50 70 51 78 52 71 53 73 54 79 55
REMARK SMILES IDX 72 56 74 57 75 58 76 59 77 60 54 61 55 62 63 63 56 64 58 65
REMARK SMILES IDX 64 66 57 67 59 68 60 69 61 70 62 71 6 72 7 73 8 74 9 75
REMARK SMILES IDX 10 77 11 78 12 79 27 80 13 81 15 82 14 83 16 84 17 85 18 86
REMARK SMILES IDX 25 87 19 88 24 89 26 90 20 91 21 92 22 93 23 94
REMARK H PARENT 3 6 84 24 52 35 8 76
REMARK Flexibility Score: inf
ROOT
ATOM      1  C   UNL A   1      38.014  19.579  24.999  1.00  0.00     0.023 C 
ENDROOT
BRANCH   1   2
ATOM      2  C   UNL A   1      39.177  20.151  25.802  1.00  0.00     0.116 C 
BRANCH   2   3
ATOM      3  N   UNL A   1      40.289  19.220  25.909  1.00  0.00    -0.352 N 
ATOM      4  O   UNL A   1      42.439  18.566  25.977  1.00  0.00    -0.269 OA
ATOM      5  C   UNL A   1      41.624  19.477  26.107  1.00  0.00     0.251 C 
ATOM      6  H   UNL A   1      40.050  18.268  25.829  1.00  0.00     0.163 HD
BRANCH   5   7
ATOM      7  C   UNL A   1      42.073  20.846  26.441  1.00  0.00     0.039 A 
ATOM      8  C   UNL A   1      42.307  21.215  27.769  1.00  0.00     0.014 A 
ATOM      9  C   UNL A   1      42.258  21.771  25.412  1.00  0.00     0.014 A 
ATOM     10  C   UNL A   1      42.588  22.542  28.079  1.00  0.00     0.010 A 
ATOM     11  C   UNL A   1      42.620  23.085  25.720  1.00  0.00     0.010 A 
ATOM     12  C   UNL A   1      42.755  23.490  27.058  1.00  0.00    -0.014 A 
BRANCH  12  13
ATOM     13  C   UNL A   1      43.142  24.882  27.393  1.00  0.00     0.031 A 
ATOM     14  C   UNL A   1      42.164  25.831  28.025  1.00  0.00     0.074 A 
ATOM     15  C   UNL A   1      44.382  25.303  27.074  1.00  0.00     0.049 A 
ATOM     16  N   UNL A   1      42.324  27.092  28.334  1.00  0.00    -0.248 NA
ATOM     17  C   UNL A   1      40.829  25.300  28.345  1.00  0.00     0.031 C 
ATOM     18  C   UNL A   1      45.399  24.485  26.409  1.00  0.00     0.029 A 
ATOM     19  N   UNL A   1      44.986  26.523  27.233  1.00  0.00    -0.354 N 
ATOM     20  C   UNL A   1      41.103  27.521  28.838  1.00  0.00     0.074 A 
ATOM     21  C   UNL A   1      40.208  26.384  28.794  1.00  0.00     0.031 C 
ATOM     22  C   UNL A   1      46.495  25.227  26.206  1.00  0.00     0.029 A 
ATOM     23  C   UNL A   1      46.242  26.585  26.678  1.00  0.00     0.049 A 
ATOM     24  H   UNL A   1      44.562  27.280  27.698  1.00  0.00     0.167 HD
ATOM     25  C   UNL A   1      40.763  28.746  29.307  1.00  0.00     0.034 A 
ATOM     26  C   UNL A   1      47.086  27.623  26.528  1.00  0.00     0.034 A 
ATOM     27  C   UNL A   1      41.671  29.862  29.378  1.00  0.00     0.049 A 
ATOM     28  C   UNL A   1      46.698  28.964  27.076  1.00  0.00     0.074 A 
ATOM     29  C   UNL A   1      41.451  31.115  29.921  1.00  0.00     0.029 A 
ATOM     30  N   UNL A   1      42.963  29.865  28.877  1.00  0.00    -0.354 N 
ATOM     31  N   UNL A   1      45.592  29.311  27.689  1.00  0.00    -0.248 NA
ATOM     32  C   UNL A   1      47.679  30.049  26.943  1.00  0.00     0.031 C 
ATOM     33  C   UNL A   1      42.602  31.886  29.724  1.00  0.00     0.029 A 
ATOM     34  C   UNL A   1      43.549  31.104  29.080  1.00  0.00     0.049 A 
ATOM     35  H   UNL A   1      43.402  29.099  28.440  1.00  0.00     0.167 HD
ATOM     36  C   UNL A   1      45.752  30.646  28.036  1.00  0.00     0.074 A 
ATOM     37  C   UNL A   1      47.071  31.040  27.582  1.00  0.00     0.031 C 
ATOM     38  C   UNL A   1      44.879  31.472  28.664  1.00  0.00     0.034 A 
BRANCH  25  39
ATOM     39  C   UNL A   1      39.355  28.940  29.809  1.00  0.00     0.023 A 
ATOM     40  C   UNL A   1      39.012  28.511  31.106  1.00  0.00     0.012 A 
ATOM     41  C   UNL A   1      38.388  29.593  29.020  1.00  0.00     0.148 A 
ATOM     42  C   UNL A   1      37.719  28.693  31.597  1.00  0.00     0.002 A 
ATOM     43  C   UNL A   1      37.112  29.807  29.530  1.00  0.00     0.091 A 
ATOM     44  F   UNL A   1      38.722  29.975  27.779  1.00  0.00    -0.205 F 
ATOM     45  C   UNL A   1      36.772  29.349  30.813  1.00  0.00     0.022 A 
BRANCH  43  46
ATOM     46  S   UNL A   1      35.854  30.710  28.618  1.00  0.00     0.127 S 
ATOM     47  O   UNL A   1      36.663  31.687  27.890  1.00  0.00    -0.237 OA
ATOM     48  O   UNL A   1      35.262  29.666  27.781  1.00  0.00    -0.237 OA
ATOM     49  O   UNL A   1      34.954  31.256  29.623  1.00  0.00    -0.744 OA
ENDBRANCH  43  46
ENDBRANCH  25  39
BRANCH  26  50
ATOM     50  C   UNL A   1      48.392  27.396  25.850  1.00  0.00     0.023 A 
ATOM     51  C   UNL A   1      49.478  26.888  26.585  1.00  0.00     0.012 A 
ATOM     52  C   UNL A   1      48.525  27.584  24.459  1.00  0.00     0.148 A 
ATOM     53  C   UNL A   1      50.681  26.580  25.947  1.00  0.00     0.002 A 
ATOM     54  C   UNL A   1      49.704  27.221  23.823  1.00  0.00     0.091 A 
ATOM     55  F   UNL A   1      47.477  28.077  23.783  1.00  0.00    -0.205 F 
ATOM     56  C   UNL A   1      50.788  26.731  24.566  1.00  0.00     0.022 A 
BRANCH  54  57
ATOM     57  S   UNL A   1      49.878  27.238  22.034  1.00  0.00     0.127 S 
ATOM     58  O   UNL A   1      51.261  26.798  21.866  1.00  0.00    -0.237 OA
ATOM     59  O   UNL A   1      48.867  26.262  21.625  1.00  0.00    -0.237 OA
ATOM     60  O   UNL A   1      49.596  28.606  21.623  1.00  0.00    -0.744 OA
ENDBRANCH  54  57
ENDBRANCH  26  50
BRANCH  38  61
ATOM     61  C   UNL A   1      45.320  32.887  28.928  1.00  0.00     0.023 A 
ATOM     62  C   UNL A   1      46.136  33.168  30.040  1.00  0.00     0.012 A 
ATOM     63  C   UNL A   1      45.006  33.916  28.019  1.00  0.00     0.148 A 
ATOM     64  C   UNL A   1      46.620  34.458  30.254  1.00  0.00     0.002 A 
ATOM     65  C   UNL A   1      45.530  35.189  28.212  1.00  0.00     0.091 A 
ATOM     66  F   UNL A   1      44.212  33.629  26.977  1.00  0.00    -0.205 F 
ATOM     67  C   UNL A   1      46.329  35.464  29.334  1.00  0.00     0.022 A 
BRANCH  65  68
ATOM     68  S   UNL A   1      45.287  36.523  27.034  1.00  0.00     0.127 S 
ATOM     69  O   UNL A   1      46.278  36.197  26.009  1.00  0.00    -0.237 OA
ATOM     70  O   UNL A   1      43.897  36.325  26.625  1.00  0.00    -0.237 OA
ATOM     71  O   UNL A   1      45.533  37.758  27.766  1.00  0.00    -0.744 OA
ENDBRANCH  65  68
ENDBRANCH  38  61
ENDBRANCH  12  13
ENDBRANCH   5   7
ENDBRANCH   2   3
ENDBRANCH   1   2
BRANCH   1  72
ATOM     72  C   UNL A   1      36.792  20.491  24.891  1.00  0.00     0.023 C 
BRANCH  72  73
ATOM     73  C   UNL A   1      37.068  21.879  24.323  1.00  0.00     0.116 C 
BRANCH  73  74
ATOM     74  N   UNL A   1      36.532  22.941  25.163  1.00  0.00    -0.352 N 
ATOM     75  C   UNL A   1      35.305  23.547  25.100  1.00  0.00     0.251 C 
ATOM     76  H   UNL A   1      37.133  23.267  25.872  1.00  0.00     0.163 HD
ATOM     77  O   UNL A   1      35.065  24.550  25.773  1.00  0.00    -0.269 OA
BRANCH  75  78
ATOM     78  C   UNL A   1      34.255  22.992  24.224  1.00  0.00     0.043 A 
ATOM     79  C   UNL A   1      33.979  23.606  23.001  1.00  0.00     0.014 A 
ATOM     80  C   UNL A   1      33.510  21.886  24.645  1.00  0.00     0.061 A 
ATOM     81  C   UNL A   1      32.990  23.074  22.175  1.00  0.00     0.005 A 
ATOM     82  C   UNL A   1      32.524  21.347  23.818  1.00  0.00     0.130 A 
ATOM     83  C   UNL A   1      32.271  21.944  22.579  1.00  0.00     0.047 A 
BRANCH  82  84
ATOM     84  O   UNL A   1      31.727  20.267  24.143  1.00  0.00    -0.438 OA
BRANCH  84  85
ATOM     85  C   UNL A   1      32.364  19.060  24.349  1.00  0.00     0.234 A 
ATOM     86  N   UNL A   1      32.713  18.794  25.634  1.00  0.00    -0.214 NA
ATOM     87  C   UNL A   1      32.615  18.189  23.285  1.00  0.00     0.087 A 
ATOM     88  C   UNL A   1      33.308  17.600  25.877  1.00  0.00     0.200 A 
ATOM     89  C   UNL A   1      33.192  16.952  23.563  1.00  0.00     0.108 A 
ATOM     90  Br  UNL A   1      32.157  18.605  21.497  1.00  0.00    -0.045 Br
ATOM     91  C   UNL A   1      33.543  16.660  24.884  1.00  0.00     0.288 A 
BRANCH  91  92
ATOM     92  N   UNL A   1      34.147  15.383  25.226  1.00  0.00     0.064 N 
ATOM     93  O   UNL A   1      35.374  15.353  25.373  1.00  0.00    -0.258 OA
ATOM     94  O   UNL A   1      33.389  14.411  25.340  1.00  0.00    -0.258 OA
ENDBRANCH  91  92
ENDBRANCH  84  85
ENDBRANCH  82  84
ENDBRANCH  75  78
ENDBRANCH  73  74
ENDBRANCH  72  73
ENDBRANCH   1  72
TORSDOF 17
ENDMDL
MODEL 2
REMARK VINA RESULT:     -12.3      7.388     12.502
REMARK SMILES O=C(NCCCCNC(=O)c1cccc(Oc2ncc([N+](=O)[O-])cc2Br)c1)c1ccc(-c2c3nc(c(-c4cccc(S(=O)(=O)[O-])c4F)c4ccc([nH]4)c(-c4cccc(S(=O)(=O)[O-])c4F)c4nc(c(-c5cccc(S(=O)(=O)[O-])c5F)c5ccc2[nH]5)C=C4)C=C3)cc1
REMARK SMILES IDX 5 1 4 2 3 3 1 4 2 5 28 7 29 8 90 9 30 10 89 11 31 12 32 13
REMARK SMILES IDX 33 14 83 15 34 16 88 17 82 18 84 19 35 20 87 21 81 22 80 23
REMARK SMILES IDX 36 25 68 26 48 27 67 28 49 29 52 30 66 31 85 32 50 33 51 34
REMARK SMILES IDX 65 36 86 37 53 38 37 39 38 40 46 41 39 42 41 43 47 44 40 45
REMARK SMILES IDX 42 46 43 47 44 48 45 49 69 50 70 51 78 52 71 53 73 54 79 55
REMARK SMILES IDX 72 56 74 57 75 58 76 59 77 60 54 61 55 62 63 63 56 64 58 65
REMARK SMILES IDX 64 66 57 67 59 68 60 69 61 70 62 71 6 72 7 73 8 74 9 75
REMARK SMILES IDX 10 77 11 78 12 79 27 80 13 81 15 82 14 83 16 84 17 85 18 86
REMARK SMILES IDX 25 87 19 88 24 89 26 90 20 91 21 92 22 93 23 94
REMARK H PARENT 3 6 84 24 52 35 8 76
REMARK Flexibility Score: inf
ROOT
ATOM      1  C   UNL A   1      31.431  32.684  26.710  1.00  0.00     0.023 C 
ENDROOT
BRANCH   1   2
ATOM      2  C   UNL A   1      32.717  33.214  27.334  1.00  0.00     0.116 C 
BRANCH   2   3
ATOM      3  N   UNL A   1      32.544  34.525  27.937  1.00  0.00    -0.352 N 
ATOM      4  O   UNL A   1      32.759  36.128  29.500  1.00  0.00    -0.269 OA
ATOM      5  C   UNL A   1      33.180  35.075  29.023  1.00  0.00     0.251 C 
ATOM      6  H   UNL A   1      31.873  35.102  27.505  1.00  0.00     0.163 HD
BRANCH   5   7
ATOM      7  C   UNL A   1      34.341  34.388  29.628  1.00  0.00     0.039 A 
ATOM      8  C   UNL A   1      34.176  33.548  30.734  1.00  0.00     0.014 A 
ATOM      9  C   UNL A   1      35.611  34.590  29.084  1.00  0.00     0.014 A 
ATOM     10  C   UNL A   1      35.292  33.025  31.379  1.00  0.00     0.010 A 
ATOM     11  C   UNL A   1      36.723  33.997  29.686  1.00  0.00     0.010 A 
ATOM     12  C   UNL A   1      36.577  33.238  30.858  1.00  0.00    -0.014 A 
BRANCH  12  13
ATOM     13  C   UNL A   1      37.753  32.603  31.501  1.00  0.00     0.031 A 
ATOM     14  C   UNL A   1      38.469  31.452  30.852  1.00  0.00     0.074 A 
ATOM     15  C   UNL A   1      38.145  33.045  32.712  1.00  0.00     0.049 A 
ATOM     16  N   UNL A   1      39.478  30.753  31.302  1.00  0.00    -0.248 NA
ATOM     17  C   UNL A   1      37.985  31.024  29.530  1.00  0.00     0.031 C 
ATOM     18  C   UNL A   1      37.493  34.121  33.463  1.00  0.00     0.029 A 
ATOM     19  N   UNL A   1      39.158  32.628  33.537  1.00  0.00    -0.354 N 
ATOM     20  C   UNL A   1      39.722  29.773  30.347  1.00  0.00     0.074 A 
ATOM     21  C   UNL A   1      38.751  29.968  29.290  1.00  0.00     0.031 C 
ATOM     22  C   UNL A   1      38.112  34.272  34.640  1.00  0.00     0.029 A 
ATOM     23  C   UNL A   1      39.170  33.273  34.751  1.00  0.00     0.049 A 
ATOM     24  H   UNL A   1      39.811  31.937  33.285  1.00  0.00     0.167 HD
ATOM     25  C   UNL A   1      40.673  28.809  30.346  1.00  0.00     0.034 A 
ATOM     26  C   UNL A   1      39.920  33.064  35.850  1.00  0.00     0.034 A 
ATOM     27  C   UNL A   1      41.655  28.644  31.386  1.00  0.00     0.049 A 
ATOM     28  C   UNL A   1      40.983  32.006  35.816  1.00  0.00     0.074 A 
ATOM     29  C   UNL A   1      42.717  27.759  31.433  1.00  0.00     0.029 A 
ATOM     30  N   UNL A   1      41.685  29.368  32.569  1.00  0.00    -0.354 N 
ATOM     31  N   UNL A   1      41.298  31.190  34.840  1.00  0.00    -0.248 NA
ATOM     32  C   UNL A   1      41.816  31.860  37.017  1.00  0.00     0.031 C 
ATOM     33  C   UNL A   1      43.374  27.929  32.657  1.00  0.00     0.029 A 
ATOM     34  C   UNL A   1      42.736  28.938  33.362  1.00  0.00     0.049 A 
ATOM     35  H   UNL A   1      41.053  30.083  32.810  1.00  0.00     0.167 HD
ATOM     36  C   UNL A   1      42.379  30.447  35.297  1.00  0.00     0.074 A 
ATOM     37  C   UNL A   1      42.678  30.926  36.633  1.00  0.00     0.031 C 
ATOM     38  C   UNL A   1      43.053  29.452  34.671  1.00  0.00     0.034 A 
BRANCH  25  39
ATOM     39  C   UNL A   1      40.721  27.871  29.167  1.00  0.00     0.023 A 
ATOM     40  C   UNL A   1      39.846  26.767  29.118  1.00  0.00     0.012 A 
ATOM     41  C   UNL A   1      41.591  28.109  28.085  1.00  0.00     0.148 A 
ATOM     42  C   UNL A   1      39.863  25.893  28.031  1.00  0.00     0.002 A 
ATOM     43  C   UNL A   1      41.575  27.257  26.986  1.00  0.00     0.091 A 
ATOM     44  F   UNL A   1      42.433  29.150  28.156  1.00  0.00    -0.205 F 
ATOM     45  C   UNL A   1      40.720  26.144  26.961  1.00  0.00     0.022 A 
BRANCH  43  46
ATOM     46  S   UNL A   1      42.590  27.549  25.533  1.00  0.00     0.127 S 
ATOM     47  O   UNL A   1      42.034  28.805  25.031  1.00  0.00    -0.237 OA
ATOM     48  O   UNL A   1      43.932  27.664  26.105  1.00  0.00    -0.237 OA
ATOM     49  O   UNL A   1      42.399  26.386  24.679  1.00  0.00    -0.744 OA
ENDBRANCH  43  46
ENDBRANCH  25  39
BRANCH  26  50
ATOM     50  C   UNL A   1      39.689  33.912  37.051  1.00  0.00     0.023 A 
ATOM     51  C   UNL A   1      40.036  35.274  37.018  1.00  0.00     0.012 A 
ATOM     52  C   UNL A   1      39.031  33.393  38.185  1.00  0.00     0.148 A 
ATOM     53  C   UNL A   1      39.740  36.105  38.100  1.00  0.00     0.002 A 
ATOM     54  C   UNL A   1      38.688  34.238  39.232  1.00  0.00     0.091 A 
ATOM     55  F   UNL A   1      38.717  32.089  38.194  1.00  0.00    -0.205 F 
ATOM     56  C   UNL A   1      39.054  35.592  39.197  1.00  0.00     0.022 A 
BRANCH  54  57
ATOM     57  S   UNL A   1      37.673  33.697  40.613  1.00  0.00     0.127 S 
ATOM     58  O   UNL A   1      36.526  33.108  39.926  1.00  0.00    -0.237 OA
ATOM     59  O   UNL A   1      38.555  32.735  41.275  1.00  0.00    -0.237 OA
ATOM     60  O   UNL A   1      37.396  34.895  41.393  1.00  0.00    -0.744 OA
ENDBRANCH  54  57
ENDBRANCH  26  50
BRANCH  38  61
ATOM     61  C   UNL A   1      44.205  28.818  35.403  1.00  0.00     0.023 A 
ATOM     62  C   UNL A   1      45.497  29.363  35.276  1.00  0.00     0.012 A 
ATOM     63  C   UNL A   1      43.987  27.746  36.291  1.00  0.00     0.148 A 
ATOM     64  C   UNL A   1      46.561  28.839  36.010  1.00  0.00     0.002 A 
ATOM     65  C   UNL A   1      45.042  27.259  37.054  1.00  0.00     0.091 A 
ATOM     66  F   UNL A   1      42.752  27.232  36.381  1.00  0.00    -0.205 F 
ATOM     67  C   UNL A   1      46.331  27.798  36.908  1.00  0.00     0.022 A 
BRANCH  65  68
ATOM     68  S   UNL A   1      44.824  25.986  38.301  1.00  0.00     0.127 S 
ATOM     69  O   UNL A   1      44.242  26.748  39.406  1.00  0.00    -0.237 OA
ATOM     70  O   UNL A   1      43.901  25.062  37.643  1.00  0.00    -0.237 OA
ATOM     71  O   UNL A   1      46.150  25.438  38.556  1.00  0.00    -0.744 OA
ENDBRANCH  65  68
ENDBRANCH  38  61
ENDBRANCH  12  13
ENDBRANCH   5   7
ENDBRANCH   2   3
ENDBRANCH   1   2
BRANCH   1  72
ATOM     72  C   UNL A   1      31.501  31.242  26.210  1.00  0.00     0.023 C 
BRANCH  72  73
ATOM     73  C   UNL A   1      32.747  30.470  26.630  1.00  0.00     0.116 C 
BRANCH  73  74
ATOM     74  N   UNL A   1      32.444  29.379  27.546  1.00  0.00    -0.352 N 
ATOM     75  C   UNL A   1      32.018  28.110  27.255  1.00  0.00     0.251 C 
ATOM     76  H   UNL A   1      32.561  29.581  28.503  1.00  0.00     0.163 HD
ATOM     77  O   UNL A   1      31.640  27.354  28.151  1.00  0.00    -0.269 OA
BRANCH  75  78
ATOM     78  C   UNL A   1      32.019  27.636  25.858  1.00  0.00     0.043 A 
ATOM     79  C   UNL A   1      33.197  27.145  25.295  1.00  0.00     0.014 A 
ATOM     80  C   UNL A   1      30.853  27.729  25.091  1.00  0.00     0.061 A 
ATOM     81  C   UNL A   1      33.191  26.693  23.976  1.00  0.00     0.005 A 
ATOM     82  C   UNL A   1      30.841  27.272  23.773  1.00  0.00     0.130 A 
ATOM     83  C   UNL A   1      32.015  26.750  23.221  1.00  0.00     0.047 A 
BRANCH  82  84
ATOM     84  O   UNL A   1      29.749  27.328  22.929  1.00  0.00    -0.438 OA
BRANCH  84  85
ATOM     85  C   UNL A   1      29.298  28.583  22.574  1.00  0.00     0.234 A 
ATOM     86  N   UNL A   1      30.198  29.365  21.923  1.00  0.00    -0.214 NA
ATOM     87  C   UNL A   1      27.996  28.990  22.875  1.00  0.00     0.087 A 
ATOM     88  C   UNL A   1      29.775  30.592  21.527  1.00  0.00     0.200 A 
ATOM     89  C   UNL A   1      27.571  30.238  22.424  1.00  0.00     0.108 A 
ATOM     90  Br  UNL A   1      26.778  27.895  23.821  1.00  0.00    -0.045 Br
ATOM     91  C   UNL A   1      28.483  31.048  21.740  1.00  0.00     0.288 A 
BRANCH  91  92
ATOM     92  N   UNL A   1      28.089  32.358  21.250  1.00  0.00     0.064 N 
ATOM     93  O   UNL A   1      27.948  33.261  22.082  1.00  0.00    -0.258 OA
ATOM     94  O   UNL A   1      27.916  32.476  20.030  1.00  0.00    -0.258 OA
ENDBRANCH  91  92
ENDBRANCH  84  85
ENDBRANCH  82  84
ENDBRANCH  75  78
ENDBRANCH  73  74
ENDBRANCH  72  73
ENDBRANCH   1  72
TORSDOF 17
ENDMDL
MODEL 3
REMARK VINA RESULT:     -12.1      5.394      8.526
REMARK SMILES O=C(NCCCCNC(=O)c1cccc(Oc2ncc([N+](=O)[O-])cc2Br)c1)c1ccc(-c2c3nc(c(-c4cccc(S(=O)(=O)[O-])c4F)c4ccc([nH]4)c(-c4cccc(S(=O)(=O)[O-])c4F)c4nc(c(-c5cccc(S(=O)(=O)[O-])c5F)c5ccc2[nH]5)C=C4)C=C3)cc1
REMARK SMILES IDX 5 1 4 2 3 3 1 4 2 5 28 7 29 8 90 9 30 10 89 11 31 12 32 13
REMARK SMILES IDX 33 14 83 15 34 16 88 17 82 18 84 19 35 20 87 21 81 22 80 23
REMARK SMILES IDX 36 25 68 26 48 27 67 28 49 29 52 30 66 31 85 32 50 33 51 34
REMARK SMILES IDX 65 36 86 37 53 38 37 39 38 40 46 41 39 42 41 43 47 44 40 45
REMARK SMILES IDX 42 46 43 47 44 48 45 49 69 50 70 51 78 52 71 53 73 54 79 55
REMARK SMILES IDX 72 56 74 57 75 58 76 59 77 60 54 61 55 62 63 63 56 64 58 65
REMARK SMILES IDX 64 66 57 67 59 68 60 69 61 70 62 71 6 72 7 73 8 74 9 75
REMARK SMILES IDX 10 77 11 78 12 79 27 80 13 81 15 82 14 83 16 84 17 85 18 86
REMARK SMILES IDX 25 87 19 88 24 89 26 90 20 91 21 92 22 93 23 94
REMARK H PARENT 3 6 84 24 52 35 8 76
REMARK Flexibility Score: inf
ROOT
ATOM      1  C   UNL A   1      33.816  28.122  25.327  1.00  0.00     0.023 C 
ENDROOT
BRANCH   1   2
ATOM      2  C   UNL A   1      33.617  28.470  26.797  1.00  0.00     0.116 C 
BRANCH   2   3
ATOM      3  N   UNL A   1      33.569  29.905  27.027  1.00  0.00    -0.352 N 
ATOM      4  O   UNL A   1      34.129  31.869  27.968  1.00  0.00    -0.269 OA
ATOM      5  C   UNL A   1      34.443  30.706  27.721  1.00  0.00     0.251 C 
ATOM      6  H   UNL A   1      32.798  30.370  26.627  1.00  0.00     0.163 HD
BRANCH   5   7
ATOM      7  C   UNL A   1      35.733  30.159  28.192  1.00  0.00     0.039 A 
ATOM      8  C   UNL A   1      35.849  29.605  29.471  1.00  0.00     0.014 A 
ATOM      9  C   UNL A   1      36.842  30.206  27.345  1.00  0.00     0.014 A 
ATOM     10  C   UNL A   1      37.099  29.229  29.952  1.00  0.00     0.010 A 
ATOM     11  C   UNL A   1      38.081  29.751  27.802  1.00  0.00     0.010 A 
ATOM     12  C   UNL A   1      38.227  29.291  29.120  1.00  0.00    -0.014 A 
BRANCH  12  13
ATOM     13  C   UNL A   1      39.539  28.804  29.612  1.00  0.00     0.031 A 
ATOM     14  C   UNL A   1      40.266  29.510  30.721  1.00  0.00     0.074 A 
ATOM     15  C   UNL A   1      40.099  27.735  29.010  1.00  0.00     0.049 A 
ATOM     16  N   UNL A   1      41.440  29.247  31.232  1.00  0.00    -0.248 NA
ATOM     17  C   UNL A   1      39.592  30.669  31.330  1.00  0.00     0.031 C 
ATOM     18  C   UNL A   1      39.510  27.002  27.888  1.00  0.00     0.029 A 
ATOM     19  N   UNL A   1      41.295  27.103  29.232  1.00  0.00    -0.354 N 
ATOM     20  C   UNL A   1      41.671  30.230  32.187  1.00  0.00     0.074 A 
ATOM     21  C   UNL A   1      40.513  31.098  32.184  1.00  0.00     0.031 C 
ATOM     22  C   UNL A   1      40.349  26.029  27.511  1.00  0.00     0.029 A 
ATOM     23  C   UNL A   1      41.556  26.101  28.328  1.00  0.00     0.049 A 
ATOM     24  H   UNL A   1      41.906  27.344  29.965  1.00  0.00     0.167 HD
ATOM     25  C   UNL A   1      42.744  30.386  33.000  1.00  0.00     0.034 A 
ATOM     26  C   UNL A   1      42.656  25.345  28.148  1.00  0.00     0.034 A 
ATOM     27  C   UNL A   1      43.877  29.497  33.019  1.00  0.00     0.049 A 
ATOM     28  C   UNL A   1      43.822  25.520  29.074  1.00  0.00     0.074 A 
ATOM     29  C   UNL A   1      44.969  29.515  33.868  1.00  0.00     0.029 A 
ATOM     30  N   UNL A   1      44.072  28.443  32.140  1.00  0.00    -0.354 N 
ATOM     31  N   UNL A   1      43.957  26.358  30.073  1.00  0.00    -0.248 NA
ATOM     32  C   UNL A   1      44.972  24.629  28.875  1.00  0.00     0.031 C 
ATOM     33  C   UNL A   1      45.839  28.488  33.485  1.00  0.00     0.029 A 
ATOM     34  C   UNL A   1      45.275  27.813  32.412  1.00  0.00     0.049 A 
ATOM     35  H   UNL A   1      43.446  28.179  31.426  1.00  0.00     0.167 HD
ATOM     36  C   UNL A   1      45.195  26.083  30.638  1.00  0.00     0.074 A 
ATOM     37  C   UNL A   1      45.763  24.984  29.880  1.00  0.00     0.031 C 
ATOM     38  C   UNL A   1      45.810  26.692  31.681  1.00  0.00     0.034 A 
BRANCH  25  39
ATOM     39  C   UNL A   1      42.734  31.547  33.961  1.00  0.00     0.023 A 
ATOM     40  C   UNL A   1      43.290  32.782  33.569  1.00  0.00     0.012 A 
ATOM     41  C   UNL A   1      42.129  31.434  35.228  1.00  0.00     0.148 A 
ATOM     42  C   UNL A   1      43.279  33.874  34.437  1.00  0.00     0.002 A 
ATOM     43  C   UNL A   1      42.086  32.539  36.072  1.00  0.00     0.091 A 
ATOM     44  F   UNL A   1      41.624  30.248  35.595  1.00  0.00    -0.205 F 
ATOM     45  C   UNL A   1      42.669  33.755  35.684  1.00  0.00     0.022 A 
BRANCH  43  46
ATOM     46  S   UNL A   1      41.253  32.496  37.664  1.00  0.00     0.127 S 
ATOM     47  O   UNL A   1      42.120  31.598  38.427  1.00  0.00    -0.237 OA
ATOM     48  O   UNL A   1      41.307  33.897  38.085  1.00  0.00    -0.237 OA
ATOM     49  O   UNL A   1      39.911  32.001  37.393  1.00  0.00    -0.744 OA
ENDBRANCH  43  46
ENDBRANCH  25  39
BRANCH  26  50
ATOM     50  C   UNL A   1      42.664  24.339  27.051  1.00  0.00     0.023 A 
ATOM     51  C   UNL A   1      43.338  24.625  25.850  1.00  0.00     0.012 A 
ATOM     52  C   UNL A   1      42.094  23.063  27.237  1.00  0.00     0.148 A 
ATOM     53  C   UNL A   1      43.437  23.659  24.847  1.00  0.00     0.002 A 
ATOM     54  C   UNL A   1      42.248  22.089  26.259  1.00  0.00     0.091 A 
ATOM     55  F   UNL A   1      41.451  22.818  28.388  1.00  0.00    -0.205 F 
ATOM     56  C   UNL A   1      42.906  22.389  25.058  1.00  0.00     0.022 A 
BRANCH  54  57
ATOM     57  S   UNL A   1      41.731  20.385  26.508  1.00  0.00     0.127 S 
ATOM     58  O   UNL A   1      42.384  19.711  25.389  1.00  0.00    -0.237 OA
ATOM     59  O   UNL A   1      42.300  20.088  27.823  1.00  0.00    -0.237 OA
ATOM     60  O   UNL A   1      40.275  20.404  26.472  1.00  0.00    -0.744 OA
ENDBRANCH  54  57
ENDBRANCH  26  50
BRANCH  38  61
ATOM     61  C   UNL A   1      47.163  26.178  32.094  1.00  0.00     0.023 A 
ATOM     62  C   UNL A   1      48.324  26.725  31.515  1.00  0.00     0.012 A 
ATOM     63  C   UNL A   1      47.283  25.226  33.126  1.00  0.00     0.148 A 
ATOM     64  C   UNL A   1      49.587  26.319  31.945  1.00  0.00     0.002 A 
ATOM     65  C   UNL A   1      48.545  24.861  33.581  1.00  0.00     0.091 A 
ATOM     66  F   UNL A   1      46.164  24.706  33.649  1.00  0.00    -0.205 F 
ATOM     67  C   UNL A   1      49.698  25.399  32.985  1.00  0.00     0.022 A 
BRANCH  65  68
ATOM     68  S   UNL A   1      48.785  23.756  34.976  1.00  0.00     0.127 S 
ATOM     69  O   UNL A   1      50.243  23.719  35.079  1.00  0.00    -0.237 OA
ATOM     70  O   UNL A   1      48.114  24.474  36.059  1.00  0.00    -0.237 OA
ATOM     71  O   UNL A   1      48.156  22.494  34.606  1.00  0.00    -0.744 OA
ENDBRANCH  65  68
ENDBRANCH  38  61
ENDBRANCH  12  13
ENDBRANCH   5   7
ENDBRANCH   2   3
ENDBRANCH   1   2
BRANCH   1  72
ATOM     72  C   UNL A   1      33.527  29.258  24.347  1.00  0.00     0.023 C 
BRANCH  72  73
ATOM     73  C   UNL A   1      33.294  28.825  22.903  1.00  0.00     0.116 C 
BRANCH  73  74
ATOM     74  N   UNL A   1      31.928  29.067  22.463  1.00  0.00    -0.352 N 
ATOM     75  C   UNL A   1      30.859  28.209  22.473  1.00  0.00     0.251 C 
ATOM     76  H   UNL A   1      31.747  29.969  22.110  1.00  0.00     0.163 HD
ATOM     77  O   UNL A   1      29.808  28.510  21.906  1.00  0.00    -0.269 OA
BRANCH  75  78
ATOM     78  C   UNL A   1      30.962  26.915  23.175  1.00  0.00     0.043 A 
ATOM     79  C   UNL A   1      30.475  26.795  24.477  1.00  0.00     0.014 A 
ATOM     80  C   UNL A   1      31.591  25.834  22.551  1.00  0.00     0.061 A 
ATOM     81  C   UNL A   1      30.569  25.568  25.133  1.00  0.00     0.005 A 
ATOM     82  C   UNL A   1      31.682  24.603  23.202  1.00  0.00     0.130 A 
ATOM     83  C   UNL A   1      31.164  24.475  24.495  1.00  0.00     0.047 A 
BRANCH  82  84
ATOM     84  O   UNL A   1      32.291  23.478  22.680  1.00  0.00    -0.438 OA
BRANCH  84  85
ATOM     85  C   UNL A   1      33.497  23.106  23.238  1.00  0.00     0.234 A 
ATOM     86  N   UNL A   1      34.550  23.914  22.947  1.00  0.00    -0.214 NA
ATOM     87  C   UNL A   1      33.595  21.972  24.047  1.00  0.00     0.087 A 
ATOM     88  C   UNL A   1      35.743  23.597  23.509  1.00  0.00     0.200 A 
ATOM     89  C   UNL A   1      34.821  21.688  24.645  1.00  0.00     0.108 A 
ATOM     90  Br  UNL A   1      32.120  20.841  24.401  1.00  0.00    -0.045 Br
ATOM     91  C   UNL A   1      35.910  22.519  24.366  1.00  0.00     0.288 A 
BRANCH  91  92
ATOM     92  N   UNL A   1      37.209  22.266  24.965  1.00  0.00     0.064 N 
ATOM     93  O   UNL A   1      37.675  23.138  25.707  1.00  0.00    -0.258 OA
ATOM     94  O   UNL A   1      37.763  21.196  24.683  1.00  0.00    -0.258 OA
ENDBRANCH  91  92
ENDBRANCH  84  85
ENDBRANCH  82  84
ENDBRANCH  75  78
ENDBRANCH  73  74
ENDBRANCH  72  73
ENDBRANCH   1  72
TORSDOF 17
ENDMDL
