MODEL 1
REMARK VINA RESULT:     -13.0      0.000      0.000
REMARK SMILES O=C(NCCCCNC(=O)c1ccc(-n2cnc3ccccc32)nc1)c1ccc(-c2c3nc(c(-c4cccc(S(=O)(=O)[O-])c4F)c4ccc([nH]4)c(-c4cccc(S(=O)(=O)[O-])c4F)c4nc(c(-c5cccc(S(=O)(=O)[O-])c5F)c5ccc2[nH]5)C=C4)C=C3)cc1
REMARK SMILES IDX 4 1 3 2 1 3 2 4 26 6 27 7 88 8 28 9 87 10 29 11 30 12 31 13
REMARK SMILES IDX 81 14 32 15 86 16 80 17 82 18 33 19 85 20 79 21 78 22 34 24
REMARK SMILES IDX 66 25 46 26 65 27 47 28 50 29 64 30 83 31 48 32 49 33 63 35
REMARK SMILES IDX 84 36 51 37 35 38 36 39 44 40 37 41 39 42 45 43 38 44 40 45
REMARK SMILES IDX 41 46 42 47 43 48 67 49 68 50 76 51 69 52 71 53 77 54 70 55
REMARK SMILES IDX 72 56 73 57 74 58 75 59 52 60 53 61 61 62 54 63 56 64 62 65
REMARK SMILES IDX 55 66 57 67 58 68 59 69 60 70 5 71 6 72 7 73 8 74 9 75 10 77
REMARK SMILES IDX 11 78 12 79 25 80 13 81 24 82 14 83 15 84 16 85 23 86 17 87
REMARK SMILES IDX 18 88 22 89 19 90 21 91 20 92
REMARK H PARENT 3 5 82 23 50 34 8 76
REMARK Flexibility Score: inf
ROOT
ATOM      1  C   UNL A   1      38.988  20.105  25.499  1.00  0.00     0.116 C 
ENDROOT
BRANCH   1   2
ATOM      2  N   UNL A   1      40.047  19.107  25.723  1.00  0.00    -0.352 N 
ATOM      3  O   UNL A   1      42.233  18.461  25.795  1.00  0.00    -0.269 OA
ATOM      4  C   UNL A   1      41.396  19.332  25.983  1.00  0.00     0.251 C 
ATOM      5  H   UNL A   1      39.766  18.164  25.685  1.00  0.00     0.163 HD
BRANCH   4   6
ATOM      6  C   UNL A   1      41.783  20.648  26.522  1.00  0.00     0.039 A 
ATOM      7  C   UNL A   1      42.502  21.616  25.817  1.00  0.00     0.014 A 
ATOM      8  C   UNL A   1      41.335  20.914  27.804  1.00  0.00     0.014 A 
ATOM      9  C   UNL A   1      42.737  22.836  26.452  1.00  0.00     0.010 A 
ATOM     10  C   UNL A   1      41.191  22.200  28.199  1.00  0.00     0.010 A 
ATOM     11  C   UNL A   1      42.081  23.099  27.666  1.00  0.00    -0.014 A 
BRANCH  11  12
ATOM     12  C   UNL A   1      42.265  24.306  28.448  1.00  0.00     0.031 A 
ATOM     13  C   UNL A   1      41.170  25.278  28.275  1.00  0.00     0.074 A 
ATOM     14  C   UNL A   1      43.239  24.429  29.383  1.00  0.00     0.049 A 
ATOM     15  N   UNL A   1      41.214  26.368  27.588  1.00  0.00    -0.248 NA
ATOM     16  C   UNL A   1      39.824  24.901  28.732  1.00  0.00     0.031 C 
ATOM     17  C   UNL A   1      44.191  23.418  29.882  1.00  0.00     0.029 A 
ATOM     18  N   UNL A   1      43.512  25.487  30.186  1.00  0.00    -0.354 N 
ATOM     19  C   UNL A   1      39.965  26.947  27.750  1.00  0.00     0.074 A 
ATOM     20  C   UNL A   1      39.097  25.915  28.257  1.00  0.00     0.031 C 
ATOM     21  C   UNL A   1      44.744  23.840  31.042  1.00  0.00     0.029 A 
ATOM     22  C   UNL A   1      44.336  25.209  31.276  1.00  0.00     0.049 A 
ATOM     23  H   UNL A   1      43.152  26.388  30.013  1.00  0.00     0.167 HD
ATOM     24  C   UNL A   1      39.812  28.297  27.711  1.00  0.00     0.034 A 
ATOM     25  C   UNL A   1      44.617  26.053  32.302  1.00  0.00     0.034 A 
ATOM     26  C   UNL A   1      40.993  28.947  27.203  1.00  0.00     0.049 A 
ATOM     27  C   UNL A   1      44.351  27.417  31.785  1.00  0.00     0.074 A 
ATOM     28  C   UNL A   1      41.687  28.905  26.010  1.00  0.00     0.029 A 
ATOM     29  N   UNL A   1      41.873  29.435  28.140  1.00  0.00    -0.354 N 
ATOM     30  N   UNL A   1      45.023  27.962  30.809  1.00  0.00    -0.248 NA
ATOM     31  C   UNL A   1      43.042  27.991  32.048  1.00  0.00     0.031 C 
ATOM     32  C   UNL A   1      43.064  28.925  26.384  1.00  0.00     0.029 A 
ATOM     33  C   UNL A   1      43.137  29.054  27.772  1.00  0.00     0.049 A 
ATOM     34  H   UNL A   1      41.636  29.966  28.935  1.00  0.00     0.167 HD
ATOM     35  C   UNL A   1      44.060  28.618  30.055  1.00  0.00     0.074 A 
ATOM     36  C   UNL A   1      42.880  28.684  30.918  1.00  0.00     0.031 C 
ATOM     37  C   UNL A   1      44.207  28.779  28.709  1.00  0.00     0.034 A 
BRANCH  24  38
ATOM     38  C   UNL A   1      38.754  29.047  28.468  1.00  0.00     0.023 A 
ATOM     39  C   UNL A   1      37.971  29.976  27.756  1.00  0.00     0.012 A 
ATOM     40  C   UNL A   1      38.662  29.063  29.880  1.00  0.00     0.148 A 
ATOM     41  C   UNL A   1      37.139  30.883  28.418  1.00  0.00     0.002 A 
ATOM     42  C   UNL A   1      37.779  29.915  30.528  1.00  0.00     0.091 A 
ATOM     43  F   UNL A   1      39.523  28.349  30.611  1.00  0.00    -0.205 F 
ATOM     44  C   UNL A   1      37.031  30.845  29.804  1.00  0.00     0.022 A 
BRANCH  42  45
ATOM     45  S   UNL A   1      37.585  29.888  32.314  1.00  0.00     0.127 S 
ATOM     46  O   UNL A   1      38.853  30.465  32.754  1.00  0.00    -0.237 OA
ATOM     47  O   UNL A   1      36.414  30.745  32.500  1.00  0.00    -0.237 OA
ATOM     48  O   UNL A   1      37.362  28.490  32.660  1.00  0.00    -0.744 OA
ENDBRANCH  42  45
ENDBRANCH  24  38
BRANCH  25  49
ATOM     49  C   UNL A   1      44.771  25.794  33.760  1.00  0.00     0.023 A 
ATOM     50  C   UNL A   1      46.068  25.808  34.321  1.00  0.00     0.012 A 
ATOM     51  C   UNL A   1      43.674  25.871  34.644  1.00  0.00     0.148 A 
ATOM     52  C   UNL A   1      46.267  25.979  35.697  1.00  0.00     0.002 A 
ATOM     53  C   UNL A   1      43.876  26.032  36.015  1.00  0.00     0.091 A 
ATOM     54  F   UNL A   1      42.434  25.886  34.139  1.00  0.00    -0.205 F 
ATOM     55  C   UNL A   1      45.171  26.109  36.542  1.00  0.00     0.022 A 
BRANCH  53  56
ATOM     56  S   UNL A   1      42.508  26.213  37.167  1.00  0.00     0.127 S 
ATOM     57  O   UNL A   1      41.864  27.437  36.687  1.00  0.00    -0.237 OA
ATOM     58  O   UNL A   1      41.750  24.988  36.931  1.00  0.00    -0.237 OA
ATOM     59  O   UNL A   1      43.122  26.340  38.483  1.00  0.00    -0.744 OA
ENDBRANCH  53  56
ENDBRANCH  25  49
BRANCH  37  60
ATOM     60  C   UNL A   1      45.545  28.431  28.100  1.00  0.00     0.023 A 
ATOM     61  C   UNL A   1      46.673  29.275  28.204  1.00  0.00     0.012 A 
ATOM     62  C   UNL A   1      45.711  27.135  27.589  1.00  0.00     0.148 A 
ATOM     63  C   UNL A   1      47.939  28.829  27.811  1.00  0.00     0.002 A 
ATOM     64  C   UNL A   1      46.975  26.683  27.233  1.00  0.00     0.091 A 
ATOM     65  F   UNL A   1      44.628  26.349  27.509  1.00  0.00    -0.205 F 
ATOM     66  C   UNL A   1      48.093  27.526  27.339  1.00  0.00     0.022 A 
BRANCH  64  67
ATOM     67  S   UNL A   1      47.260  24.988  26.718  1.00  0.00     0.127 S 
ATOM     68  O   UNL A   1      46.498  24.236  27.713  1.00  0.00    -0.237 OA
ATOM     69  O   UNL A   1      46.690  24.975  25.371  1.00  0.00    -0.237 OA
ATOM     70  O   UNL A   1      48.703  24.788  26.762  1.00  0.00    -0.744 OA
ENDBRANCH  64  67
ENDBRANCH  37  60
ENDBRANCH  11  12
ENDBRANCH   4   6
ENDBRANCH   1   2
BRANCH   1  71
ATOM     71  C   UNL A   1      37.679  19.517  25.007  1.00  0.00     0.023 C 
BRANCH  71  72
ATOM     72  C   UNL A   1      36.638  20.565  24.593  1.00  0.00     0.023 C 
BRANCH  72  73
ATOM     73  C   UNL A   1      35.490  20.816  25.581  1.00  0.00     0.116 C 
BRANCH  73  74
ATOM     74  N   UNL A   1      34.365  19.923  25.357  1.00  0.00    -0.352 N 
ATOM     75  C   UNL A   1      33.074  20.249  25.005  1.00  0.00     0.252 C 
ATOM     76  H   UNL A   1      34.548  18.964  25.471  1.00  0.00     0.163 HD
ATOM     77  O   UNL A   1      32.152  19.466  25.158  1.00  0.00    -0.269 OA
BRANCH  75  78
ATOM     78  C   UNL A   1      32.804  21.594  24.482  1.00  0.00     0.058 A 
ATOM     79  C   UNL A   1      32.742  21.854  23.116  1.00  0.00     0.019 A 
ATOM     80  C   UNL A   1      32.644  22.641  25.375  1.00  0.00     0.127 A 
ATOM     81  C   UNL A   1      32.556  23.164  22.690  1.00  0.00     0.048 A 
ATOM     82  N   UNL A   1      32.518  23.936  24.989  1.00  0.00    -0.238 NA
ATOM     83  C   UNL A   1      32.439  24.167  23.652  1.00  0.00     0.138 A 
BRANCH  83  84
ATOM     84  N   UNL A   1      32.242  25.503  23.233  1.00  0.00    -0.283 N 
ATOM     85  C   UNL A   1      33.229  26.331  22.752  1.00  0.00     0.206 A 
ATOM     86  C   UNL A   1      31.071  26.239  23.251  1.00  0.00     0.074 A 
ATOM     87  N   UNL A   1      32.756  27.490  22.345  1.00  0.00    -0.236 NA
ATOM     88  C   UNL A   1      31.425  27.459  22.677  1.00  0.00     0.089 A 
ATOM     89  C   UNL A   1      29.790  26.001  23.776  1.00  0.00     0.029 A 
ATOM     90  C   UNL A   1      30.453  28.464  22.549  1.00  0.00     0.030 A 
ATOM     91  C   UNL A   1      28.846  27.025  23.665  1.00  0.00     0.002 A 
ATOM     92  C   UNL A   1      29.166  28.234  23.051  1.00  0.00     0.002 A 
ENDBRANCH  83  84
ENDBRANCH  75  78
ENDBRANCH  73  74
ENDBRANCH  72  73
ENDBRANCH  71  72
ENDBRANCH   1  71
TORSDOF 15
ENDMDL
MODEL 2
REMARK VINA RESULT:     -12.8      4.311      9.794
REMARK SMILES O=C(NCCCCNC(=O)c1ccc(-n2cnc3ccccc32)nc1)c1ccc(-c2c3nc(c(-c4cccc(S(=O)(=O)[O-])c4F)c4ccc([nH]4)c(-c4cccc(S(=O)(=O)[O-])c4F)c4nc(c(-c5cccc(S(=O)(=O)[O-])c5F)c5ccc2[nH]5)C=C4)C=C3)cc1
REMARK SMILES IDX 4 1 3 2 1 3 2 4 26 6 27 7 88 8 28 9 87 10 29 11 30 12 31 13
REMARK SMILES IDX 81 14 32 15 86 16 80 17 82 18 33 19 85 20 79 21 78 22 34 24
REMARK SMILES IDX 66 25 46 26 65 27 47 28 50 29 64 30 83 31 48 32 49 33 63 35
REMARK SMILES IDX 84 36 51 37 35 38 36 39 44 40 37 41 39 42 45 43 38 44 40 45
REMARK SMILES IDX 41 46 42 47 43 48 67 49 68 50 76 51 69 52 71 53 77 54 70 55
REMARK SMILES IDX 72 56 73 57 74 58 75 59 52 60 53 61 61 62 54 63 56 64 62 65
REMARK SMILES IDX 55 66 57 67 58 68 59 69 60 70 5 71 6 72 7 73 8 74 9 75 10 77
REMARK SMILES IDX 11 78 12 79 25 80 13 81 24 82 14 83 15 84 16 85 23 86 17 87
REMARK SMILES IDX 18 88 22 89 19 90 21 91 20 92
REMARK H PARENT 3 5 82 23 50 34 8 76
REMARK Flexibility Score: inf
ROOT
ATOM      1  C   UNL A   1      32.663  32.920  27.030  1.00  0.00     0.116 C 
ENDROOT
BRANCH   1   2
ATOM      2  N   UNL A   1      32.496  34.216  27.706  1.00  0.00    -0.352 N 
ATOM      3  O   UNL A   1      32.640  35.578  29.530  1.00  0.00    -0.269 OA
ATOM      4  C   UNL A   1      33.110  34.660  28.875  1.00  0.00     0.251 C 
ATOM      5  H   UNL A   1      31.873  34.848  27.279  1.00  0.00     0.163 HD
BRANCH   4   6
ATOM      6  C   UNL A   1      34.366  34.004  29.284  1.00  0.00     0.039 A 
ATOM      7  C   UNL A   1      34.522  33.233  30.437  1.00  0.00     0.014 A 
ATOM      8  C   UNL A   1      35.422  34.154  28.401  1.00  0.00     0.014 A 
ATOM      9  C   UNL A   1      35.762  32.631  30.650  1.00  0.00     0.010 A 
ATOM     10  C   UNL A   1      36.416  33.237  28.402  1.00  0.00     0.010 A 
ATOM     11  C   UNL A   1      36.712  32.666  29.615  1.00  0.00    -0.014 A 
BRANCH  11  12
ATOM     12  C   UNL A   1      38.050  32.117  29.717  1.00  0.00     0.031 A 
ATOM     13  C   UNL A   1      38.160  30.757  29.157  1.00  0.00     0.074 A 
ATOM     14  C   UNL A   1      39.116  32.859  30.105  1.00  0.00     0.049 A 
ATOM     15  N   UNL A   1      38.245  29.658  29.823  1.00  0.00    -0.248 NA
ATOM     16  C   UNL A   1      37.938  30.578  27.714  1.00  0.00     0.031 C 
ATOM     17  C   UNL A   1      39.200  34.307  30.378  1.00  0.00     0.029 A 
ATOM     18  N   UNL A   1      40.412  32.477  30.230  1.00  0.00    -0.354 N 
ATOM     19  C   UNL A   1      38.354  28.662  28.865  1.00  0.00     0.074 A 
ATOM     20  C   UNL A   1      37.936  29.247  27.617  1.00  0.00     0.031 C 
ATOM     21  C   UNL A   1      40.495  34.698  30.389  1.00  0.00     0.029 A 
ATOM     22  C   UNL A   1      41.333  33.521  30.309  1.00  0.00     0.049 A 
ATOM     23  H   UNL A   1      40.682  31.530  30.261  1.00  0.00     0.167 HD
ATOM     24  C   UNL A   1      39.039  27.517  29.125  1.00  0.00     0.034 A 
ATOM     25  C   UNL A   1      42.685  33.398  30.275  1.00  0.00     0.034 A 
ATOM     26  C   UNL A   1      39.329  27.383  30.530  1.00  0.00     0.049 A 
ATOM     27  C   UNL A   1      42.973  32.000  30.677  1.00  0.00     0.074 A 
ATOM     28  C   UNL A   1      38.562  27.286  31.675  1.00  0.00     0.029 A 
ATOM     29  N   UNL A   1      40.576  27.794  30.939  1.00  0.00    -0.354 N 
ATOM     30  N   UNL A   1      42.698  31.518  31.857  1.00  0.00    -0.248 NA
ATOM     31  C   UNL A   1      43.142  31.019  29.618  1.00  0.00     0.031 C 
ATOM     32  C   UNL A   1      39.242  28.085  32.642  1.00  0.00     0.029 A 
ATOM     33  C   UNL A   1      40.421  28.562  32.064  1.00  0.00     0.049 A 
ATOM     34  H   UNL A   1      41.430  27.575  30.501  1.00  0.00     0.167 HD
ATOM     35  C   UNL A   1      42.213  30.243  31.602  1.00  0.00     0.074 A 
ATOM     36  C   UNL A   1      42.602  29.956  30.221  1.00  0.00     0.031 C 
ATOM     37  C   UNL A   1      41.291  29.663  32.422  1.00  0.00     0.034 A 
BRANCH  24  38
ATOM     38  C   UNL A   1      39.762  26.713  28.083  1.00  0.00     0.023 A 
ATOM     39  C   UNL A   1      39.473  25.338  27.998  1.00  0.00     0.012 A 
ATOM     40  C   UNL A   1      40.880  27.190  27.359  1.00  0.00     0.148 A 
ATOM     41  C   UNL A   1      40.264  24.475  27.234  1.00  0.00     0.002 A 
ATOM     42  C   UNL A   1      41.617  26.344  26.543  1.00  0.00     0.091 A 
ATOM     43  F   UNL A   1      41.319  28.436  27.560  1.00  0.00    -0.205 F 
ATOM     44  C   UNL A   1      41.328  24.979  26.493  1.00  0.00     0.022 A 
BRANCH  42  45
ATOM     45  S   UNL A   1      42.985  26.950  25.550  1.00  0.00     0.127 S 
ATOM     46  O   UNL A   1      43.442  25.723  24.902  1.00  0.00    -0.237 OA
ATOM     47  O   UNL A   1      42.315  27.906  24.669  1.00  0.00    -0.237 OA
ATOM     48  O   UNL A   1      43.912  27.558  26.496  1.00  0.00    -0.744 OA
ENDBRANCH  42  45
ENDBRANCH  24  38
BRANCH  25  49
ATOM     49  C   UNL A   1      43.723  34.245  29.624  1.00  0.00     0.023 A 
ATOM     50  C   UNL A   1      44.612  34.979  30.440  1.00  0.00     0.012 A 
ATOM     51  C   UNL A   1      44.064  34.082  28.264  1.00  0.00     0.148 A 
ATOM     52  C   UNL A   1      45.832  35.458  29.944  1.00  0.00     0.002 A 
ATOM     53  C   UNL A   1      45.274  34.568  27.772  1.00  0.00     0.091 A 
ATOM     54  F   UNL A   1      43.252  33.369  27.473  1.00  0.00    -0.205 F 
ATOM     55  C   UNL A   1      46.172  35.237  28.615  1.00  0.00     0.022 A 
BRANCH  53  56
ATOM     56  S   UNL A   1      45.783  34.314  26.067  1.00  0.00     0.127 S 
ATOM     57  O   UNL A   1      44.571  34.672  25.329  1.00  0.00    -0.237 OA
ATOM     58  O   UNL A   1      46.885  35.263  25.935  1.00  0.00    -0.237 OA
ATOM     59  O   UNL A   1      46.142  32.904  25.974  1.00  0.00    -0.744 OA
ENDBRANCH  53  56
ENDBRANCH  25  49
BRANCH  37  60
ATOM     60  C   UNL A   1      40.986  30.345  33.734  1.00  0.00     0.023 A 
ATOM     61  C   UNL A   1      41.881  30.335  34.826  1.00  0.00     0.012 A 
ATOM     62  C   UNL A   1      39.860  31.181  33.787  1.00  0.00     0.148 A 
ATOM     63  C   UNL A   1      41.658  31.146  35.943  1.00  0.00     0.002 A 
ATOM     64  C   UNL A   1      39.660  32.013  34.882  1.00  0.00     0.091 A 
ATOM     65  F   UNL A   1      39.029  31.182  32.735  1.00  0.00    -0.205 F 
ATOM     66  C   UNL A   1      40.555  31.997  35.964  1.00  0.00     0.022 A 
BRANCH  64  67
ATOM     67  S   UNL A   1      38.321  33.205  34.928  1.00  0.00     0.127 S 
ATOM     68  O   UNL A   1      38.579  33.903  36.185  1.00  0.00    -0.237 OA
ATOM     69  O   UNL A   1      38.573  33.998  33.724  1.00  0.00    -0.237 OA
ATOM     70  O   UNL A   1      37.087  32.431  34.890  1.00  0.00    -0.744 OA
ENDBRANCH  64  67
ENDBRANCH  37  60
ENDBRANCH  11  12
ENDBRANCH   4   6
ENDBRANCH   1   2
BRANCH   1  71
ATOM     71  C   UNL A   1      31.357  32.234  26.676  1.00  0.00     0.023 C 
BRANCH  71  72
ATOM     72  C   UNL A   1      31.434  30.702  26.676  1.00  0.00     0.023 C 
BRANCH  72  73
ATOM     73  C   UNL A   1      31.806  30.037  25.344  1.00  0.00     0.116 C 
BRANCH  73  74
ATOM     74  N   UNL A   1      30.714  30.074  24.384  1.00  0.00    -0.352 N 
ATOM     75  C   UNL A   1      30.381  29.136  23.433  1.00  0.00     0.252 C 
ATOM     76  H   UNL A   1      30.140  30.872  24.419  1.00  0.00     0.163 HD
ATOM     77  O   UNL A   1      29.664  29.411  22.487  1.00  0.00    -0.269 OA
BRANCH  75  78
ATOM     78  C   UNL A   1      30.954  27.788  23.541  1.00  0.00     0.058 A 
ATOM     79  C   UNL A   1      30.452  26.845  24.434  1.00  0.00     0.019 A 
ATOM     80  C   UNL A   1      32.049  27.460  22.760  1.00  0.00     0.127 A 
ATOM     81  C   UNL A   1      31.088  25.614  24.537  1.00  0.00     0.048 A 
ATOM     82  N   UNL A   1      32.726  26.289  22.879  1.00  0.00    -0.238 NA
ATOM     83  C   UNL A   1      32.208  25.374  23.740  1.00  0.00     0.138 A 
BRANCH  83  84
ATOM     84  N   UNL A   1      32.860  24.123  23.830  1.00  0.00    -0.283 N 
ATOM     85  C   UNL A   1      32.348  22.932  23.370  1.00  0.00     0.206 A 
ATOM     86  C   UNL A   1      34.085  23.838  24.408  1.00  0.00     0.074 A 
ATOM     87  N   UNL A   1      33.200  21.938  23.495  1.00  0.00    -0.236 NA
ATOM     88  C   UNL A   1      34.269  22.478  24.165  1.00  0.00     0.089 A 
ATOM     89  C   UNL A   1      34.988  24.591  25.175  1.00  0.00     0.029 A 
ATOM     90  C   UNL A   1      35.432  21.848  24.637  1.00  0.00     0.030 A 
ATOM     91  C   UNL A   1      36.125  23.939  25.660  1.00  0.00     0.002 A 
ATOM     92  C   UNL A   1      36.351  22.592  25.387  1.00  0.00     0.002 A 
ENDBRANCH  83  84
ENDBRANCH  75  78
ENDBRANCH  73  74
ENDBRANCH  72  73
ENDBRANCH  71  72
ENDBRANCH   1  71
TORSDOF 15
ENDMDL
MODEL 3
REMARK VINA RESULT:     -12.4      2.195      2.493
REMARK SMILES O=C(NCCCCNC(=O)c1ccc(-n2cnc3ccccc32)nc1)c1ccc(-c2c3nc(c(-c4cccc(S(=O)(=O)[O-])c4F)c4ccc([nH]4)c(-c4cccc(S(=O)(=O)[O-])c4F)c4nc(c(-c5cccc(S(=O)(=O)[O-])c5F)c5ccc2[nH]5)C=C4)C=C3)cc1
REMARK SMILES IDX 4 1 3 2 1 3 2 4 26 6 27 7 88 8 28 9 87 10 29 11 30 12 31 13
REMARK SMILES IDX 81 14 32 15 86 16 80 17 82 18 33 19 85 20 79 21 78 22 34 24
REMARK SMILES IDX 66 25 46 26 65 27 47 28 50 29 64 30 83 31 48 32 49 33 63 35
REMARK SMILES IDX 84 36 51 37 35 38 36 39 44 40 37 41 39 42 45 43 38 44 40 45
REMARK SMILES IDX 41 46 42 47 43 48 67 49 68 50 76 51 69 52 71 53 77 54 70 55
REMARK SMILES IDX 72 56 73 57 74 58 75 59 52 60 53 61 61 62 54 63 56 64 62 65
REMARK SMILES IDX 55 66 57 67 58 68 59 69 60 70 5 71 6 72 7 73 8 74 9 75 10 77
REMARK SMILES IDX 11 78 12 79 25 80 13 81 24 82 14 83 15 84 16 85 23 86 17 87
REMARK SMILES IDX 18 88 22 89 19 90 21 91 20 92
REMARK H PARENT 3 5 82 23 50 34 8 76
REMARK Flexibility Score: inf
ROOT
ATOM      1  C   UNL A   1      39.826  19.409  26.279  1.00  0.00     0.116 C 
ENDROOT
BRANCH   1   2
ATOM      2  N   UNL A   1      41.127  18.863  25.856  1.00  0.00    -0.352 N 
ATOM      3  O   UNL A   1      43.196  19.067  24.920  1.00  0.00    -0.269 OA
ATOM      4  C   UNL A   1      42.305  19.558  25.596  1.00  0.00     0.251 C 
ATOM      5  H   UNL A   1      41.168  17.885  25.744  1.00  0.00     0.163 HD
BRANCH   4   6
ATOM      6  C   UNL A   1      42.458  20.899  26.190  1.00  0.00     0.039 A 
ATOM      7  C   UNL A   1      42.712  22.065  25.465  1.00  0.00     0.014 A 
ATOM      8  C   UNL A   1      42.278  20.960  27.561  1.00  0.00     0.014 A 
ATOM      9  C   UNL A   1      42.771  23.266  26.173  1.00  0.00     0.010 A 
ATOM     10  C   UNL A   1      41.907  22.132  28.126  1.00  0.00     0.010 A 
ATOM     11  C   UNL A   1      42.381  23.270  27.523  1.00  0.00    -0.014 A 
BRANCH  11  12
ATOM     12  C   UNL A   1      42.430  24.437  28.383  1.00  0.00     0.031 A 
ATOM     13  C   UNL A   1      41.295  25.355  28.175  1.00  0.00     0.074 A 
ATOM     14  C   UNL A   1      43.320  24.557  29.398  1.00  0.00     0.049 A 
ATOM     15  N   UNL A   1      41.326  26.484  27.556  1.00  0.00    -0.248 NA
ATOM     16  C   UNL A   1      39.944  24.876  28.501  1.00  0.00     0.031 C 
ATOM     17  C   UNL A   1      44.290  23.573  29.915  1.00  0.00     0.029 A 
ATOM     18  N   UNL A   1      43.466  25.579  30.278  1.00  0.00    -0.354 N 
ATOM     19  C   UNL A   1      40.036  26.982  27.648  1.00  0.00     0.074 A 
ATOM     20  C   UNL A   1      39.195  25.874  28.026  1.00  0.00     0.031 C 
ATOM     21  C   UNL A   1      44.726  23.955  31.138  1.00  0.00     0.029 A 
ATOM     22  C   UNL A   1      44.218  25.283  31.413  1.00  0.00     0.049 A 
ATOM     23  H   UNL A   1      43.066  26.467  30.126  1.00  0.00     0.167 HD
ATOM     24  C   UNL A   1      39.805  28.321  27.672  1.00  0.00     0.034 A 
ATOM     25  C   UNL A   1      44.368  26.078  32.504  1.00  0.00     0.034 A 
ATOM     26  C   UNL A   1      40.981  29.066  27.297  1.00  0.00     0.049 A 
ATOM     27  C   UNL A   1      44.061  27.454  32.044  1.00  0.00     0.074 A 
ATOM     28  C   UNL A   1      41.766  29.134  26.164  1.00  0.00     0.029 A 
ATOM     29  N   UNL A   1      41.755  29.545  28.328  1.00  0.00    -0.354 N 
ATOM     30  N   UNL A   1      44.772  28.093  31.157  1.00  0.00    -0.248 NA
ATOM     31  C   UNL A   1      42.703  27.937  32.232  1.00  0.00     0.031 C 
ATOM     32  C   UNL A   1      43.106  29.208  26.648  1.00  0.00     0.029 A 
ATOM     33  C   UNL A   1      43.064  29.258  28.043  1.00  0.00     0.049 A 
ATOM     34  H   UNL A   1      41.425  30.013  29.130  1.00  0.00     0.167 HD
ATOM     35  C   UNL A   1      43.832  28.738  30.365  1.00  0.00     0.074 A 
ATOM     36  C   UNL A   1      42.587  28.686  31.132  1.00  0.00     0.031 C 
ATOM     37  C   UNL A   1      44.073  28.987  29.046  1.00  0.00     0.034 A 
BRANCH  24  38
ATOM     38  C   UNL A   1      38.649  28.964  28.382  1.00  0.00     0.023 A 
ATOM     39  C   UNL A   1      37.772  29.760  27.620  1.00  0.00     0.012 A 
ATOM     40  C   UNL A   1      38.527  29.025  29.790  1.00  0.00     0.148 A 
ATOM     41  C   UNL A   1      36.822  30.584  28.231  1.00  0.00     0.002 A 
ATOM     42  C   UNL A   1      37.534  29.786  30.389  1.00  0.00     0.091 A 
ATOM     43  F   UNL A   1      39.456  28.452  30.562  1.00  0.00    -0.205 F 
ATOM     44  C   UNL A   1      36.691  30.587  29.616  1.00  0.00     0.022 A 
BRANCH  42  45
ATOM     45  S   UNL A   1      37.310  29.807  32.171  1.00  0.00     0.127 S 
ATOM     46  O   UNL A   1      38.512  30.513  32.609  1.00  0.00    -0.237 OA
ATOM     47  O   UNL A   1      36.063  30.559  32.308  1.00  0.00    -0.237 OA
ATOM     48  O   UNL A   1      37.209  28.407  32.566  1.00  0.00    -0.744 OA
ENDBRANCH  42  45
ENDBRANCH  24  38
BRANCH  25  49
ATOM     49  C   UNL A   1      44.424  25.742  33.953  1.00  0.00     0.023 A 
ATOM     50  C   UNL A   1      43.243  25.843  34.722  1.00  0.00     0.012 A 
ATOM     51  C   UNL A   1      45.504  25.018  34.503  1.00  0.00     0.148 A 
ATOM     52  C   UNL A   1      43.111  25.179  35.949  1.00  0.00     0.002 A 
ATOM     53  C   UNL A   1      45.372  24.367  35.729  1.00  0.00     0.091 A 
ATOM     54  F   UNL A   1      46.627  24.885  33.786  1.00  0.00    -0.205 F 
ATOM     55  C   UNL A   1      44.169  24.426  36.444  1.00  0.00     0.022 A 
BRANCH  53  56
ATOM     56  S   UNL A   1      46.695  23.369  36.428  1.00  0.00     0.127 S 
ATOM     57  O   UNL A   1      47.756  24.359  36.618  1.00  0.00    -0.237 OA
ATOM     58  O   UNL A   1      46.085  22.879  37.660  1.00  0.00    -0.237 OA
ATOM     59  O   UNL A   1      46.994  22.360  35.419  1.00  0.00    -0.744 OA
ENDBRANCH  53  56
ENDBRANCH  25  49
BRANCH  37  60
ATOM     60  C   UNL A   1      45.472  28.752  28.528  1.00  0.00     0.023 A 
ATOM     61  C   UNL A   1      45.914  27.491  28.070  1.00  0.00     0.012 A 
ATOM     62  C   UNL A   1      46.285  29.875  28.316  1.00  0.00     0.148 A 
ATOM     63  C   UNL A   1      47.139  27.360  27.408  1.00  0.00     0.002 A 
ATOM     64  C   UNL A   1      47.485  29.747  27.627  1.00  0.00     0.091 A 
ATOM     65  F   UNL A   1      45.840  31.063  28.750  1.00  0.00    -0.205 F 
ATOM     66  C   UNL A   1      47.918  28.491  27.173  1.00  0.00     0.022 A 
BRANCH  64  67
ATOM     67  S   UNL A   1      48.483  31.175  27.199  1.00  0.00     0.127 S 
ATOM     68  O   UNL A   1      49.608  30.560  26.499  1.00  0.00    -0.237 OA
ATOM     69  O   UNL A   1      47.575  31.942  26.346  1.00  0.00    -0.237 OA
ATOM     70  O   UNL A   1      48.819  31.828  28.458  1.00  0.00    -0.744 OA
ENDBRANCH  64  67
ENDBRANCH  37  60
ENDBRANCH  11  12
ENDBRANCH   4   6
ENDBRANCH   1   2
BRANCH   1  71
ATOM     71  C   UNL A   1      39.185  20.334  25.262  1.00  0.00     0.023 C 
BRANCH  71  72
ATOM     72  C   UNL A   1      38.850  21.728  25.807  1.00  0.00     0.023 C 
BRANCH  72  73
ATOM     73  C   UNL A   1      37.549  22.365  25.302  1.00  0.00     0.116 C 
BRANCH  73  74
ATOM     74  N   UNL A   1      36.455  21.409  25.235  1.00  0.00    -0.352 N 
ATOM     75  C   UNL A   1      35.101  21.658  25.249  1.00  0.00     0.252 C 
ATOM     76  H   UNL A   1      36.716  20.463  25.171  1.00  0.00     0.163 HD
ATOM     77  O   UNL A   1      34.293  20.784  25.512  1.00  0.00    -0.269 OA
BRANCH  75  78
ATOM     78  C   UNL A   1      34.633  23.026  24.994  1.00  0.00     0.058 A 
ATOM     79  C   UNL A   1      34.275  23.886  26.028  1.00  0.00     0.019 A 
ATOM     80  C   UNL A   1      34.508  23.458  23.684  1.00  0.00     0.127 A 
ATOM     81  C   UNL A   1      33.771  25.142  25.711  1.00  0.00     0.048 A 
ATOM     82  N   UNL A   1      33.965  24.654  23.343  1.00  0.00    -0.238 NA
ATOM     83  C   UNL A   1      33.641  25.488  24.365  1.00  0.00     0.138 A 
BRANCH  83  84
ATOM     84  N   UNL A   1      33.136  26.765  24.030  1.00  0.00    -0.283 N 
ATOM     85  C   UNL A   1      33.890  27.912  23.941  1.00  0.00     0.206 A 
ATOM     86  C   UNL A   1      31.826  27.123  23.767  1.00  0.00     0.074 A 
ATOM     87  N   UNL A   1      33.188  28.942  23.520  1.00  0.00    -0.236 NA
ATOM     88  C   UNL A   1      31.900  28.475  23.438  1.00  0.00     0.089 A 
ATOM     89  C   UNL A   1      30.601  26.441  23.864  1.00  0.00     0.029 A 
ATOM     90  C   UNL A   1      30.722  29.169  23.119  1.00  0.00     0.030 A 
ATOM     91  C   UNL A   1      29.438  27.157  23.571  1.00  0.00     0.002 A 
ATOM     92  C   UNL A   1      29.495  28.497  23.193  1.00  0.00     0.002 A 
ENDBRANCH  83  84
ENDBRANCH  75  78
ENDBRANCH  73  74
ENDBRANCH  72  73
ENDBRANCH  71  72
ENDBRANCH   1  71
TORSDOF 15
ENDMDL
