MODEL 1
REMARK VINA RESULT:     -10.8      0.000      0.000
REMARK SMILES O=C(COCC(=O)Nc1cccc([N+](=O)[O-])c1)NCCCCNC(=O)c1ccc(-c2c3nc(c(-c4cccc(S(=O)(=O)[O-])c4F)c4ccc([nH]4)c(-c4cccc(S(=O)(=O)[O-])c4F)c4nc(c(-c5cccc(S(=O)(=O)[O-])c5F)c5ccc2[nH]5)C=C4)C=C3)cc1
REMARK SMILES IDX 19 1 18 2 1 3 2 4 3 6 4 7 5 8 6 9 7 10 8 11 9 13 10 14 17 15
REMARK SMILES IDX 11 16 13 17 12 18 14 19 15 20 16 21 20 22 21 23 22 24 23 25
REMARK SMILES IDX 24 26 25 28 26 29 27 30 88 31 28 32 87 33 29 34 30 35 31 36
REMARK SMILES IDX 81 37 32 38 86 39 80 40 82 41 33 42 85 43 79 44 78 45 34 47
REMARK SMILES IDX 66 48 46 49 65 50 47 51 50 52 64 53 83 54 48 55 49 56 63 58
REMARK SMILES IDX 84 59 51 60 35 61 36 62 44 63 37 64 39 65 45 66 38 67 40 68
REMARK SMILES IDX 41 69 42 70 43 71 67 72 68 73 76 74 69 75 71 76 77 77 70 78
REMARK SMILES IDX 72 79 73 80 74 81 75 82 52 83 53 84 61 85 54 86 56 87 62 88
REMARK SMILES IDX 55 89 57 90 58 91 59 92 60 93
REMARK H PARENT 18 5 8 12 23 27 82 46 50 57
REMARK Flexibility Score: inf
ROOT
ATOM      1  C   UNL A   1      32.702  30.372  26.959  1.00  0.00     0.116 C 
ENDROOT
BRANCH   1   2
ATOM      2  N   UNL A   1      32.736  29.010  26.484  1.00  0.00    -0.354 N 
ATOM      3  O   UNL A   1      31.418  28.114  28.150  1.00  0.00    -0.272 OA
ATOM      4  C   UNL A   1      32.085  27.981  27.130  1.00  0.00     0.246 C 
ATOM      5  H   UNL A   1      33.243  28.808  25.665  1.00  0.00     0.163 HD
BRANCH   4   6
ATOM      6  C   UNL A   1      32.325  26.628  26.471  1.00  0.00     0.260 C 
BRANCH   6   7
ATOM      7  O   UNL A   1      31.283  25.690  26.715  1.00  0.00    -0.362 OA
BRANCH   7   8
ATOM      8  C   UNL A   1      31.663  24.343  26.515  1.00  0.00     0.261 C 
BRANCH   8   9
ATOM      9  C   UNL A   1      30.812  23.402  25.638  1.00  0.00     0.250 C 
ATOM     10  O   UNL A   1      30.363  22.349  26.103  1.00  0.00    -0.272 OA
ATOM     11  N   UNL A   1      30.417  23.767  24.379  1.00  0.00    -0.324 N 
ATOM     12  H   UNL A   1      29.706  23.203  23.998  1.00  0.00     0.170 HD
BRANCH  11  13
ATOM     13  C   UNL A   1      30.848  24.801  23.537  1.00  0.00     0.048 A 
ATOM     14  C   UNL A   1      31.906  24.529  22.665  1.00  0.00     0.026 A 
ATOM     15  C   UNL A   1      30.321  26.089  23.574  1.00  0.00     0.111 A 
ATOM     16  C   UNL A   1      32.360  25.504  21.768  1.00  0.00     0.009 A 
ATOM     17  C   UNL A   1      30.773  27.065  22.678  1.00  0.00     0.271 A 
ATOM     18  C   UNL A   1      31.783  26.773  21.759  1.00  0.00     0.086 A 
BRANCH  17  19
ATOM     19  N   UNL A   1      30.190  28.414  22.728  1.00  0.00     0.062 N 
ATOM     20  O   UNL A   1      29.752  28.886  21.671  1.00  0.00    -0.258 OA
ATOM     21  O   UNL A   1      30.185  28.998  23.820  1.00  0.00    -0.258 OA
ENDBRANCH  17  19
ENDBRANCH  11  13
ENDBRANCH   8   9
ENDBRANCH   7   8
ENDBRANCH   6   7
ENDBRANCH   4   6
ENDBRANCH   1   2
BRANCH   1  22
ATOM     22  C   UNL A   1      31.504  31.140  26.405  1.00  0.00     0.023 C 
BRANCH  22  23
ATOM     23  C   UNL A   1      31.509  32.643  26.703  1.00  0.00     0.023 C 
BRANCH  23  24
ATOM     24  C   UNL A   1      32.831  33.208  27.215  1.00  0.00     0.116 C 
BRANCH  24  25
ATOM     25  N   UNL A   1      32.678  34.495  27.877  1.00  0.00    -0.352 N 
ATOM     26  C   UNL A   1      33.333  34.996  28.975  1.00  0.00     0.251 C 
ATOM     27  H   UNL A   1      32.004  35.094  27.480  1.00  0.00     0.163 HD
ATOM     28  O   UNL A   1      32.960  36.056  29.476  1.00  0.00    -0.269 OA
BRANCH  26  29
ATOM     29  C   UNL A   1      34.467  34.256  29.571  1.00  0.00     0.039 A 
ATOM     30  C   UNL A   1      35.758  34.499  29.090  1.00  0.00     0.014 A 
ATOM     31  C   UNL A   1      34.266  33.329  30.596  1.00  0.00     0.014 A 
ATOM     32  C   UNL A   1      36.851  33.861  29.683  1.00  0.00     0.010 A 
ATOM     33  C   UNL A   1      35.363  32.754  31.236  1.00  0.00     0.010 A 
ATOM     34  C   UNL A   1      36.667  33.011  30.786  1.00  0.00    -0.014 A 
BRANCH  34  35
ATOM     35  C   UNL A   1      37.826  32.402  31.492  1.00  0.00     0.031 A 
ATOM     36  C   UNL A   1      38.602  31.277  30.860  1.00  0.00     0.074 A 
ATOM     37  C   UNL A   1      38.128  32.804  32.743  1.00  0.00     0.049 A 
ATOM     38  N   UNL A   1      39.606  30.594  31.345  1.00  0.00    -0.248 NA
ATOM     39  C   UNL A   1      38.180  30.847  29.517  1.00  0.00     0.031 C 
ATOM     40  C   UNL A   1      37.409  33.833  33.498  1.00  0.00     0.029 A 
ATOM     41  N   UNL A   1      39.104  32.380  33.611  1.00  0.00    -0.354 N 
ATOM     42  C   UNL A   1      39.910  29.632  30.389  1.00  0.00     0.074 A 
ATOM     43  C   UNL A   1      38.964  29.800  29.308  1.00  0.00     0.031 C 
ATOM     44  C   UNL A   1      37.972  33.965  34.709  1.00  0.00     0.029 A 
ATOM     45  C   UNL A   1      39.068  33.009  34.834  1.00  0.00     0.049 A 
ATOM     46  H   UNL A   1      39.769  31.691  33.380  1.00  0.00     0.167 HD
ATOM     47  C   UNL A   1      40.901  28.708  30.398  1.00  0.00     0.034 A 
ATOM     48  C   UNL A   1      39.821  32.830  35.937  1.00  0.00     0.034 A 
ATOM     49  C   UNL A   1      41.862  28.566  31.459  1.00  0.00     0.049 A 
ATOM     50  C   UNL A   1      40.930  31.813  35.910  1.00  0.00     0.074 A 
ATOM     51  C   UNL A   1      42.959  27.724  31.517  1.00  0.00     0.029 A 
ATOM     52  N   UNL A   1      41.836  29.269  32.652  1.00  0.00    -0.354 N 
ATOM     53  N   UNL A   1      41.303  31.024  34.932  1.00  0.00    -0.248 NA
ATOM     54  C   UNL A   1      41.746  31.688  37.127  1.00  0.00     0.031 C 
ATOM     55  C   UNL A   1      43.573  27.890  32.762  1.00  0.00     0.029 A 
ATOM     56  C   UNL A   1      42.885  28.868  33.462  1.00  0.00     0.049 A 
ATOM     57  H   UNL A   1      41.169  29.954  32.890  1.00  0.00     0.167 HD
ATOM     58  C   UNL A   1      42.419  30.338  35.400  1.00  0.00     0.074 A 
ATOM     59  C   UNL A   1      42.672  30.820  36.743  1.00  0.00     0.031 C 
ATOM     60  C   UNL A   1      43.158  29.388  34.778  1.00  0.00     0.034 A 
BRANCH  47  61
ATOM     61  C   UNL A   1      41.021  27.795  29.204  1.00  0.00     0.023 A 
ATOM     62  C   UNL A   1      40.285  26.592  29.164  1.00  0.00     0.012 A 
ATOM     63  C   UNL A   1      41.813  28.156  28.095  1.00  0.00     0.148 A 
ATOM     64  C   UNL A   1      40.366  25.745  28.059  1.00  0.00     0.002 A 
ATOM     65  C   UNL A   1      41.849  27.330  26.978  1.00  0.00     0.091 A 
ATOM     66  F   UNL A   1      42.519  29.294  28.157  1.00  0.00    -0.205 F 
ATOM     67  C   UNL A   1      41.139  26.119  26.964  1.00  0.00     0.022 A 
BRANCH  65  68
ATOM     68  S   UNL A   1      42.749  27.761  25.483  1.00  0.00     0.127 S 
ATOM     69  O   UNL A   1      42.591  26.547  24.683  1.00  0.00    -0.237 OA
ATOM     70  O   UNL A   1      41.996  28.916  24.994  1.00  0.00    -0.237 OA
ATOM     71  O   UNL A   1      44.111  28.056  25.904  1.00  0.00    -0.744 OA
ENDBRANCH  65  68
ENDBRANCH  47  61
BRANCH  48  72
ATOM     72  C   UNL A   1      39.590  33.674  37.145  1.00  0.00     0.023 A 
ATOM     73  C   UNL A   1      40.106  34.984  37.182  1.00  0.00     0.012 A 
ATOM     74  C   UNL A   1      38.852  33.195  38.244  1.00  0.00     0.148 A 
ATOM     75  C   UNL A   1      39.921  35.790  38.306  1.00  0.00     0.002 A 
ATOM     76  C   UNL A   1      38.624  34.023  39.337  1.00  0.00     0.091 A 
ATOM     77  F   UNL A   1      38.378  31.943  38.193  1.00  0.00    -0.205 F 
ATOM     78  C   UNL A   1      39.174  35.314  39.379  1.00  0.00     0.022 A 
BRANCH  76  79
ATOM     79  S   UNL A   1      37.567  33.544  40.708  1.00  0.00     0.127 S 
ATOM     80  O   UNL A   1      37.334  34.826  41.367  1.00  0.00    -0.237 OA
ATOM     81  O   UNL A   1      36.407  32.988  40.012  1.00  0.00    -0.237 OA
ATOM     82  O   UNL A   1      38.333  32.570  41.475  1.00  0.00    -0.744 OA
ENDBRANCH  76  79
ENDBRANCH  48  72
BRANCH  60  83
ATOM     83  C   UNL A   1      44.349  28.829  35.517  1.00  0.00     0.023 A 
ATOM     84  C   UNL A   1      45.627  29.388  35.323  1.00  0.00     0.012 A 
ATOM     85  C   UNL A   1      44.182  27.793  36.459  1.00  0.00     0.148 A 
ATOM     86  C   UNL A   1      46.728  28.901  36.029  1.00  0.00     0.002 A 
ATOM     87  C   UNL A   1      45.273  27.352  37.198  1.00  0.00     0.091 A 
ATOM     88  F   UNL A   1      42.961  27.263  36.617  1.00  0.00    -0.205 F 
ATOM     89  C   UNL A   1      46.548  27.894  36.973  1.00  0.00     0.022 A 
BRANCH  87  90
ATOM     90  S   UNL A   1      45.120  26.130  38.506  1.00  0.00     0.127 S 
ATOM     91  O   UNL A   1      44.665  24.955  37.764  1.00  0.00    -0.237 OA
ATOM     92  O   UNL A   1      46.491  26.042  39.008  1.00  0.00    -0.237 OA
ATOM     93  O   UNL A   1      44.161  26.676  39.458  1.00  0.00    -0.744 OA
ENDBRANCH  87  90
ENDBRANCH  60  83
ENDBRANCH  34  35
ENDBRANCH  26  29
ENDBRANCH  24  25
ENDBRANCH  23  24
ENDBRANCH  22  23
ENDBRANCH   1  22
TORSDOF 19
ENDMDL
MODEL 2
REMARK VINA RESULT:     -10.8      3.657      8.937
REMARK SMILES O=C(COCC(=O)Nc1cccc([N+](=O)[O-])c1)NCCCCNC(=O)c1ccc(-c2c3nc(c(-c4cccc(S(=O)(=O)[O-])c4F)c4ccc([nH]4)c(-c4cccc(S(=O)(=O)[O-])c4F)c4nc(c(-c5cccc(S(=O)(=O)[O-])c5F)c5ccc2[nH]5)C=C4)C=C3)cc1
REMARK SMILES IDX 19 1 18 2 1 3 2 4 3 6 4 7 5 8 6 9 7 10 8 11 9 13 10 14 17 15
REMARK SMILES IDX 11 16 13 17 12 18 14 19 15 20 16 21 20 22 21 23 22 24 23 25
REMARK SMILES IDX 24 26 25 28 26 29 27 30 88 31 28 32 87 33 29 34 30 35 31 36
REMARK SMILES IDX 81 37 32 38 86 39 80 40 82 41 33 42 85 43 79 44 78 45 34 47
REMARK SMILES IDX 66 48 46 49 65 50 47 51 50 52 64 53 83 54 48 55 49 56 63 58
REMARK SMILES IDX 84 59 51 60 35 61 36 62 44 63 37 64 39 65 45 66 38 67 40 68
REMARK SMILES IDX 41 69 42 70 43 71 67 72 68 73 76 74 69 75 71 76 77 77 70 78
REMARK SMILES IDX 72 79 73 80 74 81 75 82 52 83 53 84 61 85 54 86 56 87 62 88
REMARK SMILES IDX 55 89 57 90 58 91 59 92 60 93
REMARK H PARENT 18 5 8 12 23 27 82 46 50 57
REMARK Flexibility Score: inf
ROOT
ATOM      1  C   UNL A   1      33.724  25.889  23.889  1.00  0.00     0.116 C 
ENDROOT
BRANCH   1   2
ATOM      2  N   UNL A   1      34.439  25.027  24.798  1.00  0.00    -0.354 N 
ATOM      3  O   UNL A   1      35.270  23.587  23.202  1.00  0.00    -0.272 OA
ATOM      4  C   UNL A   1      35.159  23.932  24.373  1.00  0.00     0.246 C 
ATOM      5  H   UNL A   1      34.413  25.230  25.761  1.00  0.00     0.163 HD
BRANCH   4   6
ATOM      6  C   UNL A   1      35.770  23.145  25.527  1.00  0.00     0.260 C 
BRANCH   6   7
ATOM      7  O   UNL A   1      35.073  21.939  25.818  1.00  0.00    -0.362 OA
BRANCH   7   8
ATOM      8  C   UNL A   1      35.297  20.905  24.881  1.00  0.00     0.261 C 
BRANCH   8   9
ATOM      9  C   UNL A   1      34.244  19.801  24.653  1.00  0.00     0.250 C 
ATOM     10  O   UNL A   1      34.581  18.613  24.609  1.00  0.00    -0.272 OA
ATOM     11  N   UNL A   1      32.906  20.089  24.632  1.00  0.00    -0.324 N 
ATOM     12  H   UNL A   1      32.321  19.300  24.704  1.00  0.00     0.170 HD
BRANCH  11  13
ATOM     13  C   UNL A   1      32.222  21.308  24.528  1.00  0.00     0.048 A 
ATOM     14  C   UNL A   1      32.167  21.915  23.269  1.00  0.00     0.026 A 
ATOM     15  C   UNL A   1      31.658  21.966  25.616  1.00  0.00     0.111 A 
ATOM     16  C   UNL A   1      31.467  23.112  23.085  1.00  0.00     0.009 A 
ATOM     17  C   UNL A   1      30.956  23.164  25.435  1.00  0.00     0.271 A 
ATOM     18  C   UNL A   1      30.843  23.735  24.166  1.00  0.00     0.086 A 
BRANCH  17  19
ATOM     19  N   UNL A   1      30.358  23.831  26.600  1.00  0.00     0.062 N 
ATOM     20  O   UNL A   1      30.038  23.121  27.562  1.00  0.00    -0.258 OA
ATOM     21  O   UNL A   1      30.197  25.058  26.540  1.00  0.00    -0.258 OA
ENDBRANCH  17  19
ENDBRANCH  11  13
ENDBRANCH   8   9
ENDBRANCH   7   8
ENDBRANCH   6   7
ENDBRANCH   4   6
ENDBRANCH   1   2
BRANCH   1  22
ATOM     22  C   UNL A   1      33.660  27.328  24.397  1.00  0.00     0.023 C 
BRANCH  22  23
ATOM     23  C   UNL A   1      32.968  27.501  25.753  1.00  0.00     0.023 C 
BRANCH  23  24
ATOM     24  C   UNL A   1      33.816  28.138  26.849  1.00  0.00     0.116 C 
BRANCH  24  25
ATOM     25  N   UNL A   1      33.574  29.565  26.995  1.00  0.00    -0.352 N 
ATOM     26  C   UNL A   1      34.336  30.521  27.621  1.00  0.00     0.251 C 
ATOM     27  H   UNL A   1      32.741  29.894  26.585  1.00  0.00     0.163 HD
ATOM     28  O   UNL A   1      33.890  31.659  27.764  1.00  0.00    -0.269 OA
BRANCH  26  29
ATOM     29  C   UNL A   1      35.678  30.183  28.145  1.00  0.00     0.039 A 
ATOM     30  C   UNL A   1      35.788  29.691  29.449  1.00  0.00     0.014 A 
ATOM     31  C   UNL A   1      36.822  30.347  27.362  1.00  0.00     0.014 A 
ATOM     32  C   UNL A   1      37.037  29.303  29.942  1.00  0.00     0.010 A 
ATOM     33  C   UNL A   1      38.053  29.887  27.827  1.00  0.00     0.010 A 
ATOM     34  C   UNL A   1      38.175  29.363  29.122  1.00  0.00    -0.014 A 
BRANCH  34  35
ATOM     35  C   UNL A   1      39.493  28.861  29.595  1.00  0.00     0.031 A 
ATOM     36  C   UNL A   1      40.229  29.568  30.702  1.00  0.00     0.074 A 
ATOM     37  C   UNL A   1      40.071  27.816  28.969  1.00  0.00     0.049 A 
ATOM     38  N   UNL A   1      41.405  29.305  31.211  1.00  0.00    -0.248 NA
ATOM     39  C   UNL A   1      39.566  30.738  31.302  1.00  0.00     0.031 C 
ATOM     40  C   UNL A   1      39.498  27.088  27.833  1.00  0.00     0.029 A 
ATOM     41  N   UNL A   1      41.279  27.198  29.180  1.00  0.00    -0.354 N 
ATOM     42  C   UNL A   1      41.641  30.295  32.158  1.00  0.00     0.074 A 
ATOM     43  C   UNL A   1      40.499  31.182  32.133  1.00  0.00     0.031 C 
ATOM     44  C   UNL A   1      40.349  26.122  27.455  1.00  0.00     0.029 A 
ATOM     45  C   UNL A   1      41.542  26.180  28.294  1.00  0.00     0.049 A 
ATOM     46  H   UNL A   1      41.899  27.460  29.899  1.00  0.00     0.167 HD
ATOM     47  C   UNL A   1      42.701  30.440  32.989  1.00  0.00     0.034 A 
ATOM     48  C   UNL A   1      42.625  25.389  28.160  1.00  0.00     0.034 A 
ATOM     49  C   UNL A   1      43.819  29.536  33.036  1.00  0.00     0.049 A 
ATOM     50  C   UNL A   1      43.777  25.556  29.114  1.00  0.00     0.074 A 
ATOM     51  C   UNL A   1      44.894  29.544  33.907  1.00  0.00     0.029 A 
ATOM     52  N   UNL A   1      44.017  28.473  32.169  1.00  0.00    -0.354 N 
ATOM     53  N   UNL A   1      43.909  26.399  30.110  1.00  0.00    -0.248 NA
ATOM     54  C   UNL A   1      44.915  24.640  28.948  1.00  0.00     0.031 C 
ATOM     55  C   UNL A   1      45.762  28.511  33.542  1.00  0.00     0.029 A 
ATOM     56  C   UNL A   1      45.206  27.831  32.471  1.00  0.00     0.049 A 
ATOM     57  H   UNL A   1      43.403  28.213  31.444  1.00  0.00     0.167 HD
ATOM     58  C   UNL A   1      45.123  26.088  30.712  1.00  0.00     0.074 A 
ATOM     59  C   UNL A   1      45.679  24.968  29.981  1.00  0.00     0.031 C 
ATOM     60  C   UNL A   1      45.727  26.686  31.769  1.00  0.00     0.034 A 
BRANCH  47  61
ATOM     61  C   UNL A   1      42.687  31.603  33.948  1.00  0.00     0.023 A 
ATOM     62  C   UNL A   1      43.206  32.851  33.543  1.00  0.00     0.012 A 
ATOM     63  C   UNL A   1      42.106  31.480  35.226  1.00  0.00     0.148 A 
ATOM     64  C   UNL A   1      43.183  33.945  34.408  1.00  0.00     0.002 A 
ATOM     65  C   UNL A   1      42.043  32.588  36.063  1.00  0.00     0.091 A 
ATOM     66  F   UNL A   1      41.634  30.283  35.600  1.00  0.00    -0.205 F 
ATOM     67  C   UNL A   1      42.593  33.816  35.662  1.00  0.00     0.022 A 
BRANCH  65  68
ATOM     68  S   UNL A   1      41.230  32.548  37.665  1.00  0.00     0.127 S 
ATOM     69  O   UNL A   1      41.253  33.960  38.043  1.00  0.00    -0.237 OA
ATOM     70  O   UNL A   1      39.905  32.029  37.324  1.00  0.00    -0.237 OA
ATOM     71  O   UNL A   1      42.032  31.666  38.501  1.00  0.00    -0.744 OA
ENDBRANCH  65  68
ENDBRANCH  47  61
BRANCH  48  72
ATOM     72  C   UNL A   1      42.648  24.324  27.116  1.00  0.00     0.023 A 
ATOM     73  C   UNL A   1      43.435  24.504  25.962  1.00  0.00     0.012 A 
ATOM     74  C   UNL A   1      41.911  23.133  27.266  1.00  0.00     0.148 A 
ATOM     75  C   UNL A   1      43.462  23.532  24.960  1.00  0.00     0.002 A 
ATOM     76  C   UNL A   1      41.986  22.146  26.291  1.00  0.00     0.091 A 
ATOM     77  F   UNL A   1      41.162  22.986  28.368  1.00  0.00    -0.205 F 
ATOM     78  C   UNL A   1      42.745  22.351  25.129  1.00  0.00     0.022 A 
BRANCH  76  79
ATOM     79  S   UNL A   1      41.203  20.541  26.480  1.00  0.00     0.127 S 
ATOM     80  O   UNL A   1      42.033  19.701  25.620  1.00  0.00    -0.237 OA
ATOM     81  O   UNL A   1      41.358  20.298  27.914  1.00  0.00    -0.237 OA
ATOM     82  O   UNL A   1      39.824  20.721  26.044  1.00  0.00    -0.744 OA
ENDBRANCH  76  79
ENDBRANCH  48  72
BRANCH  60  83
ATOM     83  C   UNL A   1      47.042  26.116  32.239  1.00  0.00     0.023 A 
ATOM     84  C   UNL A   1      48.253  26.596  31.702  1.00  0.00     0.012 A 
ATOM     85  C   UNL A   1      47.076  25.151  33.267  1.00  0.00     0.148 A 
ATOM     86  C   UNL A   1      49.476  26.101  32.156  1.00  0.00     0.002 A 
ATOM     87  C   UNL A   1      48.298  24.703  33.751  1.00  0.00     0.091 A 
ATOM     88  F   UNL A   1      45.913  24.694  33.752  1.00  0.00    -0.205 F 
ATOM     89  C   UNL A   1      49.498  25.165  33.188  1.00  0.00     0.022 A 
BRANCH  87  90
ATOM     90  S   UNL A   1      48.428  23.575  35.144  1.00  0.00     0.127 S 
ATOM     91  O   UNL A   1      49.876  23.412  35.261  1.00  0.00    -0.237 OA
ATOM     92  O   UNL A   1      47.811  24.345  36.223  1.00  0.00    -0.237 OA
ATOM     93  O   UNL A   1      47.694  22.376  34.761  1.00  0.00    -0.744 OA
ENDBRANCH  87  90
ENDBRANCH  60  83
ENDBRANCH  34  35
ENDBRANCH  26  29
ENDBRANCH  24  25
ENDBRANCH  23  24
ENDBRANCH  22  23
ENDBRANCH   1  22
TORSDOF 19
ENDMDL
MODEL 3
REMARK VINA RESULT:     -10.7      2.903      8.473
REMARK SMILES O=C(COCC(=O)Nc1cccc([N+](=O)[O-])c1)NCCCCNC(=O)c1ccc(-c2c3nc(c(-c4cccc(S(=O)(=O)[O-])c4F)c4ccc([nH]4)c(-c4cccc(S(=O)(=O)[O-])c4F)c4nc(c(-c5cccc(S(=O)(=O)[O-])c5F)c5ccc2[nH]5)C=C4)C=C3)cc1
REMARK SMILES IDX 19 1 18 2 1 3 2 4 3 6 4 7 5 8 6 9 7 10 8 11 9 13 10 14 17 15
REMARK SMILES IDX 11 16 13 17 12 18 14 19 15 20 16 21 20 22 21 23 22 24 23 25
REMARK SMILES IDX 24 26 25 28 26 29 27 30 88 31 28 32 87 33 29 34 30 35 31 36
REMARK SMILES IDX 81 37 32 38 86 39 80 40 82 41 33 42 85 43 79 44 78 45 34 47
REMARK SMILES IDX 66 48 46 49 65 50 47 51 50 52 64 53 83 54 48 55 49 56 63 58
REMARK SMILES IDX 84 59 51 60 35 61 36 62 44 63 37 64 39 65 45 66 38 67 40 68
REMARK SMILES IDX 41 69 42 70 43 71 67 72 68 73 76 74 69 75 71 76 77 77 70 78
REMARK SMILES IDX 72 79 73 80 74 81 75 82 52 83 53 84 61 85 54 86 56 87 62 88
REMARK SMILES IDX 55 89 57 90 58 91 59 92 60 93
REMARK H PARENT 18 5 8 12 23 27 82 46 50 57
REMARK Flexibility Score: inf
ROOT
ATOM      1  C   UNL A   1      32.475  28.517  23.583  1.00  0.00     0.116 C 
ENDROOT
BRANCH   1   2
ATOM      2  N   UNL A   1      32.281  27.277  22.872  1.00  0.00    -0.354 N 
ATOM      3  O   UNL A   1      34.217  27.378  21.626  1.00  0.00    -0.272 OA
ATOM      4  C   UNL A   1      33.178  26.807  21.938  1.00  0.00     0.246 C 
ATOM      5  H   UNL A   1      31.475  26.745  23.063  1.00  0.00     0.163 HD
BRANCH   4   6
ATOM      6  C   UNL A   1      32.718  25.511  21.281  1.00  0.00     0.260 C 
BRANCH   6   7
ATOM      7  O   UNL A   1      33.242  24.344  21.907  1.00  0.00    -0.362 OA
BRANCH   7   8
ATOM      8  C   UNL A   1      32.298  23.633  22.681  1.00  0.00     0.261 C 
BRANCH   8   9
ATOM      9  C   UNL A   1      32.109  23.942  24.180  1.00  0.00     0.250 C 
ATOM     10  O   UNL A   1      31.469  24.936  24.539  1.00  0.00    -0.272 OA
ATOM     11  N   UNL A   1      32.521  23.063  25.145  1.00  0.00    -0.324 N 
ATOM     12  H   UNL A   1      32.159  23.247  26.042  1.00  0.00     0.170 HD
BRANCH  11  13
ATOM     13  C   UNL A   1      33.365  21.946  25.081  1.00  0.00     0.048 A 
ATOM     14  C   UNL A   1      34.745  22.174  25.105  1.00  0.00     0.026 A 
ATOM     15  C   UNL A   1      32.902  20.642  24.931  1.00  0.00     0.111 A 
ATOM     16  C   UNL A   1      35.645  21.103  25.084  1.00  0.00     0.009 A 
ATOM     17  C   UNL A   1      33.801  19.569  24.910  1.00  0.00     0.271 A 
ATOM     18  C   UNL A   1      35.176  19.792  25.003  1.00  0.00     0.086 A 
BRANCH  17  19
ATOM     19  N   UNL A   1      33.284  18.200  24.765  1.00  0.00     0.062 N 
ATOM     20  O   UNL A   1      34.008  17.374  24.195  1.00  0.00    -0.258 OA
ATOM     21  O   UNL A   1      32.152  17.963  25.208  1.00  0.00    -0.258 OA
ENDBRANCH  17  19
ENDBRANCH  11  13
ENDBRANCH   8   9
ENDBRANCH   7   8
ENDBRANCH   6   7
ENDBRANCH   4   6
ENDBRANCH   1   2
BRANCH   1  22
ATOM     22  C   UNL A   1      31.177  29.030  24.202  1.00  0.00     0.023 C 
BRANCH  22  23
ATOM     23  C   UNL A   1      31.292  29.472  25.664  1.00  0.00     0.023 C 
BRANCH  23  24
ATOM     24  C   UNL A   1      32.622  30.106  26.058  1.00  0.00     0.116 C 
BRANCH  24  25
ATOM     25  N   UNL A   1      32.492  31.503  26.443  1.00  0.00    -0.352 N 
ATOM     26  C   UNL A   1      33.245  32.240  27.324  1.00  0.00     0.251 C 
ATOM     27  H   UNL A   1      31.755  31.991  26.009  1.00  0.00     0.163 HD
ATOM     28  O   UNL A   1      32.887  33.378  27.627  1.00  0.00    -0.269 OA
BRANCH  26  29
ATOM     29  C   UNL A   1      34.467  31.665  27.927  1.00  0.00     0.039 A 
ATOM     30  C   UNL A   1      35.590  32.483  28.085  1.00  0.00     0.014 A 
ATOM     31  C   UNL A   1      34.512  30.330  28.334  1.00  0.00     0.014 A 
ATOM     32  C   UNL A   1      36.733  31.980  28.712  1.00  0.00     0.010 A 
ATOM     33  C   UNL A   1      35.624  29.854  29.029  1.00  0.00     0.010 A 
ATOM     34  C   UNL A   1      36.747  30.672  29.223  1.00  0.00    -0.014 A 
BRANCH  34  35
ATOM     35  C   UNL A   1      37.917  30.152  29.981  1.00  0.00     0.031 A 
ATOM     36  C   UNL A   1      38.191  30.624  31.384  1.00  0.00     0.074 A 
ATOM     37  C   UNL A   1      38.784  29.317  29.374  1.00  0.00     0.049 A 
ATOM     38  N   UNL A   1      39.184  30.320  32.177  1.00  0.00    -0.248 NA
ATOM     39  C   UNL A   1      37.235  31.582  31.964  1.00  0.00     0.031 C 
ATOM     40  C   UNL A   1      38.675  28.840  27.993  1.00  0.00     0.029 A 
ATOM     41  N   UNL A   1      39.943  28.739  29.832  1.00  0.00    -0.354 N 
ATOM     42  C   UNL A   1      38.998  31.075  33.330  1.00  0.00     0.074 A 
ATOM     43  C   UNL A   1      37.811  31.875  33.121  1.00  0.00     0.031 C 
ATOM     44  C   UNL A   1      39.717  28.039  27.720  1.00  0.00     0.029 A 
ATOM     45  C   UNL A   1      40.587  27.971  28.890  1.00  0.00     0.049 A 
ATOM     46  H   UNL A   1      40.281  28.862  30.749  1.00  0.00     0.167 HD
ATOM     47  C   UNL A   1      39.733  31.084  34.468  1.00  0.00     0.034 A 
ATOM     48  C   UNL A   1      41.753  27.298  28.952  1.00  0.00     0.034 A 
ATOM     49  C   UNL A   1      40.893  30.261  34.686  1.00  0.00     0.049 A 
ATOM     50  C   UNL A   1      42.536  27.306  30.237  1.00  0.00     0.074 A 
ATOM     51  C   UNL A   1      41.648  30.130  35.838  1.00  0.00     0.029 A 
ATOM     52  N   UNL A   1      41.476  29.442  33.732  1.00  0.00    -0.354 N 
ATOM     53  N   UNL A   1      42.255  27.901  31.372  1.00  0.00    -0.248 NA
ATOM     54  C   UNL A   1      43.780  26.522  30.262  1.00  0.00     0.031 C 
ATOM     55  C   UNL A   1      42.711  29.263  35.569  1.00  0.00     0.029 A 
ATOM     56  C   UNL A   1      42.592  28.818  34.262  1.00  0.00     0.049 A 
ATOM     57  H   UNL A   1      41.145  29.323  32.812  1.00  0.00     0.167 HD
ATOM     58  C   UNL A   1      43.263  27.531  32.255  1.00  0.00     0.074 A 
ATOM     59  C   UNL A   1      44.151  26.645  31.530  1.00  0.00     0.031 C 
ATOM     60  C   UNL A   1      43.442  27.901  33.547  1.00  0.00     0.034 A 
BRANCH  47  61
ATOM     61  C   UNL A   1      39.284  31.991  35.586  1.00  0.00     0.023 A 
ATOM     62  C   UNL A   1      38.404  31.502  36.573  1.00  0.00     0.012 A 
ATOM     63  C   UNL A   1      39.781  33.305  35.694  1.00  0.00     0.148 A 
ATOM     64  C   UNL A   1      37.994  32.318  37.627  1.00  0.00     0.002 A 
ATOM     65  C   UNL A   1      39.406  34.096  36.774  1.00  0.00     0.091 A 
ATOM     66  F   UNL A   1      40.602  33.759  34.737  1.00  0.00    -0.205 F 
ATOM     67  C   UNL A   1      38.502  33.610  37.733  1.00  0.00     0.022 A 
BRANCH  65  68
ATOM     68  S   UNL A   1      40.069  35.744  37.046  1.00  0.00     0.127 S 
ATOM     69  O   UNL A   1      41.503  35.475  37.131  1.00  0.00    -0.237 OA
ATOM     70  O   UNL A   1      39.650  36.447  35.833  1.00  0.00    -0.237 OA
ATOM     71  O   UNL A   1      39.451  36.228  38.273  1.00  0.00    -0.744 OA
ENDBRANCH  65  68
ENDBRANCH  47  61
BRANCH  48  72
ATOM     72  C   UNL A   1      42.224  26.508  27.778  1.00  0.00     0.023 A 
ATOM     73  C   UNL A   1      43.091  27.107  26.844  1.00  0.00     0.012 A 
ATOM     74  C   UNL A   1      41.832  25.168  27.591  1.00  0.00     0.148 A 
ATOM     75  C   UNL A   1      43.533  26.398  25.726  1.00  0.00     0.002 A 
ATOM     76  C   UNL A   1      42.320  24.450  26.506  1.00  0.00     0.091 A 
ATOM     77  F   UNL A   1      40.999  24.620  28.486  1.00  0.00    -0.205 F 
ATOM     78  C   UNL A   1      43.155  25.068  25.562  1.00  0.00     0.022 A 
BRANCH  76  79
ATOM     79  S   UNL A   1      41.993  22.699  26.280  1.00  0.00     0.127 S 
ATOM     80  O   UNL A   1      40.537  22.678  26.179  1.00  0.00    -0.237 OA
ATOM     81  O   UNL A   1      42.702  22.420  25.031  1.00  0.00    -0.237 OA
ATOM     82  O   UNL A   1      42.553  22.039  27.452  1.00  0.00    -0.744 OA
ENDBRANCH  76  79
ENDBRANCH  48  72
BRANCH  60  83
ATOM     83  C   UNL A   1      44.619  27.315  34.288  1.00  0.00     0.023 A 
ATOM     84  C   UNL A   1      45.858  27.985  34.288  1.00  0.00     0.012 A 
ATOM     85  C   UNL A   1      44.471  26.133  35.042  1.00  0.00     0.148 A 
ATOM     86  C   UNL A   1      46.942  27.470  35.000  1.00  0.00     0.002 A 
ATOM     87  C   UNL A   1      45.539  25.656  35.792  1.00  0.00     0.091 A 
ATOM     88  F   UNL A   1      43.289  25.500  35.015  1.00  0.00    -0.205 F 
ATOM     89  C   UNL A   1      46.779  26.314  35.760  1.00  0.00     0.022 A 
BRANCH  87  90
ATOM     90  S   UNL A   1      45.394  24.233  36.879  1.00  0.00     0.127 S 
ATOM     91  O   UNL A   1      46.752  24.126  37.411  1.00  0.00    -0.237 OA
ATOM     92  O   UNL A   1      44.393  24.683  37.845  1.00  0.00    -0.237 OA
ATOM     93  O   UNL A   1      44.966  23.124  36.036  1.00  0.00    -0.744 OA
ENDBRANCH  87  90
ENDBRANCH  60  83
ENDBRANCH  34  35
ENDBRANCH  26  29
ENDBRANCH  24  25
ENDBRANCH  23  24
ENDBRANCH  22  23
ENDBRANCH   1  22
TORSDOF 19
ENDMDL
