MODEL 1
REMARK VINA RESULT:     -12.3      0.000      0.000
REMARK SMILES NS(=O)(=O)c1ccc(-n2nc(NC(=O)NCCCC(=O)NCCCCNC(=O)c3ccc(-c4c5nc(c(-c6cccc(S(=O)(=O)[O-])c6F)c6ccc([nH]6)c(-c6cccc(S(=O)(=O)[O-])c6F)c6nc(c(-c7cccc(S(=O)(=O)[O-])c7F)c7ccc4[nH]7)C=C6)C=C5)cc3)cc2-c2ccccc2)cc1
REMARK SMILES IDX 19 1 20 2 21 3 18 5 17 6 16 7 15 8 12 9 13 10 14 12 11 14
REMARK SMILES IDX 9 15 10 16 93 17 92 18 8 19 5 20 6 21 101 22 7 23 100 24
REMARK SMILES IDX 2 25 3 26 4 27 1 28 94 31 95 32 99 33 96 34 98 35 97 36
REMARK SMILES IDX 22 37 23 38 24 39 25 40 26 41 27 42 28 44 29 45 30 46 91 47
REMARK SMILES IDX 31 48 90 49 32 50 33 51 34 52 84 53 35 54 89 55 83 56 85 57
REMARK SMILES IDX 36 58 88 59 82 60 81 61 37 63 69 64 49 65 68 66 50 67 53 68
REMARK SMILES IDX 67 69 86 70 51 71 52 72 66 74 87 75 54 76 38 77 39 78 47 79
REMARK SMILES IDX 40 80 42 81 48 82 41 83 43 84 44 85 45 86 46 87 70 88 71 89
REMARK SMILES IDX 79 90 72 91 74 92 80 93 73 94 75 95 76 96 77 97 78 98 55 99
REMARK SMILES IDX 56 100 64 101 57 102 59 103 65 104 58 105 60 106 61 107
REMARK SMILES IDX 62 108 63 109
REMARK H PARENT 21 4 12 11 15 13 1 29 1 30 26 43 85 62 53 73
REMARK Flexibility Score: inf
ROOT
ATOM      1  C   UNL A   1      33.236  28.856  25.374  1.00  0.00     0.220 C 
ATOM      2  O   UNL A   1      33.611  28.717  24.208  1.00  0.00    -0.275 OA
ATOM      3  N   UNL A   1      32.756  30.073  25.757  1.00  0.00    -0.356 N 
ATOM      4  H   UNL A   1      32.535  30.680  25.013  1.00  0.00     0.163 HD
ENDROOT
BRANCH   1   5
ATOM      5  C   UNL A   1      33.308  27.693  26.352  1.00  0.00     0.102 C 
BRANCH   5   6
ATOM      6  C   UNL A   1      31.951  27.264  26.912  1.00  0.00     0.031 C 
BRANCH   6   7
ATOM      7  C   UNL A   1      31.327  26.075  26.202  1.00  0.00     0.118 C 
BRANCH   7   8
ATOM      8  N   UNL A   1      29.969  26.246  25.722  1.00  0.00    -0.338 N 
ATOM      9  N   UNL A   1      30.019  25.193  23.575  1.00  0.00    -0.291 N 
ATOM     10  C   UNL A   1      29.382  25.854  24.567  1.00  0.00     0.320 C 
ATOM     11  H   UNL A   1      29.564  25.241  22.702  1.00  0.00     0.173 HD
ATOM     12  O   UNL A   1      28.222  26.227  24.361  1.00  0.00    -0.248 OA
ATOM     13  H   UNL A   1      29.374  26.728  26.340  1.00  0.00     0.165 HD
BRANCH   9  14
ATOM     14  C   UNL A   1      31.186  24.469  23.561  1.00  0.00     0.157 A 
ATOM     15  N   UNL A   1      32.443  22.770  23.642  1.00  0.00    -0.231 N 
ATOM     16  N   UNL A   1      31.298  23.225  23.114  1.00  0.00    -0.149 NA
ATOM     17  C   UNL A   1      33.279  23.832  23.962  1.00  0.00     0.076 A 
ATOM     18  C   UNL A   1      32.459  24.950  23.935  1.00  0.00     0.078 A 
BRANCH  15  19
ATOM     19  C   UNL A   1      32.598  21.378  23.895  1.00  0.00     0.065 A 
ATOM     20  C   UNL A   1      32.837  18.639  24.397  1.00  0.00     0.082 A 
ATOM     21  C   UNL A   1      33.161  19.558  25.398  1.00  0.00     0.024 A 
ATOM     22  C   UNL A   1      32.367  19.078  23.157  1.00  0.00     0.024 A 
ATOM     23  C   UNL A   1      33.049  20.930  25.145  1.00  0.00     0.030 A 
ATOM     24  C   UNL A   1      32.234  20.446  22.913  1.00  0.00     0.030 A 
BRANCH  20  25
ATOM     25  S   UNL A   1      33.097  16.906  24.626  1.00  0.00     0.238 S 
ATOM     26  O   UNL A   1      33.499  16.330  23.354  1.00  0.00    -0.207 OA
ATOM     27  O   UNL A   1      32.059  16.363  25.451  1.00  0.00    -0.207 OA
BRANCH  25  28
ATOM     28  N   UNL A   1      34.498  16.816  25.566  1.00  0.00    -0.225 NA
ATOM     29  H   UNL A   1      34.654  17.712  26.030  1.00  0.00     0.137 HD
ATOM     30  H   UNL A   1      35.295  16.601  24.968  1.00  0.00     0.137 HD
ENDBRANCH  25  28
ENDBRANCH  20  25
ENDBRANCH  15  19
BRANCH  17  31
ATOM     31  C   UNL A   1      34.700  23.675  24.229  1.00  0.00     0.000 A 
ATOM     32  C   UNL A   1      35.516  23.060  23.267  1.00  0.00     0.010 A 
ATOM     33  C   UNL A   1      35.247  24.054  25.456  1.00  0.00     0.010 A 
ATOM     34  C   UNL A   1      36.850  22.782  23.546  1.00  0.00     0.001 A 
ATOM     35  C   UNL A   1      36.587  23.777  25.732  1.00  0.00     0.001 A 
ATOM     36  C   UNL A   1      37.383  23.135  24.782  1.00  0.00     0.000 A 
ENDBRANCH  17  31
ENDBRANCH   9  14
ENDBRANCH   7   8
ENDBRANCH   6   7
ENDBRANCH   5   6
ENDBRANCH   1   5
BRANCH   3  37
ATOM     37  C   UNL A   1      32.517  30.623  27.082  1.00  0.00     0.116 C 
BRANCH  37  38
ATOM     38  C   UNL A   1      33.754  31.362  27.600  1.00  0.00     0.023 C 
BRANCH  38  39
ATOM     39  C   UNL A   1      33.579  32.817  28.041  1.00  0.00     0.023 C 
BRANCH  39  40
ATOM     40  C   UNL A   1      34.769  33.374  28.798  1.00  0.00     0.116 C 
BRANCH  40  41
ATOM     41  N   UNL A   1      34.669  33.155  30.242  1.00  0.00    -0.352 N 
ATOM     42  C   UNL A   1      35.285  32.162  30.975  1.00  0.00     0.251 C 
ATOM     43  H   UNL A   1      34.101  33.784  30.743  1.00  0.00     0.163 HD
ATOM     44  O   UNL A   1      34.838  31.792  32.055  1.00  0.00    -0.269 OA
BRANCH  42  45
ATOM     45  C   UNL A   1      36.510  31.566  30.419  1.00  0.00     0.039 A 
ATOM     46  C   UNL A   1      37.645  32.341  30.188  1.00  0.00     0.014 A 
ATOM     47  C   UNL A   1      36.522  30.182  30.224  1.00  0.00     0.014 A 
ATOM     48  C   UNL A   1      38.829  31.693  29.849  1.00  0.00     0.010 A 
ATOM     49  C   UNL A   1      37.718  29.535  30.019  1.00  0.00     0.010 A 
ATOM     50  C   UNL A   1      38.870  30.284  29.806  1.00  0.00    -0.014 A 
BRANCH  50  51
ATOM     51  C   UNL A   1      40.163  29.597  29.774  1.00  0.00     0.031 A 
ATOM     52  C   UNL A   1      40.724  29.402  31.139  1.00  0.00     0.074 A 
ATOM     53  C   UNL A   1      40.712  29.047  28.667  1.00  0.00     0.049 A 
ATOM     54  N   UNL A   1      41.659  30.104  31.691  1.00  0.00    -0.248 NA
ATOM     55  C   UNL A   1      40.026  28.510  32.082  1.00  0.00     0.031 C 
ATOM     56  C   UNL A   1      40.101  28.932  27.337  1.00  0.00     0.029 A 
ATOM     57  N   UNL A   1      41.884  28.362  28.510  1.00  0.00    -0.354 N 
ATOM     58  C   UNL A   1      41.886  29.496  32.920  1.00  0.00     0.074 A 
ATOM     59  C   UNL A   1      40.701  28.740  33.213  1.00  0.00     0.031 C 
ATOM     60  C   UNL A   1      40.775  28.020  26.601  1.00  0.00     0.029 A 
ATOM     61  C   UNL A   1      41.956  27.609  27.334  1.00  0.00     0.049 A 
ATOM     62  H   UNL A   1      42.615  28.394  29.170  1.00  0.00     0.167 HD
ATOM     63  C   UNL A   1      43.163  29.359  33.375  1.00  0.00     0.034 A 
ATOM     64  C   UNL A   1      42.904  26.696  26.994  1.00  0.00     0.034 A 
ATOM     65  C   UNL A   1      44.060  30.211  32.625  1.00  0.00     0.049 A 
ATOM     66  C   UNL A   1      44.101  27.011  27.794  1.00  0.00     0.074 A 
ATOM     67  C   UNL A   1      44.168  31.559  32.354  1.00  0.00     0.029 A 
ATOM     68  N   UNL A   1      44.774  29.553  31.659  1.00  0.00    -0.354 N 
ATOM     69  N   UNL A   1      44.811  28.090  27.625  1.00  0.00    -0.248 NA
ATOM     70  C   UNL A   1      44.301  26.313  29.051  1.00  0.00     0.031 C 
ATOM     71  C   UNL A   1      44.665  31.637  31.017  1.00  0.00     0.029 A 
ATOM     72  C   UNL A   1      44.927  30.344  30.561  1.00  0.00     0.049 A 
ATOM     73  H   UNL A   1      45.127  28.638  31.746  1.00  0.00     0.167 HD
ATOM     74  C   UNL A   1      45.125  28.475  28.918  1.00  0.00     0.074 A 
ATOM     75  C   UNL A   1      44.948  27.268  29.722  1.00  0.00     0.031 C 
ATOM     76  C   UNL A   1      45.178  29.800  29.243  1.00  0.00     0.034 A 
BRANCH  63  77
ATOM     77  C   UNL A   1      43.704  28.114  34.071  1.00  0.00     0.023 A 
ATOM     78  C   UNL A   1      44.468  28.323  35.245  1.00  0.00     0.012 A 
ATOM     79  C   UNL A   1      43.787  26.829  33.487  1.00  0.00     0.148 A 
ATOM     80  C   UNL A   1      45.312  27.332  35.762  1.00  0.00     0.002 A 
ATOM     81  C   UNL A   1      44.561  25.822  34.052  1.00  0.00     0.091 A 
ATOM     82  F   UNL A   1      43.234  26.591  32.297  1.00  0.00    -0.205 F 
ATOM     83  C   UNL A   1      45.354  26.078  35.170  1.00  0.00     0.022 A 
BRANCH  81  84
ATOM     84  S   UNL A   1      44.620  24.168  33.346  1.00  0.00     0.127 S 
ATOM     85  O   UNL A   1      45.713  23.569  34.104  1.00  0.00    -0.237 OA
ATOM     86  O   UNL A   1      43.285  23.666  33.671  1.00  0.00    -0.237 OA
ATOM     87  O   UNL A   1      44.859  24.354  31.920  1.00  0.00    -0.744 OA
ENDBRANCH  81  84
ENDBRANCH  63  77
BRANCH  64  88
ATOM     88  C   UNL A   1      42.840  25.450  26.189  1.00  0.00     0.023 A 
ATOM     89  C   UNL A   1      43.789  25.230  25.164  1.00  0.00     0.012 A 
ATOM     90  C   UNL A   1      42.081  24.349  26.634  1.00  0.00     0.148 A 
ATOM     91  C   UNL A   1      44.015  23.947  24.646  1.00  0.00     0.002 A 
ATOM     92  C   UNL A   1      42.309  23.075  26.116  1.00  0.00     0.091 A 
ATOM     93  F   UNL A   1      41.204  24.534  27.630  1.00  0.00    -0.205 F 
ATOM     94  C   UNL A   1      43.286  22.868  25.133  1.00  0.00     0.022 A 
BRANCH  92  95
ATOM     95  S   UNL A   1      41.437  21.624  26.722  1.00  0.00     0.127 S 
ATOM     96  O   UNL A   1      40.040  22.040  26.599  1.00  0.00    -0.237 OA
ATOM     97  O   UNL A   1      41.857  20.600  25.770  1.00  0.00    -0.237 OA
ATOM     98  O   UNL A   1      41.888  21.434  28.095  1.00  0.00    -0.744 OA
ENDBRANCH  92  95
ENDBRANCH  64  88
BRANCH  76  99
ATOM     99  C   UNL A   1      45.356  30.790  28.123  1.00  0.00     0.023 A 
ATOM    100  C   UNL A   1      44.294  31.321  27.362  1.00  0.00     0.012 A 
ATOM    101  C   UNL A   1      46.656  31.274  27.908  1.00  0.00     0.148 A 
ATOM    102  C   UNL A   1      44.536  32.295  26.388  1.00  0.00     0.002 A 
ATOM    103  C   UNL A   1      46.885  32.274  26.976  1.00  0.00     0.091 A 
ATOM    104  F   UNL A   1      47.655  30.748  28.633  1.00  0.00    -0.205 F 
ATOM    105  C   UNL A   1      45.831  32.782  26.204  1.00  0.00     0.022 A 
BRANCH 103 106
ATOM    106  S   UNL A   1      48.513  33.002  26.786  1.00  0.00     0.127 S 
ATOM    107  O   UNL A   1      49.324  31.844  26.418  1.00  0.00    -0.237 OA
ATOM    108  O   UNL A   1      48.301  33.970  25.708  1.00  0.00    -0.237 OA
ATOM    109  O   UNL A   1      48.831  33.610  28.073  1.00  0.00    -0.744 OA
ENDBRANCH 103 106
ENDBRANCH  76  99
ENDBRANCH  50  51
ENDBRANCH  42  45
ENDBRANCH  40  41
ENDBRANCH  39  40
ENDBRANCH  38  39
ENDBRANCH  37  38
ENDBRANCH   3  37
TORSDOF 22
ENDMDL
MODEL 2
REMARK VINA RESULT:     -10.8      5.372      9.582
REMARK SMILES NS(=O)(=O)c1ccc(-n2nc(NC(=O)NCCCC(=O)NCCCCNC(=O)c3ccc(-c4c5nc(c(-c6cccc(S(=O)(=O)[O-])c6F)c6ccc([nH]6)c(-c6cccc(S(=O)(=O)[O-])c6F)c6nc(c(-c7cccc(S(=O)(=O)[O-])c7F)c7ccc4[nH]7)C=C6)C=C5)cc3)cc2-c2ccccc2)cc1
REMARK SMILES IDX 19 1 20 2 21 3 18 5 17 6 16 7 15 8 12 9 13 10 14 12 11 14
REMARK SMILES IDX 9 15 10 16 93 17 92 18 8 19 5 20 6 21 101 22 7 23 100 24
REMARK SMILES IDX 2 25 3 26 4 27 1 28 94 31 95 32 99 33 96 34 98 35 97 36
REMARK SMILES IDX 22 37 23 38 24 39 25 40 26 41 27 42 28 44 29 45 30 46 91 47
REMARK SMILES IDX 31 48 90 49 32 50 33 51 34 52 84 53 35 54 89 55 83 56 85 57
REMARK SMILES IDX 36 58 88 59 82 60 81 61 37 63 69 64 49 65 68 66 50 67 53 68
REMARK SMILES IDX 67 69 86 70 51 71 52 72 66 74 87 75 54 76 38 77 39 78 47 79
REMARK SMILES IDX 40 80 42 81 48 82 41 83 43 84 44 85 45 86 46 87 70 88 71 89
REMARK SMILES IDX 79 90 72 91 74 92 80 93 73 94 75 95 76 96 77 97 78 98 55 99
REMARK SMILES IDX 56 100 64 101 57 102 59 103 65 104 58 105 60 106 61 107
REMARK SMILES IDX 62 108 63 109
REMARK H PARENT 21 4 12 11 15 13 1 29 1 30 26 43 85 62 53 73
REMARK Flexibility Score: inf
ROOT
ATOM      1  C   UNL A   1      38.253  34.092  33.719  1.00  0.00     0.220 C 
ATOM      2  O   UNL A   1      37.179  34.691  33.797  1.00  0.00    -0.275 OA
ATOM      3  N   UNL A   1      39.396  34.777  34.005  1.00  0.00    -0.356 N 
ATOM      4  H   UNL A   1      39.256  35.633  34.472  1.00  0.00     0.163 HD
ENDROOT
BRANCH   1   5
ATOM      5  C   UNL A   1      38.293  32.626  33.314  1.00  0.00     0.102 C 
BRANCH   5   6
ATOM      6  C   UNL A   1      37.913  32.372  31.854  1.00  0.00     0.031 C 
BRANCH   6   7
ATOM      7  C   UNL A   1      38.169  30.952  31.379  1.00  0.00     0.118 C 
BRANCH   7   8
ATOM      8  N   UNL A   1      39.516  30.649  30.934  1.00  0.00    -0.338 N 
ATOM      9  N   UNL A   1      39.191  29.933  28.675  1.00  0.00    -0.291 N 
ATOM     10  C   UNL A   1      39.976  30.206  29.741  1.00  0.00     0.320 C 
ATOM     11  H   UNL A   1      39.613  29.352  28.001  1.00  0.00     0.173 HD
ATOM     12  O   UNL A   1      41.177  29.923  29.662  1.00  0.00    -0.248 OA
ATOM     13  H   UNL A   1      40.213  30.789  31.614  1.00  0.00     0.165 HD
BRANCH   9  14
ATOM     14  C   UNL A   1      37.911  30.319  28.361  1.00  0.00     0.157 A 
ATOM     15  N   UNL A   1      36.140  31.473  28.415  1.00  0.00    -0.231 N 
ATOM     16  N   UNL A   1      37.475  31.573  28.372  1.00  0.00    -0.149 NA
ATOM     17  C   UNL A   1      35.733  30.243  27.916  1.00  0.00     0.076 A 
ATOM     18  C   UNL A   1      36.884  29.469  27.899  1.00  0.00     0.078 A 
BRANCH  15  19
ATOM     19  C   UNL A   1      35.375  32.508  29.025  1.00  0.00     0.065 A 
ATOM     20  C   UNL A   1      33.931  34.575  30.229  1.00  0.00     0.082 A 
ATOM     21  C   UNL A   1      34.196  33.405  30.946  1.00  0.00     0.024 A 
ATOM     22  C   UNL A   1      34.407  34.731  28.926  1.00  0.00     0.024 A 
ATOM     23  C   UNL A   1      34.912  32.367  30.341  1.00  0.00     0.030 A 
ATOM     24  C   UNL A   1      35.142  33.703  28.331  1.00  0.00     0.030 A 
BRANCH  20  25
ATOM     25  S   UNL A   1      32.911  35.851  30.905  1.00  0.00     0.238 S 
ATOM     26  O   UNL A   1      32.213  35.317  32.062  1.00  0.00    -0.207 OA
ATOM     27  O   UNL A   1      32.263  36.567  29.847  1.00  0.00    -0.207 OA
BRANCH  25  28
ATOM     28  N   UNL A   1      34.008  36.951  31.572  1.00  0.00    -0.225 NA
ATOM     29  H   UNL A   1      33.757  37.133  32.544  1.00  0.00     0.137 HD
ATOM     30  H   UNL A   1      33.978  37.822  31.044  1.00  0.00     0.137 HD
ENDBRANCH  25  28
ENDBRANCH  20  25
ENDBRANCH  15  19
BRANCH  17  31
ATOM     31  C   UNL A   1      34.364  29.958  27.516  1.00  0.00     0.000 A 
ATOM     32  C   UNL A   1      33.914  28.629  27.509  1.00  0.00     0.010 A 
ATOM     33  C   UNL A   1      33.519  30.974  27.067  1.00  0.00     0.010 A 
ATOM     34  C   UNL A   1      32.653  28.313  27.012  1.00  0.00     0.001 A 
ATOM     35  C   UNL A   1      32.254  30.655  26.571  1.00  0.00     0.001 A 
ATOM     36  C   UNL A   1      31.827  29.326  26.537  1.00  0.00     0.000 A 
ENDBRANCH  17  31
ENDBRANCH   9  14
ENDBRANCH   7   8
ENDBRANCH   6   7
ENDBRANCH   5   6
ENDBRANCH   1   5
BRANCH   3  37
ATOM     37  C   UNL A   1      40.788  34.453  33.735  1.00  0.00     0.116 C 
BRANCH  37  38
ATOM     38  C   UNL A   1      41.201  34.928  32.339  1.00  0.00     0.023 C 
BRANCH  38  39
ATOM     39  C   UNL A   1      41.164  33.906  31.201  1.00  0.00     0.023 C 
BRANCH  39  40
ATOM     40  C   UNL A   1      41.116  34.529  29.820  1.00  0.00     0.116 C 
BRANCH  40  41
ATOM     41  N   UNL A   1      42.312  35.316  29.517  1.00  0.00    -0.352 N 
ATOM     42  C   UNL A   1      43.604  34.848  29.395  1.00  0.00     0.251 C 
ATOM     43  H   UNL A   1      42.180  36.284  29.387  1.00  0.00     0.163 HD
ATOM     44  O   UNL A   1      44.570  35.584  29.560  1.00  0.00    -0.269 OA
BRANCH  42  45
ATOM     45  C   UNL A   1      43.784  33.430  29.045  1.00  0.00     0.039 A 
ATOM     46  C   UNL A   1      43.990  33.037  27.723  1.00  0.00     0.014 A 
ATOM     47  C   UNL A   1      43.836  32.509  30.094  1.00  0.00     0.014 A 
ATOM     48  C   UNL A   1      44.347  31.715  27.477  1.00  0.00     0.010 A 
ATOM     49  C   UNL A   1      44.316  31.242  29.862  1.00  0.00     0.010 A 
ATOM     50  C   UNL A   1      44.549  30.830  28.555  1.00  0.00    -0.014 A 
BRANCH  50  51
ATOM     51  C   UNL A   1      45.231  29.554  28.328  1.00  0.00     0.031 A 
ATOM     52  C   UNL A   1      44.282  28.407  28.328  1.00  0.00     0.074 A 
ATOM     53  C   UNL A   1      46.534  29.431  27.985  1.00  0.00     0.049 A 
ATOM     54  N   UNL A   1      44.087  27.574  29.297  1.00  0.00    -0.248 NA
ATOM     55  C   UNL A   1      43.273  28.309  27.259  1.00  0.00     0.031 C 
ATOM     56  C   UNL A   1      47.476  30.514  27.676  1.00  0.00     0.029 A 
ATOM     57  N   UNL A   1      47.275  28.314  27.720  1.00  0.00    -0.354 N 
ATOM     58  C   UNL A   1      43.177  26.649  28.799  1.00  0.00     0.074 A 
ATOM     59  C   UNL A   1      42.519  27.295  27.697  1.00  0.00     0.031 C 
ATOM     60  C   UNL A   1      48.554  30.013  27.033  1.00  0.00     0.029 A 
ATOM     61  C   UNL A   1      48.466  28.565  27.030  1.00  0.00     0.049 A 
ATOM     62  H   UNL A   1      46.995  27.409  27.989  1.00  0.00     0.167 HD
ATOM     63  C   UNL A   1      43.337  25.327  29.086  1.00  0.00     0.034 A 
ATOM     64  C   UNL A   1      49.308  27.654  26.476  1.00  0.00     0.034 A 
ATOM     65  C   UNL A   1      44.265  25.159  30.183  1.00  0.00     0.049 A 
ATOM     66  C   UNL A   1      49.061  26.375  27.165  1.00  0.00     0.074 A 
ATOM     67  C   UNL A   1      44.356  25.583  31.492  1.00  0.00     0.029 A 
ATOM     68  N   UNL A   1      45.529  24.802  29.792  1.00  0.00    -0.354 N 
ATOM     69  N   UNL A   1      49.357  26.168  28.416  1.00  0.00    -0.248 NA
ATOM     70  C   UNL A   1      48.127  25.435  26.572  1.00  0.00     0.031 C 
ATOM     71  C   UNL A   1      45.750  25.791  31.726  1.00  0.00     0.029 A 
ATOM     72  C   UNL A   1      46.458  25.400  30.589  1.00  0.00     0.049 A 
ATOM     73  H   UNL A   1      45.736  24.198  29.043  1.00  0.00     0.167 HD
ATOM     74  C   UNL A   1      48.281  25.431  28.885  1.00  0.00     0.074 A 
ATOM     75  C   UNL A   1      47.665  24.865  27.687  1.00  0.00     0.031 C 
ATOM     76  C   UNL A   1      47.820  25.626  30.155  1.00  0.00     0.034 A 
BRANCH  63  77
ATOM     77  C   UNL A   1      43.130  24.194  28.086  1.00  0.00     0.023 A 
ATOM     78  C   UNL A   1      42.279  23.136  28.491  1.00  0.00     0.012 A 
ATOM     79  C   UNL A   1      43.945  23.948  26.957  1.00  0.00     0.148 A 
ATOM     80  C   UNL A   1      42.292  21.892  27.849  1.00  0.00     0.002 A 
ATOM     81  C   UNL A   1      43.893  22.740  26.272  1.00  0.00     0.091 A 
ATOM     82  F   UNL A   1      44.890  24.820  26.604  1.00  0.00    -0.205 F 
ATOM     83  C   UNL A   1      43.094  21.695  26.734  1.00  0.00     0.022 A 
BRANCH  81  84
ATOM     84  S   UNL A   1      44.883  22.447  24.797  1.00  0.00     0.127 S 
ATOM     85  O   UNL A   1      44.894  23.774  24.190  1.00  0.00    -0.237 OA
ATOM     86  O   UNL A   1      46.153  22.016  25.381  1.00  0.00    -0.237 OA
ATOM     87  O   UNL A   1      44.184  21.409  24.051  1.00  0.00    -0.744 OA
ENDBRANCH  81  84
ENDBRANCH  63  77
BRANCH  64  88
ATOM     88  C   UNL A   1      50.181  27.708  25.276  1.00  0.00     0.023 A 
ATOM     89  C   UNL A   1      51.578  27.544  25.419  1.00  0.00     0.012 A 
ATOM     90  C   UNL A   1      49.630  27.585  23.985  1.00  0.00     0.148 A 
ATOM     91  C   UNL A   1      52.387  27.209  24.324  1.00  0.00     0.002 A 
ATOM     92  C   UNL A   1      50.438  27.251  22.899  1.00  0.00     0.091 A 
ATOM     93  F   UNL A   1      48.304  27.701  23.838  1.00  0.00    -0.205 F 
ATOM     94  C   UNL A   1      51.814  27.046  23.068  1.00  0.00     0.022 A 
BRANCH  92  95
ATOM     95  S   UNL A   1      49.767  26.984  21.252  1.00  0.00     0.127 S 
ATOM     96  O   UNL A   1      49.323  28.329  20.886  1.00  0.00    -0.237 OA
ATOM     97  O   UNL A   1      50.939  26.508  20.522  1.00  0.00    -0.237 OA
ATOM     98  O   UNL A   1      48.688  26.018  21.414  1.00  0.00    -0.744 OA
ENDBRANCH  92  95
ENDBRANCH  64  88
BRANCH  76  99
ATOM     99  C   UNL A   1      48.751  26.271  31.147  1.00  0.00     0.023 A 
ATOM    100  C   UNL A   1      49.763  25.580  31.845  1.00  0.00     0.012 A 
ATOM    101  C   UNL A   1      48.651  27.663  31.295  1.00  0.00     0.148 A 
ATOM    102  C   UNL A   1      50.636  26.267  32.694  1.00  0.00     0.002 A 
ATOM    103  C   UNL A   1      49.549  28.348  32.098  1.00  0.00     0.091 A 
ATOM    104  F   UNL A   1      47.674  28.301  30.632  1.00  0.00    -0.205 F 
ATOM    105  C   UNL A   1      50.538  27.655  32.810  1.00  0.00     0.022 A 
BRANCH 103 106
ATOM    106  S   UNL A   1      49.526  30.138  32.189  1.00  0.00     0.127 S 
ATOM    107  O   UNL A   1      50.760  30.423  32.919  1.00  0.00    -0.237 OA
ATOM    108  O   UNL A   1      49.545  30.526  30.778  1.00  0.00    -0.237 OA
ATOM    109  O   UNL A   1      48.291  30.486  32.883  1.00  0.00    -0.744 OA
ENDBRANCH 103 106
ENDBRANCH  76  99
ENDBRANCH  50  51
ENDBRANCH  42  45
ENDBRANCH  40  41
ENDBRANCH  39  40
ENDBRANCH  38  39
ENDBRANCH  37  38
ENDBRANCH   3  37
TORSDOF 22
ENDMDL
MODEL 3
REMARK VINA RESULT:     -10.6      1.958      2.537
REMARK SMILES NS(=O)(=O)c1ccc(-n2nc(NC(=O)NCCCC(=O)NCCCCNC(=O)c3ccc(-c4c5nc(c(-c6cccc(S(=O)(=O)[O-])c6F)c6ccc([nH]6)c(-c6cccc(S(=O)(=O)[O-])c6F)c6nc(c(-c7cccc(S(=O)(=O)[O-])c7F)c7ccc4[nH]7)C=C6)C=C5)cc3)cc2-c2ccccc2)cc1
REMARK SMILES IDX 19 1 20 2 21 3 18 5 17 6 16 7 15 8 12 9 13 10 14 12 11 14
REMARK SMILES IDX 9 15 10 16 93 17 92 18 8 19 5 20 6 21 101 22 7 23 100 24
REMARK SMILES IDX 2 25 3 26 4 27 1 28 94 31 95 32 99 33 96 34 98 35 97 36
REMARK SMILES IDX 22 37 23 38 24 39 25 40 26 41 27 42 28 44 29 45 30 46 91 47
REMARK SMILES IDX 31 48 90 49 32 50 33 51 34 52 84 53 35 54 89 55 83 56 85 57
REMARK SMILES IDX 36 58 88 59 82 60 81 61 37 63 69 64 49 65 68 66 50 67 53 68
REMARK SMILES IDX 67 69 86 70 51 71 52 72 66 74 87 75 54 76 38 77 39 78 47 79
REMARK SMILES IDX 40 80 42 81 48 82 41 83 43 84 44 85 45 86 46 87 70 88 71 89
REMARK SMILES IDX 79 90 72 91 74 92 80 93 73 94 75 95 76 96 77 97 78 98 55 99
REMARK SMILES IDX 56 100 64 101 57 102 59 103 65 104 58 105 60 106 61 107
REMARK SMILES IDX 62 108 63 109
REMARK H PARENT 21 4 12 11 15 13 1 29 1 30 26 43 85 62 53 73
REMARK Flexibility Score: inf
ROOT
ATOM      1  C   UNL A   1      33.371  29.203  25.889  1.00  0.00     0.220 C 
ATOM      2  O   UNL A   1      33.365  29.095  24.661  1.00  0.00    -0.275 OA
ATOM      3  N   UNL A   1      33.407  30.455  26.427  1.00  0.00    -0.356 N 
ATOM      4  H   UNL A   1      33.195  31.180  25.794  1.00  0.00     0.163 HD
ENDROOT
BRANCH   1   5
ATOM      5  C   UNL A   1      33.339  27.965  26.773  1.00  0.00     0.102 C 
BRANCH   5   6
ATOM      6  C   UNL A   1      31.934  27.424  27.037  1.00  0.00     0.031 C 
BRANCH   6   7
ATOM      7  C   UNL A   1      31.448  26.416  26.009  1.00  0.00     0.118 C 
BRANCH   7   8
ATOM      8  N   UNL A   1      30.274  26.787  25.240  1.00  0.00    -0.338 N 
ATOM      9  N   UNL A   1      30.795  25.996  23.044  1.00  0.00    -0.291 N 
ATOM     10  C   UNL A   1      29.976  26.599  23.934  1.00  0.00     0.320 C 
ATOM     11  H   UNL A   1      30.583  26.194  22.103  1.00  0.00     0.173 HD
ATOM     12  O   UNL A   1      28.938  27.117  23.506  1.00  0.00    -0.248 OA
ATOM     13  H   UNL A   1      29.579  27.254  25.756  1.00  0.00     0.165 HD
BRANCH   9  14
ATOM     14  C   UNL A   1      31.869  25.157  23.215  1.00  0.00     0.157 A 
ATOM     15  N   UNL A   1      32.916  23.343  23.507  1.00  0.00    -0.231 N 
ATOM     16  N   UNL A   1      31.913  23.894  22.809  1.00  0.00    -0.149 NA
ATOM     17  C   UNL A   1      33.804  24.324  23.928  1.00  0.00     0.076 A 
ATOM     18  C   UNL A   1      33.118  25.518  23.763  1.00  0.00     0.078 A 
BRANCH  15  19
ATOM     19  C   UNL A   1      32.886  21.951  23.804  1.00  0.00     0.065 A 
ATOM     20  C   UNL A   1      32.762  19.224  24.401  1.00  0.00     0.082 A 
ATOM     21  C   UNL A   1      33.391  20.100  25.289  1.00  0.00     0.024 A 
ATOM     22  C   UNL A   1      32.170  19.704  23.231  1.00  0.00     0.024 A 
ATOM     23  C   UNL A   1      33.460  21.465  24.987  1.00  0.00     0.030 A 
ATOM     24  C   UNL A   1      32.219  21.069  22.942  1.00  0.00     0.030 A 
BRANCH  20  25
ATOM     25  S   UNL A   1      32.776  17.477  24.675  1.00  0.00     0.238 S 
ATOM     26  O   UNL A   1      33.782  16.885  23.810  1.00  0.00    -0.207 OA
ATOM     27  O   UNL A   1      31.433  16.991  24.781  1.00  0.00    -0.207 OA
BRANCH  25  28
ATOM     28  N   UNL A   1      33.430  17.305  26.224  1.00  0.00    -0.225 NA
ATOM     29  H   UNL A   1      33.325  18.181  26.736  1.00  0.00     0.137 HD
ATOM     30  H   UNL A   1      34.420  17.070  26.151  1.00  0.00     0.137 HD
ENDBRANCH  25  28
ENDBRANCH  20  25
ENDBRANCH  15  19
BRANCH  17  31
ATOM     31  C   UNL A   1      35.147  24.032  24.403  1.00  0.00     0.000 A 
ATOM     32  C   UNL A   1      36.031  23.326  23.573  1.00  0.00     0.010 A 
ATOM     33  C   UNL A   1      35.542  24.375  25.698  1.00  0.00     0.010 A 
ATOM     34  C   UNL A   1      37.275  22.923  24.047  1.00  0.00     0.001 A 
ATOM     35  C   UNL A   1      36.792  23.972  26.169  1.00  0.00     0.001 A 
ATOM     36  C   UNL A   1      37.652  23.240  25.348  1.00  0.00     0.000 A 
ENDBRANCH  17  31
ENDBRANCH   9  14
ENDBRANCH   7   8
ENDBRANCH   6   7
ENDBRANCH   5   6
ENDBRANCH   1   5
BRANCH   3  37
ATOM     37  C   UNL A   1      33.707  30.897  27.780  1.00  0.00     0.116 C 
BRANCH  37  38
ATOM     38  C   UNL A   1      35.127  30.494  28.186  1.00  0.00     0.023 C 
BRANCH  38  39
ATOM     39  C   UNL A   1      36.291  31.251  27.545  1.00  0.00     0.023 C 
BRANCH  39  40
ATOM     40  C   UNL A   1      37.405  31.595  28.515  1.00  0.00     0.116 C 
BRANCH  40  41
ATOM     41  N   UNL A   1      36.908  32.208  29.747  1.00  0.00    -0.352 N 
ATOM     42  C   UNL A   1      37.126  31.772  31.037  1.00  0.00     0.251 C 
ATOM     43  H   UNL A   1      36.360  33.020  29.643  1.00  0.00     0.163 HD
ATOM     44  O   UNL A   1      36.362  32.066  31.950  1.00  0.00    -0.269 OA
BRANCH  42  45
ATOM     45  C   UNL A   1      38.318  30.946  31.284  1.00  0.00     0.039 A 
ATOM     46  C   UNL A   1      38.203  29.593  31.597  1.00  0.00     0.014 A 
ATOM     47  C   UNL A   1      39.566  31.546  31.100  1.00  0.00     0.014 A 
ATOM     48  C   UNL A   1      39.361  28.822  31.627  1.00  0.00     0.010 A 
ATOM     49  C   UNL A   1      40.690  30.760  31.000  1.00  0.00     0.010 A 
ATOM     50  C   UNL A   1      40.600  29.403  31.287  1.00  0.00    -0.014 A 
BRANCH  50  51
ATOM     51  C   UNL A   1      41.750  28.543  31.001  1.00  0.00     0.031 A 
ATOM     52  C   UNL A   1      42.396  28.044  32.246  1.00  0.00     0.074 A 
ATOM     53  C   UNL A   1      42.093  28.104  29.769  1.00  0.00     0.049 A 
ATOM     54  N   UNL A   1      43.483  28.496  32.780  1.00  0.00    -0.248 NA
ATOM     55  C   UNL A   1      41.650  27.126  33.125  1.00  0.00     0.031 C 
ATOM     56  C   UNL A   1      41.349  28.303  28.518  1.00  0.00     0.029 A 
ATOM     57  N   UNL A   1      43.112  27.284  29.375  1.00  0.00    -0.354 N 
ATOM     58  C   UNL A   1      43.720  27.667  33.871  1.00  0.00     0.074 A 
ATOM     59  C   UNL A   1      42.456  27.062  34.189  1.00  0.00     0.031 C 
ATOM     60  C   UNL A   1      41.787  27.432  27.582  1.00  0.00     0.029 A 
ATOM     61  C   UNL A   1      42.946  26.732  28.100  1.00  0.00     0.049 A 
ATOM     62  H   UNL A   1      43.897  27.096  29.940  1.00  0.00     0.167 HD
ATOM     63  C   UNL A   1      44.992  27.265  34.146  1.00  0.00     0.034 A 
ATOM     64  C   UNL A   1      43.690  25.754  27.520  1.00  0.00     0.034 A 
ATOM     65  C   UNL A   1      45.945  28.083  33.428  1.00  0.00     0.049 A 
ATOM     66  C   UNL A   1      44.993  25.749  28.209  1.00  0.00     0.074 A 
ATOM     67  C   UNL A   1      46.253  29.424  33.346  1.00  0.00     0.029 A 
ATOM     68  N   UNL A   1      46.444  27.491  32.297  1.00  0.00    -0.354 N 
ATOM     69  N   UNL A   1      45.855  26.720  28.117  1.00  0.00    -0.248 NA
ATOM     70  C   UNL A   1      45.189  24.831  29.318  1.00  0.00     0.031 C 
ATOM     71  C   UNL A   1      46.628  29.644  31.985  1.00  0.00     0.029 A 
ATOM     72  C   UNL A   1      46.625  28.419  31.316  1.00  0.00     0.049 A 
ATOM     73  H   UNL A   1      46.645  26.531  32.207  1.00  0.00     0.167 HD
ATOM     74  C   UNL A   1      46.350  26.836  29.406  1.00  0.00     0.074 A 
ATOM     75  C   UNL A   1      46.048  25.555  30.040  1.00  0.00     0.031 C 
ATOM     76  C   UNL A   1      46.655  28.067  29.913  1.00  0.00     0.034 A 
BRANCH  63  77
ATOM     77  C   UNL A   1      45.378  25.856  34.583  1.00  0.00     0.023 A 
ATOM     78  C   UNL A   1      45.165  24.817  33.644  1.00  0.00     0.012 A 
ATOM     79  C   UNL A   1      45.616  25.457  35.919  1.00  0.00     0.148 A 
ATOM     80  C   UNL A   1      45.124  23.472  34.027  1.00  0.00     0.002 A 
ATOM     81  C   UNL A   1      45.658  24.114  36.280  1.00  0.00     0.091 A 
ATOM     82  F   UNL A   1      45.665  26.363  36.896  1.00  0.00    -0.205 F 
ATOM     83  C   UNL A   1      45.378  23.119  35.345  1.00  0.00     0.022 A 
BRANCH  81  84
ATOM     84  S   UNL A   1      46.021  23.602  37.966  1.00  0.00     0.127 S 
ATOM     85  O   UNL A   1      44.937  24.244  38.702  1.00  0.00    -0.237 OA
ATOM     86  O   UNL A   1      45.925  22.147  37.855  1.00  0.00    -0.237 OA
ATOM     87  O   UNL A   1      47.364  24.094  38.249  1.00  0.00    -0.744 OA
ENDBRANCH  81  84
ENDBRANCH  63  77
BRANCH  64  88
ATOM     88  C   UNL A   1      43.342  24.681  26.555  1.00  0.00     0.023 A 
ATOM     89  C   UNL A   1      44.086  24.546  25.360  1.00  0.00     0.012 A 
ATOM     90  C   UNL A   1      42.523  23.603  26.948  1.00  0.00     0.148 A 
ATOM     91  C   UNL A   1      44.060  23.357  24.618  1.00  0.00     0.002 A 
ATOM     92  C   UNL A   1      42.501  22.423  26.207  1.00  0.00     0.091 A 
ATOM     93  F   UNL A   1      41.841  23.700  28.097  1.00  0.00    -0.205 F 
ATOM     94  C   UNL A   1      43.281  22.291  25.050  1.00  0.00     0.022 A 
BRANCH  92  95
ATOM     95  S   UNL A   1      41.551  20.986  26.722  1.00  0.00     0.127 S 
ATOM     96  O   UNL A   1      41.790  20.055  25.619  1.00  0.00    -0.237 OA
ATOM     97  O   UNL A   1      42.203  20.627  27.978  1.00  0.00    -0.237 OA
ATOM     98  O   UNL A   1      40.170  21.441  26.834  1.00  0.00    -0.744 OA
ENDBRANCH  92  95
ENDBRANCH  64  88
BRANCH  76  99
ATOM     99  C   UNL A   1      46.892  29.188  28.936  1.00  0.00     0.023 A 
ATOM    100  C   UNL A   1      48.151  29.504  28.388  1.00  0.00     0.012 A 
ATOM    101  C   UNL A   1      45.758  29.881  28.483  1.00  0.00     0.148 A 
ATOM    102  C   UNL A   1      48.274  30.514  27.428  1.00  0.00     0.002 A 
ATOM    103  C   UNL A   1      45.876  30.846  27.496  1.00  0.00     0.091 A 
ATOM    104  F   UNL A   1      44.570  29.573  29.025  1.00  0.00    -0.205 F 
ATOM    105  C   UNL A   1      47.134  31.176  26.971  1.00  0.00     0.022 A 
BRANCH 103 106
ATOM    106  S   UNL A   1      44.426  31.642  26.805  1.00  0.00     0.127 S 
ATOM    107  O   UNL A   1      43.978  32.477  27.918  1.00  0.00    -0.237 OA
ATOM    108  O   UNL A   1      44.982  32.381  25.670  1.00  0.00    -0.237 OA
ATOM    109  O   UNL A   1      43.521  30.563  26.424  1.00  0.00    -0.744 OA
ENDBRANCH 103 106
ENDBRANCH  76  99
ENDBRANCH  50  51
ENDBRANCH  42  45
ENDBRANCH  40  41
ENDBRANCH  39  40
ENDBRANCH  38  39
ENDBRANCH  37  38
ENDBRANCH   3  37
TORSDOF 22
ENDMDL
