MODEL 1
REMARK VINA RESULT:     -11.7      0.000      0.000
REMARK SMILES O=C(NCCCCNC(=O)[C@@]1(C(F)(F)F)CCN(C(=O)Cc2ccn[nH]2)C1)c1ccc(-c2c3nc(c(-c4cccc(S(=O)(=O)[O-])c4F)c4ccc([nH]4)c(-c4cccc(S(=O)(=O)[O-])c4F)c4nc(c(-c5cccc(S(=O)(=O)[O-])c5F)c5ccc2[nH]5)C=C4)C=C3)cc1
REMARK SMILES IDX 5 1 4 2 3 3 1 4 2 5 28 7 29 8 90 9 30 10 89 11 31 12 32 13
REMARK SMILES IDX 33 14 83 15 34 16 88 17 82 18 84 19 35 20 87 21 81 22 80 23
REMARK SMILES IDX 36 25 68 26 48 27 67 28 49 29 52 30 66 31 85 32 50 33 51 34
REMARK SMILES IDX 65 36 86 37 53 38 37 39 38 40 46 41 39 42 41 43 47 44 40 45
REMARK SMILES IDX 42 46 43 47 44 48 45 49 69 50 70 51 78 52 71 53 73 54 79 55
REMARK SMILES IDX 72 56 74 57 75 58 76 59 77 60 54 61 55 62 63 63 56 64 58 65
REMARK SMILES IDX 64 66 57 67 59 68 60 69 61 70 62 71 6 72 7 73 8 74 9 75
REMARK SMILES IDX 10 77 11 78 16 79 27 80 17 81 18 82 12 83 13 84 14 85 15 86
REMARK SMILES IDX 19 87 20 88 21 89 22 90 23 91 26 92 24 93 25 94
REMARK H PARENT 3 6 84 24 52 35 8 76 26 95
REMARK Flexibility Score: inf
ROOT
ATOM      1  C   UNL A   1      31.545  33.030  26.529  1.00  0.00     0.023 C 
ENDROOT
BRANCH   1   2
ATOM      2  C   UNL A   1      32.694  33.336  27.477  1.00  0.00     0.116 C 
BRANCH   2   3
ATOM      3  N   UNL A   1      32.639  34.677  28.042  1.00  0.00    -0.352 N 
ATOM      4  O   UNL A   1      33.175  36.322  29.495  1.00  0.00    -0.269 OA
ATOM      5  C   UNL A   1      33.413  35.203  29.051  1.00  0.00     0.251 C 
ATOM      6  H   UNL A   1      31.965  35.282  27.654  1.00  0.00     0.163 HD
BRANCH   5   7
ATOM      7  C   UNL A   1      34.502  34.375  29.610  1.00  0.00     0.039 A 
ATOM      8  C   UNL A   1      34.229  33.486  30.651  1.00  0.00     0.014 A 
ATOM      9  C   UNL A   1      35.808  34.547  29.147  1.00  0.00     0.014 A 
ATOM     10  C   UNL A   1      35.280  32.900  31.341  1.00  0.00     0.010 A 
ATOM     11  C   UNL A   1      36.857  33.875  29.781  1.00  0.00     0.010 A 
ATOM     12  C   UNL A   1      36.606  33.076  30.907  1.00  0.00    -0.014 A 
BRANCH  12  13
ATOM     13  C   UNL A   1      37.686  32.336  31.607  1.00  0.00     0.031 A 
ATOM     14  C   UNL A   1      38.430  31.207  30.949  1.00  0.00     0.074 A 
ATOM     15  C   UNL A   1      38.014  32.734  32.851  1.00  0.00     0.049 A 
ATOM     16  N   UNL A   1      39.442  30.518  31.412  1.00  0.00    -0.248 NA
ATOM     17  C   UNL A   1      37.986  30.789  29.610  1.00  0.00     0.031 C 
ATOM     18  C   UNL A   1      37.320  33.783  33.606  1.00  0.00     0.029 A 
ATOM     19  N   UNL A   1      39.013  32.327  33.695  1.00  0.00    -0.354 N 
ATOM     20  C   UNL A   1      39.734  29.564  30.444  1.00  0.00     0.074 A 
ATOM     21  C   UNL A   1      38.789  29.759  29.366  1.00  0.00     0.031 C 
ATOM     22  C   UNL A   1      37.943  33.971  34.776  1.00  0.00     0.029 A 
ATOM     23  C   UNL A   1      39.044  33.022  34.881  1.00  0.00     0.049 A 
ATOM     24  H   UNL A   1      39.648  31.608  33.474  1.00  0.00     0.167 HD
ATOM     25  C   UNL A   1      40.712  28.627  30.449  1.00  0.00     0.034 A 
ATOM     26  C   UNL A   1      39.861  32.905  35.945  1.00  0.00     0.034 A 
ATOM     27  C   UNL A   1      41.674  28.469  31.510  1.00  0.00     0.049 A 
ATOM     28  C   UNL A   1      40.969  31.896  35.893  1.00  0.00     0.074 A 
ATOM     29  C   UNL A   1      42.728  27.574  31.589  1.00  0.00     0.029 A 
ATOM     30  N   UNL A   1      41.705  29.221  32.673  1.00  0.00    -0.354 N 
ATOM     31  N   UNL A   1      41.295  31.082  34.919  1.00  0.00    -0.248 NA
ATOM     32  C   UNL A   1      41.836  31.804  37.074  1.00  0.00     0.031 C 
ATOM     33  C   UNL A   1      43.393  27.783  32.802  1.00  0.00     0.029 A 
ATOM     34  C   UNL A   1      42.758  28.815  33.476  1.00  0.00     0.049 A 
ATOM     35  H   UNL A   1      41.071  29.941  32.896  1.00  0.00     0.167 HD
ATOM     36  C   UNL A   1      42.407  30.382  35.367  1.00  0.00     0.074 A 
ATOM     37  C   UNL A   1      42.726  30.905  36.681  1.00  0.00     0.031 C 
ATOM     38  C   UNL A   1      43.082  29.375  34.762  1.00  0.00     0.034 A 
BRANCH  25  39
ATOM     39  C   UNL A   1      40.838  27.726  29.248  1.00  0.00     0.023 A 
ATOM     40  C   UNL A   1      40.024  26.579  29.160  1.00  0.00     0.012 A 
ATOM     41  C   UNL A   1      41.681  28.059  28.169  1.00  0.00     0.148 A 
ATOM     42  C   UNL A   1      40.056  25.769  28.025  1.00  0.00     0.002 A 
ATOM     43  C   UNL A   1      41.682  27.265  27.026  1.00  0.00     0.091 A 
ATOM     44  F   UNL A   1      42.461  29.143  28.279  1.00  0.00    -0.205 F 
ATOM     45  C   UNL A   1      40.876  26.118  26.955  1.00  0.00     0.022 A 
BRANCH  43  46
ATOM     46  S   UNL A   1      42.653  27.664  25.567  1.00  0.00     0.127 S 
ATOM     47  O   UNL A   1      44.004  27.734  26.122  1.00  0.00    -0.237 OA
ATOM     48  O   UNL A   1      42.409  26.504  24.708  1.00  0.00    -0.237 OA
ATOM     49  O   UNL A   1      42.119  28.919  25.060  1.00  0.00    -0.744 OA
ENDBRANCH  43  46
ENDBRANCH  25  39
BRANCH  26  50
ATOM     50  C   UNL A   1      39.679  33.808  37.115  1.00  0.00     0.023 A 
ATOM     51  C   UNL A   1      40.097  35.149  37.033  1.00  0.00     0.012 A 
ATOM     52  C   UNL A   1      39.034  33.361  38.285  1.00  0.00     0.148 A 
ATOM     53  C   UNL A   1      39.894  36.023  38.101  1.00  0.00     0.002 A 
ATOM     54  C   UNL A   1      38.776  34.253  39.318  1.00  0.00     0.091 A 
ATOM     55  F   UNL A   1      38.662  32.075  38.359  1.00  0.00    -0.205 F 
ATOM     56  C   UNL A   1      39.219  35.580  39.236  1.00  0.00     0.022 A 
BRANCH  54  57
ATOM     57  S   UNL A   1      37.763  33.776  40.722  1.00  0.00     0.127 S 
ATOM     58  O   UNL A   1      36.633  33.120  40.071  1.00  0.00    -0.237 OA
ATOM     59  O   UNL A   1      38.652  32.879  41.464  1.00  0.00    -0.237 OA
ATOM     60  O   UNL A   1      37.476  35.027  41.414  1.00  0.00    -0.744 OA
ENDBRANCH  54  57
ENDBRANCH  26  50
BRANCH  38  61
ATOM     61  C   UNL A   1      44.227  28.769  35.527  1.00  0.00     0.023 A 
ATOM     62  C   UNL A   1      45.530  29.265  35.323  1.00  0.00     0.012 A 
ATOM     63  C   UNL A   1      44.014  27.742  36.465  1.00  0.00     0.148 A 
ATOM     64  C   UNL A   1      46.610  28.723  36.017  1.00  0.00     0.002 A 
ATOM     65  C   UNL A   1      45.091  27.234  37.183  1.00  0.00     0.091 A 
ATOM     66  F   UNL A   1      42.771  27.265  36.625  1.00  0.00    -0.205 F 
ATOM     67  C   UNL A   1      46.391  27.716  36.953  1.00  0.00     0.022 A 
BRANCH  65  68
ATOM     68  S   UNL A   1      44.877  25.990  38.461  1.00  0.00     0.127 S 
ATOM     69  O   UNL A   1      44.011  26.685  39.412  1.00  0.00    -0.237 OA
ATOM     70  O   UNL A   1      44.232  24.896  37.734  1.00  0.00    -0.237 OA
ATOM     71  O   UNL A   1      46.220  25.683  38.936  1.00  0.00    -0.744 OA
ENDBRANCH  65  68
ENDBRANCH  38  61
ENDBRANCH  12  13
ENDBRANCH   5   7
ENDBRANCH   2   3
ENDBRANCH   1   2
BRANCH   1  72
ATOM     72  C   UNL A   1      31.119  31.568  26.485  1.00  0.00     0.023 C 
BRANCH  72  73
ATOM     73  C   UNL A   1      32.249  30.560  26.668  1.00  0.00     0.116 C 
BRANCH  73  74
ATOM     74  N   UNL A   1      31.823  29.323  27.303  1.00  0.00    -0.355 N 
ATOM     75  C   UNL A   1      31.688  28.046  26.839  1.00  0.00     0.237 C 
ATOM     76  H   UNL A   1      31.585  29.426  28.252  1.00  0.00     0.163 HD
ATOM     77  O   UNL A   1      31.384  27.202  27.683  1.00  0.00    -0.274 OA
BRANCH  75  78
ATOM     78  C   UNL A   1      31.860  27.685  25.373  1.00  0.00     0.163 C 
ATOM     79  C   UNL A   1      31.189  26.339  25.039  1.00  0.00     0.050 C 
ATOM     80  C   UNL A   1      31.226  28.721  24.445  1.00  0.00     0.146 C 
ATOM     81  C   UNL A   1      30.453  26.564  23.729  1.00  0.00     0.121 C 
ATOM     82  N   UNL A   1      30.236  27.996  23.660  1.00  0.00    -0.341 N 
BRANCH  78  83
ATOM     83  C   UNL A   1      33.343  27.619  25.060  1.00  0.00     0.404 C 
ATOM     84  F   UNL A   1      33.744  28.785  24.479  1.00  0.00    -0.170 F 
ATOM     85  F   UNL A   1      34.105  27.464  26.164  1.00  0.00    -0.170 F 
ATOM     86  F   UNL A   1      33.651  26.643  24.180  1.00  0.00    -0.170 F 
ENDBRANCH  78  83
BRANCH  82  87
ATOM     87  C   UNL A   1      29.297  28.677  22.911  1.00  0.00     0.228 C 
ATOM     88  O   UNL A   1      28.089  28.511  23.099  1.00  0.00    -0.274 OA
BRANCH  87  89
ATOM     89  C   UNL A   1      29.787  29.604  21.811  1.00  0.00     0.155 C 
BRANCH  89  90
ATOM     90  C   UNL A   1      29.074  30.913  21.800  1.00  0.00     0.044 A 
ATOM     91  C   UNL A   1      28.358  31.603  20.844  1.00  0.00     0.045 A 
ATOM     92  N   UNL A   1      29.046  31.709  22.916  1.00  0.00    -0.282 N 
ATOM     93  C   UNL A   1      27.907  32.764  21.495  1.00  0.00     0.135 A 
ATOM     94  N   UNL A   1      28.316  32.825  22.763  1.00  0.00    -0.184 NA
ATOM     95  H   UNL A   1      29.518  31.485  23.750  1.00  0.00     0.190 HD
ENDBRANCH  89  90
ENDBRANCH  87  89
ENDBRANCH  82  87
ENDBRANCH  75  78
ENDBRANCH  73  74
ENDBRANCH  72  73
ENDBRANCH   1  72
TORSDOF 18
ENDMDL
MODEL 2
REMARK VINA RESULT:     -11.6      3.647      8.983
REMARK SMILES O=C(NCCCCNC(=O)[C@@]1(C(F)(F)F)CCN(C(=O)Cc2ccn[nH]2)C1)c1ccc(-c2c3nc(c(-c4cccc(S(=O)(=O)[O-])c4F)c4ccc([nH]4)c(-c4cccc(S(=O)(=O)[O-])c4F)c4nc(c(-c5cccc(S(=O)(=O)[O-])c5F)c5ccc2[nH]5)C=C4)C=C3)cc1
REMARK SMILES IDX 5 1 4 2 3 3 1 4 2 5 28 7 29 8 90 9 30 10 89 11 31 12 32 13
REMARK SMILES IDX 33 14 83 15 34 16 88 17 82 18 84 19 35 20 87 21 81 22 80 23
REMARK SMILES IDX 36 25 68 26 48 27 67 28 49 29 52 30 66 31 85 32 50 33 51 34
REMARK SMILES IDX 65 36 86 37 53 38 37 39 38 40 46 41 39 42 41 43 47 44 40 45
REMARK SMILES IDX 42 46 43 47 44 48 45 49 69 50 70 51 78 52 71 53 73 54 79 55
REMARK SMILES IDX 72 56 74 57 75 58 76 59 77 60 54 61 55 62 63 63 56 64 58 65
REMARK SMILES IDX 64 66 57 67 59 68 60 69 61 70 62 71 6 72 7 73 8 74 9 75
REMARK SMILES IDX 10 77 11 78 16 79 27 80 17 81 18 82 12 83 13 84 14 85 15 86
REMARK SMILES IDX 19 87 20 88 21 89 22 90 23 91 26 92 24 93 25 94
REMARK H PARENT 3 6 84 24 52 35 8 76 26 95
REMARK Flexibility Score: inf
ROOT
ATOM      1  C   UNL A   1      31.708  28.749  25.103  1.00  0.00     0.023 C 
ENDROOT
BRANCH   1   2
ATOM      2  C   UNL A   1      32.804  29.665  25.628  1.00  0.00     0.116 C 
BRANCH   2   3
ATOM      3  N   UNL A   1      32.310  30.954  26.090  1.00  0.00    -0.352 N 
ATOM      4  O   UNL A   1      32.284  32.803  27.389  1.00  0.00    -0.269 OA
ATOM      5  C   UNL A   1      32.876  31.794  27.022  1.00  0.00     0.251 C 
ATOM      6  H   UNL A   1      31.467  31.264  25.685  1.00  0.00     0.163 HD
BRANCH   5   7
ATOM      7  C   UNL A   1      34.187  31.426  27.598  1.00  0.00     0.039 A 
ATOM      8  C   UNL A   1      34.410  30.117  28.030  1.00  0.00     0.014 A 
ATOM      9  C   UNL A   1      35.162  32.410  27.779  1.00  0.00     0.014 A 
ATOM     10  C   UNL A   1      35.533  29.834  28.794  1.00  0.00     0.010 A 
ATOM     11  C   UNL A   1      36.340  32.094  28.462  1.00  0.00     0.010 A 
ATOM     12  C   UNL A   1      36.518  30.814  29.008  1.00  0.00    -0.014 A 
BRANCH  12  13
ATOM     13  C   UNL A   1      37.755  30.429  29.732  1.00  0.00     0.031 A 
ATOM     14  C   UNL A   1      38.026  30.884  31.139  1.00  0.00     0.074 A 
ATOM     15  C   UNL A   1      38.625  29.616  29.101  1.00  0.00     0.049 A 
ATOM     16  N   UNL A   1      39.027  30.570  31.921  1.00  0.00    -0.248 NA
ATOM     17  C   UNL A   1      37.062  31.813  31.751  1.00  0.00     0.031 C 
ATOM     18  C   UNL A   1      38.488  29.158  27.714  1.00  0.00     0.029 A 
ATOM     19  N   UNL A   1      39.777  29.016  29.535  1.00  0.00    -0.354 N 
ATOM     20  C   UNL A   1      38.838  31.284  33.098  1.00  0.00     0.074 A 
ATOM     21  C   UNL A   1      37.626  32.055  32.929  1.00  0.00     0.031 C 
ATOM     22  C   UNL A   1      39.486  28.314  27.428  1.00  0.00     0.029 A 
ATOM     23  C   UNL A   1      40.364  28.210  28.587  1.00  0.00     0.049 A 
ATOM     24  H   UNL A   1      40.149  29.148  30.436  1.00  0.00     0.167 HD
ATOM     25  C   UNL A   1      39.598  31.280  34.220  1.00  0.00     0.034 A 
ATOM     26  C   UNL A   1      41.490  27.474  28.638  1.00  0.00     0.034 A 
ATOM     27  C   UNL A   1      40.781  30.477  34.393  1.00  0.00     0.049 A 
ATOM     28  C   UNL A   1      42.275  27.448  29.914  1.00  0.00     0.074 A 
ATOM     29  C   UNL A   1      41.596  30.375  35.507  1.00  0.00     0.029 A 
ATOM     30  N   UNL A   1      41.318  29.636  33.430  1.00  0.00    -0.354 N 
ATOM     31  N   UNL A   1      42.014  28.045  31.053  1.00  0.00    -0.248 NA
ATOM     32  C   UNL A   1      43.495  26.632  29.925  1.00  0.00     0.031 C 
ATOM     33  C   UNL A   1      42.628  29.475  35.216  1.00  0.00     0.029 A 
ATOM     34  C   UNL A   1      42.451  29.011  33.922  1.00  0.00     0.049 A 
ATOM     35  H   UNL A   1      40.947  29.503  32.527  1.00  0.00     0.167 HD
ATOM     36  C   UNL A   1      43.035  27.674  31.916  1.00  0.00     0.074 A 
ATOM     37  C   UNL A   1      43.891  26.762  31.183  1.00  0.00     0.031 C 
ATOM     38  C   UNL A   1      43.265  28.077  33.190  1.00  0.00     0.034 A 
BRANCH  25  39
ATOM     39  C   UNL A   1      39.150  32.129  35.382  1.00  0.00     0.023 A 
ATOM     40  C   UNL A   1      38.273  31.578  36.338  1.00  0.00     0.012 A 
ATOM     41  C   UNL A   1      39.667  33.424  35.583  1.00  0.00     0.148 A 
ATOM     42  C   UNL A   1      37.905  32.308  37.469  1.00  0.00     0.002 A 
ATOM     43  C   UNL A   1      39.321  34.133  36.730  1.00  0.00     0.091 A 
ATOM     44  F   UNL A   1      40.484  33.938  34.654  1.00  0.00    -0.205 F 
ATOM     45  C   UNL A   1      38.437  33.579  37.669  1.00  0.00     0.022 A 
BRANCH  43  46
ATOM     46  S   UNL A   1      40.003  35.750  37.116  1.00  0.00     0.127 S 
ATOM     47  O   UNL A   1      39.313  36.070  38.366  1.00  0.00    -0.237 OA
ATOM     48  O   UNL A   1      41.429  35.456  37.267  1.00  0.00    -0.237 OA
ATOM     49  O   UNL A   1      39.675  36.605  35.985  1.00  0.00    -0.744 OA
ENDBRANCH  43  46
ENDBRANCH  25  39
BRANCH  26  50
ATOM     50  C   UNL A   1      41.897  26.670  27.453  1.00  0.00     0.023 A 
ATOM     51  C   UNL A   1      42.618  27.281  26.410  1.00  0.00     0.012 A 
ATOM     52  C   UNL A   1      41.629  25.289  27.384  1.00  0.00     0.148 A 
ATOM     53  C   UNL A   1      43.049  26.535  25.313  1.00  0.00     0.002 A 
ATOM     54  C   UNL A   1      42.118  24.540  26.320  1.00  0.00     0.091 A 
ATOM     55  F   UNL A   1      40.920  24.724  28.371  1.00  0.00    -0.205 F 
ATOM     56  C   UNL A   1      42.814  25.162  25.275  1.00  0.00     0.022 A 
BRANCH  54  57
ATOM     57  S   UNL A   1      41.989  22.748  26.312  1.00  0.00     0.127 S 
ATOM     58  O   UNL A   1      42.682  22.390  27.546  1.00  0.00    -0.237 OA
ATOM     59  O   UNL A   1      40.541  22.535  26.335  1.00  0.00    -0.237 OA
ATOM     60  O   UNL A   1      42.626  22.337  25.068  1.00  0.00    -0.744 OA
ENDBRANCH  54  57
ENDBRANCH  26  50
BRANCH  38  61
ATOM     61  C   UNL A   1      44.499  27.538  33.861  1.00  0.00     0.023 A 
ATOM     62  C   UNL A   1      45.721  28.223  33.709  1.00  0.00     0.012 A 
ATOM     63  C   UNL A   1      44.446  26.383  34.664  1.00  0.00     0.148 A 
ATOM     64  C   UNL A   1      46.880  27.746  34.317  1.00  0.00     0.002 A 
ATOM     65  C   UNL A   1      45.599  25.936  35.301  1.00  0.00     0.091 A 
ATOM     66  F   UNL A   1      43.280  25.730  34.775  1.00  0.00    -0.205 F 
ATOM     67  C   UNL A   1      46.818  26.611  35.121  1.00  0.00     0.022 A 
BRANCH  65  68
ATOM     68  S   UNL A   1      45.582  24.527  36.414  1.00  0.00     0.127 S 
ATOM     69  O   UNL A   1      44.651  24.974  37.448  1.00  0.00    -0.237 OA
ATOM     70  O   UNL A   1      45.074  23.454  35.558  1.00  0.00    -0.237 OA
ATOM     71  O   UNL A   1      46.964  24.349  36.840  1.00  0.00    -0.744 OA
ENDBRANCH  65  68
ENDBRANCH  38  61
ENDBRANCH  12  13
ENDBRANCH   5   7
ENDBRANCH   2   3
ENDBRANCH   1   2
BRANCH   1  72
ATOM     72  C   UNL A   1      31.682  28.580  23.589  1.00  0.00     0.023 C 
BRANCH  72  73
ATOM     73  C   UNL A   1      31.218  27.212  23.100  1.00  0.00     0.116 C 
BRANCH  73  74
ATOM     74  N   UNL A   1      32.219  26.508  22.316  1.00  0.00    -0.355 N 
ATOM     75  C   UNL A   1      33.006  25.424  22.581  1.00  0.00     0.237 C 
ATOM     76  H   UNL A   1      32.357  26.886  21.418  1.00  0.00     0.163 HD
ATOM     77  O   UNL A   1      33.696  25.024  21.642  1.00  0.00    -0.274 OA
BRANCH  75  78
ATOM     78  C   UNL A   1      33.065  24.771  23.952  1.00  0.00     0.163 C 
ATOM     79  C   UNL A   1      31.658  24.598  24.557  1.00  0.00     0.050 C 
ATOM     80  C   UNL A   1      33.684  23.375  23.902  1.00  0.00     0.146 C 
ATOM     81  C   UNL A   1      31.634  23.196  25.139  1.00  0.00     0.121 C 
ATOM     82  N   UNL A   1      32.665  22.472  24.421  1.00  0.00    -0.341 N 
BRANCH  78  83
ATOM     83  C   UNL A   1      33.919  25.632  24.863  1.00  0.00     0.404 C 
ATOM     84  F   UNL A   1      33.195  26.008  25.955  1.00  0.00    -0.170 F 
ATOM     85  F   UNL A   1      35.004  24.980  25.335  1.00  0.00    -0.170 F 
ATOM     86  F   UNL A   1      34.324  26.778  24.276  1.00  0.00    -0.170 F 
ENDBRANCH  78  83
BRANCH  82  87
ATOM     87  C   UNL A   1      32.795  21.105  24.269  1.00  0.00     0.228 C 
ATOM     88  O   UNL A   1      32.149  20.495  23.414  1.00  0.00    -0.274 OA
BRANCH  87  89
ATOM     89  C   UNL A   1      33.719  20.359  25.218  1.00  0.00     0.155 C 
BRANCH  89  90
ATOM     90  C   UNL A   1      33.541  18.880  25.149  1.00  0.00     0.044 A 
ATOM     91  C   UNL A   1      34.000  17.902  24.292  1.00  0.00     0.045 A 
ATOM     92  N   UNL A   1      32.776  18.219  26.075  1.00  0.00    -0.282 N 
ATOM     93  C   UNL A   1      33.501  16.697  24.815  1.00  0.00     0.135 A 
ATOM     94  N   UNL A   1      32.764  16.887  25.909  1.00  0.00    -0.184 NA
ATOM     95  H   UNL A   1      32.283  18.677  26.793  1.00  0.00     0.190 HD
ENDBRANCH  89  90
ENDBRANCH  87  89
ENDBRANCH  82  87
ENDBRANCH  75  78
ENDBRANCH  73  74
ENDBRANCH  72  73
ENDBRANCH   1  72
TORSDOF 18
ENDMDL
MODEL 3
REMARK VINA RESULT:     -11.6      3.580      5.156
REMARK SMILES O=C(NCCCCNC(=O)[C@@]1(C(F)(F)F)CCN(C(=O)Cc2ccn[nH]2)C1)c1ccc(-c2c3nc(c(-c4cccc(S(=O)(=O)[O-])c4F)c4ccc([nH]4)c(-c4cccc(S(=O)(=O)[O-])c4F)c4nc(c(-c5cccc(S(=O)(=O)[O-])c5F)c5ccc2[nH]5)C=C4)C=C3)cc1
REMARK SMILES IDX 5 1 4 2 3 3 1 4 2 5 28 7 29 8 90 9 30 10 89 11 31 12 32 13
REMARK SMILES IDX 33 14 83 15 34 16 88 17 82 18 84 19 35 20 87 21 81 22 80 23
REMARK SMILES IDX 36 25 68 26 48 27 67 28 49 29 52 30 66 31 85 32 50 33 51 34
REMARK SMILES IDX 65 36 86 37 53 38 37 39 38 40 46 41 39 42 41 43 47 44 40 45
REMARK SMILES IDX 42 46 43 47 44 48 45 49 69 50 70 51 78 52 71 53 73 54 79 55
REMARK SMILES IDX 72 56 74 57 75 58 76 59 77 60 54 61 55 62 63 63 56 64 58 65
REMARK SMILES IDX 64 66 57 67 59 68 60 69 61 70 62 71 6 72 7 73 8 74 9 75
REMARK SMILES IDX 10 77 11 78 16 79 27 80 17 81 18 82 12 83 13 84 14 85 15 86
REMARK SMILES IDX 19 87 20 88 21 89 22 90 23 91 26 92 24 93 25 94
REMARK H PARENT 3 6 84 24 52 35 8 76 26 95
REMARK Flexibility Score: inf
ROOT
ATOM      1  C   UNL A   1      31.595  28.767  25.137  1.00  0.00     0.023 C 
ENDROOT
BRANCH   1   2
ATOM      2  C   UNL A   1      32.743  29.604  25.679  1.00  0.00     0.116 C 
BRANCH   2   3
ATOM      3  N   UNL A   1      32.341  30.939  26.099  1.00  0.00    -0.352 N 
ATOM      4  O   UNL A   1      32.447  32.826  27.336  1.00  0.00    -0.269 OA
ATOM      5  C   UNL A   1      32.968  31.767  27.002  1.00  0.00     0.251 C 
ATOM      6  H   UNL A   1      31.520  31.292  25.686  1.00  0.00     0.163 HD
BRANCH   5   7
ATOM      7  C   UNL A   1      34.252  31.330  27.588  1.00  0.00     0.039 A 
ATOM      8  C   UNL A   1      34.421  29.997  27.968  1.00  0.00     0.014 A 
ATOM      9  C   UNL A   1      35.256  32.270  27.829  1.00  0.00     0.014 A 
ATOM     10  C   UNL A   1      35.516  29.642  28.741  1.00  0.00     0.010 A 
ATOM     11  C   UNL A   1      36.408  31.884  28.521  1.00  0.00     0.010 A 
ATOM     12  C   UNL A   1      36.531  30.577  29.016  1.00  0.00    -0.014 A 
BRANCH  12  13
ATOM     13  C   UNL A   1      37.738  30.119  29.747  1.00  0.00     0.031 A 
ATOM     14  C   UNL A   1      38.750  29.204  29.116  1.00  0.00     0.074 A 
ATOM     15  C   UNL A   1      37.929  30.583  30.998  1.00  0.00     0.049 A 
ATOM     16  N   UNL A   1      39.886  28.778  29.608  1.00  0.00    -0.248 NA
ATOM     17  C   UNL A   1      38.455  28.691  27.768  1.00  0.00     0.031 C 
ATOM     18  C   UNL A   1      36.982  31.434  31.728  1.00  0.00     0.029 A 
ATOM     19  N   UNL A   1      38.974  30.429  31.869  1.00  0.00    -0.354 N 
ATOM     20  C   UNL A   1      40.425  27.924  28.653  1.00  0.00     0.074 A 
ATOM     21  C   UNL A   1      39.489  27.886  27.550  1.00  0.00     0.031 C 
ATOM     22  C   UNL A   1      37.511  31.765  32.912  1.00  0.00     0.029 A 
ATOM     23  C   UNL A   1      38.805  31.110  33.052  1.00  0.00     0.049 A 
ATOM     24  H   UNL A   1      39.769  29.885  31.668  1.00  0.00     0.167 HD
ATOM     25  C   UNL A   1      41.599  27.251  28.689  1.00  0.00     0.034 A 
ATOM     26  C   UNL A   1      39.598  31.194  34.136  1.00  0.00     0.034 A 
ATOM     27  C   UNL A   1      42.543  27.328  29.774  1.00  0.00     0.049 A 
ATOM     28  C   UNL A   1      40.917  30.482  34.118  1.00  0.00     0.074 A 
ATOM     29  C   UNL A   1      43.779  26.714  29.885  1.00  0.00     0.029 A 
ATOM     30  N   UNL A   1      42.361  28.065  30.934  1.00  0.00    -0.354 N 
ATOM     31  N   UNL A   1      41.456  29.770  33.157  1.00  0.00    -0.248 NA
ATOM     32  C   UNL A   1      41.750  30.600  35.321  1.00  0.00     0.031 C 
ATOM     33  C   UNL A   1      44.342  27.077  31.114  1.00  0.00     0.029 A 
ATOM     34  C   UNL A   1      43.459  27.924  31.765  1.00  0.00     0.049 A 
ATOM     35  H   UNL A   1      41.566  28.611  31.137  1.00  0.00     0.167 HD
ATOM     36  C   UNL A   1      42.691  29.360  33.637  1.00  0.00     0.074 A 
ATOM     37  C   UNL A   1      42.841  29.943  34.956  1.00  0.00     0.031 C 
ATOM     38  C   UNL A   1      43.606  28.545  33.056  1.00  0.00     0.034 A 
BRANCH  25  39
ATOM     39  C   UNL A   1      41.970  26.407  27.496  1.00  0.00     0.023 A 
ATOM     40  C   UNL A   1      42.661  27.002  26.421  1.00  0.00     0.012 A 
ATOM     41  C   UNL A   1      41.728  25.020  27.478  1.00  0.00     0.148 A 
ATOM     42  C   UNL A   1      43.091  26.234  25.339  1.00  0.00     0.002 A 
ATOM     43  C   UNL A   1      42.189  24.254  26.411  1.00  0.00     0.091 A 
ATOM     44  F   UNL A   1      41.054  24.475  28.500  1.00  0.00    -0.205 F 
ATOM     45  C   UNL A   1      42.865  24.860  25.340  1.00  0.00     0.022 A 
BRANCH  43  46
ATOM     46  S   UNL A   1      42.009  22.467  26.347  1.00  0.00     0.127 S 
ATOM     47  O   UNL A   1      40.557  22.322  26.237  1.00  0.00    -0.237 OA
ATOM     48  O   UNL A   1      42.748  22.125  25.131  1.00  0.00    -0.237 OA
ATOM     49  O   UNL A   1      42.596  21.960  27.579  1.00  0.00    -0.744 OA
ENDBRANCH  43  46
ENDBRANCH  25  39
BRANCH  26  50
ATOM     50  C   UNL A   1      39.173  32.025  35.296  1.00  0.00     0.023 A 
ATOM     51  C   UNL A   1      38.392  31.451  36.316  1.00  0.00     0.012 A 
ATOM     52  C   UNL A   1      39.594  33.362  35.425  1.00  0.00     0.148 A 
ATOM     53  C   UNL A   1      38.022  32.199  37.434  1.00  0.00     0.002 A 
ATOM     54  C   UNL A   1      39.278  34.082  36.572  1.00  0.00     0.091 A 
ATOM     55  F   UNL A   1      40.318  33.904  34.436  1.00  0.00    -0.205 F 
ATOM     56  C   UNL A   1      38.478  33.509  37.570  1.00  0.00     0.022 A 
BRANCH  54  57
ATOM     57  S   UNL A   1      39.983  35.706  36.871  1.00  0.00     0.127 S 
ATOM     58  O   UNL A   1      39.276  36.126  38.077  1.00  0.00    -0.237 OA
ATOM     59  O   UNL A   1      41.403  35.404  37.063  1.00  0.00    -0.237 OA
ATOM     60  O   UNL A   1      39.700  36.462  35.657  1.00  0.00    -0.744 OA
ENDBRANCH  54  57
ENDBRANCH  26  50
BRANCH  38  61
ATOM     61  C   UNL A   1      44.843  28.233  33.853  1.00  0.00     0.023 A 
ATOM     62  C   UNL A   1      45.988  29.038  33.690  1.00  0.00     0.012 A 
ATOM     63  C   UNL A   1      44.863  27.175  34.781  1.00  0.00     0.148 A 
ATOM     64  C   UNL A   1      47.148  28.772  34.415  1.00  0.00     0.002 A 
ATOM     65  C   UNL A   1      46.012  26.942  35.529  1.00  0.00     0.091 A 
ATOM     66  F   UNL A   1      43.773  26.405  34.902  1.00  0.00    -0.205 F 
ATOM     67  C   UNL A   1      47.158  27.732  35.340  1.00  0.00     0.022 A 
BRANCH  65  68
ATOM     68  S   UNL A   1      46.076  25.671  36.797  1.00  0.00     0.127 S 
ATOM     69  O   UNL A   1      44.980  26.071  37.677  1.00  0.00    -0.237 OA
ATOM     70  O   UNL A   1      45.829  24.448  36.031  1.00  0.00    -0.237 OA
ATOM     71  O   UNL A   1      47.412  25.758  37.371  1.00  0.00    -0.744 OA
ENDBRANCH  65  68
ENDBRANCH  38  61
ENDBRANCH  12  13
ENDBRANCH   5   7
ENDBRANCH   2   3
ENDBRANCH   1   2
BRANCH   1  72
ATOM     72  C   UNL A   1      31.383  28.864  23.631  1.00  0.00     0.023 C 
BRANCH  72  73
ATOM     73  C   UNL A   1      30.889  27.585  22.964  1.00  0.00     0.116 C 
BRANCH  73  74
ATOM     74  N   UNL A   1      31.856  27.000  22.050  1.00  0.00    -0.355 N 
ATOM     75  C   UNL A   1      32.657  25.896  22.133  1.00  0.00     0.237 C 
ATOM     76  H   UNL A   1      31.954  27.495  21.205  1.00  0.00     0.163 HD
ATOM     77  O   UNL A   1      33.305  25.630  21.120  1.00  0.00    -0.274 OA
BRANCH  75  78
ATOM     78  C   UNL A   1      32.777  25.067  23.402  1.00  0.00     0.163 C 
ATOM     79  C   UNL A   1      31.418  24.918  24.111  1.00  0.00     0.050 C 
ATOM     80  C   UNL A   1      33.272  23.649  23.120  1.00  0.00     0.146 C 
ATOM     81  C   UNL A   1      31.327  23.457  24.515  1.00  0.00     0.121 C 
ATOM     82  N   UNL A   1      32.230  22.761  23.618  1.00  0.00    -0.341 N 
BRANCH  78  83
ATOM     83  C   UNL A   1      33.775  25.738  24.327  1.00  0.00     0.404 C 
ATOM     84  F   UNL A   1      34.168  26.930  23.794  1.00  0.00    -0.170 F 
ATOM     85  F   UNL A   1      33.257  26.019  25.541  1.00  0.00    -0.170 F 
ATOM     86  F   UNL A   1      34.904  25.018  24.492  1.00  0.00    -0.170 F 
ENDBRANCH  78  83
BRANCH  82  87
ATOM     87  C   UNL A   1      32.232  21.420  23.286  1.00  0.00     0.228 C 
ATOM     88  O   UNL A   1      32.208  21.055  22.109  1.00  0.00    -0.274 OA
BRANCH  87  89
ATOM     89  C   UNL A   1      32.213  20.399  24.412  1.00  0.00     0.155 C 
BRANCH  89  90
ATOM     90  C   UNL A   1      32.910  19.132  24.051  1.00  0.00     0.044 A 
ATOM     91  C   UNL A   1      34.142  18.597  24.366  1.00  0.00     0.045 A 
ATOM     92  N   UNL A   1      32.314  18.208  23.232  1.00  0.00    -0.282 N 
ATOM     93  C   UNL A   1      34.165  17.342  23.734  1.00  0.00     0.135 A 
ATOM     94  N   UNL A   1      33.047  17.098  23.051  1.00  0.00    -0.184 NA
ATOM     95  H   UNL A   1      31.433  18.346  22.816  1.00  0.00     0.190 HD
ENDBRANCH  89  90
ENDBRANCH  87  89
ENDBRANCH  82  87
ENDBRANCH  75  78
ENDBRANCH  73  74
ENDBRANCH  72  73
ENDBRANCH   1  72
TORSDOF 18
ENDMDL
