MODEL 1
REMARK VINA RESULT:     -13.2      0.000      0.000
REMARK SMILES O=C(Cc1ccccc1)Nc1cccc(C(=O)Nc2ccccc2C(=O)NCCCCNC(=O)c2ccc(-c3c4nc(c(-c5cccc(S(=O)(=O)[O-])c5F)c5ccc([nH]5)c(-c5cccc(S(=O)(=O)[O-])c5F)c5nc(c(-c6cccc(S(=O)(=O)[O-])c6F)c6ccc3[nH]6)C=C5)C=C4)cc2)c1
REMARK SMILES IDX 28 1 27 2 25 3 26 4 24 6 19 7 20 8 21 9 23 10 22 11 18 12
REMARK SMILES IDX 16 13 17 14 15 16 11 17 12 18 98 19 13 20 14 21 10 22 1 23
REMARK SMILES IDX 2 24 3 26 4 27 5 28 9 29 6 30 8 31 7 32 29 33 30 34 31 35
REMARK SMILES IDX 32 36 33 37 34 39 35 40 36 41 97 42 37 43 96 44 38 45 39 46
REMARK SMILES IDX 40 47 90 48 41 49 95 50 89 51 91 52 42 53 94 54 88 55 87 56
REMARK SMILES IDX 43 58 75 59 55 60 74 61 56 62 59 63 73 64 92 65 57 66 58 67
REMARK SMILES IDX 72 69 93 70 60 71 44 72 45 73 53 74 46 75 48 76 54 77 47 78
REMARK SMILES IDX 49 79 50 80 51 81 52 82 76 83 77 84 85 85 78 86 80 87 86 88
REMARK SMILES IDX 79 89 81 90 82 91 83 92 84 93 61 94 62 95 70 96 63 97 65 98
REMARK SMILES IDX 71 99 64 100 66 101 67 102 68 103 69 104
REMARK H PARENT 27 5 18 15 10 25 32 38 91 57 59 68
REMARK Flexibility Score: inf
ROOT
ATOM      1  C   UNL A   1      33.081  28.852  22.701  1.00  0.00     0.116 C 
ENDROOT
BRANCH   1   2
ATOM      2  N   UNL A   1      31.739  29.192  22.282  1.00  0.00    -0.352 N 
ATOM      3  C   UNL A   1      30.562  28.519  22.488  1.00  0.00     0.253 C 
ATOM      4  O   UNL A   1      29.533  28.972  21.983  1.00  0.00    -0.269 OA
ATOM      5  H   UNL A   1      31.658  30.031  21.774  1.00  0.00     0.163 HD
BRANCH   3   6
ATOM      6  C   UNL A   1      30.497  27.208  23.194  1.00  0.00     0.063 A 
ATOM      7  C   UNL A   1      30.843  25.934  22.697  1.00  0.00     0.054 A 
ATOM      8  C   UNL A   1      30.536  24.805  23.483  1.00  0.00     0.027 A 
ATOM      9  C   UNL A   1      30.033  24.933  24.779  1.00  0.00     0.002 A 
ATOM     10  C   UNL A   1      30.003  27.317  24.513  1.00  0.00     0.016 A 
ATOM     11  C   UNL A   1      29.791  26.192  25.307  1.00  0.00     0.001 A 
BRANCH   7  12
ATOM     12  N   UNL A   1      31.538  25.617  21.504  1.00  0.00    -0.321 N 
ATOM     13  C   UNL A   1      32.805  25.114  21.281  1.00  0.00     0.255 C 
ATOM     14  O   UNL A   1      33.264  25.118  20.139  1.00  0.00    -0.269 OA
ATOM     15  H   UNL A   1      31.023  25.785  20.683  1.00  0.00     0.170 HD
BRANCH  13  16
ATOM     16  C   UNL A   1      33.597  24.528  22.380  1.00  0.00     0.042 A 
ATOM     17  C   UNL A   1      33.989  22.658  23.830  1.00  0.00     0.041 A 
ATOM     18  C   UNL A   1      34.645  23.514  24.727  1.00  0.00     0.026 A 
ATOM     19  C   UNL A   1      33.558  23.151  22.609  1.00  0.00     0.040 A 
ATOM     20  C   UNL A   1      34.842  24.860  24.412  1.00  0.00     0.003 A 
ATOM     21  C   UNL A   1      34.299  25.377  23.239  1.00  0.00     0.014 A 
BRANCH  17  22
ATOM     22  N   UNL A   1      33.636  21.378  24.285  1.00  0.00    -0.326 N 
ATOM     23  O   UNL A   1      31.581  21.722  25.336  1.00  0.00    -0.274 OA
ATOM     24  C   UNL A   1      32.555  21.020  25.073  1.00  0.00     0.228 C 
ATOM     25  H   UNL A   1      34.230  20.643  24.008  1.00  0.00     0.169 HD
BRANCH  24  26
ATOM     26  C   UNL A   1      32.686  19.617  25.646  1.00  0.00     0.135 C 
BRANCH  26  27
ATOM     27  C   UNL A   1      33.162  18.593  24.642  1.00  0.00    -0.039 A 
ATOM     28  C   UNL A   1      34.278  17.795  24.926  1.00  0.00     0.004 A 
ATOM     29  C   UNL A   1      32.508  18.422  23.413  1.00  0.00     0.004 A 
ATOM     30  C   UNL A   1      34.718  16.841  24.005  1.00  0.00     0.000 A 
ATOM     31  C   UNL A   1      32.933  17.453  22.506  1.00  0.00     0.000 A 
ATOM     32  C   UNL A   1      34.039  16.663  22.802  1.00  0.00     0.000 A 
ENDBRANCH  26  27
ENDBRANCH  24  26
ENDBRANCH  17  22
ENDBRANCH  13  16
ENDBRANCH   7  12
ENDBRANCH   3   6
ENDBRANCH   1   2
BRANCH   1  33
ATOM     33  C   UNL A   1      33.208  28.546  24.189  1.00  0.00     0.023 C 
BRANCH  33  34
ATOM     34  C   UNL A   1      33.473  29.744  25.106  1.00  0.00     0.023 C 
BRANCH  34  35
ATOM     35  C   UNL A   1      32.446  30.017  26.201  1.00  0.00     0.116 C 
BRANCH  35  36
ATOM     36  N   UNL A   1      32.372  31.412  26.612  1.00  0.00    -0.352 N 
ATOM     37  C   UNL A   1      33.223  32.151  27.402  1.00  0.00     0.251 C 
ATOM     38  H   UNL A   1      31.588  31.902  26.274  1.00  0.00     0.163 HD
ATOM     39  O   UNL A   1      32.924  33.291  27.732  1.00  0.00    -0.269 OA
BRANCH  37  40
ATOM     40  C   UNL A   1      34.489  31.553  27.884  1.00  0.00     0.039 A 
ATOM     41  C   UNL A   1      35.618  32.367  27.999  1.00  0.00     0.014 A 
ATOM     42  C   UNL A   1      34.555  30.206  28.243  1.00  0.00     0.014 A 
ATOM     43  C   UNL A   1      36.785  31.854  28.575  1.00  0.00     0.010 A 
ATOM     44  C   UNL A   1      35.691  29.719  28.886  1.00  0.00     0.010 A 
ATOM     45  C   UNL A   1      36.813  30.542  29.072  1.00  0.00    -0.014 A 
BRANCH  45  46
ATOM     46  C   UNL A   1      37.981  30.023  29.834  1.00  0.00     0.031 A 
ATOM     47  C   UNL A   1      38.248  30.497  31.237  1.00  0.00     0.074 A 
ATOM     48  C   UNL A   1      38.868  29.215  29.217  1.00  0.00     0.049 A 
ATOM     49  N   UNL A   1      39.264  30.230  32.016  1.00  0.00    -0.248 NA
ATOM     50  C   UNL A   1      37.262  31.415  31.830  1.00  0.00     0.031 C 
ATOM     51  C   UNL A   1      38.775  28.756  27.830  1.00  0.00     0.029 A 
ATOM     52  N   UNL A   1      40.042  28.662  29.668  1.00  0.00    -0.354 N 
ATOM     53  C   UNL A   1      39.065  30.979  33.169  1.00  0.00     0.074 A 
ATOM     54  C   UNL A   1      37.844  31.733  32.977  1.00  0.00     0.031 C 
ATOM     55  C   UNL A   1      39.842  27.992  27.544  1.00  0.00     0.029 A 
ATOM     56  C   UNL A   1      40.708  27.926  28.716  1.00  0.00     0.049 A 
ATOM     57  H   UNL A   1      40.375  28.782  30.587  1.00  0.00     0.167 HD
ATOM     58  C   UNL A   1      39.811  31.014  34.299  1.00  0.00     0.034 A 
ATOM     59  C   UNL A   1      41.886  27.274  28.777  1.00  0.00     0.034 A 
ATOM     60  C   UNL A   1      40.987  30.215  34.515  1.00  0.00     0.049 A 
ATOM     61  C   UNL A   1      42.657  27.269  30.069  1.00  0.00     0.074 A 
ATOM     62  C   UNL A   1      41.752  30.106  35.663  1.00  0.00     0.029 A 
ATOM     63  N   UNL A   1      41.567  29.387  33.567  1.00  0.00    -0.354 N 
ATOM     64  N   UNL A   1      42.361  27.850  31.206  1.00  0.00    -0.248 NA
ATOM     65  C   UNL A   1      43.901  26.487  30.101  1.00  0.00     0.031 C 
ATOM     66  C   UNL A   1      42.799  29.213  35.406  1.00  0.00     0.029 A 
ATOM     67  C   UNL A   1      42.679  28.761  34.102  1.00  0.00     0.049 A 
ATOM     68  H   UNL A   1      41.235  29.263  32.648  1.00  0.00     0.167 HD
ATOM     69  C   UNL A   1      43.361  27.477  32.097  1.00  0.00     0.074 A 
ATOM     70  C   UNL A   1      44.260  26.603  31.373  1.00  0.00     0.031 C 
ATOM     71  C   UNL A   1      43.528  27.840  33.392  1.00  0.00     0.034 A 
BRANCH  58  72
ATOM     72  C   UNL A   1      39.333  31.895  35.423  1.00  0.00     0.023 A 
ATOM     73  C   UNL A   1      38.443  31.368  36.381  1.00  0.00     0.012 A 
ATOM     74  C   UNL A   1      39.801  33.215  35.567  1.00  0.00     0.148 A 
ATOM     75  C   UNL A   1      37.999  32.150  37.445  1.00  0.00     0.002 A 
ATOM     76  C   UNL A   1      39.386  33.976  36.655  1.00  0.00     0.091 A 
ATOM     77  F   UNL A   1      40.630  33.708  34.634  1.00  0.00    -0.205 F 
ATOM     78  C   UNL A   1      38.479  33.449  37.588  1.00  0.00     0.022 A 
BRANCH  76  79
ATOM     79  S   UNL A   1      40.007  35.633  36.965  1.00  0.00     0.127 S 
ATOM     80  O   UNL A   1      39.343  35.967  38.224  1.00  0.00    -0.237 OA
ATOM     81  O   UNL A   1      41.449  35.410  37.078  1.00  0.00    -0.237 OA
ATOM     82  O   UNL A   1      39.607  36.430  35.814  1.00  0.00    -0.744 OA
ENDBRANCH  76  79
ENDBRANCH  58  72
BRANCH  59  83
ATOM     83  C   UNL A   1      42.365  26.494  27.599  1.00  0.00     0.023 A 
ATOM     84  C   UNL A   1      43.171  27.134  26.637  1.00  0.00     0.012 A 
ATOM     85  C   UNL A   1      42.062  25.128  27.442  1.00  0.00     0.148 A 
ATOM     86  C   UNL A   1      43.642  26.437  25.525  1.00  0.00     0.002 A 
ATOM     87  C   UNL A   1      42.578  24.426  26.357  1.00  0.00     0.091 A 
ATOM     88  F   UNL A   1      41.281  24.540  28.359  1.00  0.00    -0.205 F 
ATOM     89  C   UNL A   1      43.355  25.082  25.390  1.00  0.00     0.022 A 
BRANCH  87  90
ATOM     90  S   UNL A   1      42.363  22.651  26.176  1.00  0.00     0.127 S 
ATOM     91  O   UNL A   1      43.076  22.142  27.345  1.00  0.00    -0.237 OA
ATOM     92  O   UNL A   1      40.907  22.512  26.234  1.00  0.00    -0.237 OA
ATOM     93  O   UNL A   1      42.942  22.321  24.882  1.00  0.00    -0.744 OA
ENDBRANCH  87  90
ENDBRANCH  59  83
BRANCH  71  94
ATOM     94  C   UNL A   1      44.708  27.271  34.133  1.00  0.00     0.023 A 
ATOM     95  C   UNL A   1      45.920  27.987  34.166  1.00  0.00     0.012 A 
ATOM     96  C   UNL A   1      44.590  26.074  34.867  1.00  0.00     0.148 A 
ATOM     97  C   UNL A   1      47.006  27.509  34.899  1.00  0.00     0.002 A 
ATOM     98  C   UNL A   1      45.662  25.626  35.629  1.00  0.00     0.091 A 
ATOM     99  F   UNL A   1      43.435  25.396  34.804  1.00  0.00    -0.205 F 
ATOM    100  C   UNL A   1      46.872  26.337  35.640  1.00  0.00     0.022 A 
BRANCH  98 101
ATOM    101  S   UNL A   1      45.545  24.177  36.686  1.00  0.00     0.127 S 
ATOM    102  O   UNL A   1      44.781  24.694  37.819  1.00  0.00    -0.237 OA
ATOM    103  O   UNL A   1      44.815  23.231  35.839  1.00  0.00    -0.237 OA
ATOM    104  O   UNL A   1      46.918  23.785  36.977  1.00  0.00    -0.744 OA
ENDBRANCH  98 101
ENDBRANCH  71  94
ENDBRANCH  45  46
ENDBRANCH  37  40
ENDBRANCH  35  36
ENDBRANCH  34  35
ENDBRANCH  33  34
ENDBRANCH   1  33
TORSDOF 19
ENDMDL
MODEL 2
REMARK VINA RESULT:     -12.9      4.499     10.138
REMARK SMILES O=C(Cc1ccccc1)Nc1cccc(C(=O)Nc2ccccc2C(=O)NCCCCNC(=O)c2ccc(-c3c4nc(c(-c5cccc(S(=O)(=O)[O-])c5F)c5ccc([nH]5)c(-c5cccc(S(=O)(=O)[O-])c5F)c5nc(c(-c6cccc(S(=O)(=O)[O-])c6F)c6ccc3[nH]6)C=C5)C=C4)cc2)c1
REMARK SMILES IDX 28 1 27 2 25 3 26 4 24 6 19 7 20 8 21 9 23 10 22 11 18 12
REMARK SMILES IDX 16 13 17 14 15 16 11 17 12 18 98 19 13 20 14 21 10 22 1 23
REMARK SMILES IDX 2 24 3 26 4 27 5 28 9 29 6 30 8 31 7 32 29 33 30 34 31 35
REMARK SMILES IDX 32 36 33 37 34 39 35 40 36 41 97 42 37 43 96 44 38 45 39 46
REMARK SMILES IDX 40 47 90 48 41 49 95 50 89 51 91 52 42 53 94 54 88 55 87 56
REMARK SMILES IDX 43 58 75 59 55 60 74 61 56 62 59 63 73 64 92 65 57 66 58 67
REMARK SMILES IDX 72 69 93 70 60 71 44 72 45 73 53 74 46 75 48 76 54 77 47 78
REMARK SMILES IDX 49 79 50 80 51 81 52 82 76 83 77 84 85 85 78 86 80 87 86 88
REMARK SMILES IDX 79 89 81 90 82 91 83 92 84 93 61 94 62 95 70 96 63 97 65 98
REMARK SMILES IDX 71 99 64 100 66 101 67 102 68 103 69 104
REMARK H PARENT 27 5 18 15 10 25 32 38 91 57 59 68
REMARK Flexibility Score: inf
ROOT
ATOM      1  C   UNL A   1      34.092  23.350  22.237  1.00  0.00     0.116 C 
ENDROOT
BRANCH   1   2
ATOM      2  N   UNL A   1      32.695  23.622  22.488  1.00  0.00    -0.352 N 
ATOM      3  C   UNL A   1      31.811  22.970  23.309  1.00  0.00     0.253 C 
ATOM      4  O   UNL A   1      30.637  23.346  23.322  1.00  0.00    -0.269 OA
ATOM      5  H   UNL A   1      32.322  24.389  21.998  1.00  0.00     0.163 HD
BRANCH   3   6
ATOM      6  C   UNL A   1      32.184  21.758  24.092  1.00  0.00     0.063 A 
ATOM      7  C   UNL A   1      31.773  21.400  25.393  1.00  0.00     0.054 A 
ATOM      8  C   UNL A   1      32.390  20.292  26.007  1.00  0.00     0.027 A 
ATOM      9  C   UNL A   1      33.284  19.475  25.312  1.00  0.00     0.002 A 
ATOM     10  C   UNL A   1      33.078  20.910  23.400  1.00  0.00     0.016 A 
ATOM     11  C   UNL A   1      33.609  19.768  23.996  1.00  0.00     0.001 A 
BRANCH   7  12
ATOM     12  N   UNL A   1      30.744  21.977  26.177  1.00  0.00    -0.321 N 
ATOM     13  C   UNL A   1      30.643  23.200  26.812  1.00  0.00     0.255 C 
ATOM     14  O   UNL A   1      29.728  23.392  27.611  1.00  0.00    -0.269 OA
ATOM     15  H   UNL A   1      29.954  21.401  26.289  1.00  0.00     0.170 HD
BRANCH  13  16
ATOM     16  C   UNL A   1      31.586  24.294  26.510  1.00  0.00     0.042 A 
ATOM     17  C   UNL A   1      31.980  26.398  25.426  1.00  0.00     0.041 A 
ATOM     18  C   UNL A   1      33.357  26.137  25.459  1.00  0.00     0.026 A 
ATOM     19  C   UNL A   1      31.105  25.520  26.047  1.00  0.00     0.040 A 
ATOM     20  C   UNL A   1      33.850  24.991  26.085  1.00  0.00     0.003 A 
ATOM     21  C   UNL A   1      32.959  24.053  26.599  1.00  0.00     0.014 A 
BRANCH  17  22
ATOM     22  N   UNL A   1      31.530  27.446  24.608  1.00  0.00    -0.326 N 
ATOM     23  O   UNL A   1      31.504  26.497  22.476  1.00  0.00    -0.274 OA
ATOM     24  C   UNL A   1      31.430  27.467  23.226  1.00  0.00     0.228 C 
ATOM     25  H   UNL A   1      31.251  28.267  25.073  1.00  0.00     0.169 HD
BRANCH  24  26
ATOM     26  C   UNL A   1      31.236  28.872  22.674  1.00  0.00     0.135 C 
BRANCH  26  27
ATOM     27  C   UNL A   1      29.855  29.434  22.916  1.00  0.00    -0.039 A 
ATOM     28  C   UNL A   1      28.726  28.617  22.770  1.00  0.00     0.004 A 
ATOM     29  C   UNL A   1      29.670  30.775  23.284  1.00  0.00     0.004 A 
ATOM     30  C   UNL A   1      27.447  29.129  23.001  1.00  0.00     0.000 A 
ATOM     31  C   UNL A   1      28.396  31.278  23.538  1.00  0.00     0.000 A 
ATOM     32  C   UNL A   1      27.284  30.455  23.395  1.00  0.00     0.000 A 
ENDBRANCH  26  27
ENDBRANCH  24  26
ENDBRANCH  17  22
ENDBRANCH  13  16
ENDBRANCH   7  12
ENDBRANCH   3   6
ENDBRANCH   1   2
BRANCH   1  33
ATOM     33  C   UNL A   1      35.011  23.685  23.407  1.00  0.00     0.023 C 
BRANCH  33  34
ATOM     34  C   UNL A   1      36.152  22.700  23.676  1.00  0.00     0.023 C 
BRANCH  34  35
ATOM     35  C   UNL A   1      36.315  22.209  25.112  1.00  0.00     0.116 C 
BRANCH  35  36
ATOM     36  N   UNL A   1      37.318  21.165  25.272  1.00  0.00    -0.352 N 
ATOM     37  C   UNL A   1      38.598  21.233  25.774  1.00  0.00     0.251 C 
ATOM     38  H   UNL A   1      37.035  20.270  24.973  1.00  0.00     0.163 HD
ATOM     39  O   UNL A   1      39.335  20.256  25.717  1.00  0.00    -0.269 OA
BRANCH  37  40
ATOM     40  C   UNL A   1      39.099  22.501  26.350  1.00  0.00     0.039 A 
ATOM     41  C   UNL A   1      40.263  22.477  27.122  1.00  0.00     0.014 A 
ATOM     42  C   UNL A   1      38.440  23.707  26.112  1.00  0.00     0.014 A 
ATOM     43  C   UNL A   1      40.824  23.678  27.566  1.00  0.00     0.010 A 
ATOM     44  C   UNL A   1      39.041  24.906  26.487  1.00  0.00     0.010 A 
ATOM     45  C   UNL A   1      40.247  24.906  27.206  1.00  0.00    -0.014 A 
BRANCH  45  46
ATOM     46  C   UNL A   1      40.909  26.199  27.523  1.00  0.00     0.031 A 
ATOM     47  C   UNL A   1      42.335  26.448  27.113  1.00  0.00     0.074 A 
ATOM     48  C   UNL A   1      40.262  27.106  28.286  1.00  0.00     0.049 A 
ATOM     49  N   UNL A   1      43.104  27.470  27.384  1.00  0.00    -0.248 NA
ATOM     50  C   UNL A   1      42.994  25.395  26.322  1.00  0.00     0.031 C 
ATOM     51  C   UNL A   1      38.911  26.948  28.826  1.00  0.00     0.029 A 
ATOM     52  N   UNL A   1      40.668  28.326  28.767  1.00  0.00    -0.354 N 
ATOM     53  C   UNL A   1      44.346  27.167  26.840  1.00  0.00     0.074 A 
ATOM     54  C   UNL A   1      44.236  25.852  26.246  1.00  0.00     0.031 C 
ATOM     55  C   UNL A   1      38.599  28.028  29.560  1.00  0.00     0.029 A 
ATOM     56  C   UNL A   1      39.734  28.944  29.566  1.00  0.00     0.049 A 
ATOM     57  H   UNL A   1      41.546  28.722  28.559  1.00  0.00     0.167 HD
ATOM     58  C   UNL A   1      45.467  27.926  26.809  1.00  0.00     0.034 A 
ATOM     59  C   UNL A   1      39.786  30.115  30.232  1.00  0.00     0.034 A 
ATOM     60  C   UNL A   1      45.557  29.258  27.340  1.00  0.00     0.049 A 
ATOM     61  C   UNL A   1      41.018  30.971  30.117  1.00  0.00     0.074 A 
ATOM     62  C   UNL A   1      46.617  30.144  27.267  1.00  0.00     0.029 A 
ATOM     63  N   UNL A   1      44.547  29.900  28.041  1.00  0.00    -0.354 N 
ATOM     64  N   UNL A   1      42.124  30.737  29.453  1.00  0.00    -0.248 NA
ATOM     65  C   UNL A   1      40.997  32.268  30.809  1.00  0.00     0.031 C 
ATOM     66  C   UNL A   1      46.250  31.321  27.929  1.00  0.00     0.029 A 
ATOM     67  C   UNL A   1      44.958  31.171  28.405  1.00  0.00     0.049 A 
ATOM     68  H   UNL A   1      43.668  29.509  28.248  1.00  0.00     0.167 HD
ATOM     69  C   UNL A   1      42.914  31.869  29.617  1.00  0.00     0.074 A 
ATOM     70  C   UNL A   1      42.151  32.797  30.427  1.00  0.00     0.031 C 
ATOM     71  C   UNL A   1      44.165  32.111  29.153  1.00  0.00     0.034 A 
BRANCH  58  72
ATOM     72  C   UNL A   1      46.673  27.358  26.106  1.00  0.00     0.023 A 
ATOM     73  C   UNL A   1      46.795  27.513  24.711  1.00  0.00     0.012 A 
ATOM     74  C   UNL A   1      47.707  26.726  26.825  1.00  0.00     0.148 A 
ATOM     75  C   UNL A   1      47.908  27.018  24.035  1.00  0.00     0.002 A 
ATOM     76  C   UNL A   1      48.834  26.272  26.149  1.00  0.00     0.091 A 
ATOM     77  F   UNL A   1      47.564  26.568  28.149  1.00  0.00    -0.205 F 
ATOM     78  C   UNL A   1      48.932  26.408  24.755  1.00  0.00     0.022 A 
BRANCH  76  79
ATOM     79  S   UNL A   1      50.238  25.541  26.998  1.00  0.00     0.127 S 
ATOM     80  O   UNL A   1      51.168  25.315  25.893  1.00  0.00    -0.237 OA
ATOM     81  O   UNL A   1      50.636  26.607  27.919  1.00  0.00    -0.237 OA
ATOM     82  O   UNL A   1      49.730  24.341  27.648  1.00  0.00    -0.744 OA
ENDBRANCH  76  79
ENDBRANCH  58  72
BRANCH  59  83
ATOM     83  C   UNL A   1      38.596  30.588  30.996  1.00  0.00     0.023 A 
ATOM     84  C   UNL A   1      38.537  30.353  32.384  1.00  0.00     0.012 A 
ATOM     85  C   UNL A   1      37.549  31.293  30.374  1.00  0.00     0.148 A 
ATOM     86  C   UNL A   1      37.443  30.784  33.133  1.00  0.00     0.002 A 
ATOM     87  C   UNL A   1      36.485  31.766  31.136  1.00  0.00     0.091 A 
ATOM     88  F   UNL A   1      37.615  31.495  29.050  1.00  0.00    -0.205 F 
ATOM     89  C   UNL A   1      36.422  31.499  32.512  1.00  0.00     0.022 A 
BRANCH  87  90
ATOM     90  S   UNL A   1      35.195  32.805  30.439  1.00  0.00     0.127 S 
ATOM     91  O   UNL A   1      35.958  33.961  29.976  1.00  0.00    -0.237 OA
ATOM     92  O   UNL A   1      34.659  31.955  29.375  1.00  0.00    -0.237 OA
ATOM     93  O   UNL A   1      34.264  33.051  31.531  1.00  0.00    -0.744 OA
ENDBRANCH  87  90
ENDBRANCH  59  83
BRANCH  71  94
ATOM     94  C   UNL A   1      44.786  33.443  29.475  1.00  0.00     0.023 A 
ATOM     95  C   UNL A   1      45.594  33.576  30.621  1.00  0.00     0.012 A 
ATOM     96  C   UNL A   1      44.642  34.537  28.598  1.00  0.00     0.148 A 
ATOM     97  C   UNL A   1      46.231  34.783  30.904  1.00  0.00     0.002 A 
ATOM     98  C   UNL A   1      45.315  35.724  28.864  1.00  0.00     0.091 A 
ATOM     99  F   UNL A   1      43.851  34.398  27.525  1.00  0.00    -0.205 F 
ATOM    100  C   UNL A   1      46.102  35.852  30.019  1.00  0.00     0.022 A 
BRANCH  98 101
ATOM    101  S   UNL A   1      45.277  37.118  27.730  1.00  0.00     0.127 S 
ATOM    102  O   UNL A   1      43.846  37.405  27.657  1.00  0.00    -0.237 OA
ATOM    103  O   UNL A   1      46.065  38.124  28.445  1.00  0.00    -0.237 OA
ATOM    104  O   UNL A   1      45.888  36.644  26.496  1.00  0.00    -0.744 OA
ENDBRANCH  98 101
ENDBRANCH  71  94
ENDBRANCH  45  46
ENDBRANCH  37  40
ENDBRANCH  35  36
ENDBRANCH  34  35
ENDBRANCH  33  34
ENDBRANCH   1  33
TORSDOF 19
ENDMDL
MODEL 3
REMARK VINA RESULT:     -12.8      4.949      8.144
REMARK SMILES O=C(Cc1ccccc1)Nc1cccc(C(=O)Nc2ccccc2C(=O)NCCCCNC(=O)c2ccc(-c3c4nc(c(-c5cccc(S(=O)(=O)[O-])c5F)c5ccc([nH]5)c(-c5cccc(S(=O)(=O)[O-])c5F)c5nc(c(-c6cccc(S(=O)(=O)[O-])c6F)c6ccc3[nH]6)C=C5)C=C4)cc2)c1
REMARK SMILES IDX 28 1 27 2 25 3 26 4 24 6 19 7 20 8 21 9 23 10 22 11 18 12
REMARK SMILES IDX 16 13 17 14 15 16 11 17 12 18 98 19 13 20 14 21 10 22 1 23
REMARK SMILES IDX 2 24 3 26 4 27 5 28 9 29 6 30 8 31 7 32 29 33 30 34 31 35
REMARK SMILES IDX 32 36 33 37 34 39 35 40 36 41 97 42 37 43 96 44 38 45 39 46
REMARK SMILES IDX 40 47 90 48 41 49 95 50 89 51 91 52 42 53 94 54 88 55 87 56
REMARK SMILES IDX 43 58 75 59 55 60 74 61 56 62 59 63 73 64 92 65 57 66 58 67
REMARK SMILES IDX 72 69 93 70 60 71 44 72 45 73 53 74 46 75 48 76 54 77 47 78
REMARK SMILES IDX 49 79 50 80 51 81 52 82 76 83 77 84 85 85 78 86 80 87 86 88
REMARK SMILES IDX 79 89 81 90 82 91 83 92 84 93 61 94 62 95 70 96 63 97 65 98
REMARK SMILES IDX 71 99 64 100 66 101 67 102 68 103 69 104
REMARK H PARENT 27 5 18 15 10 25 32 38 91 57 59 68
REMARK Flexibility Score: inf
ROOT
ATOM      1  C   UNL A   1      34.095  23.304  22.174  1.00  0.00     0.116 C 
ENDROOT
BRANCH   1   2
ATOM      2  N   UNL A   1      32.703  23.596  22.437  1.00  0.00    -0.352 N 
ATOM      3  C   UNL A   1      31.809  22.941  23.245  1.00  0.00     0.253 C 
ATOM      4  O   UNL A   1      30.643  23.339  23.271  1.00  0.00    -0.269 OA
ATOM      5  H   UNL A   1      32.344  24.382  21.966  1.00  0.00     0.163 HD
BRANCH   3   6
ATOM      6  C   UNL A   1      32.162  21.704  23.998  1.00  0.00     0.063 A 
ATOM      7  C   UNL A   1      31.776  21.340  25.305  1.00  0.00     0.054 A 
ATOM      8  C   UNL A   1      32.372  20.201  25.884  1.00  0.00     0.027 A 
ATOM      9  C   UNL A   1      33.216  19.365  25.150  1.00  0.00     0.002 A 
ATOM     10  C   UNL A   1      33.005  20.837  23.267  1.00  0.00     0.016 A 
ATOM     11  C   UNL A   1      33.513  19.668  23.830  1.00  0.00     0.001 A 
BRANCH   7  12
ATOM     12  N   UNL A   1      30.791  21.940  26.127  1.00  0.00    -0.321 N 
ATOM     13  C   UNL A   1      30.762  23.145  26.802  1.00  0.00     0.255 C 
ATOM     14  O   UNL A   1      29.873  23.354  27.626  1.00  0.00    -0.269 OA
ATOM     15  H   UNL A   1      29.977  21.399  26.237  1.00  0.00     0.170 HD
BRANCH  13  16
ATOM     16  C   UNL A   1      31.751  24.202  26.515  1.00  0.00     0.042 A 
ATOM     17  C   UNL A   1      32.241  26.291  25.442  1.00  0.00     0.041 A 
ATOM     18  C   UNL A   1      33.606  25.977  25.493  1.00  0.00     0.026 A 
ATOM     19  C   UNL A   1      31.324  25.447  26.049  1.00  0.00     0.040 A 
ATOM     20  C   UNL A   1      34.045  24.811  26.123  1.00  0.00     0.003 A 
ATOM     21  C   UNL A   1      33.112  23.907  26.623  1.00  0.00     0.014 A 
BRANCH  17  22
ATOM     22  N   UNL A   1      31.843  27.357  24.620  1.00  0.00    -0.326 N 
ATOM     23  O   UNL A   1      31.742  26.396  22.496  1.00  0.00    -0.274 OA
ATOM     24  C   UNL A   1      31.731  27.374  23.240  1.00  0.00     0.228 C 
ATOM     25  H   UNL A   1      31.616  28.196  25.082  1.00  0.00     0.169 HD
BRANCH  24  26
ATOM     26  C   UNL A   1      31.611  28.783  22.678  1.00  0.00     0.135 C 
BRANCH  26  27
ATOM     27  C   UNL A   1      30.185  29.241  22.484  1.00  0.00    -0.039 A 
ATOM     28  C   UNL A   1      29.902  30.337  21.659  1.00  0.00     0.004 A 
ATOM     29  C   UNL A   1      29.119  28.589  23.123  1.00  0.00     0.004 A 
ATOM     30  C   UNL A   1      28.584  30.759  21.469  1.00  0.00     0.000 A 
ATOM     31  C   UNL A   1      27.803  28.995  22.913  1.00  0.00     0.000 A 
ATOM     32  C   UNL A   1      27.535  30.081  22.087  1.00  0.00     0.000 A 
ENDBRANCH  26  27
ENDBRANCH  24  26
ENDBRANCH  17  22
ENDBRANCH  13  16
ENDBRANCH   7  12
ENDBRANCH   3   6
ENDBRANCH   1   2
BRANCH   1  33
ATOM     33  C   UNL A   1      35.026  23.619  23.340  1.00  0.00     0.023 C 
BRANCH  33  34
ATOM     34  C   UNL A   1      36.153  22.615  23.597  1.00  0.00     0.023 C 
BRANCH  34  35
ATOM     35  C   UNL A   1      36.430  22.245  25.052  1.00  0.00     0.116 C 
BRANCH  35  36
ATOM     36  N   UNL A   1      37.352  21.131  25.217  1.00  0.00    -0.352 N 
ATOM     37  C   UNL A   1      38.621  21.099  25.748  1.00  0.00     0.251 C 
ATOM     38  H   UNL A   1      37.014  20.263  24.896  1.00  0.00     0.163 HD
ATOM     39  O   UNL A   1      39.288  20.074  25.691  1.00  0.00    -0.269 OA
BRANCH  37  40
ATOM     40  C   UNL A   1      39.197  22.319  26.357  1.00  0.00     0.039 A 
ATOM     41  C   UNL A   1      40.308  22.195  27.195  1.00  0.00     0.014 A 
ATOM     42  C   UNL A   1      38.661  23.579  26.087  1.00  0.00     0.014 A 
ATOM     43  C   UNL A   1      40.945  23.343  27.675  1.00  0.00     0.010 A 
ATOM     44  C   UNL A   1      39.340  24.721  26.501  1.00  0.00     0.010 A 
ATOM     45  C   UNL A   1      40.499  24.616  27.288  1.00  0.00    -0.014 A 
BRANCH  45  46
ATOM     46  C   UNL A   1      41.252  25.848  27.647  1.00  0.00     0.031 A 
ATOM     47  C   UNL A   1      40.586  26.947  28.430  1.00  0.00     0.074 A 
ATOM     48  C   UNL A   1      42.499  26.027  27.166  1.00  0.00     0.049 A 
ATOM     49  N   UNL A   1      41.051  28.126  28.751  1.00  0.00    -0.248 NA
ATOM     50  C   UNL A   1      39.207  26.702  28.884  1.00  0.00     0.031 C 
ATOM     51  C   UNL A   1      43.224  25.079  26.318  1.00  0.00     0.029 A 
ATOM     52  N   UNL A   1      43.367  27.084  27.294  1.00  0.00    -0.354 N 
ATOM     53  C   UNL A   1      40.012  28.780  29.402  1.00  0.00     0.074 A 
ATOM     54  C   UNL A   1      38.881  27.876  29.406  1.00  0.00     0.031 C 
ATOM     55  C   UNL A   1      44.424  25.594  26.004  1.00  0.00     0.029 A 
ATOM     56  C   UNL A   1      44.546  26.918  26.604  1.00  0.00     0.049 A 
ATOM     57  H   UNL A   1      43.164  27.885  27.829  1.00  0.00     0.167 HD
ATOM     58  C   UNL A   1      40.006  30.008  29.972  1.00  0.00     0.034 A 
ATOM     59  C   UNL A   1      45.606  27.739  26.468  1.00  0.00     0.034 A 
ATOM     60  C   UNL A   1      41.148  30.880  30.026  1.00  0.00     0.049 A 
ATOM     61  C   UNL A   1      45.601  29.067  27.175  1.00  0.00     0.074 A 
ATOM     62  C   UNL A   1      41.270  32.099  30.669  1.00  0.00     0.029 A 
ATOM     63  N   UNL A   1      42.367  30.625  29.418  1.00  0.00    -0.354 N 
ATOM     64  N   UNL A   1      44.667  29.595  27.929  1.00  0.00    -0.248 NA
ATOM     65  C   UNL A   1      46.808  29.896  27.048  1.00  0.00     0.031 C 
ATOM     66  C   UNL A   1      42.563  32.585  30.445  1.00  0.00     0.029 A 
ATOM     67  C   UNL A   1      43.248  31.662  29.670  1.00  0.00     0.049 A 
ATOM     68  H   UNL A   1      42.575  29.824  28.885  1.00  0.00     0.167 HD
ATOM     69  C   UNL A   1      45.187  30.798  28.393  1.00  0.00     0.074 A 
ATOM     70  C   UNL A   1      46.525  30.912  27.852  1.00  0.00     0.031 C 
ATOM     71  C   UNL A   1      44.601  31.732  29.182  1.00  0.00     0.034 A 
BRANCH  58  72
ATOM     72  C   UNL A   1      38.739  30.454  30.654  1.00  0.00     0.023 A 
ATOM     73  C   UNL A   1      38.578  30.216  32.034  1.00  0.00     0.012 A 
ATOM     74  C   UNL A   1      37.738  31.153  29.952  1.00  0.00     0.148 A 
ATOM     75  C   UNL A   1      37.427  30.635  32.698  1.00  0.00     0.002 A 
ATOM     76  C   UNL A   1      36.611  31.605  30.631  1.00  0.00     0.091 A 
ATOM     77  F   UNL A   1      37.897  31.352  28.635  1.00  0.00    -0.205 F 
ATOM     78  C   UNL A   1      36.450  31.338  32.000  1.00  0.00     0.022 A 
BRANCH  76  79
ATOM     79  S   UNL A   1      35.333  32.584  29.834  1.00  0.00     0.127 S 
ATOM     80  O   UNL A   1      34.836  31.654  28.822  1.00  0.00    -0.237 OA
ATOM     81  O   UNL A   1      34.404  32.839  30.936  1.00  0.00    -0.237 OA
ATOM     82  O   UNL A   1      36.003  33.772  29.322  1.00  0.00    -0.744 OA
ENDBRANCH  76  79
ENDBRANCH  58  72
BRANCH  59  83
ATOM     83  C   UNL A   1      46.801  27.289  25.698  1.00  0.00     0.023 A 
ATOM     84  C   UNL A   1      47.703  26.389  26.299  1.00  0.00     0.012 A 
ATOM     85  C   UNL A   1      47.031  27.712  24.375  1.00  0.00     0.148 A 
ATOM     86  C   UNL A   1      48.829  25.942  25.608  1.00  0.00     0.002 A 
ATOM     87  C   UNL A   1      48.129  27.223  23.674  1.00  0.00     0.091 A 
ATOM     88  F   UNL A   1      46.170  28.580  23.825  1.00  0.00    -0.205 F 
ATOM     89  C   UNL A   1      49.037  26.350  24.293  1.00  0.00     0.022 A 
BRANCH  87  90
ATOM     90  S   UNL A   1      48.399  27.595  21.937  1.00  0.00     0.127 S 
ATOM     91  O   UNL A   1      49.561  28.478  21.997  1.00  0.00    -0.237 OA
ATOM     92  O   UNL A   1      48.662  26.269  21.377  1.00  0.00    -0.237 OA
ATOM     93  O   UNL A   1      47.159  28.202  21.473  1.00  0.00    -0.744 OA
ENDBRANCH  87  90
ENDBRANCH  59  83
BRANCH  71  94
ATOM     94  C   UNL A   1      45.407  32.950  29.543  1.00  0.00     0.023 A 
ATOM     95  C   UNL A   1      46.184  32.949  30.718  1.00  0.00     0.012 A 
ATOM     96  C   UNL A   1      45.465  34.060  28.675  1.00  0.00     0.148 A 
ATOM     97  C   UNL A   1      46.988  34.042  31.038  1.00  0.00     0.002 A 
ATOM     98  C   UNL A   1      46.301  35.128  28.979  1.00  0.00     0.091 A 
ATOM     99  F   UNL A   1      44.701  34.052  27.574  1.00  0.00    -0.205 F 
ATOM    100  C   UNL A   1      47.056  35.124  30.162  1.00  0.00     0.022 A 
BRANCH  98 101
ATOM    101  S   UNL A   1      46.519  36.519  27.863  1.00  0.00     0.127 S 
ATOM    102  O   UNL A   1      47.303  37.440  28.684  1.00  0.00    -0.237 OA
ATOM    103  O   UNL A   1      47.255  35.916  26.750  1.00  0.00    -0.237 OA
ATOM    104  O   UNL A   1      45.176  36.968  27.521  1.00  0.00    -0.744 OA
ENDBRANCH  98 101
ENDBRANCH  71  94
ENDBRANCH  45  46
ENDBRANCH  37  40
ENDBRANCH  35  36
ENDBRANCH  34  35
ENDBRANCH  33  34
ENDBRANCH   1  33
TORSDOF 19
ENDMDL
