MODEL 1
REMARK VINA RESULT:     -12.3      0.000      0.000
REMARK SMILES Cc1ccc(Cl)c(Nc2ccccc2C(=O)NCC(=O)NCCCCNC(=O)c2ccc(-c3c4nc(c(-c5cccc(S(=O)(=O)[O-])c5F)c5ccc([nH]5)c(-c5cccc(S(=O)(=O)[O-])c5F)c5nc(c(-c6cccc(S(=O)(=O)[O-])c6F)c6ccc3[nH]6)C=C5)C=C4)cc2)c1Cl
REMARK SMILES IDX 23 1 22 2 21 3 19 4 20 5 18 7 17 8 15 9 16 10 14 12 9 13
REMARK SMILES IDX 10 14 11 15 13 16 12 17 8 18 7 20 1 21 2 22 3 23 92 24 4 25
REMARK SMILES IDX 93 26 5 27 6 28 24 29 25 30 26 31 27 32 28 34 29 35 30 36
REMARK SMILES IDX 91 37 31 38 90 39 32 40 33 41 34 42 84 43 35 44 89 45 83 46
REMARK SMILES IDX 85 47 36 48 88 49 82 50 81 51 37 53 69 54 49 55 68 56 50 57
REMARK SMILES IDX 53 58 67 59 86 60 51 61 52 62 66 64 87 65 54 66 38 67 39 68
REMARK SMILES IDX 47 69 40 70 42 71 48 72 41 73 43 74 44 75 45 76 46 77 70 78
REMARK SMILES IDX 71 79 79 80 72 81 74 82 80 83 73 84 75 85 76 86 77 87 78 88
REMARK SMILES IDX 55 89 56 90 64 91 57 92 59 93 65 94 58 95 60 96 61 97 62 98
REMARK SMILES IDX 63 99
REMARK H PARENT 21 6 17 11 8 19 26 33 85 52 53 63
REMARK Flexibility Score: inf
ROOT
ATOM      1  C   UNL A   1      36.600  19.468  25.000  1.00  0.00     0.023 C 
ENDROOT
BRANCH   1   2
ATOM      2  C   UNL A   1      35.222  20.120  24.987  1.00  0.00     0.116 C 
BRANCH   2   3
ATOM      3  N   UNL A   1      34.200  19.104  24.985  1.00  0.00    -0.355 N 
ATOM      4  C   UNL A   1      32.879  19.284  25.266  1.00  0.00     0.239 C 
ATOM      5  O   UNL A   1      32.151  18.292  25.345  1.00  0.00    -0.273 OA
ATOM      6  H   UNL A   1      34.485  18.190  24.760  1.00  0.00     0.163 HD
BRANCH   4   7
ATOM      7  C   UNL A   1      32.288  20.687  25.178  1.00  0.00     0.216 C 
BRANCH   7   8
ATOM      8  N   UNL A   1      31.777  21.454  26.295  1.00  0.00    -0.343 N 
ATOM      9  C   UNL A   1      31.731  22.810  26.524  1.00  0.00     0.253 C 
ATOM     10  O   UNL A   1      30.806  23.190  27.252  1.00  0.00    -0.269 OA
ATOM     11  H   UNL A   1      31.395  20.907  27.019  1.00  0.00     0.164 HD
BRANCH   9  12
ATOM     12  C   UNL A   1      32.802  23.810  26.170  1.00  0.00     0.063 A 
ATOM     13  C   UNL A   1      32.748  25.208  25.956  1.00  0.00     0.051 A 
ATOM     14  C   UNL A   1      33.934  25.860  25.521  1.00  0.00     0.027 A 
ATOM     15  C   UNL A   1      35.152  25.199  25.377  1.00  0.00     0.002 A 
ATOM     16  C   UNL A   1      34.064  23.168  26.025  1.00  0.00     0.016 A 
ATOM     17  C   UNL A   1      35.223  23.847  25.653  1.00  0.00     0.001 A 
BRANCH  13  18
ATOM     18  N   UNL A   1      31.696  26.105  26.240  1.00  0.00    -0.352 N 
ATOM     19  H   UNL A   1      31.161  25.838  27.022  1.00  0.00     0.167 HD
BRANCH  18  20
ATOM     20  C   UNL A   1      31.247  27.307  25.641  1.00  0.00     0.077 A 
ATOM     21  C   UNL A   1      29.708  28.573  22.374  1.00  0.00     0.046 C 
ATOM     22  C   UNL A   1      30.392  28.547  23.713  1.00  0.00    -0.030 A 
ATOM     23  C   UNL A   1      31.003  29.714  24.196  1.00  0.00     0.006 A 
ATOM     24  C   UNL A   1      30.479  27.358  24.463  1.00  0.00     0.069 A 
ATOM     25  C   UNL A   1      31.653  29.716  25.427  1.00  0.00     0.023 A 
ATOM     26  Cl  UNL A   1      29.529  25.985  23.971  1.00  0.00    -0.082 Cl
ATOM     27  C   UNL A   1      31.761  28.528  26.146  1.00  0.00     0.066 A 
ATOM     28  Cl  UNL A   1      32.667  28.560  27.626  1.00  0.00    -0.082 Cl
ENDBRANCH  18  20
ENDBRANCH  13  18
ENDBRANCH   9  12
ENDBRANCH   7   8
ENDBRANCH   4   7
ENDBRANCH   2   3
ENDBRANCH   1   2
BRANCH   1  29
ATOM     29  C   UNL A   1      37.717  20.451  24.646  1.00  0.00     0.023 C 
BRANCH  29  30
ATOM     30  C   UNL A   1      38.715  20.679  25.773  1.00  0.00     0.116 C 
BRANCH  30  31
ATOM     31  N   UNL A   1      39.609  19.547  25.949  1.00  0.00    -0.352 N 
ATOM     32  C   UNL A   1      40.965  19.574  26.180  1.00  0.00     0.251 C 
ATOM     33  H   UNL A   1      39.196  18.655  25.896  1.00  0.00     0.163 HD
ATOM     34  O   UNL A   1      41.630  18.551  26.143  1.00  0.00    -0.269 OA
BRANCH  32  35
ATOM     35  C   UNL A   1      41.593  20.882  26.449  1.00  0.00     0.039 A 
ATOM     36  C   UNL A   1      41.907  21.715  25.375  1.00  0.00     0.014 A 
ATOM     37  C   UNL A   1      41.791  21.302  27.767  1.00  0.00     0.014 A 
ATOM     38  C   UNL A   1      42.383  23.001  25.628  1.00  0.00     0.010 A 
ATOM     39  C   UNL A   1      42.192  22.608  28.015  1.00  0.00     0.010 A 
ATOM     40  C   UNL A   1      42.502  23.467  26.949  1.00  0.00    -0.014 A 
BRANCH  40  41
ATOM     41  C   UNL A   1      42.950  24.851  27.238  1.00  0.00     0.031 A 
ATOM     42  C   UNL A   1      41.996  25.831  27.866  1.00  0.00     0.074 A 
ATOM     43  C   UNL A   1      44.180  25.247  26.855  1.00  0.00     0.049 A 
ATOM     44  N   UNL A   1      42.183  27.094  28.147  1.00  0.00    -0.248 NA
ATOM     45  C   UNL A   1      40.645  25.340  28.191  1.00  0.00     0.031 C 
ATOM     46  C   UNL A   1      45.163  24.412  26.159  1.00  0.00     0.029 A 
ATOM     47  N   UNL A   1      44.805  26.463  26.971  1.00  0.00    -0.354 N 
ATOM     48  C   UNL A   1      40.968  27.558  28.637  1.00  0.00     0.074 A 
ATOM     49  C   UNL A   1      40.041  26.450  28.593  1.00  0.00     0.031 C 
ATOM     50  C   UNL A   1      46.265  25.140  25.913  1.00  0.00     0.029 A 
ATOM     51  C   UNL A   1      46.060  26.498  26.407  1.00  0.00     0.049 A 
ATOM     52  H   UNL A   1      44.395  27.239  27.418  1.00  0.00     0.167 HD
ATOM     53  C   UNL A   1      40.661  28.789  29.107  1.00  0.00     0.034 A 
ATOM     54  C   UNL A   1      46.940  27.512  26.296  1.00  0.00     0.034 A 
ATOM     55  C   UNL A   1      41.605  29.867  29.211  1.00  0.00     0.049 A 
ATOM     56  C   UNL A   1      46.588  28.851  26.887  1.00  0.00     0.074 A 
ATOM     57  C   UNL A   1      41.424  31.111  29.787  1.00  0.00     0.029 A 
ATOM     58  N   UNL A   1      42.901  29.832  28.725  1.00  0.00    -0.354 N 
ATOM     59  N   UNL A   1      45.499  29.213  27.521  1.00  0.00    -0.248 NA
ATOM     60  C   UNL A   1      47.599  29.913  26.780  1.00  0.00     0.031 C 
ATOM     61  C   UNL A   1      42.604  31.841  29.623  1.00  0.00     0.029 A 
ATOM     62  C   UNL A   1      43.528  31.040  28.973  1.00  0.00     0.049 A 
ATOM     63  H   UNL A   1      43.315  29.063  28.271  1.00  0.00     0.167 HD
ATOM     64  C   UNL A   1      45.713  30.526  27.927  1.00  0.00     0.074 A 
ATOM     65  C   UNL A   1      47.043  30.888  27.485  1.00  0.00     0.031 C 
ATOM     66  C   UNL A   1      44.877  31.362  28.589  1.00  0.00     0.034 A 
BRANCH  53  67
ATOM     67  C   UNL A   1      39.260  29.034  29.598  1.00  0.00     0.023 A 
ATOM     68  C   UNL A   1      38.905  28.660  30.909  1.00  0.00     0.012 A 
ATOM     69  C   UNL A   1      38.330  29.727  28.798  1.00  0.00     0.148 A 
ATOM     70  C   UNL A   1      37.639  28.957  31.413  1.00  0.00     0.002 A 
ATOM     71  C   UNL A   1      37.086  30.056  29.321  1.00  0.00     0.091 A 
ATOM     72  F   UNL A   1      38.682  30.053  27.546  1.00  0.00    -0.205 F 
ATOM     73  C   UNL A   1      36.736  29.665  30.624  1.00  0.00     0.022 A 
BRANCH  71  74
ATOM     74  S   UNL A   1      35.882  31.039  28.419  1.00  0.00     0.127 S 
ATOM     75  O   UNL A   1      36.665  32.226  28.080  1.00  0.00    -0.237 OA
ATOM     76  O   UNL A   1      35.568  30.170  27.285  1.00  0.00    -0.237 OA
ATOM     77  O   UNL A   1      34.776  31.266  29.339  1.00  0.00    -0.744 OA
ENDBRANCH  71  74
ENDBRANCH  53  67
BRANCH  54  78
ATOM     78  C   UNL A   1      48.268  27.295  25.651  1.00  0.00     0.023 A 
ATOM     79  C   UNL A   1      49.371  26.926  26.446  1.00  0.00     0.012 A 
ATOM     80  C   UNL A   1      48.450  27.467  24.266  1.00  0.00     0.148 A 
ATOM     81  C   UNL A   1      50.639  26.780  25.882  1.00  0.00     0.002 A 
ATOM     82  C   UNL A   1      49.704  27.264  23.701  1.00  0.00     0.091 A 
ATOM     83  F   UNL A   1      47.394  27.833  23.525  1.00  0.00    -0.205 F 
ATOM     84  C   UNL A   1      50.804  26.942  24.509  1.00  0.00     0.022 A 
BRANCH  82  85
ATOM     85  S   UNL A   1      49.972  27.323  21.926  1.00  0.00     0.127 S 
ATOM     86  O   UNL A   1      49.693  28.725  21.628  1.00  0.00    -0.237 OA
ATOM     87  O   UNL A   1      51.379  26.937  21.814  1.00  0.00    -0.237 OA
ATOM     88  O   UNL A   1      49.042  26.352  21.364  1.00  0.00    -0.744 OA
ENDBRANCH  82  85
ENDBRANCH  54  78
BRANCH  66  89
ATOM     89  C   UNL A   1      45.386  32.738  28.929  1.00  0.00     0.023 A 
ATOM     90  C   UNL A   1      46.064  32.957  30.144  1.00  0.00     0.012 A 
ATOM     91  C   UNL A   1      45.264  33.792  28.003  1.00  0.00     0.148 A 
ATOM     92  C   UNL A   1      46.581  34.215  30.448  1.00  0.00     0.002 A 
ATOM     93  C   UNL A   1      45.828  35.029  28.290  1.00  0.00     0.091 A 
ATOM     94  F   UNL A   1      44.601  33.568  26.859  1.00  0.00    -0.205 F 
ATOM     95  C   UNL A   1      46.475  35.246  29.517  1.00  0.00     0.022 A 
BRANCH  93  96
ATOM     96  S   UNL A   1      45.829  36.382  27.108  1.00  0.00     0.127 S 
ATOM     97  O   UNL A   1      44.403  36.682  26.996  1.00  0.00    -0.237 OA
ATOM     98  O   UNL A   1      46.614  37.402  27.805  1.00  0.00    -0.237 OA
ATOM     99  O   UNL A   1      46.455  35.860  25.901  1.00  0.00    -0.744 OA
ENDBRANCH  93  96
ENDBRANCH  66  89
ENDBRANCH  40  41
ENDBRANCH  32  35
ENDBRANCH  30  31
ENDBRANCH  29  30
ENDBRANCH   1  29
TORSDOF 18
ENDMDL
MODEL 2
REMARK VINA RESULT:     -11.7      5.435      8.903
REMARK SMILES Cc1ccc(Cl)c(Nc2ccccc2C(=O)NCC(=O)NCCCCNC(=O)c2ccc(-c3c4nc(c(-c5cccc(S(=O)(=O)[O-])c5F)c5ccc([nH]5)c(-c5cccc(S(=O)(=O)[O-])c5F)c5nc(c(-c6cccc(S(=O)(=O)[O-])c6F)c6ccc3[nH]6)C=C5)C=C4)cc2)c1Cl
REMARK SMILES IDX 23 1 22 2 21 3 19 4 20 5 18 7 17 8 15 9 16 10 14 12 9 13
REMARK SMILES IDX 10 14 11 15 13 16 12 17 8 18 7 20 1 21 2 22 3 23 92 24 4 25
REMARK SMILES IDX 93 26 5 27 6 28 24 29 25 30 26 31 27 32 28 34 29 35 30 36
REMARK SMILES IDX 91 37 31 38 90 39 32 40 33 41 34 42 84 43 35 44 89 45 83 46
REMARK SMILES IDX 85 47 36 48 88 49 82 50 81 51 37 53 69 54 49 55 68 56 50 57
REMARK SMILES IDX 53 58 67 59 86 60 51 61 52 62 66 64 87 65 54 66 38 67 39 68
REMARK SMILES IDX 47 69 40 70 42 71 48 72 41 73 43 74 44 75 45 76 46 77 70 78
REMARK SMILES IDX 71 79 79 80 72 81 74 82 80 83 73 84 75 85 76 86 77 87 78 88
REMARK SMILES IDX 55 89 56 90 64 91 57 92 59 93 65 94 58 95 60 96 61 97 62 98
REMARK SMILES IDX 63 99
REMARK H PARENT 21 6 17 11 8 19 26 33 85 52 53 63
REMARK Flexibility Score: inf
ROOT
ATOM      1  C   UNL A   1      31.348  27.945  25.387  1.00  0.00     0.023 C 
ENDROOT
BRANCH   1   2
ATOM      2  C   UNL A   1      30.508  27.037  24.496  1.00  0.00     0.116 C 
BRANCH   2   3
ATOM      3  N   UNL A   1      31.329  26.479  23.452  1.00  0.00    -0.355 N 
ATOM      4  C   UNL A   1      31.553  25.156  23.217  1.00  0.00     0.239 C 
ATOM      5  O   UNL A   1      32.381  24.839  22.360  1.00  0.00    -0.273 OA
ATOM      6  H   UNL A   1      31.773  27.118  22.850  1.00  0.00     0.163 HD
BRANCH   4   7
ATOM      7  C   UNL A   1      30.582  24.128  23.788  1.00  0.00     0.216 C 
BRANCH   7   8
ATOM      8  N   UNL A   1      30.481  23.754  25.184  1.00  0.00    -0.343 N 
ATOM      9  C   UNL A   1      31.447  23.535  26.139  1.00  0.00     0.253 C 
ATOM     10  O   UNL A   1      31.095  23.758  27.304  1.00  0.00    -0.269 OA
ATOM     11  H   UNL A   1      29.559  23.636  25.505  1.00  0.00     0.164 HD
BRANCH   9  12
ATOM     12  C   UNL A   1      32.774  22.851  25.925  1.00  0.00     0.063 A 
ATOM     13  C   UNL A   1      33.106  21.608  25.337  1.00  0.00     0.051 A 
ATOM     14  C   UNL A   1      34.463  21.191  25.385  1.00  0.00     0.027 A 
ATOM     15  C   UNL A   1      35.481  21.985  25.911  1.00  0.00     0.002 A 
ATOM     16  C   UNL A   1      33.837  23.642  26.443  1.00  0.00     0.016 A 
ATOM     17  C   UNL A   1      35.169  23.229  26.423  1.00  0.00     0.001 A 
BRANCH  13  18
ATOM     18  N   UNL A   1      32.291  20.747  24.571  1.00  0.00    -0.352 N 
ATOM     19  H   UNL A   1      31.423  21.148  24.331  1.00  0.00     0.167 HD
BRANCH  18  20
ATOM     20  C   UNL A   1      32.453  19.432  24.072  1.00  0.00     0.077 A 
ATOM     21  C   UNL A   1      34.005  16.078  25.064  1.00  0.00     0.046 C 
ATOM     22  C   UNL A   1      33.394  17.180  24.244  1.00  0.00    -0.030 A 
ATOM     23  C   UNL A   1      33.383  17.072  22.846  1.00  0.00     0.006 A 
ATOM     24  C   UNL A   1      32.885  18.345  24.853  1.00  0.00     0.069 A 
ATOM     25  C   UNL A   1      32.834  18.081  22.061  1.00  0.00     0.023 A 
ATOM     26  Cl  UNL A   1      32.695  18.370  26.583  1.00  0.00    -0.082 Cl
ATOM     27  C   UNL A   1      32.363  19.242  22.670  1.00  0.00     0.066 A 
ATOM     28  Cl  UNL A   1      31.781  20.514  21.642  1.00  0.00    -0.082 Cl
ENDBRANCH  18  20
ENDBRANCH  13  18
ENDBRANCH   9  12
ENDBRANCH   7   8
ENDBRANCH   4   7
ENDBRANCH   2   3
ENDBRANCH   1   2
BRANCH   1  29
ATOM     29  C   UNL A   1      32.237  28.895  24.584  1.00  0.00     0.023 C 
BRANCH  29  30
ATOM     30  C   UNL A   1      33.285  29.613  25.423  1.00  0.00     0.116 C 
BRANCH  30  31
ATOM     31  N   UNL A   1      32.781  30.857  25.980  1.00  0.00    -0.352 N 
ATOM     32  C   UNL A   1      33.265  31.550  27.066  1.00  0.00     0.251 C 
ATOM     33  H   UNL A   1      32.001  31.251  25.527  1.00  0.00     0.163 HD
ATOM     34  O   UNL A   1      32.649  32.494  27.534  1.00  0.00    -0.269 OA
BRANCH  32  35
ATOM     35  C   UNL A   1      34.536  31.098  27.662  1.00  0.00     0.039 A 
ATOM     36  C   UNL A   1      35.531  32.039  27.928  1.00  0.00     0.014 A 
ATOM     37  C   UNL A   1      34.698  29.758  28.025  1.00  0.00     0.014 A 
ATOM     38  C   UNL A   1      36.682  31.639  28.607  1.00  0.00     0.010 A 
ATOM     39  C   UNL A   1      35.810  29.380  28.765  1.00  0.00     0.010 A 
ATOM     40  C   UNL A   1      36.817  30.314  29.054  1.00  0.00    -0.014 A 
BRANCH  40  41
ATOM     41  C   UNL A   1      38.008  29.882  29.828  1.00  0.00     0.031 A 
ATOM     42  C   UNL A   1      38.239  30.428  31.212  1.00  0.00     0.074 A 
ATOM     43  C   UNL A   1      38.919  29.073  29.253  1.00  0.00     0.049 A 
ATOM     44  N   UNL A   1      39.242  30.213  32.022  1.00  0.00    -0.248 NA
ATOM     45  C   UNL A   1      37.231  31.363  31.743  1.00  0.00     0.031 C 
ATOM     46  C   UNL A   1      38.847  28.550  27.886  1.00  0.00     0.029 A 
ATOM     47  N   UNL A   1      40.101  28.571  29.736  1.00  0.00    -0.354 N 
ATOM     48  C   UNL A   1      39.011  31.014  33.133  1.00  0.00     0.074 A 
ATOM     49  C   UNL A   1      37.787  31.741  32.886  1.00  0.00     0.031 C 
ATOM     50  C   UNL A   1      39.936  27.800  27.643  1.00  0.00     0.029 A 
ATOM     51  C   UNL A   1      40.796  27.811  28.823  1.00  0.00     0.049 A 
ATOM     52  H   UNL A   1      40.423  28.739  30.651  1.00  0.00     0.167 HD
ATOM     53  C   UNL A   1      39.740  31.115  34.268  1.00  0.00     0.034 A 
ATOM     54  C   UNL A   1      41.992  27.199  28.924  1.00  0.00     0.034 A 
ATOM     55  C   UNL A   1      40.919  30.339  34.537  1.00  0.00     0.049 A 
ATOM     56  C   UNL A   1      42.744  27.282  30.226  1.00  0.00     0.074 A 
ATOM     57  C   UNL A   1      41.657  30.278  35.705  1.00  0.00     0.029 A 
ATOM     58  N   UNL A   1      41.536  29.498  33.626  1.00  0.00    -0.354 N 
ATOM     59  N   UNL A   1      42.409  27.893  31.336  1.00  0.00    -0.248 NA
ATOM     60  C   UNL A   1      44.022  26.560  30.303  1.00  0.00     0.031 C 
ATOM     61  C   UNL A   1      42.739  29.420  35.492  1.00  0.00     0.029 A 
ATOM     62  C   UNL A   1      42.656  28.925  34.201  1.00  0.00     0.049 A 
ATOM     63  H   UNL A   1      41.225  29.333  32.707  1.00  0.00     0.167 HD
ATOM     64  C   UNL A   1      43.410  27.593  32.253  1.00  0.00     0.074 A 
ATOM     65  C   UNL A   1      44.352  26.728  31.576  1.00  0.00     0.031 C 
ATOM     66  C   UNL A   1      43.546  28.010  33.536  1.00  0.00     0.034 A 
BRANCH  53  67
ATOM     67  C   UNL A   1      39.263  32.058  35.340  1.00  0.00     0.023 A 
ATOM     68  C   UNL A   1      38.415  31.582  36.360  1.00  0.00     0.012 A 
ATOM     69  C   UNL A   1      39.736  33.383  35.392  1.00  0.00     0.148 A 
ATOM     70  C   UNL A   1      38.031  32.417  37.409  1.00  0.00     0.002 A 
ATOM     71  C   UNL A   1      39.384  34.196  36.463  1.00  0.00     0.091 A 
ATOM     72  F   UNL A   1      40.523  33.820  34.399  1.00  0.00    -0.205 F 
ATOM     73  C   UNL A   1      38.526  33.717  37.466  1.00  0.00     0.022 A 
BRANCH  71  74
ATOM     74  S   UNL A   1      40.032  35.858  36.675  1.00  0.00     0.127 S 
ATOM     75  O   UNL A   1      39.723  36.463  35.381  1.00  0.00    -0.237 OA
ATOM     76  O   UNL A   1      39.229  36.358  37.791  1.00  0.00    -0.237 OA
ATOM     77  O   UNL A   1      41.451  35.704  36.965  1.00  0.00    -0.744 OA
ENDBRANCH  71  74
ENDBRANCH  53  67
BRANCH  54  78
ATOM     78  C   UNL A   1      42.534  26.402  27.786  1.00  0.00     0.023 A 
ATOM     79  C   UNL A   1      43.449  27.001  26.897  1.00  0.00     0.012 A 
ATOM     80  C   UNL A   1      42.141  25.069  27.569  1.00  0.00     0.148 A 
ATOM     81  C   UNL A   1      43.923  26.302  25.786  1.00  0.00     0.002 A 
ATOM     82  C   UNL A   1      42.661  24.359  26.492  1.00  0.00     0.091 A 
ATOM     83  F   UNL A   1      41.258  24.519  28.414  1.00  0.00    -0.205 F 
ATOM     84  C   UNL A   1      43.535  24.980  25.587  1.00  0.00     0.022 A 
BRANCH  82  85
ATOM     85  S   UNL A   1      42.314  22.615  26.242  1.00  0.00     0.127 S 
ATOM     86  O   UNL A   1      43.055  22.334  25.016  1.00  0.00    -0.237 OA
ATOM     87  O   UNL A   1      42.875  22.013  27.453  1.00  0.00    -0.237 OA
ATOM     88  O   UNL A   1      40.863  22.521  26.149  1.00  0.00    -0.744 OA
ENDBRANCH  82  85
ENDBRANCH  54  78
BRANCH  66  89
ATOM     89  C   UNL A   1      44.728  27.500  34.316  1.00  0.00     0.023 A 
ATOM     90  C   UNL A   1      45.937  28.223  34.315  1.00  0.00     0.012 A 
ATOM     91  C   UNL A   1      44.611  26.347  35.118  1.00  0.00     0.148 A 
ATOM     92  C   UNL A   1      47.023  27.787  35.071  1.00  0.00     0.002 A 
ATOM     93  C   UNL A   1      45.680  25.948  35.909  1.00  0.00     0.091 A 
ATOM     94  F   UNL A   1      43.457  25.663  35.092  1.00  0.00    -0.205 F 
ATOM     95  C   UNL A   1      46.891  26.658  35.878  1.00  0.00     0.022 A 
BRANCH  93  96
ATOM     96  S   UNL A   1      45.565  24.568  37.054  1.00  0.00     0.127 S 
ATOM     97  O   UNL A   1      45.215  23.466  36.160  1.00  0.00    -0.237 OA
ATOM     98  O   UNL A   1      46.921  24.503  37.601  1.00  0.00    -0.237 OA
ATOM     99  O   UNL A   1      44.542  24.937  38.024  1.00  0.00    -0.744 OA
ENDBRANCH  93  96
ENDBRANCH  66  89
ENDBRANCH  40  41
ENDBRANCH  32  35
ENDBRANCH  30  31
ENDBRANCH  29  30
ENDBRANCH   1  29
TORSDOF 18
ENDMDL
MODEL 3
REMARK VINA RESULT:     -11.7      5.478      8.976
REMARK SMILES Cc1ccc(Cl)c(Nc2ccccc2C(=O)NCC(=O)NCCCCNC(=O)c2ccc(-c3c4nc(c(-c5cccc(S(=O)(=O)[O-])c5F)c5ccc([nH]5)c(-c5cccc(S(=O)(=O)[O-])c5F)c5nc(c(-c6cccc(S(=O)(=O)[O-])c6F)c6ccc3[nH]6)C=C5)C=C4)cc2)c1Cl
REMARK SMILES IDX 23 1 22 2 21 3 19 4 20 5 18 7 17 8 15 9 16 10 14 12 9 13
REMARK SMILES IDX 10 14 11 15 13 16 12 17 8 18 7 20 1 21 2 22 3 23 92 24 4 25
REMARK SMILES IDX 93 26 5 27 6 28 24 29 25 30 26 31 27 32 28 34 29 35 30 36
REMARK SMILES IDX 91 37 31 38 90 39 32 40 33 41 34 42 84 43 35 44 89 45 83 46
REMARK SMILES IDX 85 47 36 48 88 49 82 50 81 51 37 53 69 54 49 55 68 56 50 57
REMARK SMILES IDX 53 58 67 59 86 60 51 61 52 62 66 64 87 65 54 66 38 67 39 68
REMARK SMILES IDX 47 69 40 70 42 71 48 72 41 73 43 74 44 75 45 76 46 77 70 78
REMARK SMILES IDX 71 79 79 80 72 81 74 82 80 83 73 84 75 85 76 86 77 87 78 88
REMARK SMILES IDX 55 89 56 90 64 91 57 92 59 93 65 94 58 95 60 96 61 97 62 98
REMARK SMILES IDX 63 99
REMARK H PARENT 21 6 17 11 8 19 26 33 85 52 53 63
REMARK Flexibility Score: inf
ROOT
ATOM      1  C   UNL A   1      31.927  29.294  24.627  1.00  0.00     0.023 C 
ENDROOT
BRANCH   1   2
ATOM      2  C   UNL A   1      31.441  29.206  23.185  1.00  0.00     0.116 C 
BRANCH   2   3
ATOM      3  N   UNL A   1      32.568  29.074  22.296  1.00  0.00    -0.355 N 
ATOM      4  C   UNL A   1      33.521  28.101  22.336  1.00  0.00     0.239 C 
ATOM      5  O   UNL A   1      34.493  28.195  21.583  1.00  0.00    -0.273 OA
ATOM      6  H   UNL A   1      32.658  29.754  21.592  1.00  0.00     0.163 HD
BRANCH   4   7
ATOM      7  C   UNL A   1      33.220  26.800  23.072  1.00  0.00     0.216 C 
BRANCH   7   8
ATOM      8  N   UNL A   1      33.099  25.495  22.454  1.00  0.00    -0.343 N 
ATOM      9  C   UNL A   1      33.462  24.243  22.893  1.00  0.00     0.253 C 
ATOM     10  O   UNL A   1      32.786  23.311  22.440  1.00  0.00    -0.269 OA
ATOM     11  H   UNL A   1      32.684  25.508  21.562  1.00  0.00     0.164 HD
BRANCH   9  12
ATOM     12  C   UNL A   1      34.709  23.895  23.667  1.00  0.00     0.063 A 
ATOM     13  C   UNL A   1      35.138  24.253  24.966  1.00  0.00     0.051 A 
ATOM     14  C   UNL A   1      36.438  23.845  25.373  1.00  0.00     0.027 A 
ATOM     15  C   UNL A   1      37.263  23.049  24.581  1.00  0.00     0.002 A 
ATOM     16  C   UNL A   1      35.570  23.072  22.889  1.00  0.00     0.016 A 
ATOM     17  C   UNL A   1      36.817  22.640  23.340  1.00  0.00     0.001 A 
BRANCH  13  18
ATOM     18  N   UNL A   1      34.401  24.863  26.004  1.00  0.00    -0.352 N 
ATOM     19  H   UNL A   1      34.957  25.419  26.598  1.00  0.00     0.167 HD
BRANCH  18  20
ATOM     20  C   UNL A   1      33.034  24.848  26.373  1.00  0.00     0.077 A 
ATOM     21  C   UNL A   1      29.988  22.534  26.291  1.00  0.00     0.046 C 
ATOM     22  C   UNL A   1      30.840  23.768  26.406  1.00  0.00    -0.030 A 
ATOM     23  C   UNL A   1      30.223  25.027  26.448  1.00  0.00     0.006 A 
ATOM     24  C   UNL A   1      32.246  23.683  26.416  1.00  0.00     0.069 A 
ATOM     25  C   UNL A   1      30.987  26.187  26.543  1.00  0.00     0.023 A 
ATOM     26  Cl  UNL A   1      32.991  22.121  26.595  1.00  0.00    -0.082 Cl
ATOM     27  C   UNL A   1      32.376  26.096  26.519  1.00  0.00     0.066 A 
ATOM     28  Cl  UNL A   1      33.283  27.576  26.539  1.00  0.00    -0.082 Cl
ENDBRANCH  18  20
ENDBRANCH  13  18
ENDBRANCH   9  12
ENDBRANCH   7   8
ENDBRANCH   4   7
ENDBRANCH   2   3
ENDBRANCH   1   2
BRANCH   1  29
ATOM     29  C   UNL A   1      31.292  30.457  25.390  1.00  0.00     0.023 C 
BRANCH  29  30
ATOM     30  C   UNL A   1      32.106  30.921  26.591  1.00  0.00     0.116 C 
BRANCH  30  31
ATOM     31  N   UNL A   1      32.053  32.363  26.764  1.00  0.00    -0.352 N 
ATOM     32  C   UNL A   1      32.921  33.158  27.476  1.00  0.00     0.251 C 
ATOM     33  H   UNL A   1      31.307  32.826  26.318  1.00  0.00     0.163 HD
ATOM     34  O   UNL A   1      32.672  34.335  27.681  1.00  0.00    -0.269 OA
BRANCH  32  35
ATOM     35  C   UNL A   1      34.149  32.535  28.006  1.00  0.00     0.039 A 
ATOM     36  C   UNL A   1      35.293  33.318  28.159  1.00  0.00     0.014 A 
ATOM     37  C   UNL A   1      34.131  31.200  28.420  1.00  0.00     0.014 A 
ATOM     38  C   UNL A   1      36.416  32.769  28.777  1.00  0.00     0.010 A 
ATOM     39  C   UNL A   1      35.223  30.680  29.101  1.00  0.00     0.010 A 
ATOM     40  C   UNL A   1      36.380  31.456  29.277  1.00  0.00    -0.014 A 
BRANCH  40  41
ATOM     41  C   UNL A   1      37.544  30.873  29.989  1.00  0.00     0.031 A 
ATOM     42  C   UNL A   1      37.841  31.289  31.405  1.00  0.00     0.074 A 
ATOM     43  C   UNL A   1      38.377  30.042  29.333  1.00  0.00     0.049 A 
ATOM     44  N   UNL A   1      38.836  30.932  32.173  1.00  0.00    -0.248 NA
ATOM     45  C   UNL A   1      36.921  32.256  32.029  1.00  0.00     0.031 C 
ATOM     46  C   UNL A   1      38.242  29.634  27.932  1.00  0.00     0.029 A 
ATOM     47  N   UNL A   1      39.523  29.412  29.750  1.00  0.00    -0.354 N 
ATOM     48  C   UNL A   1      38.689  31.661  33.347  1.00  0.00     0.074 A 
ATOM     49  C   UNL A   1      37.523  32.499  33.184  1.00  0.00     0.031 C 
ATOM     50  C   UNL A   1      39.263  28.822  27.608  1.00  0.00     0.029 A 
ATOM     51  C   UNL A   1      40.139  28.673  28.766  1.00  0.00     0.049 A 
ATOM     52  H   UNL A   1      39.872  29.481  30.668  1.00  0.00     0.167 HD
ATOM     53  C   UNL A   1      39.442  31.615  34.471  1.00  0.00     0.034 A 
ATOM     54  C   UNL A   1      41.284  27.962  28.793  1.00  0.00     0.034 A 
ATOM     55  C   UNL A   1      40.559  30.730  34.652  1.00  0.00     0.049 A 
ATOM     56  C   UNL A   1      42.062  27.884  30.080  1.00  0.00     0.074 A 
ATOM     57  C   UNL A   1      41.308  30.519  35.796  1.00  0.00     0.029 A 
ATOM     58  N   UNL A   1      41.091  29.916  33.666  1.00  0.00    -0.354 N 
ATOM     59  N   UNL A   1      41.794  28.431  31.241  1.00  0.00    -0.248 NA
ATOM     60  C   UNL A   1      43.278  27.059  30.073  1.00  0.00     0.031 C 
ATOM     61  C   UNL A   1      42.314  29.598  35.493  1.00  0.00     0.029 A 
ATOM     62  C   UNL A   1      42.171  29.213  34.170  1.00  0.00     0.049 A 
ATOM     63  H   UNL A   1      40.753  29.848  32.745  1.00  0.00     0.167 HD
ATOM     64  C   UNL A   1      42.783  27.982  32.110  1.00  0.00     0.074 A 
ATOM     65  C   UNL A   1      43.642  27.101  31.348  1.00  0.00     0.031 C 
ATOM     66  C   UNL A   1      42.973  28.285  33.417  1.00  0.00     0.034 A 
BRANCH  53  67
ATOM     67  C   UNL A   1      39.059  32.506  35.621  1.00  0.00     0.023 A 
ATOM     68  C   UNL A   1      38.230  32.006  36.645  1.00  0.00     0.012 A 
ATOM     69  C   UNL A   1      39.604  33.799  35.739  1.00  0.00     0.148 A 
ATOM     70  C   UNL A   1      37.934  32.786  37.762  1.00  0.00     0.002 A 
ATOM     71  C   UNL A   1      39.340  34.554  36.875  1.00  0.00     0.091 A 
ATOM     72  F   UNL A   1      40.373  34.262  34.743  1.00  0.00    -0.205 F 
ATOM     73  C   UNL A   1      38.499  34.053  37.882  1.00  0.00     0.022 A 
BRANCH  71  74
ATOM     74  S   UNL A   1      40.084  36.163  37.167  1.00  0.00     0.127 S 
ATOM     75  O   UNL A   1      39.236  36.690  38.235  1.00  0.00    -0.237 OA
ATOM     76  O   UNL A   1      41.439  35.801  37.586  1.00  0.00    -0.237 OA
ATOM     77  O   UNL A   1      40.007  36.879  35.902  1.00  0.00    -0.744 OA
ENDBRANCH  71  74
ENDBRANCH  53  67
BRANCH  54  78
ATOM     78  C   UNL A   1      41.741  27.216  27.586  1.00  0.00     0.023 A 
ATOM     79  C   UNL A   1      42.271  27.929  26.491  1.00  0.00     0.012 A 
ATOM     80  C   UNL A   1      41.642  25.815  27.505  1.00  0.00     0.148 A 
ATOM     81  C   UNL A   1      42.647  27.266  25.323  1.00  0.00     0.002 A 
ATOM     82  C   UNL A   1      42.071  25.154  26.360  1.00  0.00     0.091 A 
ATOM     83  F   UNL A   1      41.122  25.152  28.548  1.00  0.00    -0.205 F 
ATOM     84  C   UNL A   1      42.554  25.878  25.260  1.00  0.00     0.022 A 
BRANCH  82  85
ATOM     85  S   UNL A   1      42.108  23.361  26.250  1.00  0.00     0.127 S 
ATOM     86  O   UNL A   1      42.860  23.003  27.448  1.00  0.00    -0.237 OA
ATOM     87  O   UNL A   1      40.685  23.022  26.290  1.00  0.00    -0.237 OA
ATOM     88  O   UNL A   1      42.753  23.067  24.977  1.00  0.00    -0.744 OA
ENDBRANCH  82  85
ENDBRANCH  54  78
BRANCH  66  89
ATOM     89  C   UNL A   1      44.123  27.624  34.130  1.00  0.00     0.023 A 
ATOM     90  C   UNL A   1      45.386  28.248  34.158  1.00  0.00     0.012 A 
ATOM     91  C   UNL A   1      43.926  26.425  34.842  1.00  0.00     0.148 A 
ATOM     92  C   UNL A   1      46.445  27.669  34.854  1.00  0.00     0.002 A 
ATOM     93  C   UNL A   1      44.972  25.881  35.577  1.00  0.00     0.091 A 
ATOM     94  F   UNL A   1      42.722  25.838  34.789  1.00  0.00    -0.205 F 
ATOM     95  C   UNL A   1      46.236  26.494  35.573  1.00  0.00     0.022 A 
BRANCH  93  96
ATOM     96  S   UNL A   1      44.766  24.429  36.614  1.00  0.00     0.127 S 
ATOM     97  O   UNL A   1      46.144  24.142  37.005  1.00  0.00    -0.237 OA
ATOM     98  O   UNL A   1      43.918  24.936  37.694  1.00  0.00    -0.237 OA
ATOM     99  O   UNL A   1      44.132  23.423  35.772  1.00  0.00    -0.744 OA
ENDBRANCH  93  96
ENDBRANCH  66  89
ENDBRANCH  40  41
ENDBRANCH  32  35
ENDBRANCH  30  31
ENDBRANCH  29  30
ENDBRANCH   1  29
TORSDOF 18
ENDMDL
