MODEL 1
REMARK VINA RESULT:     -11.3      0.000      0.000
REMARK SMILES O=C1NC(=S)S/C1=C\c1ccc(OCc2cn(-c3ccc(C(=O)NCCCCNC(=O)c4ccc(-c5c6nc(c(-c7cccc(S(=O)(=O)[O-])c7F)c7ccc([nH]7)c(-c7cccc(S(=O)(=O)[O-])c7F)c7nc(c(-c8cccc(S(=O)(=O)[O-])c8F)c8ccc5[nH]8)C=C7)C=C6)cc4)cc3)nn2)cc1
REMARK SMILES IDX 25 1 24 2 22 3 23 4 21 6 18 7 19 8 96 9 20 10 95 11 17 12
REMARK SMILES IDX 15 13 16 14 98 15 97 16 14 17 13 18 12 19 9 20 10 21 100 22
REMARK SMILES IDX 11 23 99 24 8 25 1 26 2 27 3 28 7 29 4 30 6 32 5 33 26 34
REMARK SMILES IDX 27 35 28 36 29 37 30 38 31 40 32 41 33 42 94 43 34 44 93 45
REMARK SMILES IDX 35 46 36 47 37 48 87 49 38 50 92 51 86 52 88 53 39 54 91 55
REMARK SMILES IDX 85 56 84 57 40 59 72 60 52 61 71 62 53 63 56 64 70 65 89 66
REMARK SMILES IDX 54 67 55 68 69 70 90 71 57 72 41 73 42 74 50 75 43 76 45 77
REMARK SMILES IDX 51 78 44 79 46 80 47 81 48 82 49 83 73 84 74 85 82 86 75 87
REMARK SMILES IDX 77 88 83 89 76 90 78 91 79 92 80 93 81 94 58 95 59 96 67 97
REMARK SMILES IDX 60 98 62 99 68 100 61 101 63 102 64 103 65 104 66 105
REMARK H PARENT 24 5 3 31 29 39 88 58 56 69
REMARK Flexibility Score: inf
ROOT
ATOM      1  C   UNL A   1      34.570  31.378  27.679  1.00  0.00     0.116 C 
ENDROOT
BRANCH   1   2
ATOM      2  N   UNL A   1      33.246  31.889  27.386  1.00  0.00    -0.352 N 
ATOM      3  C   UNL A   1      32.124  31.321  26.840  1.00  0.00     0.251 C 
ATOM      4  O   UNL A   1      31.165  32.059  26.612  1.00  0.00    -0.269 OA
ATOM      5  H   UNL A   1      33.128  32.835  27.631  1.00  0.00     0.163 HD
BRANCH   3   6
ATOM      6  C   UNL A   1      31.993  29.866  26.541  1.00  0.00     0.039 A 
ATOM      7  C   UNL A   1      31.646  27.189  25.777  1.00  0.00     0.066 A 
ATOM      8  C   UNL A   1      32.002  28.140  24.817  1.00  0.00     0.029 A 
ATOM      9  C   UNL A   1      31.520  27.552  27.118  1.00  0.00     0.029 A 
ATOM     10  C   UNL A   1      32.137  29.478  25.198  1.00  0.00     0.016 A 
ATOM     11  C   UNL A   1      31.757  28.874  27.495  1.00  0.00     0.016 A 
BRANCH   7  12
ATOM     12  N   UNL A   1      31.450  25.849  25.402  1.00  0.00    -0.220 N 
ATOM     13  C   UNL A   1      31.239  23.969  24.317  1.00  0.00     0.120 A 
ATOM     14  C   UNL A   1      31.707  25.257  24.185  1.00  0.00     0.144 A 
ATOM     15  N   UNL A   1      30.762  23.813  25.593  1.00  0.00    -0.131 NA
ATOM     16  N   UNL A   1      30.933  24.943  26.254  1.00  0.00    -0.062 NA
BRANCH  13  17
ATOM     17  C   UNL A   1      31.301  22.807  23.378  1.00  0.00     0.289 C 
BRANCH  17  18
ATOM     18  O   UNL A   1      32.557  22.608  22.702  1.00  0.00    -0.487 OA
BRANCH  18  19
ATOM     19  C   UNL A   1      33.677  22.381  23.455  1.00  0.00     0.119 A 
ATOM     20  C   UNL A   1      36.172  21.798  24.607  1.00  0.00    -0.024 A 
ATOM     21  C   UNL A   1      36.073  22.765  23.604  1.00  0.00     0.012 A 
ATOM     22  C   UNL A   1      35.007  21.207  25.099  1.00  0.00     0.012 A 
ATOM     23  C   UNL A   1      34.828  23.047  23.027  1.00  0.00     0.047 A 
ATOM     24  C   UNL A   1      33.765  21.528  24.551  1.00  0.00     0.047 A 
BRANCH  20  25
ATOM     25  C   UNL A   1      37.473  21.390  25.141  1.00  0.00     0.029 C 
ATOM     26  O   UNL A   1      40.128  20.628  26.063  1.00  0.00    -0.268 OA
ATOM     27  C   UNL A   1      39.638  21.732  26.285  1.00  0.00     0.263 C 
ATOM     28  N   UNL A   1      40.267  22.736  26.958  1.00  0.00    -0.307 N 
ATOM     29  C   UNL A   1      38.289  22.179  25.854  1.00  0.00     0.080 C 
ATOM     30  C   UNL A   1      39.596  23.908  27.134  1.00  0.00     0.145 C 
ATOM     31  H   UNL A   1      41.180  22.618  27.307  1.00  0.00     0.171 HD
ATOM     32  S   UNL A   1      38.018  23.799  26.392  1.00  0.00    -0.055 SA
ATOM     33  S   UNL A   1      40.229  25.204  27.946  1.00  0.00    -0.052 S 
ENDBRANCH  20  25
ENDBRANCH  18  19
ENDBRANCH  17  18
ENDBRANCH  13  17
ENDBRANCH   7  12
ENDBRANCH   3   6
ENDBRANCH   1   2
BRANCH   1  34
ATOM     34  C   UNL A   1      35.530  32.529  28.013  1.00  0.00     0.023 C 
BRANCH  34  35
ATOM     35  C   UNL A   1      35.314  33.164  29.395  1.00  0.00     0.023 C 
BRANCH  35  36
ATOM     36  C   UNL A   1      35.096  32.162  30.521  1.00  0.00     0.116 C 
BRANCH  36  37
ATOM     37  N   UNL A   1      34.323  32.721  31.634  1.00  0.00    -0.352 N 
ATOM     38  C   UNL A   1      34.766  33.020  32.909  1.00  0.00     0.251 C 
ATOM     39  H   UNL A   1      33.373  32.905  31.452  1.00  0.00     0.163 HD
ATOM     40  O   UNL A   1      33.986  33.089  33.851  1.00  0.00    -0.269 OA
BRANCH  38  41
ATOM     41  C   UNL A   1      36.201  33.289  33.100  1.00  0.00     0.039 A 
ATOM     42  C   UNL A   1      37.105  32.289  33.462  1.00  0.00     0.014 A 
ATOM     43  C   UNL A   1      36.630  34.590  32.855  1.00  0.00     0.014 A 
ATOM     44  C   UNL A   1      38.462  32.601  33.496  1.00  0.00     0.010 A 
ATOM     45  C   UNL A   1      37.966  34.847  32.714  1.00  0.00     0.010 A 
ATOM     46  C   UNL A   1      38.884  33.882  33.102  1.00  0.00    -0.014 A 
BRANCH  46  47
ATOM     47  C   UNL A   1      40.296  34.206  32.957  1.00  0.00     0.031 A 
ATOM     48  C   UNL A   1      40.852  33.883  31.616  1.00  0.00     0.074 A 
ATOM     49  C   UNL A   1      40.974  34.933  33.873  1.00  0.00     0.049 A 
ATOM     50  N   UNL A   1      41.677  32.932  31.330  1.00  0.00    -0.248 NA
ATOM     51  C   UNL A   1      40.299  34.562  30.434  1.00  0.00     0.031 C 
ATOM     52  C   UNL A   1      40.459  35.577  35.090  1.00  0.00     0.029 A 
ATOM     53  N   UNL A   1      42.258  35.377  33.833  1.00  0.00    -0.354 N 
ATOM     54  C   UNL A   1      41.956  33.071  29.973  1.00  0.00     0.074 A 
ATOM     55  C   UNL A   1      40.919  33.915  29.442  1.00  0.00     0.031 C 
ATOM     56  C   UNL A   1      41.331  36.522  35.506  1.00  0.00     0.029 A 
ATOM     57  C   UNL A   1      42.531  36.435  34.698  1.00  0.00     0.049 A 
ATOM     58  H   UNL A   1      42.939  34.984  33.241  1.00  0.00     0.167 HD
ATOM     59  C   UNL A   1      43.170  32.708  29.473  1.00  0.00     0.034 A 
ATOM     60  C   UNL A   1      43.649  37.206  34.710  1.00  0.00     0.034 A 
ATOM     61  C   UNL A   1      43.906  31.916  30.433  1.00  0.00     0.049 A 
ATOM     62  C   UNL A   1      44.708  36.433  34.021  1.00  0.00     0.074 A 
ATOM     63  C   UNL A   1      43.665  30.742  31.117  1.00  0.00     0.029 A 
ATOM     64  N   UNL A   1      44.904  32.559  31.128  1.00  0.00    -0.354 N 
ATOM     65  N   UNL A   1      45.205  35.328  34.501  1.00  0.00    -0.248 NA
ATOM     66  C   UNL A   1      44.862  36.624  32.588  1.00  0.00     0.031 C 
ATOM     67  C   UNL A   1      44.157  30.983  32.434  1.00  0.00     0.029 A 
ATOM     68  C   UNL A   1      44.754  32.245  32.451  1.00  0.00     0.049 A 
ATOM     69  H   UNL A   1      45.600  33.140  30.744  1.00  0.00     0.167 HD
ATOM     70  C   UNL A   1      45.279  34.486  33.399  1.00  0.00     0.074 A 
ATOM     71  C   UNL A   1      45.158  35.369  32.237  1.00  0.00     0.031 C 
ATOM     72  C   UNL A   1      45.117  33.136  33.531  1.00  0.00     0.034 A 
BRANCH  59  73
ATOM     73  C   UNL A   1      43.883  33.373  28.313  1.00  0.00     0.023 A 
ATOM     74  C   UNL A   1      44.461  32.516  27.347  1.00  0.00     0.012 A 
ATOM     75  C   UNL A   1      44.268  34.732  28.268  1.00  0.00     0.148 A 
ATOM     76  C   UNL A   1      45.434  32.966  26.448  1.00  0.00     0.002 A 
ATOM     77  C   UNL A   1      45.183  35.191  27.327  1.00  0.00     0.091 A 
ATOM     78  F   UNL A   1      43.856  35.580  29.211  1.00  0.00    -0.205 F 
ATOM     79  C   UNL A   1      45.796  34.306  26.438  1.00  0.00     0.022 A 
BRANCH  77  80
ATOM     80  S   UNL A   1      45.666  36.922  27.241  1.00  0.00     0.127 S 
ATOM     81  O   UNL A   1      44.379  37.570  27.005  1.00  0.00    -0.237 OA
ATOM     82  O   UNL A   1      46.237  37.136  28.570  1.00  0.00    -0.237 OA
ATOM     83  O   UNL A   1      46.632  37.008  26.153  1.00  0.00    -0.744 OA
ENDBRANCH  77  80
ENDBRANCH  59  73
BRANCH  60  84
ATOM     84  C   UNL A   1      43.830  38.639  35.052  1.00  0.00     0.023 A 
ATOM     85  C   UNL A   1      44.554  38.998  36.209  1.00  0.00     0.012 A 
ATOM     86  C   UNL A   1      43.564  39.647  34.099  1.00  0.00     0.148 A 
ATOM     87  C   UNL A   1      45.034  40.302  36.388  1.00  0.00     0.002 A 
ATOM     88  C   UNL A   1      44.044  40.942  34.282  1.00  0.00     0.091 A 
ATOM     89  F   UNL A   1      42.926  39.314  32.969  1.00  0.00    -0.205 F 
ATOM     90  C   UNL A   1      44.790  41.271  35.420  1.00  0.00     0.022 A 
BRANCH  88  91
ATOM     91  S   UNL A   1      43.801  42.232  33.052  1.00  0.00     0.127 S 
ATOM     92  O   UNL A   1      44.525  41.693  31.901  1.00  0.00    -0.237 OA
ATOM     93  O   UNL A   1      42.347  42.244  32.913  1.00  0.00    -0.237 OA
ATOM     94  O   UNL A   1      44.394  43.436  33.622  1.00  0.00    -0.744 OA
ENDBRANCH  88  91
ENDBRANCH  60  84
BRANCH  72  95
ATOM     95  C   UNL A   1      45.075  32.553  34.923  1.00  0.00     0.023 A 
ATOM     96  C   UNL A   1      46.236  32.322  35.691  1.00  0.00     0.012 A 
ATOM     97  C   UNL A   1      43.820  32.401  35.535  1.00  0.00     0.148 A 
ATOM     98  C   UNL A   1      46.147  31.927  37.030  1.00  0.00     0.002 A 
ATOM     99  C   UNL A   1      43.735  32.055  36.877  1.00  0.00     0.091 A 
ATOM    100  F   UNL A   1      42.725  32.630  34.795  1.00  0.00    -0.205 F 
ATOM    101  C   UNL A   1      44.894  31.807  37.627  1.00  0.00     0.022 A 
BRANCH  99 102
ATOM    102  S   UNL A   1      42.157  32.007  37.728  1.00  0.00     0.127 S 
ATOM    103  O   UNL A   1      42.551  31.602  39.076  1.00  0.00    -0.237 OA
ATOM    104  O   UNL A   1      41.696  33.392  37.614  1.00  0.00    -0.237 OA
ATOM    105  O   UNL A   1      41.337  31.048  36.998  1.00  0.00    -0.744 OA
ENDBRANCH  99 102
ENDBRANCH  72  95
ENDBRANCH  46  47
ENDBRANCH  38  41
ENDBRANCH  36  37
ENDBRANCH  35  36
ENDBRANCH  34  35
ENDBRANCH   1  34
TORSDOF 19
ENDMDL
MODEL 2
REMARK VINA RESULT:     -11.2      5.026      7.565
REMARK SMILES O=C1NC(=S)S/C1=C\c1ccc(OCc2cn(-c3ccc(C(=O)NCCCCNC(=O)c4ccc(-c5c6nc(c(-c7cccc(S(=O)(=O)[O-])c7F)c7ccc([nH]7)c(-c7cccc(S(=O)(=O)[O-])c7F)c7nc(c(-c8cccc(S(=O)(=O)[O-])c8F)c8ccc5[nH]8)C=C7)C=C6)cc4)cc3)nn2)cc1
REMARK SMILES IDX 25 1 24 2 22 3 23 4 21 6 18 7 19 8 96 9 20 10 95 11 17 12
REMARK SMILES IDX 15 13 16 14 98 15 97 16 14 17 13 18 12 19 9 20 10 21 100 22
REMARK SMILES IDX 11 23 99 24 8 25 1 26 2 27 3 28 7 29 4 30 6 32 5 33 26 34
REMARK SMILES IDX 27 35 28 36 29 37 30 38 31 40 32 41 33 42 94 43 34 44 93 45
REMARK SMILES IDX 35 46 36 47 37 48 87 49 38 50 92 51 86 52 88 53 39 54 91 55
REMARK SMILES IDX 85 56 84 57 40 59 72 60 52 61 71 62 53 63 56 64 70 65 89 66
REMARK SMILES IDX 54 67 55 68 69 70 90 71 57 72 41 73 42 74 50 75 43 76 45 77
REMARK SMILES IDX 51 78 44 79 46 80 47 81 48 82 49 83 73 84 74 85 82 86 75 87
REMARK SMILES IDX 77 88 83 89 76 90 78 91 79 92 80 93 81 94 58 95 59 96 67 97
REMARK SMILES IDX 60 98 62 99 68 100 61 101 63 102 64 103 65 104 66 105
REMARK H PARENT 24 5 3 31 29 39 88 58 56 69
REMARK Flexibility Score: inf
ROOT
ATOM      1  C   UNL A   1      35.290  33.776  32.146  1.00  0.00     0.116 C 
ENDROOT
BRANCH   1   2
ATOM      2  N   UNL A   1      36.393  34.166  31.291  1.00  0.00    -0.352 N 
ATOM      3  C   UNL A   1      36.755  33.820  30.015  1.00  0.00     0.251 C 
ATOM      4  O   UNL A   1      37.831  34.244  29.592  1.00  0.00    -0.269 OA
ATOM      5  H   UNL A   1      37.007  34.810  31.712  1.00  0.00     0.163 HD
BRANCH   3   6
ATOM      6  C   UNL A   1      35.907  32.994  29.108  1.00  0.00     0.039 A 
ATOM      7  C   UNL A   1      34.134  31.478  27.549  1.00  0.00     0.066 A 
ATOM      8  C   UNL A   1      33.685  32.652  28.161  1.00  0.00     0.029 A 
ATOM      9  C   UNL A   1      35.468  31.089  27.662  1.00  0.00     0.029 A 
ATOM     10  C   UNL A   1      34.564  33.382  28.966  1.00  0.00     0.016 A 
ATOM     11  C   UNL A   1      36.355  31.884  28.388  1.00  0.00     0.016 A 
BRANCH   7  12
ATOM     12  N   UNL A   1      33.249  30.701  26.783  1.00  0.00    -0.220 N 
ATOM     13  C   UNL A   1      32.339  29.260  25.422  1.00  0.00     0.120 A 
ATOM     14  C   UNL A   1      33.517  29.551  26.074  1.00  0.00     0.144 A 
ATOM     15  N   UNL A   1      31.405  30.198  25.781  1.00  0.00    -0.131 NA
ATOM     16  N   UNL A   1      31.953  31.040  26.637  1.00  0.00    -0.062 NA
BRANCH  13  17
ATOM     17  C   UNL A   1      31.960  28.095  24.564  1.00  0.00     0.289 C 
BRANCH  17  18
ATOM     18  O   UNL A   1      30.776  27.377  24.962  1.00  0.00    -0.487 OA
BRANCH  18  19
ATOM     19  C   UNL A   1      30.818  26.009  24.989  1.00  0.00     0.119 A 
ATOM     20  C   UNL A   1      31.306  23.255  25.244  1.00  0.00    -0.024 A 
ATOM     21  C   UNL A   1      31.283  24.070  26.378  1.00  0.00     0.012 A 
ATOM     22  C   UNL A   1      30.979  23.806  24.004  1.00  0.00     0.012 A 
ATOM     23  C   UNL A   1      31.046  25.444  26.246  1.00  0.00     0.047 A 
ATOM     24  C   UNL A   1      30.699  25.168  23.887  1.00  0.00     0.047 A 
BRANCH  20  25
ATOM     25  C   UNL A   1      31.674  21.841  25.334  1.00  0.00     0.029 C 
ATOM     26  O   UNL A   1      32.393  19.019  25.351  1.00  0.00    -0.268 OA
ATOM     27  C   UNL A   1      33.227  19.917  25.279  1.00  0.00     0.263 C 
ATOM     28  N   UNL A   1      34.571  19.718  25.176  1.00  0.00    -0.307 N 
ATOM     29  C   UNL A   1      32.929  21.372  25.276  1.00  0.00     0.080 C 
ATOM     30  C   UNL A   1      35.378  20.813  25.110  1.00  0.00     0.145 C 
ATOM     31  H   UNL A   1      34.948  18.808  25.149  1.00  0.00     0.171 HD
ATOM     32  S   UNL A   1      34.406  22.263  25.168  1.00  0.00    -0.055 SA
ATOM     33  S   UNL A   1      37.027  20.722  25.000  1.00  0.00    -0.052 S 
ENDBRANCH  20  25
ENDBRANCH  18  19
ENDBRANCH  17  18
ENDBRANCH  13  17
ENDBRANCH   7  12
ENDBRANCH   3   6
ENDBRANCH   1   2
BRANCH   1  34
ATOM     34  C   UNL A   1      35.811  33.135  33.441  1.00  0.00     0.023 C 
BRANCH  34  35
ATOM     35  C   UNL A   1      37.311  32.802  33.433  1.00  0.00     0.023 C 
BRANCH  35  36
ATOM     36  C   UNL A   1      37.624  31.313  33.356  1.00  0.00     0.116 C 
BRANCH  36  37
ATOM     37  N   UNL A   1      36.584  30.552  32.658  1.00  0.00    -0.352 N 
ATOM     38  C   UNL A   1      36.681  29.902  31.442  1.00  0.00     0.251 C 
ATOM     39  H   UNL A   1      35.710  30.496  33.110  1.00  0.00     0.163 HD
ATOM     40  O   UNL A   1      35.684  29.658  30.773  1.00  0.00    -0.269 OA
BRANCH  38  41
ATOM     41  C   UNL A   1      38.015  29.480  30.984  1.00  0.00     0.039 A 
ATOM     42  C   UNL A   1      38.879  30.343  30.306  1.00  0.00     0.014 A 
ATOM     43  C   UNL A   1      38.401  28.181  31.303  1.00  0.00     0.014 A 
ATOM     44  C   UNL A   1      40.169  29.903  30.022  1.00  0.00     0.010 A 
ATOM     45  C   UNL A   1      39.715  27.819  31.186  1.00  0.00     0.010 A 
ATOM     46  C   UNL A   1      40.584  28.642  30.484  1.00  0.00    -0.014 A 
BRANCH  46  47
ATOM     47  C   UNL A   1      41.967  28.206  30.364  1.00  0.00     0.031 A 
ATOM     48  C   UNL A   1      42.224  27.339  29.184  1.00  0.00     0.074 A 
ATOM     49  C   UNL A   1      42.961  28.720  31.123  1.00  0.00     0.049 A 
ATOM     50  N   UNL A   1      42.475  26.073  29.194  1.00  0.00    -0.248 NA
ATOM     51  C   UNL A   1      41.998  27.887  27.836  1.00  0.00     0.031 C 
ATOM     52  C   UNL A   1      42.888  29.808  32.109  1.00  0.00     0.029 A 
ATOM     53  N   UNL A   1      44.296  28.472  31.066  1.00  0.00    -0.354 N 
ATOM     54  C   UNL A   1      42.709  25.724  27.867  1.00  0.00     0.074 A 
ATOM     55  C   UNL A   1      42.175  26.801  27.077  1.00  0.00     0.031 C 
ATOM     56  C   UNL A   1      44.128  30.290  32.344  1.00  0.00     0.029 A 
ATOM     57  C   UNL A   1      45.092  29.446  31.667  1.00  0.00     0.049 A 
ATOM     58  H   UNL A   1      44.671  27.670  30.636  1.00  0.00     0.167 HD
ATOM     59  C   UNL A   1      43.570  24.716  27.555  1.00  0.00     0.034 A 
ATOM     60  C   UNL A   1      46.441  29.566  31.571  1.00  0.00     0.034 A 
ATOM     61  C   UNL A   1      43.889  23.932  28.727  1.00  0.00     0.049 A 
ATOM     62  C   UNL A   1      46.959  28.239  31.164  1.00  0.00     0.074 A 
ATOM     63  C   UNL A   1      43.154  23.223  29.656  1.00  0.00     0.029 A 
ATOM     64  N   UNL A   1      45.111  24.168  29.314  1.00  0.00    -0.354 N 
ATOM     65  N   UNL A   1      46.892  27.187  31.930  1.00  0.00    -0.248 NA
ATOM     66  C   UNL A   1      47.105  27.976  29.742  1.00  0.00     0.031 C 
ATOM     67  C   UNL A   1      43.775  23.515  30.906  1.00  0.00     0.029 A 
ATOM     68  C   UNL A   1      44.904  24.299  30.660  1.00  0.00     0.049 A 
ATOM     69  H   UNL A   1      45.977  24.232  28.850  1.00  0.00     0.167 HD
ATOM     70  C   UNL A   1      46.491  26.171  31.073  1.00  0.00     0.074 A 
ATOM     71  C   UNL A   1      46.742  26.689  29.726  1.00  0.00     0.031 C 
ATOM     72  C   UNL A   1      45.710  25.142  31.515  1.00  0.00     0.034 A 
BRANCH  59  73
ATOM     73  C   UNL A   1      44.448  24.652  26.321  1.00  0.00     0.023 A 
ATOM     74  C   UNL A   1      44.515  23.407  25.652  1.00  0.00     0.012 A 
ATOM     75  C   UNL A   1      45.414  25.619  25.961  1.00  0.00     0.148 A 
ATOM     76  C   UNL A   1      45.536  23.110  24.745  1.00  0.00     0.002 A 
ATOM     77  C   UNL A   1      46.387  25.345  25.006  1.00  0.00     0.091 A 
ATOM     78  F   UNL A   1      45.489  26.775  26.623  1.00  0.00    -0.205 F 
ATOM     79  C   UNL A   1      46.475  24.080  24.422  1.00  0.00     0.022 A 
BRANCH  77  80
ATOM     80  S   UNL A   1      47.608  26.572  24.519  1.00  0.00     0.127 S 
ATOM     81  O   UNL A   1      46.776  27.550  23.825  1.00  0.00    -0.237 OA
ATOM     82  O   UNL A   1      48.126  27.005  25.816  1.00  0.00    -0.237 OA
ATOM     83  O   UNL A   1      48.577  25.860  23.695  1.00  0.00    -0.744 OA
ENDBRANCH  77  80
ENDBRANCH  59  73
BRANCH  60  84
ATOM     84  C   UNL A   1      47.306  30.772  31.567  1.00  0.00     0.023 A 
ATOM     85  C   UNL A   1      48.295  30.928  32.562  1.00  0.00     0.012 A 
ATOM     86  C   UNL A   1      47.370  31.611  30.433  1.00  0.00     0.148 A 
ATOM     87  C   UNL A   1      49.336  31.854  32.410  1.00  0.00     0.002 A 
ATOM     88  C   UNL A   1      48.407  32.529  30.287  1.00  0.00     0.091 A 
ATOM     89  F   UNL A   1      46.472  31.440  29.454  1.00  0.00    -0.205 F 
ATOM     90  C   UNL A   1      49.400  32.645  31.267  1.00  0.00     0.022 A 
BRANCH  88  91
ATOM     91  S   UNL A   1      48.574  33.554  28.818  1.00  0.00     0.127 S 
ATOM     92  O   UNL A   1      47.308  34.289  28.816  1.00  0.00    -0.237 OA
ATOM     93  O   UNL A   1      49.750  34.356  29.143  1.00  0.00    -0.237 OA
ATOM     94  O   UNL A   1      48.727  32.625  27.705  1.00  0.00    -0.744 OA
ENDBRANCH  88  91
ENDBRANCH  60  84
BRANCH  72  95
ATOM     95  C   UNL A   1      45.472  25.011  33.000  1.00  0.00     0.023 A 
ATOM     96  C   UNL A   1      46.435  24.483  33.886  1.00  0.00     0.012 A 
ATOM     97  C   UNL A   1      44.315  25.600  33.536  1.00  0.00     0.148 A 
ATOM     98  C   UNL A   1      46.239  24.522  35.270  1.00  0.00     0.002 A 
ATOM     99  C   UNL A   1      44.144  25.679  34.911  1.00  0.00     0.091 A 
ATOM    100  F   UNL A   1      43.410  26.104  32.683  1.00  0.00    -0.205 F 
ATOM    101  C   UNL A   1      45.097  25.133  35.783  1.00  0.00     0.022 A 
BRANCH  99 102
ATOM    102  S   UNL A   1      42.758  26.562  35.629  1.00  0.00     0.127 S 
ATOM    103  O   UNL A   1      42.707  27.768  34.806  1.00  0.00    -0.237 OA
ATOM    104  O   UNL A   1      41.649  25.630  35.419  1.00  0.00    -0.237 OA
ATOM    105  O   UNL A   1      43.098  26.772  37.031  1.00  0.00    -0.744 OA
ENDBRANCH  99 102
ENDBRANCH  72  95
ENDBRANCH  46  47
ENDBRANCH  38  41
ENDBRANCH  36  37
ENDBRANCH  35  36
ENDBRANCH  34  35
ENDBRANCH   1  34
TORSDOF 19
ENDMDL
MODEL 3
REMARK VINA RESULT:     -11.2      4.611     11.529
REMARK SMILES O=C1NC(=S)S/C1=C\c1ccc(OCc2cn(-c3ccc(C(=O)NCCCCNC(=O)c4ccc(-c5c6nc(c(-c7cccc(S(=O)(=O)[O-])c7F)c7ccc([nH]7)c(-c7cccc(S(=O)(=O)[O-])c7F)c7nc(c(-c8cccc(S(=O)(=O)[O-])c8F)c8ccc5[nH]8)C=C7)C=C6)cc4)cc3)nn2)cc1
REMARK SMILES IDX 25 1 24 2 22 3 23 4 21 6 18 7 19 8 96 9 20 10 95 11 17 12
REMARK SMILES IDX 15 13 16 14 98 15 97 16 14 17 13 18 12 19 9 20 10 21 100 22
REMARK SMILES IDX 11 23 99 24 8 25 1 26 2 27 3 28 7 29 4 30 6 32 5 33 26 34
REMARK SMILES IDX 27 35 28 36 29 37 30 38 31 40 32 41 33 42 94 43 34 44 93 45
REMARK SMILES IDX 35 46 36 47 37 48 87 49 38 50 92 51 86 52 88 53 39 54 91 55
REMARK SMILES IDX 85 56 84 57 40 59 72 60 52 61 71 62 53 63 56 64 70 65 89 66
REMARK SMILES IDX 54 67 55 68 69 70 90 71 57 72 41 73 42 74 50 75 43 76 45 77
REMARK SMILES IDX 51 78 44 79 46 80 47 81 48 82 49 83 73 84 74 85 82 86 75 87
REMARK SMILES IDX 77 88 83 89 76 90 78 91 79 92 80 93 81 94 58 95 59 96 67 97
REMARK SMILES IDX 60 98 62 99 68 100 61 101 63 102 64 103 65 104 66 105
REMARK H PARENT 24 5 3 31 29 39 88 58 56 69
REMARK Flexibility Score: inf
ROOT
ATOM      1  C   UNL A   1      39.191  34.727  36.770  1.00  0.00     0.116 C 
ENDROOT
BRANCH   1   2
ATOM      2  N   UNL A   1      38.672  33.452  37.220  1.00  0.00    -0.352 N 
ATOM      3  C   UNL A   1      37.750  32.581  36.698  1.00  0.00     0.251 C 
ATOM      4  O   UNL A   1      37.432  31.609  37.384  1.00  0.00    -0.269 OA
ATOM      5  H   UNL A   1      39.060  33.149  38.072  1.00  0.00     0.163 HD
BRANCH   3   6
ATOM      6  C   UNL A   1      37.144  32.729  35.344  1.00  0.00     0.039 A 
ATOM      7  C   UNL A   1      35.808  33.077  32.901  1.00  0.00     0.066 A 
ATOM      8  C   UNL A   1      35.600  33.991  33.939  1.00  0.00     0.029 A 
ATOM      9  C   UNL A   1      36.716  32.030  33.054  1.00  0.00     0.029 A 
ATOM     10  C   UNL A   1      36.241  33.790  35.165  1.00  0.00     0.016 A 
ATOM     11  C   UNL A   1      37.422  31.904  34.252  1.00  0.00     0.016 A 
BRANCH   7  12
ATOM     12  N   UNL A   1      35.129  33.231  31.682  1.00  0.00    -0.220 N 
ATOM     13  C   UNL A   1      34.493  33.175  29.595  1.00  0.00     0.120 A 
ATOM     14  C   UNL A   1      35.355  32.579  30.490  1.00  0.00     0.144 A 
ATOM     15  N   UNL A   1      33.760  34.118  30.268  1.00  0.00    -0.131 NA
ATOM     16  N   UNL A   1      34.122  34.116  31.538  1.00  0.00    -0.062 NA
BRANCH  13  17
ATOM     17  C   UNL A   1      34.201  32.860  28.164  1.00  0.00     0.289 C 
BRANCH  17  18
ATOM     18  O   UNL A   1      34.856  31.694  27.627  1.00  0.00    -0.487 OA
BRANCH  18  19
ATOM     19  C   UNL A   1      34.092  30.609  27.292  1.00  0.00     0.119 A 
ATOM     20  C   UNL A   1      32.266  28.502  26.956  1.00  0.00    -0.024 A 
ATOM     21  C   UNL A   1      31.822  29.826  26.917  1.00  0.00     0.012 A 
ATOM     22  C   UNL A   1      33.634  28.246  27.055  1.00  0.00     0.012 A 
ATOM     23  C   UNL A   1      32.735  30.874  27.092  1.00  0.00     0.047 A 
ATOM     24  C   UNL A   1      34.543  29.297  27.184  1.00  0.00     0.047 A 
BRANCH  20  25
ATOM     25  C   UNL A   1      31.322  27.384  26.902  1.00  0.00     0.029 C 
ATOM     26  O   UNL A   1      29.352  25.249  26.695  1.00  0.00    -0.268 OA
ATOM     27  C   UNL A   1      30.336  25.320  25.963  1.00  0.00     0.263 C 
ATOM     28  N   UNL A   1      30.619  24.442  24.961  1.00  0.00    -0.307 N 
ATOM     29  C   UNL A   1      31.380  26.374  26.023  1.00  0.00     0.080 C 
ATOM     30  C   UNL A   1      31.751  24.644  24.232  1.00  0.00     0.145 C 
ATOM     31  H   UNL A   1      30.021  23.683  24.768  1.00  0.00     0.171 HD
ATOM     32  S   UNL A   1      32.576  26.071  24.812  1.00  0.00    -0.055 SA
ATOM     33  S   UNL A   1      32.229  23.649  22.999  1.00  0.00    -0.052 S 
ENDBRANCH  20  25
ENDBRANCH  18  19
ENDBRANCH  17  18
ENDBRANCH  13  17
ENDBRANCH   7  12
ENDBRANCH   3   6
ENDBRANCH   1   2
BRANCH   1  34
ATOM     34  C   UNL A   1      40.122  34.536  35.564  1.00  0.00     0.023 C 
BRANCH  34  35
ATOM     35  C   UNL A   1      39.617  35.165  34.257  1.00  0.00     0.023 C 
BRANCH  35  36
ATOM     36  C   UNL A   1      40.222  34.564  32.994  1.00  0.00     0.116 C 
BRANCH  36  37
ATOM     37  N   UNL A   1      39.234  34.377  31.928  1.00  0.00    -0.352 N 
ATOM     38  C   UNL A   1      39.294  33.500  30.862  1.00  0.00     0.251 C 
ATOM     39  H   UNL A   1      38.431  34.946  31.976  1.00  0.00     0.163 HD
ATOM     40  O   UNL A   1      38.648  33.700  29.839  1.00  0.00    -0.269 OA
BRANCH  38  41
ATOM     41  C   UNL A   1      40.129  32.295  30.998  1.00  0.00     0.039 A 
ATOM     42  C   UNL A   1      39.583  31.012  31.070  1.00  0.00     0.014 A 
ATOM     43  C   UNL A   1      41.507  32.490  31.004  1.00  0.00     0.014 A 
ATOM     44  C   UNL A   1      40.448  29.921  31.069  1.00  0.00     0.010 A 
ATOM     45  C   UNL A   1      42.342  31.423  30.822  1.00  0.00     0.010 A 
ATOM     46  C   UNL A   1      41.829  30.138  30.926  1.00  0.00    -0.014 A 
BRANCH  46  47
ATOM     47  C   UNL A   1      42.757  29.030  30.748  1.00  0.00     0.031 A 
ATOM     48  C   UNL A   1      43.200  28.406  32.023  1.00  0.00     0.074 A 
ATOM     49  C   UNL A   1      43.016  28.484  29.539  1.00  0.00     0.049 A 
ATOM     50  N   UNL A   1      44.371  28.491  32.560  1.00  0.00    -0.248 NA
ATOM     51  C   UNL A   1      42.194  27.775  32.892  1.00  0.00     0.031 C 
ATOM     52  C   UNL A   1      42.404  28.807  28.242  1.00  0.00     0.029 A 
ATOM     53  N   UNL A   1      43.787  27.407  29.235  1.00  0.00    -0.354 N 
ATOM     54  C   UNL A   1      44.321  27.692  33.700  1.00  0.00     0.074 A 
ATOM     55  C   UNL A   1      42.924  27.483  33.973  1.00  0.00     0.031 C 
ATOM     56  C   UNL A   1      42.621  27.793  27.374  1.00  0.00     0.029 A 
ATOM     57  C   UNL A   1      43.521  26.838  27.990  1.00  0.00     0.049 A 
ATOM     58  H   UNL A   1      44.477  27.057  29.843  1.00  0.00     0.167 HD
ATOM     59  C   UNL A   1      45.435  27.047  34.146  1.00  0.00     0.034 A 
ATOM     60  C   UNL A   1      43.978  25.646  27.527  1.00  0.00     0.034 A 
ATOM     61  C   UNL A   1      46.620  27.564  33.500  1.00  0.00     0.049 A 
ATOM     62  C   UNL A   1      45.177  25.308  28.329  1.00  0.00     0.074 A 
ATOM     63  C   UNL A   1      47.201  28.812  33.382  1.00  0.00     0.029 A 
ATOM     64  N   UNL A   1      47.153  26.803  32.485  1.00  0.00    -0.354 N 
ATOM     65  N   UNL A   1      46.282  25.997  28.275  1.00  0.00    -0.248 NA
ATOM     66  C   UNL A   1      44.986  24.515  29.531  1.00  0.00     0.031 C 
ATOM     67  C   UNL A   1      47.647  28.876  32.029  1.00  0.00     0.029 A 
ATOM     68  C   UNL A   1      47.402  27.639  31.430  1.00  0.00     0.049 A 
ATOM     69  H   UNL A   1      47.323  25.834  32.512  1.00  0.00     0.167 HD
ATOM     70  C   UNL A   1      46.669  26.116  29.603  1.00  0.00     0.074 A 
ATOM     71  C   UNL A   1      45.896  25.097  30.318  1.00  0.00     0.031 C 
ATOM     72  C   UNL A   1      47.336  27.223  30.047  1.00  0.00     0.034 A 
BRANCH  59  73
ATOM     73  C   UNL A   1      45.460  25.700  34.840  1.00  0.00     0.023 A 
ATOM     74  C   UNL A   1      44.867  24.618  34.148  1.00  0.00     0.012 A 
ATOM     75  C   UNL A   1      45.752  25.497  36.207  1.00  0.00     0.148 A 
ATOM     76  C   UNL A   1      44.501  23.436  34.800  1.00  0.00     0.002 A 
ATOM     77  C   UNL A   1      45.451  24.294  36.837  1.00  0.00     0.091 A 
ATOM     78  F   UNL A   1      46.207  26.503  36.956  1.00  0.00    -0.205 F 
ATOM     79  C   UNL A   1      44.793  23.274  36.147  1.00  0.00     0.022 A 
BRANCH  77  80
ATOM     80  S   UNL A   1      45.837  24.010  38.571  1.00  0.00     0.127 S 
ATOM     81  O   UNL A   1      47.236  24.421  38.627  1.00  0.00    -0.237 OA
ATOM     82  O   UNL A   1      44.896  24.912  39.234  1.00  0.00    -0.237 OA
ATOM     83  O   UNL A   1      45.577  22.595  38.806  1.00  0.00    -0.744 OA
ENDBRANCH  77  80
ENDBRANCH  59  73
BRANCH  60  84
ATOM     84  C   UNL A   1      43.347  24.657  26.618  1.00  0.00     0.023 A 
ATOM     85  C   UNL A   1      44.045  24.210  25.476  1.00  0.00     0.012 A 
ATOM     86  C   UNL A   1      42.206  23.930  27.024  1.00  0.00     0.148 A 
ATOM     87  C   UNL A   1      43.647  23.054  24.790  1.00  0.00     0.002 A 
ATOM     88  C   UNL A   1      41.815  22.781  26.339  1.00  0.00     0.091 A 
ATOM     89  F   UNL A   1      41.563  24.307  28.136  1.00  0.00    -0.205 F 
ATOM     90  C   UNL A   1      42.540  22.332  25.228  1.00  0.00     0.022 A 
BRANCH  88  91
ATOM     91  S   UNL A   1      40.421  21.779  26.874  1.00  0.00     0.127 S 
ATOM     92  O   UNL A   1      40.788  21.462  28.255  1.00  0.00    -0.237 OA
ATOM     93  O   UNL A   1      39.308  22.714  26.734  1.00  0.00    -0.237 OA
ATOM     94  O   UNL A   1      40.399  20.627  25.982  1.00  0.00    -0.744 OA
ENDBRANCH  88  91
ENDBRANCH  60  84
BRANCH  72  95
ATOM     95  C   UNL A   1      47.837  28.214  29.025  1.00  0.00     0.023 A 
ATOM     96  C   UNL A   1      49.037  28.031  28.305  1.00  0.00     0.012 A 
ATOM     97  C   UNL A   1      46.984  29.267  28.656  1.00  0.00     0.148 A 
ATOM     98  C   UNL A   1      49.388  28.890  27.259  1.00  0.00     0.002 A 
ATOM     99  C   UNL A   1      47.312  30.090  27.587  1.00  0.00     0.091 A 
ATOM    100  F   UNL A   1      45.843  29.426  29.344  1.00  0.00    -0.205 F 
ATOM    101  C   UNL A   1      48.518  29.913  26.891  1.00  0.00     0.022 A 
BRANCH  99 102
ATOM    102  S   UNL A   1      46.175  31.342  26.991  1.00  0.00     0.127 S 
ATOM    103  O   UNL A   1      45.847  32.064  28.219  1.00  0.00    -0.237 OA
ATOM    104  O   UNL A   1      47.001  32.091  26.042  1.00  0.00    -0.237 OA
ATOM    105  O   UNL A   1      45.070  30.619  26.373  1.00  0.00    -0.744 OA
ENDBRANCH  99 102
ENDBRANCH  72  95
ENDBRANCH  46  47
ENDBRANCH  38  41
ENDBRANCH  36  37
ENDBRANCH  35  36
ENDBRANCH  34  35
ENDBRANCH   1  34
TORSDOF 19
ENDMDL
