MODEL 1
REMARK VINA RESULT:     -11.2      0.000      0.000
REMARK SMILES Cc1ccc(OCCC[N@H+]2CCCC[C@@H]2C(=O)NCCCCNC(=O)c2ccc(-c3c4nc(c(-c5cccc(S(=O)(=O)[O-])c5F)c5ccc([nH]5)c(-c5cccc(S(=O)(=O)[O-])c5F)c5nc(c(-c6cccc(S(=O)(=O)[O-])c6F)c6ccc3[nH]6)C=C5)C=C4)cc2)cc1C
REMARK SMILES IDX 19 1 18 2 16 3 17 4 15 6 10 7 11 8 12 10 14 11 13 12 9 13
REMARK SMILES IDX 8 14 7 15 6 16 5 17 1 18 2 19 3 20 90 21 4 22 89 23 91 24
REMARK SMILES IDX 20 25 21 26 22 27 23 28 24 29 25 31 26 32 27 33 88 34 28 35
REMARK SMILES IDX 87 36 29 37 30 38 31 39 81 40 32 41 86 42 80 43 82 44 33 45
REMARK SMILES IDX 85 46 79 47 78 48 34 50 66 51 46 52 65 53 47 54 50 55 64 56
REMARK SMILES IDX 83 57 48 58 49 59 63 61 84 62 51 63 35 64 36 65 44 66 37 67
REMARK SMILES IDX 39 68 45 69 38 70 40 71 41 72 42 73 43 74 67 75 68 76 76 77
REMARK SMILES IDX 69 78 71 79 77 80 70 81 72 82 73 83 74 84 75 85 52 86 53 87
REMARK SMILES IDX 61 88 54 89 56 90 62 91 55 92 57 93 58 94 59 95 60 96
REMARK H PARENT 18 5 10 9 23 30 82 49 50 60
REMARK Flexibility Score: inf
ROOT
ATOM      1  C   UNL A   1      35.864  20.947  24.923  1.00  0.00     0.116 C 
ENDROOT
BRANCH   1   2
ATOM      2  N   UNL A   1      35.492  21.482  26.221  1.00  0.00    -0.351 N 
ATOM      3  C   UNL A   1      34.646  22.505  26.539  1.00  0.00     0.278 C 
ATOM      4  O   UNL A   1      34.599  22.883  27.716  1.00  0.00    -0.268 OA
ATOM      5  H   UNL A   1      35.916  21.039  26.992  1.00  0.00     0.163 HD
BRANCH   3   6
ATOM      6  C   UNL A   1      33.822  23.259  25.475  1.00  0.00     0.274 C 
ATOM      7  N   UNL A   1      32.956  22.345  24.653  1.00  0.00    -0.325 N 
ATOM      8  C   UNL A   1      32.339  23.097  23.536  1.00  0.00     0.262 C 
ATOM      9  H   UNL A   1      33.539  21.592  24.287  1.00  0.00     0.348 HD
ATOM     10  C   UNL A   1      33.337  23.899  22.700  1.00  0.00     0.062 C 
ATOM     11  C   UNL A   1      34.799  24.144  24.684  1.00  0.00     0.076 C 
ATOM     12  C   UNL A   1      34.095  24.891  23.569  1.00  0.00     0.012 C 
BRANCH   7  13
ATOM     13  C   UNL A   1      31.863  21.784  25.499  1.00  0.00     0.266 C 
BRANCH  13  14
ATOM     14  C   UNL A   1      30.596  22.652  25.641  1.00  0.00     0.103 C 
BRANCH  14  15
ATOM     15  C   UNL A   1      30.596  23.632  26.823  1.00  0.00     0.235 C 
BRANCH  15  16
ATOM     16  O   UNL A   1      29.866  24.850  26.556  1.00  0.00    -0.493 OA
BRANCH  16  17
ATOM     17  C   UNL A   1      30.636  25.765  25.889  1.00  0.00     0.119 A 
ATOM     18  C   UNL A   1      32.905  28.956  24.112  1.00  0.00     0.044 C 
ATOM     19  C   UNL A   1      32.137  27.780  24.650  1.00  0.00    -0.048 A 
ATOM     20  C   UNL A   1      32.514  27.264  25.897  1.00  0.00     0.007 A 
ATOM     21  C   UNL A   1      31.083  27.164  23.948  1.00  0.00    -0.045 A 
ATOM     22  C   UNL A   1      31.799  26.229  26.484  1.00  0.00     0.047 A 
ATOM     23  C   UNL A   1      30.313  26.174  24.597  1.00  0.00     0.050 A 
ATOM     24  C   UNL A   1      30.830  27.445  22.490  1.00  0.00     0.045 C 
ENDBRANCH  16  17
ENDBRANCH  15  16
ENDBRANCH  14  15
ENDBRANCH  13  14
ENDBRANCH   7  13
ENDBRANCH   3   6
ENDBRANCH   1   2
BRANCH   1  25
ATOM     25  C   UNL A   1      37.348  21.154  24.630  1.00  0.00     0.023 C 
BRANCH  25  26
ATOM     26  C   UNL A   1      38.215  19.901  24.813  1.00  0.00     0.023 C 
BRANCH  26  27
ATOM     27  C   UNL A   1      38.930  19.771  26.160  1.00  0.00     0.116 C 
BRANCH  27  28
ATOM     28  N   UNL A   1      40.171  19.015  26.073  1.00  0.00    -0.352 N 
ATOM     29  C   UNL A   1      41.476  19.448  26.130  1.00  0.00     0.251 C 
ATOM     30  H   UNL A   1      40.059  18.044  25.954  1.00  0.00     0.163 HD
ATOM     31  O   UNL A   1      42.386  18.668  25.887  1.00  0.00    -0.269 OA
BRANCH  29  32
ATOM     32  C   UNL A   1      41.779  20.858  26.467  1.00  0.00     0.039 A 
ATOM     33  C   UNL A   1      42.215  21.162  27.761  1.00  0.00     0.014 A 
ATOM     34  C   UNL A   1      41.615  21.878  25.527  1.00  0.00     0.014 A 
ATOM     35  C   UNL A   1      42.550  22.478  28.091  1.00  0.00     0.010 A 
ATOM     36  C   UNL A   1      42.003  23.180  25.840  1.00  0.00     0.010 A 
ATOM     37  C   UNL A   1      42.476  23.494  27.123  1.00  0.00    -0.014 A 
BRANCH  37  38
ATOM     38  C   UNL A   1      42.920  24.879  27.425  1.00  0.00     0.031 A 
ATOM     39  C   UNL A   1      41.974  25.868  28.049  1.00  0.00     0.074 A 
ATOM     40  C   UNL A   1      44.146  25.280  27.033  1.00  0.00     0.049 A 
ATOM     41  N   UNL A   1      42.167  27.132  28.323  1.00  0.00    -0.248 NA
ATOM     42  C   UNL A   1      40.626  25.381  28.383  1.00  0.00     0.031 C 
ATOM     43  C   UNL A   1      45.124  24.445  26.332  1.00  0.00     0.029 A 
ATOM     44  N   UNL A   1      44.766  26.501  27.137  1.00  0.00    -0.354 N 
ATOM     45  C   UNL A   1      40.957  27.603  28.820  1.00  0.00     0.074 A 
ATOM     46  C   UNL A   1      40.029  26.493  28.790  1.00  0.00     0.031 C 
ATOM     47  C   UNL A   1      46.213  25.180  26.058  1.00  0.00     0.029 A 
ATOM     48  C   UNL A   1      46.007  26.541  26.544  1.00  0.00     0.049 A 
ATOM     49  H   UNL A   1      44.360  27.274  27.590  1.00  0.00     0.167 HD
ATOM     50  C   UNL A   1      40.654  28.838  29.286  1.00  0.00     0.034 A 
ATOM     51  C   UNL A   1      46.880  27.557  26.403  1.00  0.00     0.034 A 
ATOM     52  C   UNL A   1      41.594  29.924  29.370  1.00  0.00     0.049 A 
ATOM     53  C   UNL A   1      46.548  28.899  26.997  1.00  0.00     0.074 A 
ATOM     54  C   UNL A   1      41.417  31.173  29.937  1.00  0.00     0.029 A 
ATOM     55  N   UNL A   1      42.885  29.893  28.866  1.00  0.00    -0.354 N 
ATOM     56  N   UNL A   1      45.466  29.270  27.637  1.00  0.00    -0.248 NA
ATOM     57  C   UNL A   1      47.570  29.949  26.885  1.00  0.00     0.031 C 
ATOM     58  C   UNL A   1      42.598  31.903  29.764  1.00  0.00     0.029 A 
ATOM     59  C   UNL A   1      43.514  31.104  29.100  1.00  0.00     0.049 A 
ATOM     60  H   UNL A   1      43.295  29.124  28.410  1.00  0.00     0.167 HD
ATOM     61  C   UNL A   1      45.688  30.586  28.030  1.00  0.00     0.074 A 
ATOM     62  C   UNL A   1      47.016  30.939  27.575  1.00  0.00     0.031 C 
ATOM     63  C   UNL A   1      44.856  31.429  28.691  1.00  0.00     0.034 A 
BRANCH  50  64
ATOM     64  C   UNL A   1      39.258  29.066  29.804  1.00  0.00     0.023 A 
ATOM     65  C   UNL A   1      38.928  28.649  31.109  1.00  0.00     0.012 A 
ATOM     66  C   UNL A   1      38.294  29.740  29.029  1.00  0.00     0.148 A 
ATOM     67  C   UNL A   1      37.651  28.867  31.624  1.00  0.00     0.002 A 
ATOM     68  C   UNL A   1      37.035  29.991  29.564  1.00  0.00     0.091 A 
ATOM     69  F   UNL A   1      38.617  30.109  27.782  1.00  0.00    -0.205 F 
ATOM     70  C   UNL A   1      36.709  29.546  30.856  1.00  0.00     0.022 A 
BRANCH  68  71
ATOM     71  S   UNL A   1      35.781  30.925  28.680  1.00  0.00     0.127 S 
ATOM     72  O   UNL A   1      35.125  29.875  27.901  1.00  0.00    -0.237 OA
ATOM     73  O   UNL A   1      34.970  31.470  29.770  1.00  0.00    -0.237 OA
ATOM     74  O   UNL A   1      36.503  31.926  27.907  1.00  0.00    -0.744 OA
ENDBRANCH  68  71
ENDBRANCH  50  64
BRANCH  51  75
ATOM     75  C   UNL A   1      48.188  27.315  25.732  1.00  0.00     0.023 A 
ATOM     76  C   UNL A   1      49.268  26.817  26.486  1.00  0.00     0.012 A 
ATOM     77  C   UNL A   1      48.352  27.521  24.349  1.00  0.00     0.148 A 
ATOM     78  C   UNL A   1      50.496  26.551  25.880  1.00  0.00     0.002 A 
ATOM     79  C   UNL A   1      49.561  27.204  23.741  1.00  0.00     0.091 A 
ATOM     80  F   UNL A   1      47.316  28.009  23.652  1.00  0.00    -0.205 F 
ATOM     81  C   UNL A   1      50.639  26.732  24.507  1.00  0.00     0.022 A 
BRANCH  79  82
ATOM     82  S   UNL A   1      49.790  27.276  21.960  1.00  0.00     0.127 S 
ATOM     83  O   UNL A   1      48.783  26.329  21.491  1.00  0.00    -0.237 OA
ATOM     84  O   UNL A   1      49.497  28.680  21.673  1.00  0.00    -0.237 OA
ATOM     85  O   UNL A   1      51.177  26.897  21.729  1.00  0.00    -0.744 OA
ENDBRANCH  79  82
ENDBRANCH  51  75
BRANCH  63  86
ATOM     86  C   UNL A   1      45.359  32.818  28.984  1.00  0.00     0.023 A 
ATOM     87  C   UNL A   1      46.082  33.061  30.168  1.00  0.00     0.012 A 
ATOM     88  C   UNL A   1      45.187  33.860  28.052  1.00  0.00     0.148 A 
ATOM     89  C   UNL A   1      46.604  34.326  30.433  1.00  0.00     0.002 A 
ATOM     90  C   UNL A   1      45.748  35.108  28.302  1.00  0.00     0.091 A 
ATOM     91  F   UNL A   1      44.478  33.617  26.940  1.00  0.00    -0.205 F 
ATOM     92  C   UNL A   1      46.449  35.345  29.496  1.00  0.00     0.022 A 
BRANCH  90  93
ATOM     93  S   UNL A   1      45.674  36.448  27.108  1.00  0.00     0.127 S 
ATOM     94  O   UNL A   1      44.243  36.511  26.817  1.00  0.00    -0.237 OA
ATOM     95  O   UNL A   1      46.191  37.582  27.876  1.00  0.00    -0.237 OA
ATOM     96  O   UNL A   1      46.524  36.038  25.998  1.00  0.00    -0.744 OA
ENDBRANCH  90  93
ENDBRANCH  63  86
ENDBRANCH  37  38
ENDBRANCH  29  32
ENDBRANCH  27  28
ENDBRANCH  26  27
ENDBRANCH  25  26
ENDBRANCH   1  25
TORSDOF 19
ENDMDL
MODEL 2
REMARK VINA RESULT:     -10.8      2.225      8.230
REMARK SMILES Cc1ccc(OCCC[N@H+]2CCCC[C@@H]2C(=O)NCCCCNC(=O)c2ccc(-c3c4nc(c(-c5cccc(S(=O)(=O)[O-])c5F)c5ccc([nH]5)c(-c5cccc(S(=O)(=O)[O-])c5F)c5nc(c(-c6cccc(S(=O)(=O)[O-])c6F)c6ccc3[nH]6)C=C5)C=C4)cc2)cc1C
REMARK SMILES IDX 19 1 18 2 16 3 17 4 15 6 10 7 11 8 12 10 14 11 13 12 9 13
REMARK SMILES IDX 8 14 7 15 6 16 5 17 1 18 2 19 3 20 90 21 4 22 89 23 91 24
REMARK SMILES IDX 20 25 21 26 22 27 23 28 24 29 25 31 26 32 27 33 88 34 28 35
REMARK SMILES IDX 87 36 29 37 30 38 31 39 81 40 32 41 86 42 80 43 82 44 33 45
REMARK SMILES IDX 85 46 79 47 78 48 34 50 66 51 46 52 65 53 47 54 50 55 64 56
REMARK SMILES IDX 83 57 48 58 49 59 63 61 84 62 51 63 35 64 36 65 44 66 37 67
REMARK SMILES IDX 39 68 45 69 38 70 40 71 41 72 42 73 43 74 67 75 68 76 76 77
REMARK SMILES IDX 69 78 71 79 77 80 70 81 72 82 73 83 74 84 75 85 52 86 53 87
REMARK SMILES IDX 61 88 54 89 56 90 62 91 55 92 57 93 58 94 59 95 60 96
REMARK H PARENT 18 5 10 9 23 30 82 49 50 60
REMARK Flexibility Score: inf
ROOT
ATOM      1  C   UNL A   1      34.900  24.167  24.062  1.00  0.00     0.116 C 
ENDROOT
BRANCH   1   2
ATOM      2  N   UNL A   1      33.813  24.766  23.307  1.00  0.00    -0.351 N 
ATOM      3  C   UNL A   1      32.977  25.793  23.638  1.00  0.00     0.278 C 
ATOM      4  O   UNL A   1      32.022  26.034  22.890  1.00  0.00    -0.268 OA
ATOM      5  H   UNL A   1      33.654  24.369  22.420  1.00  0.00     0.163 HD
BRANCH   3   6
ATOM      6  C   UNL A   1      33.129  26.596  24.946  1.00  0.00     0.274 C 
ATOM      7  N   UNL A   1      31.941  26.454  25.857  1.00  0.00    -0.325 N 
ATOM      8  C   UNL A   1      32.063  27.388  27.001  1.00  0.00     0.262 C 
ATOM      9  H   UNL A   1      31.098  26.664  25.323  1.00  0.00     0.348 HD
ATOM     10  C   UNL A   1      32.345  28.835  26.594  1.00  0.00     0.062 C 
ATOM     11  C   UNL A   1      33.505  28.035  24.558  1.00  0.00     0.076 C 
ATOM     12  C   UNL A   1      33.625  28.926  25.777  1.00  0.00     0.012 C 
BRANCH   7  13
ATOM     13  C   UNL A   1      31.876  25.063  26.394  1.00  0.00     0.266 C 
BRANCH  13  14
ATOM     14  C   UNL A   1      30.667  24.215  25.947  1.00  0.00     0.103 C 
BRANCH  14  15
ATOM     15  C   UNL A   1      30.861  22.695  26.030  1.00  0.00     0.235 C 
BRANCH  15  16
ATOM     16  O   UNL A   1      32.243  22.288  25.924  1.00  0.00    -0.493 OA
BRANCH  16  17
ATOM     17  C   UNL A   1      32.405  21.275  25.017  1.00  0.00     0.119 A 
ATOM     18  C   UNL A   1      32.442  18.079  22.140  1.00  0.00     0.044 C 
ATOM     19  C   UNL A   1      32.533  19.182  23.158  1.00  0.00    -0.048 A 
ATOM     20  C   UNL A   1      32.154  20.473  22.766  1.00  0.00     0.007 A 
ATOM     21  C   UNL A   1      33.004  18.980  24.471  1.00  0.00    -0.045 A 
ATOM     22  C   UNL A   1      32.143  21.520  23.678  1.00  0.00     0.047 A 
ATOM     23  C   UNL A   1      32.902  20.033  25.406  1.00  0.00     0.050 A 
ATOM     24  C   UNL A   1      33.722  17.717  24.870  1.00  0.00     0.045 C 
ENDBRANCH  16  17
ENDBRANCH  15  16
ENDBRANCH  14  15
ENDBRANCH  13  14
ENDBRANCH   7  13
ENDBRANCH   3   6
ENDBRANCH   1   2
BRANCH   1  25
ATOM     25  C   UNL A   1      35.400  22.881  23.410  1.00  0.00     0.023 C 
BRANCH  25  26
ATOM     26  C   UNL A   1      36.737  22.364  23.959  1.00  0.00     0.023 C 
BRANCH  26  27
ATOM     27  C   UNL A   1      36.722  21.878  25.409  1.00  0.00     0.116 C 
BRANCH  27  28
ATOM     28  N   UNL A   1      37.738  20.872  25.681  1.00  0.00    -0.352 N 
ATOM     29  C   UNL A   1      39.041  21.021  26.099  1.00  0.00     0.251 C 
ATOM     30  H   UNL A   1      37.449  19.940  25.543  1.00  0.00     0.163 HD
ATOM     31  O   UNL A   1      39.785  20.051  26.128  1.00  0.00    -0.269 OA
BRANCH  29  32
ATOM     32  C   UNL A   1      39.548  22.356  26.495  1.00  0.00     0.039 A 
ATOM     33  C   UNL A   1      40.543  22.433  27.476  1.00  0.00     0.014 A 
ATOM     34  C   UNL A   1      39.034  23.523  25.926  1.00  0.00     0.014 A 
ATOM     35  C   UNL A   1      41.069  23.677  27.835  1.00  0.00     0.010 A 
ATOM     36  C   UNL A   1      39.599  24.757  26.244  1.00  0.00     0.010 A 
ATOM     37  C   UNL A   1      40.623  24.847  27.200  1.00  0.00    -0.014 A 
BRANCH  37  38
ATOM     38  C   UNL A   1      41.238  26.167  27.496  1.00  0.00     0.031 A 
ATOM     39  C   UNL A   1      42.653  26.462  27.080  1.00  0.00     0.074 A 
ATOM     40  C   UNL A   1      40.557  27.063  28.239  1.00  0.00     0.049 A 
ATOM     41  N   UNL A   1      43.372  27.531  27.308  1.00  0.00    -0.248 NA
ATOM     42  C   UNL A   1      43.362  25.410  26.335  1.00  0.00     0.031 C 
ATOM     43  C   UNL A   1      39.214  26.859  28.785  1.00  0.00     0.029 A 
ATOM     44  N   UNL A   1      40.915  28.307  28.693  1.00  0.00    -0.354 N 
ATOM     45  C   UNL A   1      44.628  27.265  26.776  1.00  0.00     0.074 A 
ATOM     46  C   UNL A   1      44.579  25.925  26.231  1.00  0.00     0.031 C 
ATOM     47  C   UNL A   1      38.866  27.934  29.510  1.00  0.00     0.029 A 
ATOM     48  C   UNL A   1      39.965  28.895  29.498  1.00  0.00     0.049 A 
ATOM     49  H   UNL A   1      41.770  28.739  28.467  1.00  0.00     0.167 HD
ATOM     50  C   UNL A   1      45.714  28.072  26.719  1.00  0.00     0.034 A 
ATOM     51  C   UNL A   1      39.977  30.071  30.156  1.00  0.00     0.034 A 
ATOM     52  C   UNL A   1      45.743  29.425  27.208  1.00  0.00     0.049 A 
ATOM     53  C   UNL A   1      41.167  30.980  30.012  1.00  0.00     0.074 A 
ATOM     54  C   UNL A   1      46.753  30.362  27.089  1.00  0.00     0.029 A 
ATOM     55  N   UNL A   1      44.717  30.032  27.916  1.00  0.00    -0.354 N 
ATOM     56  N   UNL A   1      42.275  30.786  29.340  1.00  0.00    -0.248 NA
ATOM     57  C   UNL A   1      41.093  32.285  30.685  1.00  0.00     0.031 C 
ATOM     58  C   UNL A   1      46.344  31.532  27.738  1.00  0.00     0.029 A 
ATOM     59  C   UNL A   1      45.074  31.328  28.250  1.00  0.00     0.049 A 
ATOM     60  H   UNL A   1      43.861  29.605  28.148  1.00  0.00     0.167 HD
ATOM     61  C   UNL A   1      43.018  31.953  29.483  1.00  0.00     0.074 A 
ATOM     62  C   UNL A   1      42.223  32.857  30.288  1.00  0.00     0.031 C 
ATOM     63  C   UNL A   1      44.254  32.240  29.005  1.00  0.00     0.034 A 
BRANCH  50  64
ATOM     64  C   UNL A   1      46.950  27.535  26.046  1.00  0.00     0.023 A 
ATOM     65  C   UNL A   1      47.158  27.793  24.676  1.00  0.00     0.012 A 
ATOM     66  C   UNL A   1      47.928  26.830  26.773  1.00  0.00     0.148 A 
ATOM     67  C   UNL A   1      48.304  27.328  24.031  1.00  0.00     0.002 A 
ATOM     68  C   UNL A   1      49.088  26.404  26.133  1.00  0.00     0.091 A 
ATOM     69  F   UNL A   1      47.704  26.573  28.069  1.00  0.00    -0.205 F 
ATOM     70  C   UNL A   1      49.272  26.643  24.761  1.00  0.00     0.022 A 
BRANCH  68  71
ATOM     71  S   UNL A   1      50.425  25.582  27.007  1.00  0.00     0.127 S 
ATOM     72  O   UNL A   1      51.377  25.336  25.925  1.00  0.00    -0.237 OA
ATOM     73  O   UNL A   1      50.846  26.605  27.967  1.00  0.00    -0.237 OA
ATOM     74  O   UNL A   1      49.834  24.396  27.610  1.00  0.00    -0.744 OA
ENDBRANCH  68  71
ENDBRANCH  50  64
BRANCH  51  75
ATOM     75  C   UNL A   1      38.784  30.483  30.946  1.00  0.00     0.023 A 
ATOM     76  C   UNL A   1      38.743  30.211  32.327  1.00  0.00     0.012 A 
ATOM     77  C   UNL A   1      37.720  31.190  30.353  1.00  0.00     0.148 A 
ATOM     78  C   UNL A   1      37.653  30.613  33.099  1.00  0.00     0.002 A 
ATOM     79  C   UNL A   1      36.662  31.634  31.138  1.00  0.00     0.091 A 
ATOM     80  F   UNL A   1      37.771  31.428  29.035  1.00  0.00    -0.205 F 
ATOM     81  C   UNL A   1      36.620  31.334  32.508  1.00  0.00     0.022 A 
BRANCH  79  82
ATOM     82  S   UNL A   1      35.358  32.686  30.487  1.00  0.00     0.127 S 
ATOM     83  O   UNL A   1      36.094  33.901  30.151  1.00  0.00    -0.237 OA
ATOM     84  O   UNL A   1      34.888  31.912  29.338  1.00  0.00    -0.237 OA
ATOM     85  O   UNL A   1      34.383  32.809  31.562  1.00  0.00    -0.744 OA
ENDBRANCH  79  82
ENDBRANCH  51  75
BRANCH  63  86
ATOM     86  C   UNL A   1      44.828  33.596  29.322  1.00  0.00     0.023 A 
ATOM     87  C   UNL A   1      45.628  33.761  30.470  1.00  0.00     0.012 A 
ATOM     88  C   UNL A   1      44.645  34.682  28.444  1.00  0.00     0.148 A 
ATOM     89  C   UNL A   1      46.215  34.994  30.753  1.00  0.00     0.002 A 
ATOM     90  C   UNL A   1      45.270  35.895  28.708  1.00  0.00     0.091 A 
ATOM     91  F   UNL A   1      43.863  34.511  27.367  1.00  0.00    -0.205 F 
ATOM     92  C   UNL A   1      46.047  36.056  29.867  1.00  0.00     0.022 A 
BRANCH  90  93
ATOM     93  S   UNL A   1      45.181  37.286  27.574  1.00  0.00     0.127 S 
ATOM     94  O   UNL A   1      46.082  38.246  28.208  1.00  0.00    -0.237 OA
ATOM     95  O   UNL A   1      45.686  36.708  26.328  1.00  0.00    -0.237 OA
ATOM     96  O   UNL A   1      43.778  37.674  27.531  1.00  0.00    -0.744 OA
ENDBRANCH  90  93
ENDBRANCH  63  86
ENDBRANCH  37  38
ENDBRANCH  29  32
ENDBRANCH  27  28
ENDBRANCH  26  27
ENDBRANCH  25  26
ENDBRANCH   1  25
TORSDOF 19
ENDMDL
MODEL 3
REMARK VINA RESULT:     -10.6      6.250     11.415
REMARK SMILES Cc1ccc(OCCC[N@H+]2CCCC[C@@H]2C(=O)NCCCCNC(=O)c2ccc(-c3c4nc(c(-c5cccc(S(=O)(=O)[O-])c5F)c5ccc([nH]5)c(-c5cccc(S(=O)(=O)[O-])c5F)c5nc(c(-c6cccc(S(=O)(=O)[O-])c6F)c6ccc3[nH]6)C=C5)C=C4)cc2)cc1C
REMARK SMILES IDX 19 1 18 2 16 3 17 4 15 6 10 7 11 8 12 10 14 11 13 12 9 13
REMARK SMILES IDX 8 14 7 15 6 16 5 17 1 18 2 19 3 20 90 21 4 22 89 23 91 24
REMARK SMILES IDX 20 25 21 26 22 27 23 28 24 29 25 31 26 32 27 33 88 34 28 35
REMARK SMILES IDX 87 36 29 37 30 38 31 39 81 40 32 41 86 42 80 43 82 44 33 45
REMARK SMILES IDX 85 46 79 47 78 48 34 50 66 51 46 52 65 53 47 54 50 55 64 56
REMARK SMILES IDX 83 57 48 58 49 59 63 61 84 62 51 63 35 64 36 65 44 66 37 67
REMARK SMILES IDX 39 68 45 69 38 70 40 71 41 72 42 73 43 74 67 75 68 76 76 77
REMARK SMILES IDX 69 78 71 79 77 80 70 81 72 82 73 83 74 84 75 85 52 86 53 87
REMARK SMILES IDX 61 88 54 89 56 90 62 91 55 92 57 93 58 94 59 95 60 96
REMARK H PARENT 18 5 10 9 23 30 82 49 50 60
REMARK Flexibility Score: inf
ROOT
ATOM      1  C   UNL A   1      31.901  29.343  26.449  1.00  0.00     0.116 C 
ENDROOT
BRANCH   1   2
ATOM      2  N   UNL A   1      32.379  29.310  25.077  1.00  0.00    -0.351 N 
ATOM      3  C   UNL A   1      31.679  29.293  23.905  1.00  0.00     0.278 C 
ATOM      4  O   UNL A   1      32.305  29.113  22.853  1.00  0.00    -0.268 OA
ATOM      5  H   UNL A   1      33.359  29.298  24.977  1.00  0.00     0.163 HD
BRANCH   3   6
ATOM      6  C   UNL A   1      30.141  29.397  23.857  1.00  0.00     0.274 C 
ATOM      7  N   UNL A   1      29.536  28.564  22.761  1.00  0.00    -0.325 N 
ATOM      8  C   UNL A   1      28.087  28.850  22.646  1.00  0.00     0.262 C 
ATOM      9  H   UNL A   1      30.007  28.792  21.885  1.00  0.00     0.348 HD
ATOM     10  C   UNL A   1      27.754  30.338  22.531  1.00  0.00     0.062 C 
ATOM     11  C   UNL A   1      29.785  30.892  23.834  1.00  0.00     0.076 C 
ATOM     12  C   UNL A   1      28.289  31.106  23.730  1.00  0.00     0.012 C 
BRANCH   7  13
ATOM     13  C   UNL A   1      29.703  27.114  23.072  1.00  0.00     0.266 C 
BRANCH  13  14
ATOM     14  C   UNL A   1      29.440  26.695  24.533  1.00  0.00     0.103 C 
BRANCH  14  15
ATOM     15  C   UNL A   1      30.208  25.457  25.013  1.00  0.00     0.235 C 
BRANCH  15  16
ATOM     16  O   UNL A   1      30.915  25.668  26.255  1.00  0.00    -0.493 OA
BRANCH  16  17
ATOM     17  C   UNL A   1      32.168  25.117  26.225  1.00  0.00     0.119 A 
ATOM     18  C   UNL A   1      36.039  23.331  25.667  1.00  0.00     0.044 C 
ATOM     19  C   UNL A   1      34.702  23.950  25.966  1.00  0.00    -0.048 A 
ATOM     20  C   UNL A   1      34.447  25.236  25.474  1.00  0.00     0.007 A 
ATOM     21  C   UNL A   1      33.712  23.307  26.737  1.00  0.00    -0.045 A 
ATOM     22  C   UNL A   1      33.206  25.833  25.650  1.00  0.00     0.047 A 
ATOM     23  C   UNL A   1      32.430  23.890  26.831  1.00  0.00     0.050 A 
ATOM     24  C   UNL A   1      34.019  22.083  27.559  1.00  0.00     0.045 C 
ENDBRANCH  16  17
ENDBRANCH  15  16
ENDBRANCH  14  15
ENDBRANCH  13  14
ENDBRANCH   7  13
ENDBRANCH   3   6
ENDBRANCH   1   2
BRANCH   1  25
ATOM     25  C   UNL A   1      32.591  30.435  27.262  1.00  0.00     0.023 C 
BRANCH  25  26
ATOM     26  C   UNL A   1      31.934  31.817  27.162  1.00  0.00     0.023 C 
BRANCH  26  27
ATOM     27  C   UNL A   1      32.870  32.981  26.828  1.00  0.00     0.116 C 
BRANCH  27  28
ATOM     28  N   UNL A   1      32.588  34.178  27.609  1.00  0.00    -0.352 N 
ATOM     29  C   UNL A   1      33.148  34.618  28.787  1.00  0.00     0.251 C 
ATOM     30  H   UNL A   1      31.887  34.761  27.237  1.00  0.00     0.163 HD
ATOM     31  O   UNL A   1      32.667  35.581  29.365  1.00  0.00    -0.269 OA
BRANCH  29  32
ATOM     32  C   UNL A   1      34.320  33.917  29.362  1.00  0.00     0.039 A 
ATOM     33  C   UNL A   1      35.601  34.316  28.967  1.00  0.00     0.014 A 
ATOM     34  C   UNL A   1      34.161  32.862  30.263  1.00  0.00     0.014 A 
ATOM     35  C   UNL A   1      36.724  33.701  29.530  1.00  0.00     0.010 A 
ATOM     36  C   UNL A   1      35.280  32.289  30.864  1.00  0.00     0.010 A 
ATOM     37  C   UNL A   1      36.572  32.702  30.506  1.00  0.00    -0.014 A 
BRANCH  37  38
ATOM     38  C   UNL A   1      37.750  32.106  31.187  1.00  0.00     0.031 A 
ATOM     39  C   UNL A   1      38.507  30.970  30.553  1.00  0.00     0.074 A 
ATOM     40  C   UNL A   1      38.073  32.514  32.430  1.00  0.00     0.049 A 
ATOM     41  N   UNL A   1      39.516  30.286  31.028  1.00  0.00    -0.248 NA
ATOM     42  C   UNL A   1      38.053  30.526  29.225  1.00  0.00     0.031 C 
ATOM     43  C   UNL A   1      37.359  33.540  33.194  1.00  0.00     0.029 A 
ATOM     44  N   UNL A   1      39.060  32.091  33.285  1.00  0.00    -0.354 N 
ATOM     45  C   UNL A   1      39.790  29.306  30.081  1.00  0.00     0.074 A 
ATOM     46  C   UNL A   1      38.827  29.471  29.014  1.00  0.00     0.031 C 
ATOM     47  C   UNL A   1      37.924  33.658  34.406  1.00  0.00     0.029 A 
ATOM     48  C   UNL A   1      39.025  32.706  34.516  1.00  0.00     0.049 A 
ATOM     49  H   UNL A   1      39.729  31.411  33.042  1.00  0.00     0.167 HD
ATOM     50  C   UNL A   1      40.772  28.373  30.086  1.00  0.00     0.034 A 
ATOM     51  C   UNL A   1      39.788  32.523  35.611  1.00  0.00     0.034 A 
ATOM     52  C   UNL A   1      41.764  28.248  31.120  1.00  0.00     0.049 A 
ATOM     53  C   UNL A   1      40.919  31.532  35.561  1.00  0.00     0.074 A 
ATOM     54  C   UNL A   1      42.869  27.417  31.157  1.00  0.00     0.029 A 
ATOM     55  N   UNL A   1      41.769  28.971  32.303  1.00  0.00    -0.354 N 
ATOM     56  N   UNL A   1      41.281  30.746  34.577  1.00  0.00    -0.248 NA
ATOM     57  C   UNL A   1      41.769  31.431  36.756  1.00  0.00     0.031 C 
ATOM     58  C   UNL A   1      43.535  27.626  32.370  1.00  0.00     0.029 A 
ATOM     59  C   UNL A   1      42.851  28.597  33.083  1.00  0.00     0.049 A 
ATOM     60  H   UNL A   1      41.102  29.649  32.553  1.00  0.00     0.167 HD
ATOM     61  C   UNL A   1      42.418  30.078  35.021  1.00  0.00     0.074 A 
ATOM     62  C   UNL A   1      42.696  30.570  36.354  1.00  0.00     0.031 C 
ATOM     63  C   UNL A   1      43.151  29.131  34.386  1.00  0.00     0.034 A 
BRANCH  50  64
ATOM     64  C   UNL A   1      40.862  27.447  28.901  1.00  0.00     0.023 A 
ATOM     65  C   UNL A   1      39.937  26.390  28.777  1.00  0.00     0.012 A 
ATOM     66  C   UNL A   1      41.817  27.652  27.887  1.00  0.00     0.148 A 
ATOM     67  C   UNL A   1      39.982  25.531  27.680  1.00  0.00     0.002 A 
ATOM     68  C   UNL A   1      41.830  26.816  26.775  1.00  0.00     0.091 A 
ATOM     69  F   UNL A   1      42.704  28.646  28.032  1.00  0.00    -0.205 F 
ATOM     70  C   UNL A   1      40.921  25.749  26.676  1.00  0.00     0.022 A 
BRANCH  68  71
ATOM     71  S   UNL A   1      42.953  27.065  25.395  1.00  0.00     0.127 S 
ATOM     72  O   UNL A   1      42.327  28.193  24.706  1.00  0.00    -0.237 OA
ATOM     73  O   UNL A   1      44.211  27.388  26.070  1.00  0.00    -0.237 OA
ATOM     74  O   UNL A   1      42.966  25.807  24.662  1.00  0.00    -0.744 OA
ENDBRANCH  68  71
ENDBRANCH  50  64
BRANCH  51  75
ATOM     75  C   UNL A   1      39.549  33.357  36.822  1.00  0.00     0.023 A 
ATOM     76  C   UNL A   1      40.020  34.684  36.849  1.00  0.00     0.012 A 
ATOM     77  C   UNL A   1      38.812  32.866  37.917  1.00  0.00     0.148 A 
ATOM     78  C   UNL A   1      39.784  35.500  37.956  1.00  0.00     0.002 A 
ATOM     79  C   UNL A   1      38.534  33.700  38.994  1.00  0.00     0.091 A 
ATOM     80  F   UNL A   1      38.384  31.596  37.877  1.00  0.00    -0.205 F 
ATOM     81  C   UNL A   1      39.032  35.013  39.021  1.00  0.00     0.022 A 
BRANCH  79  82
ATOM     82  S   UNL A   1      37.460  33.201  40.345  1.00  0.00     0.127 S 
ATOM     83  O   UNL A   1      37.425  34.410  41.162  1.00  0.00    -0.237 OA
ATOM     84  O   UNL A   1      36.213  32.895  39.644  1.00  0.00    -0.237 OA
ATOM     85  O   UNL A   1      38.104  32.042  40.949  1.00  0.00    -0.744 OA
ENDBRANCH  79  82
ENDBRANCH  51  75
BRANCH  63  86
ATOM     86  C   UNL A   1      44.343  28.566  35.114  1.00  0.00     0.023 A 
ATOM     87  C   UNL A   1      45.621  29.114  34.885  1.00  0.00     0.012 A 
ATOM     88  C   UNL A   1      44.188  27.554  36.080  1.00  0.00     0.148 A 
ATOM     89  C   UNL A   1      46.729  28.645  35.588  1.00  0.00     0.002 A 
ATOM     90  C   UNL A   1      45.290  27.122  36.809  1.00  0.00     0.091 A 
ATOM     91  F   UNL A   1      42.968  27.029  36.270  1.00  0.00    -0.205 F 
ATOM     92  C   UNL A   1      46.563  27.659  36.558  1.00  0.00     0.022 A 
BRANCH  90  93
ATOM     93  S   UNL A   1      45.148  25.923  38.140  1.00  0.00     0.127 S 
ATOM     94  O   UNL A   1      44.081  26.503  38.953  1.00  0.00    -0.237 OA
ATOM     95  O   UNL A   1      44.773  24.702  37.425  1.00  0.00    -0.237 OA
ATOM     96  O   UNL A   1      46.461  25.871  38.769  1.00  0.00    -0.744 OA
ENDBRANCH  90  93
ENDBRANCH  63  86
ENDBRANCH  37  38
ENDBRANCH  29  32
ENDBRANCH  27  28
ENDBRANCH  26  27
ENDBRANCH  25  26
ENDBRANCH   1  25
TORSDOF 19
ENDMDL
