MODEL 1
REMARK VINA RESULT:     -11.9      0.000      0.000
REMARK SMILES O=C(NCCCCNC(=O)c1cc(O)ccc1NC(=O)c1ccc(Br)nc1)c1ccc(-c2c3nc(c(-c4cccc(S(=O)(=O)[O-])c4F)c4ccc([nH]4)c(-c4cccc(S(=O)(=O)[O-])c4F)c4nc(c(-c5cccc(S(=O)(=O)[O-])c5F)c5ccc2[nH]5)C=C4)C=C3)cc1
REMARK SMILES IDX 5 1 4 2 3 3 1 4 2 5 28 7 29 8 90 9 30 10 89 11 31 12 32 13
REMARK SMILES IDX 33 14 83 15 34 16 88 17 82 18 84 19 35 20 87 21 81 22 80 23
REMARK SMILES IDX 36 25 68 26 48 27 67 28 49 29 52 30 66 31 85 32 50 33 51 34
REMARK SMILES IDX 65 36 86 37 53 38 37 39 38 40 46 41 39 42 41 43 47 44 40 45
REMARK SMILES IDX 42 46 43 47 44 48 45 49 69 50 70 51 78 52 71 53 73 54 79 55
REMARK SMILES IDX 72 56 74 57 75 58 76 59 77 60 54 61 55 62 63 63 56 64 58 65
REMARK SMILES IDX 64 66 57 67 59 68 60 69 61 70 62 71 6 72 7 73 8 74 9 75
REMARK SMILES IDX 10 77 11 78 12 79 17 80 13 81 16 82 15 83 18 84 19 85 20 87
REMARK SMILES IDX 21 88 22 89 27 90 23 91 26 92 24 93 25 94 14 95
REMARK H PARENT 3 6 84 24 52 35 8 76 18 86 14 96
REMARK Flexibility Score: inf
ROOT
ATOM      1  C   UNL A   1      33.435  28.695  24.527  1.00  0.00     0.023 C 
ENDROOT
BRANCH   1   2
ATOM      2  C   UNL A   1      32.641  28.879  25.816  1.00  0.00     0.116 C 
BRANCH   2   3
ATOM      3  N   UNL A   1      32.301  30.268  26.085  1.00  0.00    -0.352 N 
ATOM      4  O   UNL A   1      32.435  32.288  27.064  1.00  0.00    -0.269 OA
ATOM      5  C   UNL A   1      32.949  31.190  26.871  1.00  0.00     0.251 C 
ATOM      6  H   UNL A   1      31.488  30.595  25.637  1.00  0.00     0.163 HD
BRANCH   5   7
ATOM      7  C   UNL A   1      34.237  30.843  27.510  1.00  0.00     0.039 A 
ATOM      8  C   UNL A   1      34.488  29.547  27.970  1.00  0.00     0.014 A 
ATOM      9  C   UNL A   1      35.204  31.840  27.656  1.00  0.00     0.014 A 
ATOM     10  C   UNL A   1      35.646  29.282  28.696  1.00  0.00     0.010 A 
ATOM     11  C   UNL A   1      36.396  31.555  28.326  1.00  0.00     0.010 A 
ATOM     12  C   UNL A   1      36.610  30.285  28.884  1.00  0.00    -0.014 A 
BRANCH  12  13
ATOM     13  C   UNL A   1      37.856  29.993  29.634  1.00  0.00     0.031 A 
ATOM     14  C   UNL A   1      38.893  29.063  29.069  1.00  0.00     0.074 A 
ATOM     15  C   UNL A   1      38.033  30.545  30.850  1.00  0.00     0.049 A 
ATOM     16  N   UNL A   1      40.014  28.658  29.607  1.00  0.00    -0.248 NA
ATOM     17  C   UNL A   1      38.635  28.508  27.731  1.00  0.00     0.031 C 
ATOM     18  C   UNL A   1      37.078  31.433  31.515  1.00  0.00     0.029 A 
ATOM     19  N   UNL A   1      39.062  30.424  31.748  1.00  0.00    -0.354 N 
ATOM     20  C   UNL A   1      40.575  27.769  28.698  1.00  0.00     0.074 A 
ATOM     21  C   UNL A   1      39.669  27.690  27.572  1.00  0.00     0.031 C 
ATOM     22  C   UNL A   1      37.563  31.773  32.718  1.00  0.00     0.029 A 
ATOM     23  C   UNL A   1      38.839  31.096  32.926  1.00  0.00     0.049 A 
ATOM     24  H   UNL A   1      39.879  29.906  31.568  1.00  0.00     0.167 HD
ATOM     25  C   UNL A   1      41.746  27.094  28.785  1.00  0.00     0.034 A 
ATOM     26  C   UNL A   1      39.568  31.148  34.058  1.00  0.00     0.034 A 
ATOM     27  C   UNL A   1      42.664  27.209  29.886  1.00  0.00     0.049 A 
ATOM     28  C   UNL A   1      40.877  30.414  34.117  1.00  0.00     0.074 A 
ATOM     29  C   UNL A   1      43.908  26.619  30.034  1.00  0.00     0.029 A 
ATOM     30  N   UNL A   1      42.441  27.961  31.029  1.00  0.00    -0.354 N 
ATOM     31  N   UNL A   1      41.452  29.682  33.194  1.00  0.00    -0.248 NA
ATOM     32  C   UNL A   1      41.654  30.536  35.358  1.00  0.00     0.031 C 
ATOM     33  C   UNL A   1      44.432  27.009  31.272  1.00  0.00     0.029 A 
ATOM     34  C   UNL A   1      43.519  27.849  31.890  1.00  0.00     0.049 A 
ATOM     35  H   UNL A   1      41.633  28.497  31.203  1.00  0.00     0.167 HD
ATOM     36  C   UNL A   1      42.668  29.279  33.729  1.00  0.00     0.074 A 
ATOM     37  C   UNL A   1      42.755  29.862  35.053  1.00  0.00     0.031 C 
ATOM     38  C   UNL A   1      43.618  28.484  33.180  1.00  0.00     0.034 A 
BRANCH  25  39
ATOM     39  C   UNL A   1      42.127  26.203  27.633  1.00  0.00     0.023 A 
ATOM     40  C   UNL A   1      42.858  26.739  26.555  1.00  0.00     0.012 A 
ATOM     41  C   UNL A   1      41.813  24.829  27.639  1.00  0.00     0.148 A 
ATOM     42  C   UNL A   1      43.249  25.930  25.488  1.00  0.00     0.002 A 
ATOM     43  C   UNL A   1      42.237  24.022  26.589  1.00  0.00     0.091 A 
ATOM     44  F   UNL A   1      41.093  24.338  28.659  1.00  0.00    -0.205 F 
ATOM     45  C   UNL A   1      42.947  24.571  25.510  1.00  0.00     0.022 A 
BRANCH  43  46
ATOM     46  S   UNL A   1      41.946  22.248  26.578  1.00  0.00     0.127 S 
ATOM     47  O   UNL A   1      42.546  21.841  27.847  1.00  0.00    -0.237 OA
ATOM     48  O   UNL A   1      40.486  22.166  26.540  1.00  0.00    -0.237 OA
ATOM     49  O   UNL A   1      42.604  21.755  25.375  1.00  0.00    -0.744 OA
ENDBRANCH  43  46
ENDBRANCH  25  39
BRANCH  26  50
ATOM     50  C   UNL A   1      39.085  31.979  35.194  1.00  0.00     0.023 A 
ATOM     51  C   UNL A   1      38.191  31.420  36.126  1.00  0.00     0.012 A 
ATOM     52  C   UNL A   1      39.575  33.283  35.406  1.00  0.00     0.148 A 
ATOM     53  C   UNL A   1      37.786  32.148  37.245  1.00  0.00     0.002 A 
ATOM     54  C   UNL A   1      39.211  33.982  36.550  1.00  0.00     0.091 A 
ATOM     55  F   UNL A   1      40.415  33.801  34.497  1.00  0.00    -0.205 F 
ATOM     56  C   UNL A   1      38.307  33.421  37.465  1.00  0.00     0.022 A 
BRANCH  54  57
ATOM     57  S   UNL A   1      39.948  35.561  36.986  1.00  0.00     0.127 S 
ATOM     58  O   UNL A   1      39.276  35.866  38.246  1.00  0.00    -0.237 OA
ATOM     59  O   UNL A   1      41.364  35.211  37.112  1.00  0.00    -0.237 OA
ATOM     60  O   UNL A   1      39.649  36.452  35.875  1.00  0.00    -0.744 OA
ENDBRANCH  54  57
ENDBRANCH  26  50
BRANCH  38  61
ATOM     61  C   UNL A   1      44.855  28.211  33.991  1.00  0.00     0.023 A 
ATOM     62  C   UNL A   1      45.933  29.117  33.937  1.00  0.00     0.012 A 
ATOM     63  C   UNL A   1      44.913  27.114  34.873  1.00  0.00     0.148 A 
ATOM     64  C   UNL A   1      47.058  28.923  34.737  1.00  0.00     0.002 A 
ATOM     65  C   UNL A   1      46.022  26.951  35.696  1.00  0.00     0.091 A 
ATOM     66  F   UNL A   1      43.885  26.254  34.892  1.00  0.00    -0.205 F 
ATOM     67  C   UNL A   1      47.098  27.850  35.624  1.00  0.00     0.022 A 
BRANCH  65  68
ATOM     68  S   UNL A   1      46.115  25.646  36.927  1.00  0.00     0.127 S 
ATOM     69  O   UNL A   1      44.956  25.945  37.766  1.00  0.00    -0.237 OA
ATOM     70  O   UNL A   1      45.984  24.436  36.114  1.00  0.00    -0.237 OA
ATOM     71  O   UNL A   1      47.413  25.799  37.571  1.00  0.00    -0.744 OA
ENDBRANCH  65  68
ENDBRANCH  38  61
ENDBRANCH  12  13
ENDBRANCH   5   7
ENDBRANCH   2   3
ENDBRANCH   1   2
BRANCH   1  72
ATOM     72  C   UNL A   1      32.697  29.059  23.241  1.00  0.00     0.023 C 
BRANCH  72  73
ATOM     73  C   UNL A   1      31.431  28.254  22.968  1.00  0.00     0.116 C 
BRANCH  73  74
ATOM     74  N   UNL A   1      31.655  27.134  22.062  1.00  0.00    -0.352 N 
ATOM     75  C   UNL A   1      31.861  25.810  22.365  1.00  0.00     0.253 C 
ATOM     76  H   UNL A   1      31.657  27.357  21.104  1.00  0.00     0.163 HD
ATOM     77  O   UNL A   1      32.192  25.003  21.503  1.00  0.00    -0.269 OA
BRANCH  75  78
ATOM     78  C   UNL A   1      31.741  25.371  23.770  1.00  0.00     0.067 A 
ATOM     79  C   UNL A   1      30.467  25.407  24.363  1.00  0.00     0.062 A 
ATOM     80  C   UNL A   1      32.883  24.997  24.504  1.00  0.00     0.054 A 
ATOM     81  C   UNL A   1      30.355  25.219  25.729  1.00  0.00     0.116 A 
ATOM     82  C   UNL A   1      32.744  24.909  25.891  1.00  0.00     0.031 A 
ATOM     83  C   UNL A   1      31.487  25.010  26.501  1.00  0.00     0.048 A 
BRANCH  80  84
ATOM     84  N   UNL A   1      34.102  24.752  23.820  1.00  0.00    -0.321 N 
ATOM     85  C   UNL A   1      34.835  23.609  23.596  1.00  0.00     0.257 C 
ATOM     86  H   UNL A   1      34.503  25.562  23.428  1.00  0.00     0.170 HD
ATOM     87  O   UNL A   1      35.962  23.667  23.110  1.00  0.00    -0.269 OA
BRANCH  85  88
ATOM     88  C   UNL A   1      34.288  22.277  23.877  1.00  0.00     0.058 A 
ATOM     89  C   UNL A   1      33.027  21.876  23.434  1.00  0.00     0.018 A 
ATOM     90  C   UNL A   1      35.044  21.389  24.627  1.00  0.00     0.126 A 
ATOM     91  C   UNL A   1      32.533  20.637  23.841  1.00  0.00     0.037 A 
ATOM     92  N   UNL A   1      34.586  20.180  25.034  1.00  0.00    -0.249 NA
ATOM     93  C   UNL A   1      33.337  19.837  24.645  1.00  0.00     0.106 A 
ATOM     94  Br  UNL A   1      32.643  18.189  25.275  1.00  0.00    -0.029 Br
ENDBRANCH  85  88
ENDBRANCH  80  84
BRANCH  81  95
ATOM     95  O   UNL A   1      29.154  25.282  26.364  1.00  0.00    -0.508 OA
ATOM     96  H   UNL A   1      28.747  26.113  26.515  1.00  0.00     0.293 HD
ENDBRANCH  81  95
ENDBRANCH  75  78
ENDBRANCH  73  74
ENDBRANCH  72  73
ENDBRANCH   1  72
TORSDOF 17
ENDMDL
MODEL 2
REMARK VINA RESULT:     -11.8      4.776      9.724
REMARK SMILES O=C(NCCCCNC(=O)c1cc(O)ccc1NC(=O)c1ccc(Br)nc1)c1ccc(-c2c3nc(c(-c4cccc(S(=O)(=O)[O-])c4F)c4ccc([nH]4)c(-c4cccc(S(=O)(=O)[O-])c4F)c4nc(c(-c5cccc(S(=O)(=O)[O-])c5F)c5ccc2[nH]5)C=C4)C=C3)cc1
REMARK SMILES IDX 5 1 4 2 3 3 1 4 2 5 28 7 29 8 90 9 30 10 89 11 31 12 32 13
REMARK SMILES IDX 33 14 83 15 34 16 88 17 82 18 84 19 35 20 87 21 81 22 80 23
REMARK SMILES IDX 36 25 68 26 48 27 67 28 49 29 52 30 66 31 85 32 50 33 51 34
REMARK SMILES IDX 65 36 86 37 53 38 37 39 38 40 46 41 39 42 41 43 47 44 40 45
REMARK SMILES IDX 42 46 43 47 44 48 45 49 69 50 70 51 78 52 71 53 73 54 79 55
REMARK SMILES IDX 72 56 74 57 75 58 76 59 77 60 54 61 55 62 63 63 56 64 58 65
REMARK SMILES IDX 64 66 57 67 59 68 60 69 61 70 62 71 6 72 7 73 8 74 9 75
REMARK SMILES IDX 10 77 11 78 12 79 17 80 13 81 16 82 15 83 18 84 19 85 20 87
REMARK SMILES IDX 21 88 22 89 27 90 23 91 26 92 24 93 25 94 14 95
REMARK H PARENT 3 6 84 24 52 35 8 76 18 86 14 96
REMARK Flexibility Score: inf
ROOT
ATOM      1  C   UNL A   1      35.074  22.609  26.705  1.00  0.00     0.023 C 
ENDROOT
BRANCH   1   2
ATOM      2  C   UNL A   1      35.906  22.518  25.430  1.00  0.00     0.116 C 
BRANCH   2   3
ATOM      3  N   UNL A   1      36.851  21.412  25.441  1.00  0.00    -0.352 N 
ATOM      4  O   UNL A   1      38.846  20.386  25.588  1.00  0.00    -0.269 OA
ATOM      5  C   UNL A   1      38.190  21.409  25.753  1.00  0.00     0.251 C 
ATOM      6  H   UNL A   1      36.477  20.538  25.189  1.00  0.00     0.163 HD
BRANCH   5   7
ATOM      7  C   UNL A   1      38.838  22.644  26.246  1.00  0.00     0.039 A 
ATOM      8  C   UNL A   1      38.468  23.898  25.752  1.00  0.00     0.014 A 
ATOM      9  C   UNL A   1      39.838  22.537  27.214  1.00  0.00     0.014 A 
ATOM     10  C   UNL A   1      39.190  25.030  26.123  1.00  0.00     0.010 A 
ATOM     11  C   UNL A   1      40.517  23.682  27.637  1.00  0.00     0.010 A 
ATOM     12  C   UNL A   1      40.225  24.931  27.067  1.00  0.00    -0.014 A 
BRANCH  12  13
ATOM     13  C   UNL A   1      40.975  26.142  27.483  1.00  0.00     0.031 A 
ATOM     14  C   UNL A   1      40.303  27.229  28.273  1.00  0.00     0.074 A 
ATOM     15  C   UNL A   1      42.263  26.274  27.110  1.00  0.00     0.049 A 
ATOM     16  N   UNL A   1      40.791  28.373  28.677  1.00  0.00    -0.248 NA
ATOM     17  C   UNL A   1      38.898  27.009  28.653  1.00  0.00     0.031 C 
ATOM     18  C   UNL A   1      43.008  25.301  26.310  1.00  0.00     0.029 A 
ATOM     19  N   UNL A   1      43.162  27.284  27.334  1.00  0.00    -0.354 N 
ATOM     20  C   UNL A   1      39.747  29.028  29.319  1.00  0.00     0.074 A 
ATOM     21  C   UNL A   1      38.594  28.155  29.249  1.00  0.00     0.031 C 
ATOM     22  C   UNL A   1      44.250  25.763  26.105  1.00  0.00     0.029 A 
ATOM     23  C   UNL A   1      44.376  27.080  26.723  1.00  0.00     0.049 A 
ATOM     24  H   UNL A   1      42.958  28.078  27.879  1.00  0.00     0.167 HD
ATOM     25  C   UNL A   1      39.752  30.240  29.926  1.00  0.00     0.034 A 
ATOM     26  C   UNL A   1      45.464  27.871  26.647  1.00  0.00     0.034 A 
ATOM     27  C   UNL A   1      40.911  31.085  30.031  1.00  0.00     0.049 A 
ATOM     28  C   UNL A   1      45.454  29.196  27.354  1.00  0.00     0.074 A 
ATOM     29  C   UNL A   1      41.034  32.298  30.686  1.00  0.00     0.029 A 
ATOM     30  N   UNL A   1      42.147  30.810  29.465  1.00  0.00    -0.354 N 
ATOM     31  N   UNL A   1      44.498  29.740  28.067  1.00  0.00    -0.248 NA
ATOM     32  C   UNL A   1      46.679  30.002  27.275  1.00  0.00     0.031 C 
ATOM     33  C   UNL A   1      42.344  32.760  30.509  1.00  0.00     0.029 A 
ATOM     34  C   UNL A   1      43.038  31.830  29.751  1.00  0.00     0.049 A 
ATOM     35  H   UNL A   1      42.359  30.006  28.937  1.00  0.00     0.167 HD
ATOM     36  C   UNL A   1      45.013  30.938  28.544  1.00  0.00     0.074 A 
ATOM     37  C   UNL A   1      46.373  31.033  28.053  1.00  0.00     0.031 C 
ATOM     38  C   UNL A   1      44.407  31.881  29.306  1.00  0.00     0.034 A 
BRANCH  25  39
ATOM     39  C   UNL A   1      38.473  30.705  30.568  1.00  0.00     0.023 A 
ATOM     40  C   UNL A   1      38.259  30.463  31.940  1.00  0.00     0.012 A 
ATOM     41  C   UNL A   1      37.510  31.428  29.836  1.00  0.00     0.148 A 
ATOM     42  C   UNL A   1      37.096  30.908  32.567  1.00  0.00     0.002 A 
ATOM     43  C   UNL A   1      36.369  31.899  30.477  1.00  0.00     0.091 A 
ATOM     44  F   UNL A   1      37.714  31.626  28.526  1.00  0.00    -0.205 F 
ATOM     45  C   UNL A   1      36.157  31.634  31.840  1.00  0.00     0.022 A 
BRANCH  43  46
ATOM     46  S   UNL A   1      35.145  32.900  29.623  1.00  0.00     0.127 S 
ATOM     47  O   UNL A   1      34.696  31.988  28.573  1.00  0.00    -0.237 OA
ATOM     48  O   UNL A   1      34.156  33.156  30.671  1.00  0.00    -0.237 OA
ATOM     49  O   UNL A   1      35.860  34.087  29.174  1.00  0.00    -0.744 OA
ENDBRANCH  43  46
ENDBRANCH  25  39
BRANCH  26  50
ATOM     50  C   UNL A   1      46.665  27.383  25.916  1.00  0.00     0.023 A 
ATOM     51  C   UNL A   1      46.805  27.677  24.547  1.00  0.00     0.012 A 
ATOM     52  C   UNL A   1      47.706  26.713  26.588  1.00  0.00     0.148 A 
ATOM     53  C   UNL A   1      47.958  27.303  23.856  1.00  0.00     0.002 A 
ATOM     54  C   UNL A   1      48.875  26.393  25.908  1.00  0.00     0.091 A 
ATOM     55  F   UNL A   1      47.545  26.431  27.889  1.00  0.00    -0.205 F 
ATOM     56  C   UNL A   1      48.998  26.676  24.538  1.00  0.00     0.022 A 
BRANCH  54  57
ATOM     57  S   UNL A   1      50.318  25.720  26.741  1.00  0.00     0.127 S 
ATOM     58  O   UNL A   1      49.798  24.463  27.271  1.00  0.00    -0.237 OA
ATOM     59  O   UNL A   1      51.267  25.578  25.635  1.00  0.00    -0.237 OA
ATOM     60  O   UNL A   1      50.698  26.718  27.730  1.00  0.00    -0.744 OA
ENDBRANCH  54  57
ENDBRANCH  26  50
BRANCH  38  61
ATOM     61  C   UNL A   1      45.212  33.094  29.686  1.00  0.00     0.023 A 
ATOM     62  C   UNL A   1      46.000  33.065  30.854  1.00  0.00     0.012 A 
ATOM     63  C   UNL A   1      45.261  34.221  28.843  1.00  0.00     0.148 A 
ATOM     64  C   UNL A   1      46.811  34.149  31.185  1.00  0.00     0.002 A 
ATOM     65  C   UNL A   1      46.102  35.282  29.160  1.00  0.00     0.091 A 
ATOM     66  F   UNL A   1      44.486  34.236  27.749  1.00  0.00    -0.205 F 
ATOM     67  C   UNL A   1      46.873  35.250  30.334  1.00  0.00     0.022 A 
BRANCH  65  68
ATOM     68  S   UNL A   1      46.307  36.699  28.076  1.00  0.00     0.127 S 
ATOM     69  O   UNL A   1      47.347  37.457  28.769  1.00  0.00    -0.237 OA
ATOM     70  O   UNL A   1      46.737  36.076  26.823  1.00  0.00    -0.237 OA
ATOM     71  O   UNL A   1      45.000  37.341  28.009  1.00  0.00    -0.744 OA
ENDBRANCH  65  68
ENDBRANCH  38  61
ENDBRANCH  12  13
ENDBRANCH   5   7
ENDBRANCH   2   3
ENDBRANCH   1   2
BRANCH   1  72
ATOM     72  C   UNL A   1      34.111  21.448  26.947  1.00  0.00     0.023 C 
BRANCH  72  73
ATOM     73  C   UNL A   1      33.147  21.155  25.803  1.00  0.00     0.116 C 
BRANCH  73  74
ATOM     74  N   UNL A   1      31.823  21.729  26.015  1.00  0.00    -0.352 N 
ATOM     75  C   UNL A   1      31.296  22.890  25.502  1.00  0.00     0.253 C 
ATOM     76  H   UNL A   1      31.227  21.215  26.605  1.00  0.00     0.163 HD
ATOM     77  O   UNL A   1      30.220  23.329  25.894  1.00  0.00    -0.269 OA
BRANCH  75  78
ATOM     78  C   UNL A   1      32.078  23.650  24.506  1.00  0.00     0.067 A 
ATOM     79  C   UNL A   1      32.195  23.111  23.213  1.00  0.00     0.062 A 
ATOM     80  C   UNL A   1      32.737  24.840  24.869  1.00  0.00     0.054 A 
ATOM     81  C   UNL A   1      33.095  23.677  22.328  1.00  0.00     0.116 A 
ATOM     82  C   UNL A   1      33.705  25.324  23.985  1.00  0.00     0.031 A 
ATOM     83  C   UNL A   1      33.877  24.753  22.718  1.00  0.00     0.048 A 
BRANCH  80  84
ATOM     84  N   UNL A   1      32.413  25.469  26.098  1.00  0.00    -0.321 N 
ATOM     85  C   UNL A   1      31.797  26.662  26.405  1.00  0.00     0.257 C 
ATOM     86  H   UNL A   1      32.683  24.950  26.890  1.00  0.00     0.170 HD
ATOM     87  O   UNL A   1      31.772  27.081  27.560  1.00  0.00    -0.269 OA
BRANCH  85  88
ATOM     88  C   UNL A   1      31.103  27.454  25.383  1.00  0.00     0.058 A 
ATOM     89  C   UNL A   1      30.169  26.896  24.509  1.00  0.00     0.018 A 
ATOM     90  C   UNL A   1      31.399  28.804  25.269  1.00  0.00     0.126 A 
ATOM     91  C   UNL A   1      29.642  27.691  23.491  1.00  0.00     0.037 A 
ATOM     92  N   UNL A   1      30.898  29.596  24.290  1.00  0.00    -0.249 NA
ATOM     93  C   UNL A   1      30.044  29.020  23.415  1.00  0.00     0.106 A 
ATOM     94  Br  UNL A   1      29.398  30.087  21.987  1.00  0.00    -0.029 Br
ENDBRANCH  85  88
ENDBRANCH  80  84
BRANCH  81  95
ATOM     95  O   UNL A   1      33.281  23.174  21.077  1.00  0.00    -0.508 OA
ATOM     96  H   UNL A   1      32.628  22.624  20.692  1.00  0.00     0.293 HD
ENDBRANCH  81  95
ENDBRANCH  75  78
ENDBRANCH  73  74
ENDBRANCH  72  73
ENDBRANCH   1  72
TORSDOF 17
ENDMDL
MODEL 3
REMARK VINA RESULT:     -11.8      2.351      3.199
REMARK SMILES O=C(NCCCCNC(=O)c1cc(O)ccc1NC(=O)c1ccc(Br)nc1)c1ccc(-c2c3nc(c(-c4cccc(S(=O)(=O)[O-])c4F)c4ccc([nH]4)c(-c4cccc(S(=O)(=O)[O-])c4F)c4nc(c(-c5cccc(S(=O)(=O)[O-])c5F)c5ccc2[nH]5)C=C4)C=C3)cc1
REMARK SMILES IDX 5 1 4 2 3 3 1 4 2 5 28 7 29 8 90 9 30 10 89 11 31 12 32 13
REMARK SMILES IDX 33 14 83 15 34 16 88 17 82 18 84 19 35 20 87 21 81 22 80 23
REMARK SMILES IDX 36 25 68 26 48 27 67 28 49 29 52 30 66 31 85 32 50 33 51 34
REMARK SMILES IDX 65 36 86 37 53 38 37 39 38 40 46 41 39 42 41 43 47 44 40 45
REMARK SMILES IDX 42 46 43 47 44 48 45 49 69 50 70 51 78 52 71 53 73 54 79 55
REMARK SMILES IDX 72 56 74 57 75 58 76 59 77 60 54 61 55 62 63 63 56 64 58 65
REMARK SMILES IDX 64 66 57 67 59 68 60 69 61 70 62 71 6 72 7 73 8 74 9 75
REMARK SMILES IDX 10 77 11 78 12 79 17 80 13 81 16 82 15 83 18 84 19 85 20 87
REMARK SMILES IDX 21 88 22 89 27 90 23 91 26 92 24 93 25 94 14 95
REMARK H PARENT 3 6 84 24 52 35 8 76 18 86 14 96
REMARK Flexibility Score: inf
ROOT
ATOM      1  C   UNL A   1      31.443  31.702  26.520  1.00  0.00     0.023 C 
ENDROOT
BRANCH   1   2
ATOM      2  C   UNL A   1      32.704  32.425  26.981  1.00  0.00     0.116 C 
BRANCH   2   3
ATOM      3  N   UNL A   1      32.451  33.785  27.431  1.00  0.00    -0.352 N 
ATOM      4  O   UNL A   1      32.638  35.614  28.726  1.00  0.00    -0.269 OA
ATOM      5  C   UNL A   1      33.079  34.512  28.414  1.00  0.00     0.251 C 
ATOM      6  H   UNL A   1      31.723  34.253  26.963  1.00  0.00     0.163 HD
BRANCH   5   7
ATOM      7  C   UNL A   1      34.254  33.949  29.115  1.00  0.00     0.039 A 
ATOM      8  C   UNL A   1      35.544  34.418  28.849  1.00  0.00     0.014 A 
ATOM      9  C   UNL A   1      34.055  32.929  30.047  1.00  0.00     0.014 A 
ATOM     10  C   UNL A   1      36.644  33.776  29.411  1.00  0.00     0.010 A 
ATOM     11  C   UNL A   1      35.157  32.330  30.662  1.00  0.00     0.010 A 
ATOM     12  C   UNL A   1      36.461  32.722  30.321  1.00  0.00    -0.014 A 
BRANCH  12  13
ATOM     13  C   UNL A   1      37.633  32.058  30.941  1.00  0.00     0.031 A 
ATOM     14  C   UNL A   1      38.416  31.019  30.188  1.00  0.00     0.074 A 
ATOM     15  C   UNL A   1      37.968  32.371  32.207  1.00  0.00     0.049 A 
ATOM     16  N   UNL A   1      39.434  30.305  30.591  1.00  0.00    -0.248 NA
ATOM     17  C   UNL A   1      37.998  30.739  28.805  1.00  0.00     0.031 C 
ATOM     18  C   UNL A   1      37.258  33.336  33.049  1.00  0.00     0.029 A 
ATOM     19  N   UNL A   1      38.971  31.896  33.013  1.00  0.00    -0.354 N 
ATOM     20  C   UNL A   1      39.752  29.461  29.534  1.00  0.00     0.074 A 
ATOM     21  C   UNL A   1      38.816  29.750  28.468  1.00  0.00     0.031 C 
ATOM     22  C   UNL A   1      37.845  33.379  34.254  1.00  0.00     0.029 A 
ATOM     23  C   UNL A   1      38.943  32.418  34.284  1.00  0.00     0.049 A 
ATOM     24  H   UNL A   1      39.645  31.246  32.711  1.00  0.00     0.167 HD
ATOM     25  C   UNL A   1      40.744  28.542  29.451  1.00  0.00     0.034 A 
ATOM     26  C   UNL A   1      39.701  32.141  35.363  1.00  0.00     0.034 A 
ATOM     27  C   UNL A   1      41.699  28.290  30.497  1.00  0.00     0.049 A 
ATOM     28  C   UNL A   1      40.813  31.140  35.236  1.00  0.00     0.074 A 
ATOM     29  C   UNL A   1      42.783  27.428  30.482  1.00  0.00     0.029 A 
ATOM     30  N   UNL A   1      41.687  28.893  31.745  1.00  0.00    -0.354 N 
ATOM     31  N   UNL A   1      41.179  30.446  34.185  1.00  0.00    -0.248 NA
ATOM     32  C   UNL A   1      41.636  30.903  36.430  1.00  0.00     0.031 C 
ATOM     33  C   UNL A   1      43.420  27.506  31.725  1.00  0.00     0.029 A 
ATOM     34  C   UNL A   1      42.739  28.422  32.511  1.00  0.00     0.049 A 
ATOM     35  H   UNL A   1      41.026  29.560  32.042  1.00  0.00     0.167 HD
ATOM     36  C   UNL A   1      42.290  29.713  34.581  1.00  0.00     0.074 A 
ATOM     37  C   UNL A   1      42.548  30.059  35.964  1.00  0.00     0.031 C 
ATOM     38  C   UNL A   1      43.019  28.821  33.867  1.00  0.00     0.034 A 
BRANCH  25  39
ATOM     39  C   UNL A   1      40.878  27.771  28.166  1.00  0.00     0.023 A 
ATOM     40  C   UNL A   1      41.505  28.376  27.058  1.00  0.00     0.012 A 
ATOM     41  C   UNL A   1      40.438  26.436  28.066  1.00  0.00     0.148 A 
ATOM     42  C   UNL A   1      41.668  27.675  25.863  1.00  0.00     0.002 A 
ATOM     43  C   UNL A   1      40.636  25.733  26.883  1.00  0.00     0.091 A 
ATOM     44  F   UNL A   1      39.818  25.884  29.119  1.00  0.00    -0.205 F 
ATOM     45  C   UNL A   1      41.243  26.352  25.779  1.00  0.00     0.022 A 
BRANCH  43  46
ATOM     46  S   UNL A   1      40.177  24.003  26.719  1.00  0.00     0.127 S 
ATOM     47  O   UNL A   1      41.197  23.512  25.794  1.00  0.00    -0.237 OA
ATOM     48  O   UNL A   1      40.310  23.507  28.089  1.00  0.00    -0.237 OA
ATOM     49  O   UNL A   1      38.811  24.010  26.215  1.00  0.00    -0.744 OA
ENDBRANCH  43  46
ENDBRANCH  25  39
BRANCH  26  50
ATOM     50  C   UNL A   1      39.453  32.879  36.632  1.00  0.00     0.023 A 
ATOM     51  C   UNL A   1      40.023  34.153  36.811  1.00  0.00     0.012 A 
ATOM     52  C   UNL A   1      38.586  32.366  37.616  1.00  0.00     0.148 A 
ATOM     53  C   UNL A   1      39.741  34.901  37.954  1.00  0.00     0.002 A 
ATOM     54  C   UNL A   1      38.265  33.139  38.726  1.00  0.00     0.091 A 
ATOM     55  F   UNL A   1      38.065  31.144  37.431  1.00  0.00    -0.205 F 
ATOM     56  C   UNL A   1      38.852  34.402  38.903  1.00  0.00     0.022 A 
BRANCH  54  57
ATOM     57  S   UNL A   1      37.018  32.637  39.918  1.00  0.00     0.127 S 
ATOM     58  O   UNL A   1      37.575  31.386  40.424  1.00  0.00    -0.237 OA
ATOM     59  O   UNL A   1      37.040  33.751  40.867  1.00  0.00    -0.237 OA
ATOM     60  O   UNL A   1      35.779  32.521  39.162  1.00  0.00    -0.744 OA
ENDBRANCH  54  57
ENDBRANCH  26  50
BRANCH  38  61
ATOM     61  C   UNL A   1      44.189  28.168  34.551  1.00  0.00     0.023 A 
ATOM     62  C   UNL A   1      45.468  28.751  34.446  1.00  0.00     0.012 A 
ATOM     63  C   UNL A   1      44.006  27.037  35.371  1.00  0.00     0.148 A 
ATOM     64  C   UNL A   1      46.551  28.206  35.134  1.00  0.00     0.002 A 
ATOM     65  C   UNL A   1      45.084  26.523  36.083  1.00  0.00     0.091 A 
ATOM     66  F   UNL A   1      42.786  26.486  35.438  1.00  0.00    -0.205 F 
ATOM     67  C   UNL A   1      46.357  27.102  35.961  1.00  0.00     0.022 A 
BRANCH  65  68
ATOM     68  S   UNL A   1      44.903  25.158  37.237  1.00  0.00     0.127 S 
ATOM     69  O   UNL A   1      46.263  25.028  37.759  1.00  0.00    -0.237 OA
ATOM     70  O   UNL A   1      43.930  25.683  38.195  1.00  0.00    -0.237 OA
ATOM     71  O   UNL A   1      44.423  24.031  36.448  1.00  0.00    -0.744 OA
ENDBRANCH  65  68
ENDBRANCH  38  61
ENDBRANCH  12  13
ENDBRANCH   5   7
ENDBRANCH   2   3
ENDBRANCH   1   2
BRANCH   1  72
ATOM     72  C   UNL A   1      31.481  30.179  26.627  1.00  0.00     0.023 C 
BRANCH  72  73
ATOM     73  C   UNL A   1      31.603  29.439  25.300  1.00  0.00     0.116 C 
BRANCH  73  74
ATOM     74  N   UNL A   1      30.994  30.160  24.189  1.00  0.00    -0.352 N 
ATOM     75  C   UNL A   1      30.235  29.666  23.155  1.00  0.00     0.253 C 
ATOM     76  H   UNL A   1      31.146  31.132  24.179  1.00  0.00     0.163 HD
ATOM     77  O   UNL A   1      29.919  30.373  22.203  1.00  0.00    -0.269 OA
BRANCH  75  78
ATOM     78  C   UNL A   1      29.850  28.241  23.168  1.00  0.00     0.067 A 
ATOM     79  C   UNL A   1      28.561  27.913  23.619  1.00  0.00     0.062 A 
ATOM     80  C   UNL A   1      30.778  27.246  22.805  1.00  0.00     0.054 A 
ATOM     81  C   UNL A   1      28.247  26.586  23.853  1.00  0.00     0.116 A 
ATOM     82  C   UNL A   1      30.460  25.928  23.146  1.00  0.00     0.031 A 
ATOM     83  C   UNL A   1      29.199  25.597  23.658  1.00  0.00     0.048 A 
BRANCH  80  84
ATOM     84  N   UNL A   1      31.977  27.617  22.144  1.00  0.00    -0.321 N 
ATOM     85  C   UNL A   1      33.302  27.329  22.379  1.00  0.00     0.257 C 
ATOM     86  H   UNL A   1      31.831  28.197  21.362  1.00  0.00     0.170 HD
ATOM     87  O   UNL A   1      34.193  27.906  21.759  1.00  0.00    -0.269 OA
BRANCH  85  88
ATOM     88  C   UNL A   1      33.706  26.291  23.334  1.00  0.00     0.058 A 
ATOM     89  C   UNL A   1      33.834  26.539  24.701  1.00  0.00     0.018 A 
ATOM     90  C   UNL A   1      33.988  25.019  22.859  1.00  0.00     0.126 A 
ATOM     91  C   UNL A   1      34.335  25.531  25.524  1.00  0.00     0.037 A 
ATOM     92  N   UNL A   1      34.474  24.023  23.639  1.00  0.00    -0.249 NA
ATOM     93  C   UNL A   1      34.650  24.305  24.950  1.00  0.00     0.106 A 
ATOM     94  Br  UNL A   1      35.409  22.955  26.043  1.00  0.00    -0.029 Br
ENDBRANCH  85  88
ENDBRANCH  80  84
BRANCH  81  95
ATOM     95  O   UNL A   1      27.028  26.211  24.327  1.00  0.00    -0.508 OA
ATOM     96  H   UNL A   1      26.954  25.829  25.180  1.00  0.00     0.293 HD
ENDBRANCH  81  95
ENDBRANCH  75  78
ENDBRANCH  73  74
ENDBRANCH  72  73
ENDBRANCH   1  72
TORSDOF 17
ENDMDL
