MODEL 1
REMARK VINA RESULT:     -12.9      0.000      0.000
REMARK SMILES CC1=CC2=[NH+]C(=O)C[C@@](C)(C(=O)NCCCCNC(=O)c3ccc(-c4c5nc(c(-c6cccc(S(=O)(=O)[O-])c6F)c6ccc([nH]6)c(-c6cccc(S(=O)(=O)[O-])c6F)c6nc(c(-c7cccc(S(=O)(=O)[O-])c7F)c7ccc4[nH]7)C=C6)C=C5)cc3)N2C=C1
REMARK SMILES IDX 17 1 16 2 15 3 14 4 13 5 11 6 12 7 9 9 1 10 2 11 3 12 86 13
REMARK SMILES IDX 4 14 85 15 5 16 84 17 6 18 7 20 8 21 10 22 18 23 19 24 20 26
REMARK SMILES IDX 21 27 22 28 83 29 23 30 82 31 24 32 25 33 26 34 76 35 27 36
REMARK SMILES IDX 81 37 75 38 77 39 28 40 80 41 74 42 73 43 29 45 61 46 41 47
REMARK SMILES IDX 60 48 42 49 45 50 59 51 78 52 43 53 44 54 58 56 79 57 46 58
REMARK SMILES IDX 30 59 31 60 39 61 32 62 34 63 40 64 33 65 35 66 36 67 37 68
REMARK SMILES IDX 38 69 62 70 63 71 71 72 64 73 66 74 72 75 65 76 67 77 68 78
REMARK SMILES IDX 69 79 70 80 47 81 48 82 56 83 49 84 51 85 57 86 50 87 52 88
REMARK SMILES IDX 53 89 54 90 55 91
REMARK H PARENT 13 8 5 19 18 25 77 44 45 55
REMARK Flexibility Score: inf
ROOT
ATOM      1  C   UNL A   1      36.786  21.675  25.735  1.00  0.00     0.116 C 
ENDROOT
BRANCH   1   2
ATOM      2  C   UNL A   1      35.784  21.634  24.596  1.00  0.00     0.023 C 
BRANCH   2   3
ATOM      3  C   UNL A   1      35.761  22.842  23.670  1.00  0.00     0.023 C 
BRANCH   3   4
ATOM      4  C   UNL A   1      35.022  24.089  24.153  1.00  0.00     0.116 C 
BRANCH   4   5
ATOM      5  N   UNL A   1      34.094  24.729  23.237  1.00  0.00    -0.352 N 
ATOM      6  C   UNL A   1      32.797  25.135  23.425  1.00  0.00     0.268 C 
ATOM      7  O   UNL A   1      32.486  26.183  22.849  1.00  0.00    -0.270 OA
ATOM      8  H   UNL A   1      34.454  24.899  22.337  1.00  0.00     0.163 HD
BRANCH   6   9
ATOM      9  C   UNL A   1      31.740  24.241  24.147  1.00  0.00     0.197 C 
ATOM     10  C   UNL A   1      32.447  18.528  23.280  1.00  0.00     0.045 C 
ATOM     11  C   UNL A   1      32.329  19.993  23.571  1.00  0.00    -0.039 C 
ATOM     12  C   UNL A   1      32.333  20.470  24.828  1.00  0.00     0.102 C 
ATOM     13  C   UNL A   1      32.193  20.899  22.441  1.00  0.00     0.047 C 
ATOM     14  C   UNL A   1      32.051  21.929  25.033  1.00  0.00     0.282 C 
ATOM     15  C   UNL A   1      32.085  22.221  22.653  1.00  0.00     0.202 C 
ATOM     16  N   UNL A   1      31.762  22.253  26.256  1.00  0.00    -0.210 N 
ATOM     17  N   UNL A   1      32.033  22.789  23.928  1.00  0.00    -0.219 N 
ATOM     18  C   UNL A   1      31.325  23.529  26.462  1.00  0.00     0.312 C 
ATOM     19  H   UNL A   1      31.855  21.611  26.997  1.00  0.00     0.315 HD
ATOM     20  O   UNL A   1      30.462  23.815  27.283  1.00  0.00    -0.247 OA
ATOM     21  C   UNL A   1      31.955  24.585  25.621  1.00  0.00     0.191 C 
ATOM     22  C   UNL A   1      30.290  24.442  23.682  1.00  0.00     0.074 C 
ENDBRANCH   6   9
ENDBRANCH   4   5
ENDBRANCH   3   4
ENDBRANCH   2   3
ENDBRANCH   1   2
BRANCH   1  23
ATOM     23  N   UNL A   1      37.825  20.657  25.650  1.00  0.00    -0.352 N 
ATOM     24  C   UNL A   1      39.149  20.737  26.019  1.00  0.00     0.251 C 
ATOM     25  H   UNL A   1      37.540  19.792  25.277  1.00  0.00     0.163 HD
ATOM     26  O   UNL A   1      39.900  19.786  25.824  1.00  0.00    -0.269 OA
BRANCH  24  27
ATOM     27  C   UNL A   1      39.670  21.990  26.608  1.00  0.00     0.039 A 
ATOM     28  C   UNL A   1      40.652  21.917  27.601  1.00  0.00     0.014 A 
ATOM     29  C   UNL A   1      39.239  23.230  26.136  1.00  0.00     0.014 A 
ATOM     30  C   UNL A   1      41.272  23.088  28.050  1.00  0.00     0.010 A 
ATOM     31  C   UNL A   1      39.915  24.382  26.518  1.00  0.00     0.010 A 
ATOM     32  C   UNL A   1      40.940  24.324  27.476  1.00  0.00    -0.014 A 
BRANCH  32  33
ATOM     33  C   UNL A   1      41.635  25.586  27.839  1.00  0.00     0.031 A 
ATOM     34  C   UNL A   1      40.877  26.654  28.581  1.00  0.00     0.074 A 
ATOM     35  C   UNL A   1      42.878  25.832  27.380  1.00  0.00     0.049 A 
ATOM     36  N   UNL A   1      41.207  27.897  28.806  1.00  0.00    -0.248 NA
ATOM     37  C   UNL A   1      39.548  26.281  29.098  1.00  0.00     0.031 C 
ATOM     38  C   UNL A   1      43.693  24.903  26.594  1.00  0.00     0.029 A 
ATOM     39  N   UNL A   1      43.658  26.959  27.470  1.00  0.00    -0.354 N 
ATOM     40  C   UNL A   1      40.107  28.472  29.430  1.00  0.00     0.074 A 
ATOM     41  C   UNL A   1      39.092  27.447  29.531  1.00  0.00     0.031 C 
ATOM     42  C   UNL A   1      44.850  25.501  26.265  1.00  0.00     0.029 A 
ATOM     43  C   UNL A   1      44.846  26.865  26.783  1.00  0.00     0.049 A 
ATOM     44  H   UNL A   1      43.390  27.759  27.978  1.00  0.00     0.167 HD
ATOM     45  C   UNL A   1      39.964  29.733  29.901  1.00  0.00     0.034 A 
ATOM     46  C   UNL A   1      45.814  27.781  26.578  1.00  0.00     0.034 A 
ATOM     47  C   UNL A   1      41.004  30.724  29.868  1.00  0.00     0.049 A 
ATOM     48  C   UNL A   1      45.660  29.154  27.176  1.00  0.00     0.074 A 
ATOM     49  C   UNL A   1      40.992  32.001  30.398  1.00  0.00     0.029 A 
ATOM     50  N   UNL A   1      42.247  30.543  29.283  1.00  0.00    -0.354 N 
ATOM     51  N   UNL A   1      44.664  29.640  27.879  1.00  0.00    -0.248 NA
ATOM     52  C   UNL A   1      46.774  30.096  26.985  1.00  0.00     0.031 C 
ATOM     53  C   UNL A   1      42.230  32.593  30.133  1.00  0.00     0.029 A 
ATOM     54  C   UNL A   1      43.017  31.680  29.448  1.00  0.00     0.049 A 
ATOM     55  H   UNL A   1      42.541  29.725  28.819  1.00  0.00     0.167 HD
ATOM     56  C   UNL A   1      45.051  30.922  28.252  1.00  0.00     0.074 A 
ATOM     57  C   UNL A   1      46.374  31.137  27.705  1.00  0.00     0.031 C 
ATOM     58  C   UNL A   1      44.364  31.843  28.971  1.00  0.00     0.034 A 
BRANCH  45  59
ATOM     59  C   UNL A   1      38.655  30.092  30.552  1.00  0.00     0.023 A 
ATOM     60  C   UNL A   1      38.401  29.673  31.872  1.00  0.00     0.012 A 
ATOM     61  C   UNL A   1      37.702  30.882  29.880  1.00  0.00     0.148 A 
ATOM     62  C   UNL A   1      37.203  30.003  32.504  1.00  0.00     0.002 A 
ATOM     63  C   UNL A   1      36.528  31.243  30.532  1.00  0.00     0.091 A 
ATOM     64  F   UNL A   1      37.950  31.250  28.615  1.00  0.00    -0.205 F 
ATOM     65  C   UNL A   1      36.272  30.796  31.839  1.00  0.00     0.022 A 
BRANCH  63  66
ATOM     66  S   UNL A   1      35.305  32.327  29.785  1.00  0.00     0.127 S 
ATOM     67  O   UNL A   1      34.794  31.490  28.700  1.00  0.00    -0.237 OA
ATOM     68  O   UNL A   1      34.365  32.539  30.885  1.00  0.00    -0.237 OA
ATOM     69  O   UNL A   1      36.030  33.520  29.371  1.00  0.00    -0.744 OA
ENDBRANCH  63  66
ENDBRANCH  45  59
BRANCH  46  70
ATOM     70  C   UNL A   1      47.050  27.407  25.833  1.00  0.00     0.023 A 
ATOM     71  C   UNL A   1      48.065  26.698  26.506  1.00  0.00     0.012 A 
ATOM     72  C   UNL A   1      47.216  27.716  24.470  1.00  0.00     0.148 A 
ATOM     73  C   UNL A   1      49.236  26.329  25.842  1.00  0.00     0.002 A 
ATOM     74  C   UNL A   1      48.364  27.301  23.801  1.00  0.00     0.091 A 
ATOM     75  F   UNL A   1      46.246  28.402  23.850  1.00  0.00    -0.205 F 
ATOM     76  C   UNL A   1      49.381  26.621  24.489  1.00  0.00     0.022 A 
BRANCH  74  77
ATOM     77  S   UNL A   1      48.577  27.522  22.031  1.00  0.00     0.127 S 
ATOM     78  O   UNL A   1      49.728  28.421  21.979  1.00  0.00    -0.237 OA
ATOM     79  O   UNL A   1      48.844  26.154  21.585  1.00  0.00    -0.237 OA
ATOM     80  O   UNL A   1      47.316  28.072  21.555  1.00  0.00    -0.744 OA
ENDBRANCH  74  77
ENDBRANCH  46  70
BRANCH  58  81
ATOM     81  C   UNL A   1      45.042  33.152  29.274  1.00  0.00     0.023 A 
ATOM     82  C   UNL A   1      45.868  33.266  30.407  1.00  0.00     0.012 A 
ATOM     83  C   UNL A   1      44.951  34.226  28.367  1.00  0.00     0.148 A 
ATOM     84  C   UNL A   1      46.582  34.441  30.643  1.00  0.00     0.002 A 
ATOM     85  C   UNL A   1      45.701  35.375  28.584  1.00  0.00     0.091 A 
ATOM     86  F   UNL A   1      44.143  34.099  27.303  1.00  0.00    -0.205 F 
ATOM     87  C   UNL A   1      46.511  35.487  29.726  1.00  0.00     0.022 A 
BRANCH  85  88
ATOM     88  S   UNL A   1      45.744  36.731  27.407  1.00  0.00     0.127 S 
ATOM     89  O   UNL A   1      46.483  37.749  28.152  1.00  0.00    -0.237 OA
ATOM     90  O   UNL A   1      46.477  36.145  26.284  1.00  0.00    -0.237 OA
ATOM     91  O   UNL A   1      44.354  37.055  27.117  1.00  0.00    -0.744 OA
ENDBRANCH  85  88
ENDBRANCH  58  81
ENDBRANCH  32  33
ENDBRANCH  24  27
ENDBRANCH   1  23
TORSDOF 14
ENDMDL
MODEL 2
REMARK VINA RESULT:     -12.7      5.453      8.119
REMARK SMILES CC1=CC2=[NH+]C(=O)C[C@@](C)(C(=O)NCCCCNC(=O)c3ccc(-c4c5nc(c(-c6cccc(S(=O)(=O)[O-])c6F)c6ccc([nH]6)c(-c6cccc(S(=O)(=O)[O-])c6F)c6nc(c(-c7cccc(S(=O)(=O)[O-])c7F)c7ccc4[nH]7)C=C6)C=C5)cc3)N2C=C1
REMARK SMILES IDX 17 1 16 2 15 3 14 4 13 5 11 6 12 7 9 9 1 10 2 11 3 12 86 13
REMARK SMILES IDX 4 14 85 15 5 16 84 17 6 18 7 20 8 21 10 22 18 23 19 24 20 26
REMARK SMILES IDX 21 27 22 28 83 29 23 30 82 31 24 32 25 33 26 34 76 35 27 36
REMARK SMILES IDX 81 37 75 38 77 39 28 40 80 41 74 42 73 43 29 45 61 46 41 47
REMARK SMILES IDX 60 48 42 49 45 50 59 51 78 52 43 53 44 54 58 56 79 57 46 58
REMARK SMILES IDX 30 59 31 60 39 61 32 62 34 63 40 64 33 65 35 66 36 67 37 68
REMARK SMILES IDX 38 69 62 70 63 71 71 72 64 73 66 74 72 75 65 76 67 77 68 78
REMARK SMILES IDX 69 79 70 80 47 81 48 82 56 83 49 84 51 85 57 86 50 87 52 88
REMARK SMILES IDX 53 89 54 90 55 91
REMARK H PARENT 13 8 5 19 18 25 77 44 45 55
REMARK Flexibility Score: inf
ROOT
ATOM      1  C   UNL A   1      32.606  30.125  25.802  1.00  0.00     0.116 C 
ENDROOT
BRANCH   1   2
ATOM      2  C   UNL A   1      31.435  29.183  26.010  1.00  0.00     0.023 C 
BRANCH   2   3
ATOM      3  C   UNL A   1      31.603  28.120  27.086  1.00  0.00     0.023 C 
BRANCH   3   4
ATOM      4  C   UNL A   1      32.152  26.760  26.657  1.00  0.00     0.116 C 
BRANCH   4   5
ATOM      5  N   UNL A   1      31.214  25.663  26.507  1.00  0.00    -0.352 N 
ATOM      6  C   UNL A   1      31.113  24.706  25.527  1.00  0.00     0.268 C 
ATOM      7  O   UNL A   1      30.778  23.584  25.923  1.00  0.00    -0.270 OA
ATOM      8  H   UNL A   1      30.541  25.594  27.222  1.00  0.00     0.163 HD
BRANCH   6   9
ATOM      9  C   UNL A   1      31.219  25.053  24.009  1.00  0.00     0.197 C 
ATOM     10  C   UNL A   1      28.119  29.708  22.397  1.00  0.00     0.045 C 
ATOM     11  C   UNL A   1      28.985  28.569  22.839  1.00  0.00    -0.039 C 
ATOM     12  C   UNL A   1      30.310  28.555  22.615  1.00  0.00     0.102 C 
ATOM     13  C   UNL A   1      28.342  27.453  23.515  1.00  0.00     0.047 C 
ATOM     14  C   UNL A   1      31.072  27.307  22.948  1.00  0.00     0.282 C 
ATOM     15  C   UNL A   1      29.077  26.409  23.930  1.00  0.00     0.202 C 
ATOM     16  N   UNL A   1      32.259  27.246  22.426  1.00  0.00    -0.210 N 
ATOM     17  N   UNL A   1      30.450  26.298  23.693  1.00  0.00    -0.219 N 
ATOM     18  C   UNL A   1      32.920  26.060  22.550  1.00  0.00     0.312 C 
ATOM     19  H   UNL A   1      32.661  28.018  21.964  1.00  0.00     0.315 HD
ATOM     20  O   UNL A   1      33.647  25.605  21.674  1.00  0.00    -0.247 OA
ATOM     21  C   UNL A   1      32.714  25.321  23.827  1.00  0.00     0.191 C 
ATOM     22  C   UNL A   1      30.674  23.979  23.056  1.00  0.00     0.074 C 
ENDBRANCH   6   9
ENDBRANCH   4   5
ENDBRANCH   3   4
ENDBRANCH   2   3
ENDBRANCH   1   2
BRANCH   1  23
ATOM     23  N   UNL A   1      32.401  31.459  26.352  1.00  0.00    -0.352 N 
ATOM     24  C   UNL A   1      33.179  32.156  27.249  1.00  0.00     0.251 C 
ATOM     25  H   UNL A   1      31.592  31.926  26.039  1.00  0.00     0.163 HD
ATOM     26  O   UNL A   1      32.820  33.261  27.646  1.00  0.00    -0.269 OA
BRANCH  24  27
ATOM     27  C   UNL A   1      34.425  31.547  27.764  1.00  0.00     0.039 A 
ATOM     28  C   UNL A   1      35.525  32.370  28.027  1.00  0.00     0.014 A 
ATOM     29  C   UNL A   1      34.484  30.183  28.047  1.00  0.00     0.014 A 
ATOM     30  C   UNL A   1      36.650  31.840  28.667  1.00  0.00     0.010 A 
ATOM     31  C   UNL A   1      35.564  29.677  28.760  1.00  0.00     0.010 A 
ATOM     32  C   UNL A   1      36.656  30.499  29.081  1.00  0.00    -0.014 A 
BRANCH  32  33
ATOM     33  C   UNL A   1      37.779  29.907  29.852  1.00  0.00     0.031 A 
ATOM     34  C   UNL A   1      38.040  30.386  31.254  1.00  0.00     0.074 A 
ATOM     35  C   UNL A   1      38.644  29.065  29.252  1.00  0.00     0.049 A 
ATOM     36  N   UNL A   1      39.075  30.174  32.022  1.00  0.00    -0.248 NA
ATOM     37  C   UNL A   1      37.014  31.259  31.854  1.00  0.00     0.031 C 
ATOM     38  C   UNL A   1      38.538  28.576  27.875  1.00  0.00     0.029 A 
ATOM     39  N   UNL A   1      39.811  28.505  29.712  1.00  0.00    -0.354 N 
ATOM     40  C   UNL A   1      38.859  30.935  33.165  1.00  0.00     0.074 A 
ATOM     41  C   UNL A   1      37.603  31.629  32.982  1.00  0.00     0.031 C 
ATOM     42  C   UNL A   1      39.600  27.800  27.600  1.00  0.00     0.029 A 
ATOM     43  C   UNL A   1      40.480  27.765  28.764  1.00  0.00     0.049 A 
ATOM     44  H   UNL A   1      40.137  28.622  30.633  1.00  0.00     0.167 HD
ATOM     45  C   UNL A   1      39.624  31.028  34.277  1.00  0.00     0.034 A 
ATOM     46  C   UNL A   1      41.675  27.144  28.820  1.00  0.00     0.034 A 
ATOM     47  C   UNL A   1      40.830  30.277  34.485  1.00  0.00     0.049 A 
ATOM     48  C   UNL A   1      42.471  27.204  30.097  1.00  0.00     0.074 A 
ATOM     49  C   UNL A   1      41.631  30.230  35.612  1.00  0.00     0.029 A 
ATOM     50  N   UNL A   1      41.403  29.429  33.550  1.00  0.00    -0.354 N 
ATOM     51  N   UNL A   1      42.186  27.825  31.217  1.00  0.00    -0.248 NA
ATOM     52  C   UNL A   1      43.735  26.454  30.133  1.00  0.00     0.031 C 
ATOM     53  C   UNL A   1      42.689  29.353  35.357  1.00  0.00     0.029 A 
ATOM     54  C   UNL A   1      42.540  28.845  34.076  1.00  0.00     0.049 A 
ATOM     55  H   UNL A   1      41.051  29.266  32.644  1.00  0.00     0.167 HD
ATOM     56  C   UNL A   1      43.207  27.502  32.103  1.00  0.00     0.074 A 
ATOM     57  C   UNL A   1      44.116  26.625  31.393  1.00  0.00     0.031 C 
ATOM     58  C   UNL A   1      43.384  27.908  33.383  1.00  0.00     0.034 A 
BRANCH  45  59
ATOM     59  C   UNL A   1      39.143  31.929  35.384  1.00  0.00     0.023 A 
ATOM     60  C   UNL A   1      39.328  33.321  35.272  1.00  0.00     0.012 A 
ATOM     61  C   UNL A   1      38.467  31.407  36.503  1.00  0.00     0.148 A 
ATOM     62  C   UNL A   1      38.881  34.179  36.275  1.00  0.00     0.002 A 
ATOM     63  C   UNL A   1      37.986  32.274  37.479  1.00  0.00     0.091 A 
ATOM     64  F   UNL A   1      38.323  30.078  36.605  1.00  0.00    -0.205 F 
ATOM     65  C   UNL A   1      38.201  33.657  37.372  1.00  0.00     0.022 A 
BRANCH  63  66
ATOM     66  S   UNL A   1      37.030  31.702  38.889  1.00  0.00     0.127 S 
ATOM     67  O   UNL A   1      35.895  32.623  38.868  1.00  0.00    -0.237 OA
ATOM     68  O   UNL A   1      36.706  30.327  38.506  1.00  0.00    -0.237 OA
ATOM     69  O   UNL A   1      37.912  31.816  40.041  1.00  0.00    -0.744 OA
ENDBRANCH  63  66
ENDBRANCH  45  59
BRANCH  46  70
ATOM     70  C   UNL A   1      42.159  26.349  27.656  1.00  0.00     0.023 A 
ATOM     71  C   UNL A   1      42.984  26.972  26.698  1.00  0.00     0.012 A 
ATOM     72  C   UNL A   1      41.840  24.986  27.505  1.00  0.00     0.148 A 
ATOM     73  C   UNL A   1      43.459  26.261  25.595  1.00  0.00     0.002 A 
ATOM     74  C   UNL A   1      42.358  24.270  26.429  1.00  0.00     0.091 A 
ATOM     75  F   UNL A   1      41.044  24.414  28.418  1.00  0.00    -0.205 F 
ATOM     76  C   UNL A   1      43.154  24.909  25.467  1.00  0.00     0.022 A 
BRANCH  74  77
ATOM     77  S   UNL A   1      42.122  22.498  26.254  1.00  0.00     0.127 S 
ATOM     78  O   UNL A   1      42.926  22.206  25.070  1.00  0.00    -0.237 OA
ATOM     79  O   UNL A   1      42.673  21.992  27.512  1.00  0.00    -0.237 OA
ATOM     80  O   UNL A   1      40.685  22.310  26.112  1.00  0.00    -0.744 OA
ENDBRANCH  74  77
ENDBRANCH  46  70
BRANCH  58  81
ATOM     81  C   UNL A   1      44.566  27.365  34.140  1.00  0.00     0.023 A 
ATOM     82  C   UNL A   1      45.777  28.082  34.154  1.00  0.00     0.012 A 
ATOM     83  C   UNL A   1      44.433  26.207  34.931  1.00  0.00     0.148 A 
ATOM     84  C   UNL A   1      46.847  27.643  34.934  1.00  0.00     0.002 A 
ATOM     85  C   UNL A   1      45.488  25.802  35.740  1.00  0.00     0.091 A 
ATOM     86  F   UNL A   1      43.276  25.531  34.886  1.00  0.00    -0.205 F 
ATOM     87  C   UNL A   1      46.698  26.515  35.736  1.00  0.00     0.022 A 
BRANCH  85  88
ATOM     88  S   UNL A   1      45.350  24.418  36.876  1.00  0.00     0.127 S 
ATOM     89  O   UNL A   1      46.692  24.370  37.453  1.00  0.00    -0.237 OA
ATOM     90  O   UNL A   1      44.307  24.873  37.796  1.00  0.00    -0.237 OA
ATOM     91  O   UNL A   1      44.977  23.267  36.064  1.00  0.00    -0.744 OA
ENDBRANCH  85  88
ENDBRANCH  58  81
ENDBRANCH  32  33
ENDBRANCH  24  27
ENDBRANCH   1  23
TORSDOF 14
ENDMDL
MODEL 3
REMARK VINA RESULT:     -12.7      5.505     10.556
REMARK SMILES CC1=CC2=[NH+]C(=O)C[C@@](C)(C(=O)NCCCCNC(=O)c3ccc(-c4c5nc(c(-c6cccc(S(=O)(=O)[O-])c6F)c6ccc([nH]6)c(-c6cccc(S(=O)(=O)[O-])c6F)c6nc(c(-c7cccc(S(=O)(=O)[O-])c7F)c7ccc4[nH]7)C=C6)C=C5)cc3)N2C=C1
REMARK SMILES IDX 17 1 16 2 15 3 14 4 13 5 11 6 12 7 9 9 1 10 2 11 3 12 86 13
REMARK SMILES IDX 4 14 85 15 5 16 84 17 6 18 7 20 8 21 10 22 18 23 19 24 20 26
REMARK SMILES IDX 21 27 22 28 83 29 23 30 82 31 24 32 25 33 26 34 76 35 27 36
REMARK SMILES IDX 81 37 75 38 77 39 28 40 80 41 74 42 73 43 29 45 61 46 41 47
REMARK SMILES IDX 60 48 42 49 45 50 59 51 78 52 43 53 44 54 58 56 79 57 46 58
REMARK SMILES IDX 30 59 31 60 39 61 32 62 34 63 40 64 33 65 35 66 36 67 37 68
REMARK SMILES IDX 38 69 62 70 63 71 71 72 64 73 66 74 72 75 65 76 67 77 68 78
REMARK SMILES IDX 69 79 70 80 47 81 48 82 56 83 49 84 51 85 57 86 50 87 52 88
REMARK SMILES IDX 53 89 54 90 55 91
REMARK H PARENT 13 8 5 19 18 25 77 44 45 55
REMARK Flexibility Score: inf
ROOT
ATOM      1  C   UNL A   1      32.866  30.238  26.107  1.00  0.00     0.116 C 
ENDROOT
BRANCH   1   2
ATOM      2  C   UNL A   1      31.655  29.353  25.874  1.00  0.00     0.023 C 
BRANCH   2   3
ATOM      3  C   UNL A   1      31.421  28.246  26.891  1.00  0.00     0.023 C 
BRANCH   3   4
ATOM      4  C   UNL A   1      32.065  26.888  26.618  1.00  0.00     0.116 C 
BRANCH   4   5
ATOM      5  N   UNL A   1      31.195  25.731  26.501  1.00  0.00    -0.352 N 
ATOM      6  C   UNL A   1      31.156  24.740  25.552  1.00  0.00     0.268 C 
ATOM      7  O   UNL A   1      30.888  23.612  25.983  1.00  0.00    -0.270 OA
ATOM      8  H   UNL A   1      30.525  25.645  27.216  1.00  0.00     0.163 HD
BRANCH   6   9
ATOM      9  C   UNL A   1      31.248  25.044  24.024  1.00  0.00     0.197 C 
ATOM     10  C   UNL A   1      28.196  29.700  22.325  1.00  0.00     0.045 C 
ATOM     11  C   UNL A   1      29.051  28.560  22.787  1.00  0.00    -0.039 C 
ATOM     12  C   UNL A   1      30.373  28.520  22.546  1.00  0.00     0.102 C 
ATOM     13  C   UNL A   1      28.400  27.472  23.501  1.00  0.00     0.047 C 
ATOM     14  C   UNL A   1      31.120  27.270  22.904  1.00  0.00     0.282 C 
ATOM     15  C   UNL A   1      29.125  26.429  23.935  1.00  0.00     0.202 C 
ATOM     16  N   UNL A   1      32.300  27.178  22.369  1.00  0.00    -0.210 N 
ATOM     17  N   UNL A   1      30.493  26.291  23.684  1.00  0.00    -0.219 N 
ATOM     18  C   UNL A   1      32.945  25.985  22.517  1.00  0.00     0.312 C 
ATOM     19  H   UNL A   1      32.707  27.931  21.882  1.00  0.00     0.315 HD
ATOM     20  O   UNL A   1      33.653  25.496  21.645  1.00  0.00    -0.247 OA
ATOM     21  C   UNL A   1      32.744  25.284  23.816  1.00  0.00     0.191 C 
ATOM     22  C   UNL A   1      30.675  23.953  23.107  1.00  0.00     0.074 C 
ENDBRANCH   6   9
ENDBRANCH   4   5
ENDBRANCH   3   4
ENDBRANCH   2   3
ENDBRANCH   1   2
BRANCH   1  23
ATOM     23  N   UNL A   1      32.544  31.566  26.614  1.00  0.00    -0.352 N 
ATOM     24  C   UNL A   1      33.278  32.375  27.451  1.00  0.00     0.251 C 
ATOM     25  H   UNL A   1      31.681  31.934  26.317  1.00  0.00     0.163 HD
ATOM     26  O   UNL A   1      32.822  33.453  27.821  1.00  0.00    -0.269 OA
BRANCH  24  27
ATOM     27  C   UNL A   1      34.599  31.919  27.937  1.00  0.00     0.039 A 
ATOM     28  C   UNL A   1      35.653  32.836  28.001  1.00  0.00     0.014 A 
ATOM     29  C   UNL A   1      34.777  30.611  28.388  1.00  0.00     0.014 A 
ATOM     30  C   UNL A   1      36.857  32.466  28.609  1.00  0.00     0.010 A 
ATOM     31  C   UNL A   1      35.939  30.273  29.070  1.00  0.00     0.010 A 
ATOM     32  C   UNL A   1      36.990  31.196  29.191  1.00  0.00    -0.014 A 
BRANCH  32  33
ATOM     33  C   UNL A   1      38.206  30.784  29.938  1.00  0.00     0.031 A 
ATOM     34  C   UNL A   1      39.141  29.779  29.321  1.00  0.00     0.074 A 
ATOM     35  C   UNL A   1      38.388  31.187  31.212  1.00  0.00     0.049 A 
ATOM     36  N   UNL A   1      40.128  29.122  29.869  1.00  0.00    -0.248 NA
ATOM     37  C   UNL A   1      38.903  29.438  27.907  1.00  0.00     0.031 C 
ATOM     38  C   UNL A   1      37.517  32.107  31.945  1.00  0.00     0.029 A 
ATOM     39  N   UNL A   1      39.346  30.836  32.132  1.00  0.00    -0.354 N 
ATOM     40  C   UNL A   1      40.585  28.245  28.893  1.00  0.00     0.074 A 
ATOM     41  C   UNL A   1      39.756  28.441  27.724  1.00  0.00     0.031 C 
ATOM     42  C   UNL A   1      37.973  32.239  33.202  1.00  0.00     0.029 A 
ATOM     43  C   UNL A   1      39.145  31.388  33.376  1.00  0.00     0.049 A 
ATOM     44  H   UNL A   1      40.106  30.247  31.920  1.00  0.00     0.167 HD
ATOM     45  C   UNL A   1      41.619  27.374  28.955  1.00  0.00     0.034 A 
ATOM     46  C   UNL A   1      39.818  31.212  34.531  1.00  0.00     0.034 A 
ATOM     47  C   UNL A   1      42.487  27.239  30.092  1.00  0.00     0.049 A 
ATOM     48  C   UNL A   1      41.009  30.292  34.551  1.00  0.00     0.074 A 
ATOM     49  C   UNL A   1      43.616  26.452  30.223  1.00  0.00     0.029 A 
ATOM     50  N   UNL A   1      42.330  27.920  31.288  1.00  0.00    -0.354 N 
ATOM     51  N   UNL A   1      41.507  29.568  33.577  1.00  0.00    -0.248 NA
ATOM     52  C   UNL A   1      41.752  30.187  35.816  1.00  0.00     0.031 C 
ATOM     53  C   UNL A   1      44.142  26.657  31.502  1.00  0.00     0.029 A 
ATOM     54  C   UNL A   1      43.347  27.581  32.161  1.00  0.00     0.049 A 
ATOM     55  H   UNL A   1      41.602  28.553  31.488  1.00  0.00     0.167 HD
ATOM     56  C   UNL A   1      42.645  28.961  34.096  1.00  0.00     0.074 A 
ATOM     57  C   UNL A   1      42.769  29.407  35.469  1.00  0.00     0.031 C 
ATOM     58  C   UNL A   1      43.502  28.101  33.494  1.00  0.00     0.034 A 
BRANCH  45  59
ATOM     59  C   UNL A   1      41.907  26.543  27.733  1.00  0.00     0.023 A 
ATOM     60  C   UNL A   1      42.542  27.138  26.626  1.00  0.00     0.012 A 
ATOM     61  C   UNL A   1      41.597  25.170  27.698  1.00  0.00     0.148 A 
ATOM     62  C   UNL A   1      42.833  26.389  25.487  1.00  0.00     0.002 A 
ATOM     63  C   UNL A   1      41.929  24.420  26.576  1.00  0.00     0.091 A 
ATOM     64  F   UNL A   1      40.969  24.626  28.751  1.00  0.00    -0.205 F 
ATOM     65  C   UNL A   1      42.537  25.029  25.466  1.00  0.00     0.022 A 
BRANCH  63  66
ATOM     66  S   UNL A   1      41.658  22.645  26.487  1.00  0.00     0.127 S 
ATOM     67  O   UNL A   1      42.309  22.186  27.713  1.00  0.00    -0.237 OA
ATOM     68  O   UNL A   1      40.198  22.554  26.501  1.00  0.00    -0.237 OA
ATOM     69  O   UNL A   1      42.278  22.209  25.245  1.00  0.00    -0.744 OA
ENDBRANCH  63  66
ENDBRANCH  45  59
BRANCH  46  70
ATOM     70  C   UNL A   1      39.427  31.981  35.747  1.00  0.00     0.023 A 
ATOM     71  C   UNL A   1      39.895  33.301  35.901  1.00  0.00     0.012 A 
ATOM     72  C   UNL A   1      38.578  31.435  36.729  1.00  0.00     0.148 A 
ATOM     73  C   UNL A   1      39.550  34.053  37.025  1.00  0.00     0.002 A 
ATOM     74  C   UNL A   1      38.197  32.208  37.822  1.00  0.00     0.091 A 
ATOM     75  F   UNL A   1      38.153  30.173  36.572  1.00  0.00    -0.205 F 
ATOM     76  C   UNL A   1      38.694  33.511  37.979  1.00  0.00     0.022 A 
BRANCH  74  77
ATOM     77  S   UNL A   1      36.999  31.636  39.031  1.00  0.00     0.127 S 
ATOM     78  O   UNL A   1      37.755  31.747  40.276  1.00  0.00    -0.237 OA
ATOM     79  O   UNL A   1      35.921  32.613  38.876  1.00  0.00    -0.237 OA
ATOM     80  O   UNL A   1      36.646  30.285  38.618  1.00  0.00    -0.744 OA
ENDBRANCH  74  77
ENDBRANCH  46  70
BRANCH  58  81
ATOM     81  C   UNL A   1      44.693  27.624  34.280  1.00  0.00     0.023 A 
ATOM     82  C   UNL A   1      45.879  28.382  34.283  1.00  0.00     0.012 A 
ATOM     83  C   UNL A   1      44.591  26.488  35.106  1.00  0.00     0.148 A 
ATOM     84  C   UNL A   1      46.954  28.006  35.087  1.00  0.00     0.002 A 
ATOM     85  C   UNL A   1      45.649  26.145  35.939  1.00  0.00     0.091 A 
ATOM     86  F   UNL A   1      43.457  25.771  35.072  1.00  0.00    -0.205 F 
ATOM     87  C   UNL A   1      46.834  26.899  35.924  1.00  0.00     0.022 A 
BRANCH  85  88
ATOM     88  S   UNL A   1      45.546  24.794  37.118  1.00  0.00     0.127 S 
ATOM     89  O   UNL A   1      45.427  23.635  36.235  1.00  0.00    -0.237 OA
ATOM     90  O   UNL A   1      46.825  24.897  37.820  1.00  0.00    -0.237 OA
ATOM     91  O   UNL A   1      44.380  25.072  37.945  1.00  0.00    -0.744 OA
ENDBRANCH  85  88
ENDBRANCH  58  81
ENDBRANCH  32  33
ENDBRANCH  24  27
ENDBRANCH   1  23
TORSDOF 14
ENDMDL
