MODEL 1
REMARK VINA RESULT:     -11.3      0.000      0.000
REMARK SMILES CC(C)N(CCCC(=O)NCCCCNC(=O)c1ccc(-c2c3nc(c(-c4cccc(S(=O)(=O)[O-])c4F)c4ccc([nH]4)c(-c4cccc(S(=O)(=O)[O-])c4F)c4nc(c(-c5cccc(S(=O)(=O)[O-])c5F)c5ccc2[nH]5)C=C4)C=C3)cc1)c1cc(Cl)c(Cl)cc1[N+](=O)[O-]
REMARK SMILES IDX 11 1 10 2 8 3 9 4 7 6 6 7 5 8 4 9 2 10 1 11 3 12 81 13 82 14
REMARK SMILES IDX 88 15 83 16 87 17 84 18 85 19 86 20 89 21 90 22 91 23 12 24
REMARK SMILES IDX 13 25 14 26 15 27 16 28 17 30 18 31 19 32 80 33 20 34 79 35
REMARK SMILES IDX 21 36 22 37 23 38 73 39 24 40 78 41 72 42 74 43 25 44 77 45
REMARK SMILES IDX 71 46 70 47 26 49 58 50 38 51 57 52 39 53 42 54 56 55 75 56
REMARK SMILES IDX 40 57 41 58 55 60 76 61 43 62 27 63 28 64 36 65 29 66 31 67
REMARK SMILES IDX 37 68 30 69 32 70 33 71 34 72 35 73 59 74 60 75 68 76 61 77
REMARK SMILES IDX 63 78 69 79 62 80 64 81 65 82 66 83 67 84 44 85 45 86 53 87
REMARK SMILES IDX 46 88 48 89 54 90 47 91 49 92 50 93 51 94 52 95
REMARK H PARENT 10 5 15 29 74 48 42 59
REMARK Flexibility Score: inf
ROOT
ATOM      1  C   UNL A   1      33.968  20.723  25.428  1.00  0.00     0.116 C 
ENDROOT
BRANCH   1   2
ATOM      2  N   UNL A   1      33.673  21.072  26.803  1.00  0.00    -0.356 N 
ATOM      3  C   UNL A   1      32.825  22.023  27.281  1.00  0.00     0.220 C 
ATOM      4  O   UNL A   1      32.859  22.314  28.476  1.00  0.00    -0.275 OA
ATOM      5  H   UNL A   1      34.153  20.549  27.486  1.00  0.00     0.163 HD
BRANCH   3   6
ATOM      6  C   UNL A   1      31.827  22.680  26.349  1.00  0.00     0.102 C 
BRANCH   6   7
ATOM      7  C   UNL A   1      32.278  24.022  25.767  1.00  0.00     0.031 C 
BRANCH   7   8
ATOM      8  C   UNL A   1      31.312  24.766  24.836  1.00  0.00     0.117 C 
BRANCH   8   9
ATOM      9  N   UNL A   1      31.834  25.887  24.003  1.00  0.00    -0.364 N 
BRANCH   9  10
ATOM     10  C   UNL A   1      32.294  25.512  22.637  1.00  0.00     0.076 C 
ATOM     11  C   UNL A   1      33.616  26.151  22.225  1.00  0.00     0.030 C 
ATOM     12  C   UNL A   1      32.307  24.002  22.433  1.00  0.00     0.030 C 
ENDBRANCH   9  10
BRANCH   9  13
ATOM     13  C   UNL A   1      31.807  27.198  24.458  1.00  0.00     0.117 A 
ATOM     14  C   UNL A   1      32.762  27.560  25.431  1.00  0.00     0.055 A 
ATOM     15  C   UNL A   1      30.915  28.227  24.095  1.00  0.00     0.294 A 
ATOM     16  C   UNL A   1      32.751  28.799  26.090  1.00  0.00     0.062 A 
ATOM     17  C   UNL A   1      30.901  29.488  24.726  1.00  0.00     0.110 A 
ATOM     18  Cl  UNL A   1      33.906  29.047  27.350  1.00  0.00    -0.083 Cl
ATOM     19  C   UNL A   1      31.805  29.761  25.745  1.00  0.00     0.066 A 
ATOM     20  Cl  UNL A   1      31.697  31.292  26.534  1.00  0.00    -0.082 Cl
BRANCH  15  21
ATOM     21  N   UNL A   1      29.917  28.078  23.058  1.00  0.00     0.065 N 
ATOM     22  O   UNL A   1      28.817  27.629  23.412  1.00  0.00    -0.258 OA
ATOM     23  O   UNL A   1      30.255  28.321  21.894  1.00  0.00    -0.258 OA
ENDBRANCH  15  21
ENDBRANCH   9  13
ENDBRANCH   8   9
ENDBRANCH   7   8
ENDBRANCH   6   7
ENDBRANCH   3   6
ENDBRANCH   1   2
BRANCH   1  24
ATOM     24  C   UNL A   1      35.135  21.572  24.913  1.00  0.00     0.023 C 
BRANCH  24  25
ATOM     25  C   UNL A   1      36.403  20.774  24.657  1.00  0.00     0.023 C 
BRANCH  25  26
ATOM     26  C   UNL A   1      37.634  21.340  25.353  1.00  0.00     0.116 C 
BRANCH  26  27
ATOM     27  N   UNL A   1      38.686  20.357  25.592  1.00  0.00    -0.352 N 
ATOM     28  C   UNL A   1      39.894  20.562  26.223  1.00  0.00     0.251 C 
ATOM     29  H   UNL A   1      38.514  19.445  25.266  1.00  0.00     0.163 HD
ATOM     30  O   UNL A   1      40.748  19.690  26.291  1.00  0.00    -0.269 OA
BRANCH  28  31
ATOM     31  C   UNL A   1      40.134  21.899  26.803  1.00  0.00     0.039 A 
ATOM     32  C   UNL A   1      40.997  22.030  27.891  1.00  0.00     0.014 A 
ATOM     33  C   UNL A   1      39.614  23.023  26.155  1.00  0.00     0.014 A 
ATOM     34  C   UNL A   1      41.415  23.305  28.273  1.00  0.00     0.010 A 
ATOM     35  C   UNL A   1      40.104  24.279  26.478  1.00  0.00     0.010 A 
ATOM     36  C   UNL A   1      41.013  24.432  27.536  1.00  0.00    -0.014 A 
BRANCH  36  37
ATOM     37  C   UNL A   1      41.547  25.784  27.832  1.00  0.00     0.031 A 
ATOM     38  C   UNL A   1      42.958  26.132  27.448  1.00  0.00     0.074 A 
ATOM     39  C   UNL A   1      40.802  26.655  28.542  1.00  0.00     0.049 A 
ATOM     40  N   UNL A   1      43.630  27.227  27.687  1.00  0.00    -0.248 NA
ATOM     41  C   UNL A   1      43.729  25.098  26.736  1.00  0.00     0.031 C 
ATOM     42  C   UNL A   1      39.456  26.394  29.061  1.00  0.00     0.029 A 
ATOM     43  N   UNL A   1      41.078  27.929  28.971  1.00  0.00    -0.354 N 
ATOM     44  C   UNL A   1      44.907  27.001  27.190  1.00  0.00     0.074 A 
ATOM     45  C   UNL A   1      44.932  25.649  26.679  1.00  0.00     0.031 C 
ATOM     46  C   UNL A   1      39.021  27.478  29.724  1.00  0.00     0.029 A 
ATOM     47  C   UNL A   1      40.061  28.502  29.697  1.00  0.00     0.049 A 
ATOM     48  H   UNL A   1      41.927  28.389  28.777  1.00  0.00     0.167 HD
ATOM     49  C   UNL A   1      45.955  27.856  27.125  1.00  0.00     0.034 A 
ATOM     50  C   UNL A   1      39.973  29.719  30.268  1.00  0.00     0.034 A 
ATOM     51  C   UNL A   1      45.904  29.220  27.576  1.00  0.00     0.049 A 
ATOM     52  C   UNL A   1      41.121  30.679  30.111  1.00  0.00     0.074 A 
ATOM     53  C   UNL A   1      46.880  30.194  27.478  1.00  0.00     0.029 A 
ATOM     54  N   UNL A   1      44.814  29.802  28.202  1.00  0.00    -0.354 N 
ATOM     55  N   UNL A   1      42.266  30.500  29.498  1.00  0.00    -0.248 NA
ATOM     56  C   UNL A   1      40.950  32.020  30.687  1.00  0.00     0.031 C 
ATOM     57  C   UNL A   1      46.377  31.370  28.046  1.00  0.00     0.029 A 
ATOM     58  C   UNL A   1      45.086  31.128  28.490  1.00  0.00     0.049 A 
ATOM     59  H   UNL A   1      43.969  29.341  28.411  1.00  0.00     0.167 HD
ATOM     60  C   UNL A   1      42.939  31.713  29.587  1.00  0.00     0.074 A 
ATOM     61  C   UNL A   1      42.063  32.625  30.293  1.00  0.00     0.031 C 
ATOM     62  C   UNL A   1      44.178  32.036  29.140  1.00  0.00     0.034 A 
BRANCH  49  63
ATOM     63  C   UNL A   1      47.214  27.359  26.467  1.00  0.00     0.023 A 
ATOM     64  C   UNL A   1      47.458  27.688  25.116  1.00  0.00     0.012 A 
ATOM     65  C   UNL A   1      48.166  26.607  27.178  1.00  0.00     0.148 A 
ATOM     66  C   UNL A   1      48.612  27.245  24.473  1.00  0.00     0.002 A 
ATOM     67  C   UNL A   1      49.336  26.203  26.541  1.00  0.00     0.091 A 
ATOM     68  F   UNL A   1      47.906  26.282  28.452  1.00  0.00    -0.205 F 
ATOM     69  C   UNL A   1      49.554  26.512  25.188  1.00  0.00     0.022 A 
BRANCH  67  70
ATOM     70  S   UNL A   1      50.645  25.318  27.395  1.00  0.00     0.127 S 
ATOM     71  O   UNL A   1      51.066  26.302  28.391  1.00  0.00    -0.237 OA
ATOM     72  O   UNL A   1      49.932  24.163  27.942  1.00  0.00    -0.237 OA
ATOM     73  O   UNL A   1      51.635  24.991  26.378  1.00  0.00    -0.744 OA
ENDBRANCH  67  70
ENDBRANCH  49  63
BRANCH  50  74
ATOM     74  C   UNL A   1      38.713  30.129  30.950  1.00  0.00     0.023 A 
ATOM     75  C   UNL A   1      38.532  29.800  32.308  1.00  0.00     0.012 A 
ATOM     76  C   UNL A   1      37.721  30.877  30.288  1.00  0.00     0.148 A 
ATOM     77  C   UNL A   1      37.375  30.183  32.987  1.00  0.00     0.002 A 
ATOM     78  C   UNL A   1      36.593  31.300  30.984  1.00  0.00     0.091 A 
ATOM     79  F   UNL A   1      37.906  31.172  28.993  1.00  0.00    -0.205 F 
ATOM     80  C   UNL A   1      36.412  30.941  32.328  1.00  0.00     0.022 A 
BRANCH  78  81
ATOM     81  S   UNL A   1      35.363  32.387  30.253  1.00  0.00     0.127 S 
ATOM     82  O   UNL A   1      36.171  33.546  29.882  1.00  0.00    -0.237 OA
ATOM     83  O   UNL A   1      34.881  31.586  29.127  1.00  0.00    -0.237 OA
ATOM     84  O   UNL A   1      34.371  32.610  31.295  1.00  0.00    -0.744 OA
ENDBRANCH  78  81
ENDBRANCH  50  74
BRANCH  62  85
ATOM     85  C   UNL A   1      44.660  33.443  29.374  1.00  0.00     0.023 A 
ATOM     86  C   UNL A   1      45.323  33.758  30.576  1.00  0.00     0.012 A 
ATOM     87  C   UNL A   1      44.535  34.423  28.371  1.00  0.00     0.148 A 
ATOM     88  C   UNL A   1      45.837  35.036  30.785  1.00  0.00     0.002 A 
ATOM     89  C   UNL A   1      45.087  35.684  28.570  1.00  0.00     0.091 A 
ATOM     90  F   UNL A   1      43.881  34.110  27.244  1.00  0.00    -0.205 F 
ATOM     91  C   UNL A   1      45.731  35.994  29.779  1.00  0.00     0.022 A 
BRANCH  89  92
ATOM     92  S   UNL A   1      45.077  36.946  27.291  1.00  0.00     0.127 S 
ATOM     93  O   UNL A   1      45.696  38.075  27.982  1.00  0.00    -0.237 OA
ATOM     94  O   UNL A   1      45.906  36.341  26.248  1.00  0.00    -0.237 OA
ATOM     95  O   UNL A   1      43.680  37.124  26.920  1.00  0.00    -0.744 OA
ENDBRANCH  89  92
ENDBRANCH  62  85
ENDBRANCH  36  37
ENDBRANCH  28  31
ENDBRANCH  26  27
ENDBRANCH  25  26
ENDBRANCH  24  25
ENDBRANCH   1  24
TORSDOF 20
ENDMDL
MODEL 2
REMARK VINA RESULT:     -10.6      1.521      7.614
REMARK SMILES CC(C)N(CCCC(=O)NCCCCNC(=O)c1ccc(-c2c3nc(c(-c4cccc(S(=O)(=O)[O-])c4F)c4ccc([nH]4)c(-c4cccc(S(=O)(=O)[O-])c4F)c4nc(c(-c5cccc(S(=O)(=O)[O-])c5F)c5ccc2[nH]5)C=C4)C=C3)cc1)c1cc(Cl)c(Cl)cc1[N+](=O)[O-]
REMARK SMILES IDX 11 1 10 2 8 3 9 4 7 6 6 7 5 8 4 9 2 10 1 11 3 12 81 13 82 14
REMARK SMILES IDX 88 15 83 16 87 17 84 18 85 19 86 20 89 21 90 22 91 23 12 24
REMARK SMILES IDX 13 25 14 26 15 27 16 28 17 30 18 31 19 32 80 33 20 34 79 35
REMARK SMILES IDX 21 36 22 37 23 38 73 39 24 40 78 41 72 42 74 43 25 44 77 45
REMARK SMILES IDX 71 46 70 47 26 49 58 50 38 51 57 52 39 53 42 54 56 55 75 56
REMARK SMILES IDX 40 57 41 58 55 60 76 61 43 62 27 63 28 64 36 65 29 66 31 67
REMARK SMILES IDX 37 68 30 69 32 70 33 71 34 72 35 73 59 74 60 75 68 76 61 77
REMARK SMILES IDX 63 78 69 79 62 80 64 81 65 82 66 83 67 84 44 85 45 86 53 87
REMARK SMILES IDX 46 88 48 89 54 90 47 91 49 92 50 93 51 94 52 95
REMARK H PARENT 10 5 15 29 74 48 42 59
REMARK Flexibility Score: inf
ROOT
ATOM      1  C   UNL A   1      34.979  21.457  24.485  1.00  0.00     0.116 C 
ENDROOT
BRANCH   1   2
ATOM      2  N   UNL A   1      34.747  21.223  25.895  1.00  0.00    -0.356 N 
ATOM      3  C   UNL A   1      33.682  21.590  26.659  1.00  0.00     0.220 C 
ATOM      4  O   UNL A   1      33.754  21.484  27.883  1.00  0.00    -0.275 OA
ATOM      5  H   UNL A   1      35.457  20.730  26.367  1.00  0.00     0.163 HD
BRANCH   3   6
ATOM      6  C   UNL A   1      32.413  22.086  25.995  1.00  0.00     0.102 C 
BRANCH   6   7
ATOM      7  C   UNL A   1      32.225  23.605  26.023  1.00  0.00     0.031 C 
BRANCH   7   8
ATOM      8  C   UNL A   1      33.088  24.457  25.082  1.00  0.00     0.117 C 
BRANCH   8   9
ATOM      9  N   UNL A   1      32.422  25.460  24.204  1.00  0.00    -0.364 N 
BRANCH   9  10
ATOM     10  C   UNL A   1      31.861  24.928  22.931  1.00  0.00     0.076 C 
ATOM     11  C   UNL A   1      32.901  24.332  21.989  1.00  0.00     0.030 C 
ATOM     12  C   UNL A   1      30.702  23.968  23.175  1.00  0.00     0.030 C 
ENDBRANCH   9  10
BRANCH   9  13
ATOM     13  C   UNL A   1      32.272  26.781  24.602  1.00  0.00     0.117 A 
ATOM     14  C   UNL A   1      33.189  27.273  25.555  1.00  0.00     0.055 A 
ATOM     15  C   UNL A   1      31.287  27.705  24.198  1.00  0.00     0.294 A 
ATOM     16  C   UNL A   1      33.062  28.533  26.159  1.00  0.00     0.062 A 
ATOM     17  C   UNL A   1      31.155  28.986  24.773  1.00  0.00     0.110 A 
ATOM     18  Cl  UNL A   1      34.188  28.942  27.404  1.00  0.00    -0.083 Cl
ATOM     19  C   UNL A   1      32.029  29.386  25.777  1.00  0.00     0.066 A 
ATOM     20  Cl  UNL A   1      31.779  30.933  26.498  1.00  0.00    -0.082 Cl
BRANCH  15  21
ATOM     21  N   UNL A   1      30.309  27.419  23.171  1.00  0.00     0.065 N 
ATOM     22  O   UNL A   1      30.642  27.677  22.006  1.00  0.00    -0.258 OA
ATOM     23  O   UNL A   1      29.194  27.025  23.532  1.00  0.00    -0.258 OA
ENDBRANCH  15  21
ENDBRANCH   9  13
ENDBRANCH   8   9
ENDBRANCH   7   8
ENDBRANCH   6   7
ENDBRANCH   3   6
ENDBRANCH   1   2
BRANCH   1  24
ATOM     24  C   UNL A   1      36.464  21.739  24.239  1.00  0.00     0.023 C 
BRANCH  24  25
ATOM     25  C   UNL A   1      37.392  20.698  24.845  1.00  0.00     0.023 C 
BRANCH  25  26
ATOM     26  C   UNL A   1      38.466  21.286  25.750  1.00  0.00     0.116 C 
BRANCH  26  27
ATOM     27  N   UNL A   1      39.510  20.339  26.129  1.00  0.00    -0.352 N 
ATOM     28  C   UNL A   1      40.679  20.609  26.806  1.00  0.00     0.251 C 
ATOM     29  H   UNL A   1      39.362  19.401  25.871  1.00  0.00     0.163 HD
ATOM     30  O   UNL A   1      41.533  19.755  26.994  1.00  0.00    -0.269 OA
BRANCH  28  31
ATOM     31  C   UNL A   1      40.878  21.992  27.284  1.00  0.00     0.039 A 
ATOM     32  C   UNL A   1      41.691  22.225  28.392  1.00  0.00     0.014 A 
ATOM     33  C   UNL A   1      40.372  23.051  26.525  1.00  0.00     0.014 A 
ATOM     34  C   UNL A   1      42.077  23.533  28.686  1.00  0.00     0.010 A 
ATOM     35  C   UNL A   1      40.831  24.337  26.764  1.00  0.00     0.010 A 
ATOM     36  C   UNL A   1      41.693  24.590  27.843  1.00  0.00    -0.014 A 
BRANCH  36  37
ATOM     37  C   UNL A   1      42.197  25.970  28.049  1.00  0.00     0.031 A 
ATOM     38  C   UNL A   1      41.311  27.004  28.686  1.00  0.00     0.074 A 
ATOM     39  C   UNL A   1      43.407  26.317  27.564  1.00  0.00     0.049 A 
ATOM     40  N   UNL A   1      41.540  28.275  28.881  1.00  0.00    -0.248 NA
ATOM     41  C   UNL A   1      39.978  26.559  29.124  1.00  0.00     0.031 C 
ATOM     42  C   UNL A   1      44.316  25.428  26.835  1.00  0.00     0.029 A 
ATOM     43  N   UNL A   1      44.072  27.517  27.590  1.00  0.00    -0.354 N 
ATOM     44  C   UNL A   1      40.371  28.788  29.429  1.00  0.00     0.074 A 
ATOM     45  C   UNL A   1      39.419  27.702  29.492  1.00  0.00     0.031 C 
ATOM     46  C   UNL A   1      45.423  26.109  26.497  1.00  0.00     0.029 A 
ATOM     47  C   UNL A   1      45.296  27.486  26.964  1.00  0.00     0.049 A 
ATOM     48  H   UNL A   1      43.705  28.326  28.016  1.00  0.00     0.167 HD
ATOM     49  C   UNL A   1      40.124  30.040  29.881  1.00  0.00     0.034 A 
ATOM     50  C   UNL A   1      46.216  28.456  26.796  1.00  0.00     0.034 A 
ATOM     51  C   UNL A   1      41.096  31.099  29.876  1.00  0.00     0.049 A 
ATOM     52  C   UNL A   1      45.951  29.818  27.379  1.00  0.00     0.074 A 
ATOM     53  C   UNL A   1      40.977  32.377  30.387  1.00  0.00     0.029 A 
ATOM     54  N   UNL A   1      42.370  30.996  29.339  1.00  0.00    -0.354 N 
ATOM     55  N   UNL A   1      44.897  30.241  28.035  1.00  0.00    -0.248 NA
ATOM     56  C   UNL A   1      47.014  30.822  27.235  1.00  0.00     0.031 C 
ATOM     57  C   UNL A   1      42.184  33.050  30.159  1.00  0.00     0.029 A 
ATOM     58  C   UNL A   1      43.054  32.186  29.514  1.00  0.00     0.049 A 
ATOM     59  H   UNL A   1      42.735  30.194  28.899  1.00  0.00     0.167 HD
ATOM     60  C   UNL A   1      45.183  31.549  28.410  1.00  0.00     0.074 A 
ATOM     61  C   UNL A   1      46.517  31.840  27.926  1.00  0.00     0.031 C 
ATOM     62  C   UNL A   1      44.403  32.435  29.078  1.00  0.00     0.034 A 
BRANCH  49  63
ATOM     63  C   UNL A   1      38.775  30.301  30.494  1.00  0.00     0.023 A 
ATOM     64  C   UNL A   1      38.457  29.706  31.733  1.00  0.00     0.012 A 
ATOM     65  C   UNL A   1      37.841  31.154  29.878  1.00  0.00     0.148 A 
ATOM     66  C   UNL A   1      37.218  29.924  32.331  1.00  0.00     0.002 A 
ATOM     67  C   UNL A   1      36.622  31.400  30.501  1.00  0.00     0.091 A 
ATOM     68  F   UNL A   1      38.149  31.690  28.689  1.00  0.00    -0.205 F 
ATOM     69  C   UNL A   1      36.305  30.778  31.720  1.00  0.00     0.022 A 
BRANCH  67  70
ATOM     70  S   UNL A   1      35.407  32.541  29.831  1.00  0.00     0.127 S 
ATOM     71  O   UNL A   1      34.977  31.839  28.622  1.00  0.00    -0.237 OA
ATOM     72  O   UNL A   1      34.406  32.588  30.897  1.00  0.00    -0.237 OA
ATOM     73  O   UNL A   1      36.115  33.794  29.611  1.00  0.00    -0.744 OA
ENDBRANCH  67  70
ENDBRANCH  49  63
BRANCH  50  74
ATOM     74  C   UNL A   1      47.513  28.141  26.133  1.00  0.00     0.023 A 
ATOM     75  C   UNL A   1      48.648  27.896  26.933  1.00  0.00     0.012 A 
ATOM     76  C   UNL A   1      47.625  28.036  24.735  1.00  0.00     0.148 A 
ATOM     77  C   UNL A   1      49.875  27.579  26.352  1.00  0.00     0.002 A 
ATOM     78  C   UNL A   1      48.840  27.669  24.163  1.00  0.00     0.091 A 
ATOM     79  F   UNL A   1      46.538  28.282  23.990  1.00  0.00    -0.205 F 
ATOM     80  C   UNL A   1      49.968  27.455  24.968  1.00  0.00     0.022 A 
BRANCH  78  81
ATOM     81  S   UNL A   1      49.020  27.361  22.402  1.00  0.00     0.127 S 
ATOM     82  O   UNL A   1      50.468  27.239  22.265  1.00  0.00    -0.237 OA
ATOM     83  O   UNL A   1      48.278  26.110  22.236  1.00  0.00    -0.237 OA
ATOM     84  O   UNL A   1      48.412  28.507  21.741  1.00  0.00    -0.744 OA
ENDBRANCH  78  81
ENDBRANCH  50  74
BRANCH  62  85
ATOM     85  C   UNL A   1      44.976  33.800  29.353  1.00  0.00     0.023 A 
ATOM     86  C   UNL A   1      45.652  34.037  30.565  1.00  0.00     0.012 A 
ATOM     87  C   UNL A   1      44.922  34.813  28.376  1.00  0.00     0.148 A 
ATOM     88  C   UNL A   1      46.248  35.273  30.811  1.00  0.00     0.002 A 
ATOM     89  C   UNL A   1      45.555  36.029  28.613  1.00  0.00     0.091 A 
ATOM     90  F   UNL A   1      44.254  34.574  27.239  1.00  0.00    -0.205 F 
ATOM     91  C   UNL A   1      46.211  36.262  29.831  1.00  0.00     0.022 A 
BRANCH  89  92
ATOM     92  S   UNL A   1      45.635  37.323  27.369  1.00  0.00     0.127 S 
ATOM     93  O   UNL A   1      46.409  38.352  28.060  1.00  0.00    -0.237 OA
ATOM     94  O   UNL A   1      46.343  36.660  26.272  1.00  0.00    -0.237 OA
ATOM     95  O   UNL A   1      44.254  37.670  27.067  1.00  0.00    -0.744 OA
ENDBRANCH  89  92
ENDBRANCH  62  85
ENDBRANCH  36  37
ENDBRANCH  28  31
ENDBRANCH  26  27
ENDBRANCH  25  26
ENDBRANCH  24  25
ENDBRANCH   1  24
TORSDOF 20
ENDMDL
MODEL 3
REMARK VINA RESULT:     -10.4      2.422      3.418
REMARK SMILES CC(C)N(CCCC(=O)NCCCCNC(=O)c1ccc(-c2c3nc(c(-c4cccc(S(=O)(=O)[O-])c4F)c4ccc([nH]4)c(-c4cccc(S(=O)(=O)[O-])c4F)c4nc(c(-c5cccc(S(=O)(=O)[O-])c5F)c5ccc2[nH]5)C=C4)C=C3)cc1)c1cc(Cl)c(Cl)cc1[N+](=O)[O-]
REMARK SMILES IDX 11 1 10 2 8 3 9 4 7 6 6 7 5 8 4 9 2 10 1 11 3 12 81 13 82 14
REMARK SMILES IDX 88 15 83 16 87 17 84 18 85 19 86 20 89 21 90 22 91 23 12 24
REMARK SMILES IDX 13 25 14 26 15 27 16 28 17 30 18 31 19 32 80 33 20 34 79 35
REMARK SMILES IDX 21 36 22 37 23 38 73 39 24 40 78 41 72 42 74 43 25 44 77 45
REMARK SMILES IDX 71 46 70 47 26 49 58 50 38 51 57 52 39 53 42 54 56 55 75 56
REMARK SMILES IDX 40 57 41 58 55 60 76 61 43 62 27 63 28 64 36 65 29 66 31 67
REMARK SMILES IDX 37 68 30 69 32 70 33 71 34 72 35 73 59 74 60 75 68 76 61 77
REMARK SMILES IDX 63 78 69 79 62 80 64 81 65 82 66 83 67 84 44 85 45 86 53 87
REMARK SMILES IDX 46 88 48 89 54 90 47 91 49 92 50 93 51 94 52 95
REMARK H PARENT 10 5 15 29 74 48 42 59
REMARK Flexibility Score: inf
ROOT
ATOM      1  C   UNL A   1      38.546  22.147  25.815  1.00  0.00     0.116 C 
ENDROOT
BRANCH   1   2
ATOM      2  N   UNL A   1      37.376  21.322  25.601  1.00  0.00    -0.356 N 
ATOM      3  C   UNL A   1      36.374  21.479  24.693  1.00  0.00     0.220 C 
ATOM      4  O   UNL A   1      35.356  20.795  24.795  1.00  0.00    -0.275 OA
ATOM      5  H   UNL A   1      37.292  20.540  26.194  1.00  0.00     0.163 HD
BRANCH   3   6
ATOM      6  C   UNL A   1      36.539  22.460  23.550  1.00  0.00     0.102 C 
BRANCH   6   7
ATOM      7  C   UNL A   1      35.471  23.555  23.484  1.00  0.00     0.031 C 
BRANCH   7   8
ATOM      8  C   UNL A   1      35.002  24.187  24.801  1.00  0.00     0.117 C 
BRANCH   8   9
ATOM      9  N   UNL A   1      33.550  24.470  24.988  1.00  0.00    -0.364 N 
BRANCH   9  10
ATOM     10  C   UNL A   1      32.719  23.309  25.413  1.00  0.00     0.076 C 
ATOM     11  C   UNL A   1      32.894  22.917  26.875  1.00  0.00     0.030 C 
ATOM     12  C   UNL A   1      31.251  23.494  25.047  1.00  0.00     0.030 C 
ENDBRANCH   9  10
BRANCH   9  13
ATOM     13  C   UNL A   1      33.042  25.754  24.852  1.00  0.00     0.117 A 
ATOM     14  C   UNL A   1      32.821  26.486  26.037  1.00  0.00     0.055 A 
ATOM     15  C   UNL A   1      32.679  26.425  23.666  1.00  0.00     0.294 A 
ATOM     16  C   UNL A   1      32.170  27.729  26.057  1.00  0.00     0.062 A 
ATOM     17  C   UNL A   1      32.046  27.685  23.661  1.00  0.00     0.110 A 
ATOM     18  Cl  UNL A   1      31.856  28.444  27.598  1.00  0.00    -0.083 Cl
ATOM     19  C   UNL A   1      31.767  28.323  24.864  1.00  0.00     0.066 A 
ATOM     20  Cl  UNL A   1      30.925  29.827  24.805  1.00  0.00    -0.082 Cl
BRANCH  15  21
ATOM     21  N   UNL A   1      32.903  25.875  22.347  1.00  0.00     0.065 N 
ATOM     22  O   UNL A   1      32.135  24.970  21.990  1.00  0.00    -0.258 OA
ATOM     23  O   UNL A   1      33.885  26.278  21.713  1.00  0.00    -0.258 OA
ENDBRANCH  15  21
ENDBRANCH   9  13
ENDBRANCH   8   9
ENDBRANCH   7   8
ENDBRANCH   6   7
ENDBRANCH   3   6
ENDBRANCH   1   2
BRANCH   1  24
ATOM     24  C   UNL A   1      39.774  21.261  26.052  1.00  0.00     0.023 C 
BRANCH  24  25
ATOM     25  C   UNL A   1      40.675  21.751  27.173  1.00  0.00     0.023 C 
BRANCH  25  26
ATOM     26  C   UNL A   1      41.740  20.745  27.588  1.00  0.00     0.116 C 
BRANCH  26  27
ATOM     27  N   UNL A   1      42.297  19.976  26.480  1.00  0.00    -0.352 N 
ATOM     28  C   UNL A   1      43.218  20.401  25.548  1.00  0.00     0.251 C 
ATOM     29  H   UNL A   1      41.978  19.050  26.388  1.00  0.00     0.163 HD
ATOM     30  O   UNL A   1      43.552  19.704  24.600  1.00  0.00    -0.269 OA
BRANCH  28  31
ATOM     31  C   UNL A   1      43.780  21.755  25.722  1.00  0.00     0.039 A 
ATOM     32  C   UNL A   1      43.406  22.772  24.844  1.00  0.00     0.014 A 
ATOM     33  C   UNL A   1      44.554  22.028  26.854  1.00  0.00     0.014 A 
ATOM     34  C   UNL A   1      43.734  24.091  25.157  1.00  0.00     0.010 A 
ATOM     35  C   UNL A   1      44.798  23.346  27.207  1.00  0.00     0.010 A 
ATOM     36  C   UNL A   1      44.385  24.391  26.366  1.00  0.00    -0.014 A 
BRANCH  36  37
ATOM     37  C   UNL A   1      44.627  25.791  26.791  1.00  0.00     0.031 A 
ATOM     38  C   UNL A   1      46.006  26.379  26.684  1.00  0.00     0.074 A 
ATOM     39  C   UNL A   1      43.632  26.493  27.372  1.00  0.00     0.049 A 
ATOM     40  N   UNL A   1      46.433  27.551  27.072  1.00  0.00    -0.248 NA
ATOM     41  C   UNL A   1      47.052  25.522  26.101  1.00  0.00     0.031 C 
ATOM     42  C   UNL A   1      42.278  25.993  27.626  1.00  0.00     0.029 A 
ATOM     43  N   UNL A   1      43.613  27.768  27.879  1.00  0.00    -0.354 N 
ATOM     44  C   UNL A   1      47.798  27.558  26.816  1.00  0.00     0.074 A 
ATOM     45  C   UNL A   1      48.137  26.259  26.283  1.00  0.00     0.031 C 
ATOM     46  C   UNL A   1      41.558  26.956  28.225  1.00  0.00     0.029 A 
ATOM     47  C   UNL A   1      42.401  28.131  28.418  1.00  0.00     0.049 A 
ATOM     48  H   UNL A   1      44.394  28.367  27.858  1.00  0.00     0.167 HD
ATOM     49  C   UNL A   1      48.684  28.571  26.968  1.00  0.00     0.034 A 
ATOM     50  C   UNL A   1      42.012  29.285  28.995  1.00  0.00     0.034 A 
ATOM     51  C   UNL A   1      48.329  29.882  27.437  1.00  0.00     0.049 A 
ATOM     52  C   UNL A   1      42.995  30.422  29.078  1.00  0.00     0.074 A 
ATOM     53  C   UNL A   1      49.131  31.002  27.547  1.00  0.00     0.029 A 
ATOM     54  N   UNL A   1      47.063  30.248  27.865  1.00  0.00    -0.354 N 
ATOM     55  N   UNL A   1      44.245  30.461  28.684  1.00  0.00    -0.248 NA
ATOM     56  C   UNL A   1      42.504  31.685  29.648  1.00  0.00     0.031 C 
ATOM     57  C   UNL A   1      48.347  32.050  28.044  1.00  0.00     0.029 A 
ATOM     58  C   UNL A   1      47.056  31.583  28.233  1.00  0.00     0.049 A 
ATOM     59  H   UNL A   1      46.283  29.649  27.902  1.00  0.00     0.167 HD
ATOM     60  C   UNL A   1      44.681  31.759  28.928  1.00  0.00     0.074 A 
ATOM     61  C   UNL A   1      43.554  32.480  29.483  1.00  0.00     0.031 C 
ATOM     62  C   UNL A   1      45.908  32.298  28.727  1.00  0.00     0.034 A 
BRANCH  49  63
ATOM     63  C   UNL A   1      50.105  28.317  26.542  1.00  0.00     0.023 A 
ATOM     64  C   UNL A   1      50.436  28.395  25.173  1.00  0.00     0.012 A 
ATOM     65  C   UNL A   1      51.115  28.040  27.481  1.00  0.00     0.148 A 
ATOM     66  C   UNL A   1      51.740  28.165  24.740  1.00  0.00     0.002 A 
ATOM     67  C   UNL A   1      52.423  27.853  27.047  1.00  0.00     0.091 A 
ATOM     68  F   UNL A   1      50.779  27.945  28.775  1.00  0.00    -0.205 F 
ATOM     69  C   UNL A   1      52.735  27.904  25.678  1.00  0.00     0.022 A 
BRANCH  67  70
ATOM     70  S   UNL A   1      53.790  27.583  28.182  1.00  0.00     0.127 S 
ATOM     71  O   UNL A   1      54.922  27.483  27.261  1.00  0.00    -0.237 OA
ATOM     72  O   UNL A   1      53.767  28.804  28.989  1.00  0.00    -0.237 OA
ATOM     73  O   UNL A   1      53.467  26.368  28.914  1.00  0.00    -0.744 OA
ENDBRANCH  67  70
ENDBRANCH  49  63
BRANCH  50  74
ATOM     74  C   UNL A   1      40.601  29.452  29.441  1.00  0.00     0.023 A 
ATOM     75  C   UNL A   1      39.630  29.858  28.503  1.00  0.00     0.012 A 
ATOM     76  C   UNL A   1      40.202  29.171  30.761  1.00  0.00     0.148 A 
ATOM     77  C   UNL A   1      38.295  30.007  28.877  1.00  0.00     0.002 A 
ATOM     78  C   UNL A   1      38.860  29.273  31.116  1.00  0.00     0.091 A 
ATOM     79  F   UNL A   1      41.141  28.796  31.642  1.00  0.00    -0.205 F 
ATOM     80  C   UNL A   1      37.909  29.705  30.180  1.00  0.00     0.022 A 
BRANCH  78  81
ATOM     81  S   UNL A   1      38.253  28.780  32.734  1.00  0.00     0.127 S 
ATOM     82  O   UNL A   1      36.820  29.027  32.604  1.00  0.00    -0.237 OA
ATOM     83  O   UNL A   1      38.633  27.367  32.782  1.00  0.00    -0.237 OA
ATOM     84  O   UNL A   1      38.960  29.621  33.689  1.00  0.00    -0.744 OA
ENDBRANCH  78  81
ENDBRANCH  50  74
BRANCH  62  85
ATOM     85  C   UNL A   1      46.100  33.747  29.083  1.00  0.00     0.023 A 
ATOM     86  C   UNL A   1      46.708  34.086  30.308  1.00  0.00     0.012 A 
ATOM     87  C   UNL A   1      45.763  34.765  28.169  1.00  0.00     0.148 A 
ATOM     88  C   UNL A   1      46.957  35.420  30.628  1.00  0.00     0.002 A 
ATOM     89  C   UNL A   1      46.053  36.089  28.478  1.00  0.00     0.091 A 
ATOM     90  F   UNL A   1      45.166  34.422  27.020  1.00  0.00    -0.205 F 
ATOM     91  C   UNL A   1      46.642  36.419  29.709  1.00  0.00     0.022 A 
BRANCH  89  92
ATOM     92  S   UNL A   1      45.766  37.427  27.314  1.00  0.00     0.127 S 
ATOM     93  O   UNL A   1      46.058  38.602  28.134  1.00  0.00    -0.237 OA
ATOM     94  O   UNL A   1      46.754  37.152  26.270  1.00  0.00    -0.237 OA
ATOM     95  O   UNL A   1      44.382  37.289  26.883  1.00  0.00    -0.744 OA
ENDBRANCH  89  92
ENDBRANCH  62  85
ENDBRANCH  36  37
ENDBRANCH  28  31
ENDBRANCH  26  27
ENDBRANCH  25  26
ENDBRANCH  24  25
ENDBRANCH   1  24
TORSDOF 20
ENDMDL
