MODEL 1
REMARK VINA RESULT:     -11.6      0.000      0.000
REMARK SMILES Nc1c(CC(=O)NCCCCNC(=O)c2ccc(-c3c4nc(c(-c5cccc(S(=O)(=O)[O-])c5F)c5ccc([nH]5)c(-c5cccc(S(=O)(=O)[O-])c5F)c5nc(c(-c6cccc(S(=O)(=O)[O-])c6F)c6ccc3[nH]6)C=C5)C=C4)cc2)cccc1C(=O)c1ccc(Br)cc1
REMARK SMILES IDX 9 1 8 2 7 3 5 4 6 5 4 7 3 8 2 9 81 10 78 11 80 12 79 13 1 14
REMARK SMILES IDX 82 17 83 18 84 19 85 20 90 21 86 22 89 23 87 24 88 25 10 26
REMARK SMILES IDX 11 27 12 28 13 29 14 31 15 32 16 33 77 34 17 35 76 36 18 37
REMARK SMILES IDX 19 38 20 39 70 40 21 41 75 42 69 43 71 44 22 45 74 46 68 47
REMARK SMILES IDX 67 48 23 50 55 51 35 52 54 53 36 54 39 55 53 56 72 57 37 58
REMARK SMILES IDX 38 59 52 61 73 62 40 63 24 64 25 65 33 66 26 67 28 68 34 69
REMARK SMILES IDX 27 70 29 71 30 72 31 73 32 74 56 75 57 76 65 77 58 78 60 79
REMARK SMILES IDX 66 80 59 81 61 82 62 83 63 84 64 85 41 86 42 87 50 88 43 89
REMARK SMILES IDX 45 90 51 91 44 92 46 93 47 94 48 95 49 96
REMARK H PARENT 7 6 1 15 1 16 12 30 71 49 39 60
REMARK Flexibility Score: inf
ROOT
ATOM      1  C   UNL A   1      32.841  29.097  24.523  1.00  0.00     0.023 C 
ENDROOT
BRANCH   1   2
ATOM      2  C   UNL A   1      31.367  29.440  24.741  1.00  0.00     0.116 C 
BRANCH   2   3
ATOM      3  N   UNL A   1      30.707  29.790  23.500  1.00  0.00    -0.356 N 
ATOM      4  C   UNL A   1      29.933  29.009  22.689  1.00  0.00     0.224 C 
ATOM      5  O   UNL A   1      29.520  29.490  21.633  1.00  0.00    -0.275 OA
ATOM      6  H   UNL A   1      30.835  30.719  23.198  1.00  0.00     0.163 HD
BRANCH   4   7
ATOM      7  C   UNL A   1      29.527  27.608  23.119  1.00  0.00     0.137 C 
BRANCH   7   8
ATOM      8  C   UNL A   1      30.614  26.555  22.985  1.00  0.00    -0.015 A 
ATOM      9  C   UNL A   1      30.782  25.494  23.916  1.00  0.00     0.046 A 
ATOM     10  C   UNL A   1      31.890  24.617  23.764  1.00  0.00     0.046 A 
ATOM     11  C   UNL A   1      31.513  26.698  21.911  1.00  0.00     0.006 A 
ATOM     12  C   UNL A   1      32.779  24.810  22.689  1.00  0.00     0.014 A 
ATOM     13  C   UNL A   1      32.591  25.835  21.767  1.00  0.00     0.001 A 
BRANCH   9  14
ATOM     14  N   UNL A   1      29.882  25.387  24.972  1.00  0.00    -0.398 N 
ATOM     15  H   UNL A   1      29.765  24.526  25.434  1.00  0.00     0.156 HD
ATOM     16  H   UNL A   1      29.361  26.173  25.258  1.00  0.00     0.156 HD
ENDBRANCH   9  14
BRANCH  10  17
ATOM     17  C   UNL A   1      32.257  23.483  24.683  1.00  0.00     0.195 C 
ATOM     18  O   UNL A   1      31.384  22.762  25.168  1.00  0.00    -0.289 OA
BRANCH  17  19
ATOM     19  C   UNL A   1      33.647  23.122  25.012  1.00  0.00     0.023 A 
ATOM     20  C   UNL A   1      34.179  21.957  24.447  1.00  0.00     0.013 A 
ATOM     21  C   UNL A   1      34.432  23.935  25.836  1.00  0.00     0.013 A 
ATOM     22  C   UNL A   1      35.525  21.645  24.643  1.00  0.00     0.016 A 
ATOM     23  C   UNL A   1      35.784  23.628  26.018  1.00  0.00     0.016 A 
ATOM     24  C   UNL A   1      36.325  22.493  25.411  1.00  0.00     0.018 A 
ATOM     25  Br  UNL A   1      38.165  22.112  25.615  1.00  0.00    -0.051 Br
ENDBRANCH  17  19
ENDBRANCH  10  17
ENDBRANCH   7   8
ENDBRANCH   4   7
ENDBRANCH   2   3
ENDBRANCH   1   2
BRANCH   1  26
ATOM     26  C   UNL A   1      33.352  27.959  25.409  1.00  0.00     0.023 C 
BRANCH  26  27
ATOM     27  C   UNL A   1      34.014  28.406  26.707  1.00  0.00     0.116 C 
BRANCH  27  28
ATOM     28  N   UNL A   1      33.773  29.807  27.013  1.00  0.00    -0.352 N 
ATOM     29  C   UNL A   1      34.551  30.667  27.748  1.00  0.00     0.251 C 
ATOM     30  H   UNL A   1      32.944  30.190  26.645  1.00  0.00     0.163 HD
ATOM     31  O   UNL A   1      34.130  31.790  28.021  1.00  0.00    -0.269 OA
BRANCH  29  32
ATOM     32  C   UNL A   1      35.879  30.229  28.231  1.00  0.00     0.039 A 
ATOM     33  C   UNL A   1      35.980  29.674  29.509  1.00  0.00     0.014 A 
ATOM     34  C   UNL A   1      37.017  30.358  27.430  1.00  0.00     0.014 A 
ATOM     35  C   UNL A   1      37.217  29.215  29.966  1.00  0.00     0.010 A 
ATOM     36  C   UNL A   1      38.229  29.819  27.853  1.00  0.00     0.010 A 
ATOM     37  C   UNL A   1      38.349  29.263  29.133  1.00  0.00    -0.014 A 
BRANCH  37  38
ATOM     38  C   UNL A   1      39.662  28.750  29.603  1.00  0.00     0.031 A 
ATOM     39  C   UNL A   1      40.403  29.454  30.710  1.00  0.00     0.074 A 
ATOM     40  C   UNL A   1      40.213  27.677  29.002  1.00  0.00     0.049 A 
ATOM     41  N   UNL A   1      41.548  29.144  31.262  1.00  0.00    -0.248 NA
ATOM     42  C   UNL A   1      39.795  30.681  31.251  1.00  0.00     0.031 C 
ATOM     43  C   UNL A   1      39.640  26.959  27.861  1.00  0.00     0.029 A 
ATOM     44  N   UNL A   1      41.385  27.012  29.257  1.00  0.00    -0.354 N 
ATOM     45  C   UNL A   1      41.810  30.147  32.188  1.00  0.00     0.074 A 
ATOM     46  C   UNL A   1      40.729  31.102  32.092  1.00  0.00     0.031 C 
ATOM     47  C   UNL A   1      40.452  25.944  27.528  1.00  0.00     0.029 A 
ATOM     48  C   UNL A   1      41.615  25.954  28.409  1.00  0.00     0.049 A 
ATOM     49  H   UNL A   1      42.005  27.268  29.978  1.00  0.00     0.167 HD
ATOM     50  C   UNL A   1      42.839  30.251  33.063  1.00  0.00     0.034 A 
ATOM     51  C   UNL A   1      42.645  25.087  28.349  1.00  0.00     0.034 A 
ATOM     52  C   UNL A   1      43.894  29.282  33.181  1.00  0.00     0.049 A 
ATOM     53  C   UNL A   1      43.753  25.199  29.361  1.00  0.00     0.074 A 
ATOM     54  C   UNL A   1      44.932  29.249  34.095  1.00  0.00     0.029 A 
ATOM     55  N   UNL A   1      44.055  28.181  32.354  1.00  0.00    -0.354 N 
ATOM     56  N   UNL A   1      43.896  26.060  30.339  1.00  0.00    -0.248 NA
ATOM     57  C   UNL A   1      44.821  24.192  29.287  1.00  0.00     0.031 C 
ATOM     58  C   UNL A   1      45.741  28.146  33.798  1.00  0.00     0.029 A 
ATOM     59  C   UNL A   1      45.182  27.470  32.725  1.00  0.00     0.049 A 
ATOM     60  H   UNL A   1      43.454  27.941  31.611  1.00  0.00     0.167 HD
ATOM     61  C   UNL A   1      45.049  25.679  31.018  1.00  0.00     0.074 A 
ATOM     62  C   UNL A   1      45.548  24.493  30.355  1.00  0.00     0.031 C 
ATOM     63  C   UNL A   1      45.647  26.267  32.083  1.00  0.00     0.034 A 
BRANCH  50  64
ATOM     64  C   UNL A   1      42.847  31.436  33.996  1.00  0.00     0.023 A 
ATOM     65  C   UNL A   1      43.424  32.653  33.575  1.00  0.00     0.012 A 
ATOM     66  C   UNL A   1      42.241  31.364  35.265  1.00  0.00     0.148 A 
ATOM     67  C   UNL A   1      43.432  33.765  34.415  1.00  0.00     0.002 A 
ATOM     68  C   UNL A   1      42.209  32.491  36.077  1.00  0.00     0.091 A 
ATOM     69  F   UNL A   1      41.715  30.194  35.657  1.00  0.00    -0.205 F 
ATOM     70  C   UNL A   1      42.816  33.688  35.661  1.00  0.00     0.022 A 
BRANCH  68  71
ATOM     71  S   UNL A   1      41.368  32.521  37.664  1.00  0.00     0.127 S 
ATOM     72  O   UNL A   1      40.032  32.052  37.299  1.00  0.00    -0.237 OA
ATOM     73  O   UNL A   1      42.157  31.568  38.446  1.00  0.00    -0.237 OA
ATOM     74  O   UNL A   1      41.439  33.898  38.132  1.00  0.00    -0.744 OA
ENDBRANCH  68  71
ENDBRANCH  50  64
BRANCH  51  75
ATOM     75  C   UNL A   1      42.646  23.998  27.332  1.00  0.00     0.023 A 
ATOM     76  C   UNL A   1      43.262  24.212  26.083  1.00  0.00     0.012 A 
ATOM     77  C   UNL A   1      42.056  22.748  27.600  1.00  0.00     0.148 A 
ATOM     78  C   UNL A   1      43.256  23.217  25.105  1.00  0.00     0.002 A 
ATOM     79  C   UNL A   1      42.105  21.741  26.644  1.00  0.00     0.091 A 
ATOM     80  F   UNL A   1      41.469  22.566  28.790  1.00  0.00    -0.205 F 
ATOM     81  C   UNL A   1      42.686  21.978  25.389  1.00  0.00     0.022 A 
BRANCH  79  82
ATOM     82  S   UNL A   1      41.514  20.076  26.968  1.00  0.00     0.127 S 
ATOM     83  O   UNL A   1      42.735  19.407  27.409  1.00  0.00    -0.237 OA
ATOM     84  O   UNL A   1      40.523  20.309  28.018  1.00  0.00    -0.237 OA
ATOM     85  O   UNL A   1      40.956  19.604  25.707  1.00  0.00    -0.744 OA
ENDBRANCH  79  82
ENDBRANCH  51  75
BRANCH  63  86
ATOM     86  C   UNL A   1      46.893  25.615  32.626  1.00  0.00     0.023 A 
ATOM     87  C   UNL A   1      48.159  25.981  32.123  1.00  0.00     0.012 A 
ATOM     88  C   UNL A   1      46.813  24.673  33.672  1.00  0.00     0.148 A 
ATOM     89  C   UNL A   1      49.318  25.385  32.617  1.00  0.00     0.002 A 
ATOM     90  C   UNL A   1      47.978  24.125  34.197  1.00  0.00     0.091 A 
ATOM     91  F   UNL A   1      45.602  24.324  34.127  1.00  0.00    -0.205 F 
ATOM     92  C   UNL A   1      49.229  24.466  33.660  1.00  0.00     0.022 A 
BRANCH  90  93
ATOM     93  S   UNL A   1      47.964  23.011  35.606  1.00  0.00     0.127 S 
ATOM     94  O   UNL A   1      49.393  22.818  35.848  1.00  0.00    -0.237 OA
ATOM     95  O   UNL A   1      47.276  23.808  36.623  1.00  0.00    -0.237 OA
ATOM     96  O   UNL A   1      47.236  21.826  35.175  1.00  0.00    -0.744 OA
ENDBRANCH  90  93
ENDBRANCH  63  86
ENDBRANCH  37  38
ENDBRANCH  29  32
ENDBRANCH  27  28
ENDBRANCH  26  27
ENDBRANCH   1  26
TORSDOF 18
ENDMDL
MODEL 2
REMARK VINA RESULT:     -11.6      1.556      1.914
REMARK SMILES Nc1c(CC(=O)NCCCCNC(=O)c2ccc(-c3c4nc(c(-c5cccc(S(=O)(=O)[O-])c5F)c5ccc([nH]5)c(-c5cccc(S(=O)(=O)[O-])c5F)c5nc(c(-c6cccc(S(=O)(=O)[O-])c6F)c6ccc3[nH]6)C=C5)C=C4)cc2)cccc1C(=O)c1ccc(Br)cc1
REMARK SMILES IDX 9 1 8 2 7 3 5 4 6 5 4 7 3 8 2 9 81 10 78 11 80 12 79 13 1 14
REMARK SMILES IDX 82 17 83 18 84 19 85 20 90 21 86 22 89 23 87 24 88 25 10 26
REMARK SMILES IDX 11 27 12 28 13 29 14 31 15 32 16 33 77 34 17 35 76 36 18 37
REMARK SMILES IDX 19 38 20 39 70 40 21 41 75 42 69 43 71 44 22 45 74 46 68 47
REMARK SMILES IDX 67 48 23 50 55 51 35 52 54 53 36 54 39 55 53 56 72 57 37 58
REMARK SMILES IDX 38 59 52 61 73 62 40 63 24 64 25 65 33 66 26 67 28 68 34 69
REMARK SMILES IDX 27 70 29 71 30 72 31 73 32 74 56 75 57 76 65 77 58 78 60 79
REMARK SMILES IDX 66 80 59 81 61 82 62 83 63 84 64 85 41 86 42 87 50 88 43 89
REMARK SMILES IDX 45 90 51 91 44 92 46 93 47 94 48 95 49 96
REMARK H PARENT 7 6 1 15 1 16 12 30 71 49 39 60
REMARK Flexibility Score: inf
ROOT
ATOM      1  C   UNL A   1      33.986  28.072  24.102  1.00  0.00     0.023 C 
ENDROOT
BRANCH   1   2
ATOM      2  C   UNL A   1      33.148  28.650  22.960  1.00  0.00     0.116 C 
BRANCH   2   3
ATOM      3  N   UNL A   1      31.971  29.334  23.451  1.00  0.00    -0.356 N 
ATOM      4  C   UNL A   1      30.655  29.010  23.281  1.00  0.00     0.224 C 
ATOM      5  O   UNL A   1      29.800  29.775  23.730  1.00  0.00    -0.275 OA
ATOM      6  H   UNL A   1      32.142  30.148  23.979  1.00  0.00     0.163 HD
BRANCH   4   7
ATOM      7  C   UNL A   1      30.258  27.696  22.625  1.00  0.00     0.137 C 
BRANCH   7   8
ATOM      8  C   UNL A   1      30.581  26.451  23.434  1.00  0.00    -0.015 A 
ATOM      9  C   UNL A   1      31.318  25.356  22.905  1.00  0.00     0.046 A 
ATOM     10  C   UNL A   1      31.483  24.192  23.704  1.00  0.00     0.046 A 
ATOM     11  C   UNL A   1      30.064  26.386  24.741  1.00  0.00     0.006 A 
ATOM     12  C   UNL A   1      30.929  24.160  24.998  1.00  0.00     0.014 A 
ATOM     13  C   UNL A   1      30.232  25.248  25.517  1.00  0.00     0.001 A 
BRANCH   9  14
ATOM     14  N   UNL A   1      31.807  25.448  21.606  1.00  0.00    -0.398 N 
ATOM     15  H   UNL A   1      32.330  24.707  21.223  1.00  0.00     0.156 HD
ATOM     16  H   UNL A   1      31.629  26.254  21.068  1.00  0.00     0.156 HD
ENDBRANCH   9  14
BRANCH  10  17
ATOM     17  C   UNL A   1      32.178  22.923  23.290  1.00  0.00     0.195 C 
ATOM     18  O   UNL A   1      31.654  22.157  22.480  1.00  0.00    -0.289 OA
BRANCH  17  19
ATOM     19  C   UNL A   1      33.522  22.543  23.759  1.00  0.00     0.023 A 
ATOM     20  C   UNL A   1      33.634  21.448  24.626  1.00  0.00     0.013 A 
ATOM     21  C   UNL A   1      34.662  23.228  23.329  1.00  0.00     0.013 A 
ATOM     22  C   UNL A   1      34.898  20.988  25.000  1.00  0.00     0.016 A 
ATOM     23  C   UNL A   1      35.926  22.756  23.693  1.00  0.00     0.016 A 
ATOM     24  C   UNL A   1      36.037  21.633  24.515  1.00  0.00     0.018 A 
ATOM     25  Br  UNL A   1      37.749  20.966  24.960  1.00  0.00    -0.051 Br
ENDBRANCH  17  19
ENDBRANCH  10  17
ENDBRANCH   7   8
ENDBRANCH   4   7
ENDBRANCH   2   3
ENDBRANCH   1   2
BRANCH   1  26
ATOM     26  C   UNL A   1      33.227  27.942  25.424  1.00  0.00     0.023 C 
BRANCH  26  27
ATOM     27  C   UNL A   1      33.996  28.416  26.652  1.00  0.00     0.116 C 
BRANCH  27  28
ATOM     28  N   UNL A   1      33.725  29.805  26.989  1.00  0.00    -0.352 N 
ATOM     29  C   UNL A   1      34.481  30.662  27.749  1.00  0.00     0.251 C 
ATOM     30  H   UNL A   1      32.891  30.179  26.625  1.00  0.00     0.163 HD
ATOM     31  O   UNL A   1      34.036  31.770  28.045  1.00  0.00    -0.269 OA
BRANCH  29  32
ATOM     32  C   UNL A   1      35.815  30.240  28.231  1.00  0.00     0.039 A 
ATOM     33  C   UNL A   1      35.912  29.610  29.474  1.00  0.00     0.014 A 
ATOM     34  C   UNL A   1      36.961  30.456  27.462  1.00  0.00     0.014 A 
ATOM     35  C   UNL A   1      37.155  29.164  29.926  1.00  0.00     0.010 A 
ATOM     36  C   UNL A   1      38.183  29.932  27.876  1.00  0.00     0.010 A 
ATOM     37  C   UNL A   1      38.299  29.302  29.121  1.00  0.00    -0.014 A 
BRANCH  37  38
ATOM     38  C   UNL A   1      39.621  28.805  29.585  1.00  0.00     0.031 A 
ATOM     39  C   UNL A   1      40.350  29.506  30.702  1.00  0.00     0.074 A 
ATOM     40  C   UNL A   1      40.190  27.750  28.969  1.00  0.00     0.049 A 
ATOM     41  N   UNL A   1      41.499  29.207  31.250  1.00  0.00    -0.248 NA
ATOM     42  C   UNL A   1      39.721  30.715  31.259  1.00  0.00     0.031 C 
ATOM     43  C   UNL A   1      39.630  27.038  27.818  1.00  0.00     0.029 A 
ATOM     44  N   UNL A   1      41.374  27.101  29.216  1.00  0.00    -0.354 N 
ATOM     45  C   UNL A   1      41.744  30.202  32.190  1.00  0.00     0.074 A 
ATOM     46  C   UNL A   1      40.647  31.140  32.106  1.00  0.00     0.031 C 
ATOM     47  C   UNL A   1      40.459  26.042  27.471  1.00  0.00     0.029 A 
ATOM     48  C   UNL A   1      41.621  26.059  28.354  1.00  0.00     0.049 A 
ATOM     49  H   UNL A   1      41.989  27.357  29.941  1.00  0.00     0.167 HD
ATOM     50  C   UNL A   1      42.770  30.311  33.067  1.00  0.00     0.034 A 
ATOM     51  C   UNL A   1      42.666  25.210  28.282  1.00  0.00     0.034 A 
ATOM     52  C   UNL A   1      43.842  29.359  33.172  1.00  0.00     0.049 A 
ATOM     53  C   UNL A   1      43.771  25.327  29.297  1.00  0.00     0.074 A 
ATOM     54  C   UNL A   1      44.880  29.331  34.086  1.00  0.00     0.029 A 
ATOM     55  N   UNL A   1      44.021  28.272  32.331  1.00  0.00    -0.354 N 
ATOM     56  N   UNL A   1      43.900  26.177  30.287  1.00  0.00    -0.248 NA
ATOM     57  C   UNL A   1      44.857  24.339  29.210  1.00  0.00     0.031 C 
ATOM     58  C   UNL A   1      45.707  28.246  33.775  1.00  0.00     0.029 A 
ATOM     59  C   UNL A   1      45.161  27.575  32.693  1.00  0.00     0.049 A 
ATOM     60  H   UNL A   1      43.425  28.032  31.584  1.00  0.00     0.167 HD
ATOM     61  C   UNL A   1      45.058  25.806  30.960  1.00  0.00     0.074 A 
ATOM     62  C   UNL A   1      45.577  24.638  30.282  1.00  0.00     0.031 C 
ATOM     63  C   UNL A   1      45.646  26.389  32.034  1.00  0.00     0.034 A 
BRANCH  50  64
ATOM     64  C   UNL A   1      42.759  31.484  34.016  1.00  0.00     0.023 A 
ATOM     65  C   UNL A   1      43.347  32.705  33.626  1.00  0.00     0.012 A 
ATOM     66  C   UNL A   1      42.122  31.395  35.269  1.00  0.00     0.148 A 
ATOM     67  C   UNL A   1      43.337  33.805  34.481  1.00  0.00     0.002 A 
ATOM     68  C   UNL A   1      42.073  32.511  36.096  1.00  0.00     0.091 A 
ATOM     69  F   UNL A   1      41.586  30.221  35.633  1.00  0.00    -0.205 F 
ATOM     70  C   UNL A   1      42.691  33.712  35.710  1.00  0.00     0.022 A 
BRANCH  68  71
ATOM     71  S   UNL A   1      41.195  32.520  37.663  1.00  0.00     0.127 S 
ATOM     72  O   UNL A   1      42.031  31.637  38.475  1.00  0.00    -0.237 OA
ATOM     73  O   UNL A   1      41.254  33.933  38.039  1.00  0.00    -0.237 OA
ATOM     74  O   UNL A   1      39.856  32.022  37.378  1.00  0.00    -0.744 OA
ENDBRANCH  68  71
ENDBRANCH  50  64
BRANCH  51  75
ATOM     75  C   UNL A   1      42.686  24.136  27.250  1.00  0.00     0.023 A 
ATOM     76  C   UNL A   1      43.306  24.375  26.008  1.00  0.00     0.012 A 
ATOM     77  C   UNL A   1      42.110  22.875  27.498  1.00  0.00     0.148 A 
ATOM     78  C   UNL A   1      43.316  23.393  25.016  1.00  0.00     0.002 A 
ATOM     79  C   UNL A   1      42.177  21.882  26.528  1.00  0.00     0.091 A 
ATOM     80  F   UNL A   1      41.519  22.669  28.682  1.00  0.00    -0.205 F 
ATOM     81  C   UNL A   1      42.761  22.144  25.280  1.00  0.00     0.022 A 
BRANCH  79  82
ATOM     82  S   UNL A   1      41.605  20.205  26.826  1.00  0.00     0.127 S 
ATOM     83  O   UNL A   1      42.574  19.730  27.811  1.00  0.00    -0.237 OA
ATOM     84  O   UNL A   1      40.258  20.436  27.347  1.00  0.00    -0.237 OA
ATOM     85  O   UNL A   1      41.643  19.540  25.530  1.00  0.00    -0.744 OA
ENDBRANCH  79  82
ENDBRANCH  51  75
BRANCH  63  86
ATOM     86  C   UNL A   1      46.903  25.751  32.569  1.00  0.00     0.023 A 
ATOM     87  C   UNL A   1      46.832  24.852  33.654  1.00  0.00     0.012 A 
ATOM     88  C   UNL A   1      48.150  26.005  31.964  1.00  0.00     0.148 A 
ATOM     89  C   UNL A   1      47.988  24.256  34.158  1.00  0.00     0.002 A 
ATOM     90  C   UNL A   1      49.289  25.363  32.437  1.00  0.00     0.091 A 
ATOM     91  F   UNL A   1      48.202  26.874  30.945  1.00  0.00    -0.205 F 
ATOM     92  C   UNL A   1      49.213  24.503  33.544  1.00  0.00     0.022 A 
BRANCH  90  93
ATOM     93  S   UNL A   1      50.891  25.544  31.644  1.00  0.00     0.127 S 
ATOM     94  O   UNL A   1      51.731  24.675  32.467  1.00  0.00    -0.237 OA
ATOM     95  O   UNL A   1      50.627  25.038  30.296  1.00  0.00    -0.237 OA
ATOM     96  O   UNL A   1      51.211  26.963  31.704  1.00  0.00    -0.744 OA
ENDBRANCH  90  93
ENDBRANCH  63  86
ENDBRANCH  37  38
ENDBRANCH  29  32
ENDBRANCH  27  28
ENDBRANCH  26  27
ENDBRANCH   1  26
TORSDOF 18
ENDMDL
MODEL 3
REMARK VINA RESULT:     -11.5      4.986      9.817
REMARK SMILES Nc1c(CC(=O)NCCCCNC(=O)c2ccc(-c3c4nc(c(-c5cccc(S(=O)(=O)[O-])c5F)c5ccc([nH]5)c(-c5cccc(S(=O)(=O)[O-])c5F)c5nc(c(-c6cccc(S(=O)(=O)[O-])c6F)c6ccc3[nH]6)C=C5)C=C4)cc2)cccc1C(=O)c1ccc(Br)cc1
REMARK SMILES IDX 9 1 8 2 7 3 5 4 6 5 4 7 3 8 2 9 81 10 78 11 80 12 79 13 1 14
REMARK SMILES IDX 82 17 83 18 84 19 85 20 90 21 86 22 89 23 87 24 88 25 10 26
REMARK SMILES IDX 11 27 12 28 13 29 14 31 15 32 16 33 77 34 17 35 76 36 18 37
REMARK SMILES IDX 19 38 20 39 70 40 21 41 75 42 69 43 71 44 22 45 74 46 68 47
REMARK SMILES IDX 67 48 23 50 55 51 35 52 54 53 36 54 39 55 53 56 72 57 37 58
REMARK SMILES IDX 38 59 52 61 73 62 40 63 24 64 25 65 33 66 26 67 28 68 34 69
REMARK SMILES IDX 27 70 29 71 30 72 31 73 32 74 56 75 57 76 65 77 58 78 60 79
REMARK SMILES IDX 66 80 59 81 61 82 62 83 63 84 64 85 41 86 42 87 50 88 43 89
REMARK SMILES IDX 45 90 51 91 44 92 46 93 47 94 48 95 49 96
REMARK H PARENT 7 6 1 15 1 16 12 30 71 49 39 60
REMARK Flexibility Score: inf
ROOT
ATOM      1  C   UNL A   1      34.505  22.924  27.255  1.00  0.00     0.023 C 
ENDROOT
BRANCH   1   2
ATOM      2  C   UNL A   1      33.688  21.632  27.268  1.00  0.00     0.116 C 
BRANCH   2   3
ATOM      3  N   UNL A   1      34.160  20.688  26.277  1.00  0.00    -0.356 N 
ATOM      4  C   UNL A   1      33.507  20.190  25.186  1.00  0.00     0.224 C 
ATOM      5  O   UNL A   1      34.074  19.335  24.503  1.00  0.00    -0.275 OA
ATOM      6  H   UNL A   1      35.079  20.359  26.408  1.00  0.00     0.163 HD
BRANCH   4   7
ATOM      7  C   UNL A   1      32.146  20.735  24.780  1.00  0.00     0.137 C 
BRANCH   7   8
ATOM      8  C   UNL A   1      32.167  22.130  24.178  1.00  0.00    -0.015 A 
ATOM      9  C   UNL A   1      31.335  23.185  24.643  1.00  0.00     0.046 A 
ATOM     10  C   UNL A   1      31.351  24.426  23.951  1.00  0.00     0.046 A 
ATOM     11  C   UNL A   1      33.017  22.337  23.075  1.00  0.00     0.006 A 
ATOM     12  C   UNL A   1      32.200  24.584  22.838  1.00  0.00     0.014 A 
ATOM     13  C   UNL A   1      33.030  23.553  22.406  1.00  0.00     0.001 A 
BRANCH   9  14
ATOM     14  N   UNL A   1      30.499  22.944  25.728  1.00  0.00    -0.398 N 
ATOM     15  H   UNL A   1      30.113  22.049  25.864  1.00  0.00     0.156 HD
ATOM     16  H   UNL A   1      30.292  23.670  26.362  1.00  0.00     0.156 HD
ENDBRANCH   9  14
BRANCH  10  17
ATOM     17  C   UNL A   1      30.500  25.627  24.263  1.00  0.00     0.195 C 
ATOM     18  O   UNL A   1      29.300  25.635  23.984  1.00  0.00    -0.289 OA
BRANCH  17  19
ATOM     19  C   UNL A   1      31.007  26.823  24.960  1.00  0.00     0.023 A 
ATOM     20  C   UNL A   1      31.108  26.781  26.356  1.00  0.00     0.013 A 
ATOM     21  C   UNL A   1      31.413  27.958  24.252  1.00  0.00     0.013 A 
ATOM     22  C   UNL A   1      31.690  27.849  27.040  1.00  0.00     0.016 A 
ATOM     23  C   UNL A   1      32.010  29.019  24.938  1.00  0.00     0.016 A 
ATOM     24  C   UNL A   1      32.156  28.954  26.326  1.00  0.00     0.018 A 
ATOM     25  Br  UNL A   1      33.013  30.367  27.242  1.00  0.00    -0.051 Br
ENDBRANCH  17  19
ENDBRANCH  10  17
ENDBRANCH   7   8
ENDBRANCH   4   7
ENDBRANCH   2   3
ENDBRANCH   1   2
BRANCH   1  26
ATOM     26  C   UNL A   1      35.088  23.277  25.885  1.00  0.00     0.023 C 
BRANCH  26  27
ATOM     27  C   UNL A   1      36.515  23.810  25.915  1.00  0.00     0.116 C 
BRANCH  27  28
ATOM     28  N   UNL A   1      37.513  22.756  26.011  1.00  0.00    -0.352 N 
ATOM     29  C   UNL A   1      38.817  22.849  26.429  1.00  0.00     0.251 C 
ATOM     30  H   UNL A   1      37.213  21.858  25.740  1.00  0.00     0.163 HD
ATOM     31  O   UNL A   1      39.563  21.877  26.321  1.00  0.00    -0.269 OA
BRANCH  29  32
ATOM     32  C   UNL A   1      39.325  24.124  26.981  1.00  0.00     0.039 A 
ATOM     33  C   UNL A   1      39.961  25.022  26.122  1.00  0.00     0.014 A 
ATOM     34  C   UNL A   1      39.170  24.436  28.335  1.00  0.00     0.014 A 
ATOM     35  C   UNL A   1      40.408  26.250  26.615  1.00  0.00     0.010 A 
ATOM     36  C   UNL A   1      39.537  25.694  28.803  1.00  0.00     0.010 A 
ATOM     37  C   UNL A   1      40.180  26.607  27.956  1.00  0.00    -0.014 A 
BRANCH  37  38
ATOM     38  C   UNL A   1      40.629  27.923  28.480  1.00  0.00     0.031 A 
ATOM     39  C   UNL A   1      42.098  28.225  28.625  1.00  0.00     0.074 A 
ATOM     40  C   UNL A   1      39.714  28.831  28.872  1.00  0.00     0.049 A 
ATOM     41  N   UNL A   1      42.676  29.320  29.046  1.00  0.00    -0.248 NA
ATOM     42  C   UNL A   1      43.042  27.150  28.277  1.00  0.00     0.031 C 
ATOM     43  C   UNL A   1      38.264  28.628  28.868  1.00  0.00     0.029 A 
ATOM     44  N   UNL A   1      39.869  30.102  29.366  1.00  0.00    -0.354 N 
ATOM     45  C   UNL A   1      44.040  29.057  29.042  1.00  0.00     0.074 A 
ATOM     46  C   UNL A   1      44.204  27.684  28.622  1.00  0.00     0.031 C 
ATOM     47  C   UNL A   1      37.662  29.740  29.317  1.00  0.00     0.029 A 
ATOM     48  C   UNL A   1      38.680  30.724  29.668  1.00  0.00     0.049 A 
ATOM     49  H   UNL A   1      40.748  30.528  29.492  1.00  0.00     0.167 HD
ATOM     50  C   UNL A   1      45.069  29.891  29.330  1.00  0.00     0.034 A 
ATOM     51  C   UNL A   1      38.438  31.951  30.171  1.00  0.00     0.034 A 
ATOM     52  C   UNL A   1      44.906  31.267  29.713  1.00  0.00     0.049 A 
ATOM     53  C   UNL A   1      39.598  32.872  30.441  1.00  0.00     0.074 A 
ATOM     54  C   UNL A   1      45.884  32.218  29.940  1.00  0.00     0.029 A 
ATOM     55  N   UNL A   1      43.686  31.887  29.939  1.00  0.00    -0.354 N 
ATOM     56  N   UNL A   1      40.880  32.659  30.271  1.00  0.00    -0.248 NA
ATOM     57  C   UNL A   1      39.273  34.219  30.932  1.00  0.00     0.031 C 
ATOM     58  C   UNL A   1      45.257  33.405  30.336  1.00  0.00     0.029 A 
ATOM     59  C   UNL A   1      43.886  33.203  30.316  1.00  0.00     0.049 A 
ATOM     60  H   UNL A   1      42.807  31.453  29.844  1.00  0.00     0.167 HD
ATOM     61  C   UNL A   1      41.512  33.853  30.600  1.00  0.00     0.074 A 
ATOM     62  C   UNL A   1      40.468  34.793  30.952  1.00  0.00     0.031 C 
ATOM     63  C   UNL A   1      42.837  34.141  30.624  1.00  0.00     0.034 A 
BRANCH  50  64
ATOM     64  C   UNL A   1      46.470  29.347  29.197  1.00  0.00     0.023 A 
ATOM     65  C   UNL A   1      47.111  28.786  30.322  1.00  0.00     0.012 A 
ATOM     66  C   UNL A   1      47.130  29.341  27.954  1.00  0.00     0.148 A 
ATOM     67  C   UNL A   1      48.400  28.265  30.220  1.00  0.00     0.002 A 
ATOM     68  C   UNL A   1      48.395  28.776  27.849  1.00  0.00     0.091 A 
ATOM     69  F   UNL A   1      46.514  29.897  26.900  1.00  0.00    -0.205 F 
ATOM     70  C   UNL A   1      49.037  28.250  28.983  1.00  0.00     0.022 A 
BRANCH  68  71
ATOM     71  S   UNL A   1      49.268  28.632  26.286  1.00  0.00     0.127 S 
ATOM     72  O   UNL A   1      49.812  29.980  26.127  1.00  0.00    -0.237 OA
ATOM     73  O   UNL A   1      50.265  27.603  26.585  1.00  0.00    -0.237 OA
ATOM     74  O   UNL A   1      48.269  28.243  25.300  1.00  0.00    -0.744 OA
ENDBRANCH  68  71
ENDBRANCH  50  64
BRANCH  51  75
ATOM     75  C   UNL A   1      37.036  32.403  30.393  1.00  0.00     0.023 A 
ATOM     76  C   UNL A   1      36.422  32.183  31.642  1.00  0.00     0.012 A 
ATOM     77  C   UNL A   1      36.312  33.063  29.381  1.00  0.00     0.148 A 
ATOM     78  C   UNL A   1      35.102  32.575  31.867  1.00  0.00     0.002 A 
ATOM     79  C   UNL A   1      35.018  33.504  29.631  1.00  0.00     0.091 A 
ATOM     80  F   UNL A   1      36.910  33.256  28.198  1.00  0.00    -0.205 F 
ATOM     81  C   UNL A   1      34.404  33.244  30.865  1.00  0.00     0.022 A 
BRANCH  79  82
ATOM     82  S   UNL A   1      34.091  34.486  28.448  1.00  0.00     0.127 S 
ATOM     83  O   UNL A   1      34.163  33.656  27.248  1.00  0.00    -0.237 OA
ATOM     84  O   UNL A   1      32.772  34.548  29.078  1.00  0.00    -0.237 OA
ATOM     85  O   UNL A   1      34.782  35.767  28.372  1.00  0.00    -0.744 OA
ENDBRANCH  79  82
ENDBRANCH  51  75
BRANCH  63  86
ATOM     86  C   UNL A   1      43.236  35.543  31.009  1.00  0.00     0.023 A 
ATOM     87  C   UNL A   1      43.516  35.853  32.356  1.00  0.00     0.012 A 
ATOM     88  C   UNL A   1      43.381  36.543  30.027  1.00  0.00     0.148 A 
ATOM     89  C   UNL A   1      43.886  37.146  32.724  1.00  0.00     0.002 A 
ATOM     90  C   UNL A   1      43.804  37.815  30.395  1.00  0.00     0.091 A 
ATOM     91  F   UNL A   1      43.095  36.236  28.754  1.00  0.00    -0.205 F 
ATOM     92  C   UNL A   1      44.040  38.123  31.744  1.00  0.00     0.022 A 
BRANCH  90  93
ATOM     93  S   UNL A   1      44.127  39.106  29.188  1.00  0.00     0.127 S 
ATOM     94  O   UNL A   1      45.135  38.474  28.338  1.00  0.00    -0.237 OA
ATOM     95  O   UNL A   1      42.816  39.274  28.558  1.00  0.00    -0.237 OA
ATOM     96  O   UNL A   1      44.584  40.261  29.947  1.00  0.00    -0.744 OA
ENDBRANCH  90  93
ENDBRANCH  63  86
ENDBRANCH  37  38
ENDBRANCH  29  32
ENDBRANCH  27  28
ENDBRANCH  26  27
ENDBRANCH   1  26
TORSDOF 18
ENDMDL
