MODEL 1
REMARK VINA RESULT:     -13.4      0.000      0.000
REMARK SMILES Cc1cc2nc(NC(=O)[C@H]3[C@@H](C(=O)NCCCCNC(=O)c4ccc(-c5c6nc(c(-c7cccc(S(=O)(=O)[O-])c7F)c7ccc([nH]7)c(-c7cccc(S(=O)(=O)[O-])c7F)c7nc(c(-c8cccc(S(=O)(=O)[O-])c8F)c8ccc5[nH]8)C=C7)C=C6)cc4)[C@@H]4C=C[C@H]3C4)sc2cc1C
REMARK SMILES IDX 17 1 16 2 15 3 14 4 12 5 13 6 11 8 10 9 88 10 85 11 87 12
REMARK SMILES IDX 89 13 86 14 8 15 7 16 9 18 6 19 1 20 2 21 3 22 93 23 4 24
REMARK SMILES IDX 92 25 94 26 5 27 91 28 90 29 18 30 19 31 20 32 21 34 22 35
REMARK SMILES IDX 23 36 84 37 24 38 83 39 25 40 26 41 27 42 77 43 28 44 82 45
REMARK SMILES IDX 76 46 78 47 29 48 81 49 75 50 74 51 30 53 62 54 42 55 61 56
REMARK SMILES IDX 43 57 46 58 60 59 79 60 44 61 45 62 59 64 80 65 47 66 31 67
REMARK SMILES IDX 32 68 40 69 33 70 35 71 41 72 34 73 36 74 37 75 38 76 39 77
REMARK SMILES IDX 63 78 64 79 72 80 65 81 67 82 73 83 66 84 68 85 69 86 70 87
REMARK SMILES IDX 71 88 48 89 49 90 57 91 50 92 52 93 58 94 51 95 53 96 54 97
REMARK SMILES IDX 55 98 56 99
REMARK H PARENT 14 7 7 17 19 33 78 52 46 63
REMARK Flexibility Score: inf
ROOT
ATOM      1  C   UNL A   1      34.215  30.819  27.696  1.00  0.00     0.023 C 
ENDROOT
BRANCH   1   2
ATOM      2  C   UNL A   1      32.849  30.581  27.065  1.00  0.00     0.023 C 
BRANCH   2   3
ATOM      3  C   UNL A   1      32.897  30.035  25.649  1.00  0.00     0.116 C 
BRANCH   3   4
ATOM      4  N   UNL A   1      31.605  30.017  24.992  1.00  0.00    -0.356 N 
ATOM      5  C   UNL A   1      30.970  29.115  24.206  1.00  0.00     0.224 C 
ATOM      6  O   UNL A   1      29.805  29.411  23.904  1.00  0.00    -0.275 OA
ATOM      7  H   UNL A   1      31.078  30.833  25.152  1.00  0.00     0.163 HD
BRANCH   5   8
ATOM      8  C   UNL A   1      31.578  27.842  23.616  1.00  0.00     0.098 C 
ATOM      9  C   UNL A   1      31.954  26.605  24.486  1.00  0.00     0.099 C 
ATOM     10  C   UNL A   1      33.498  26.509  24.219  1.00  0.00     0.025 C 
ATOM     11  C   UNL A   1      32.871  28.123  22.803  1.00  0.00     0.025 C 
ATOM     12  C   UNL A   1      33.623  25.938  22.818  1.00  0.00    -0.027 C 
ATOM     13  C   UNL A   1      33.952  27.931  23.854  1.00  0.00     0.017 C 
ATOM     14  C   UNL A   1      33.212  26.897  21.970  1.00  0.00    -0.027 C 
BRANCH   9  15
ATOM     15  C   UNL A   1      31.535  26.518  25.953  1.00  0.00     0.230 C 
ATOM     16  N   UNL A   1      31.565  25.347  26.650  1.00  0.00    -0.302 N 
ATOM     17  H   UNL A   1      31.121  25.340  27.529  1.00  0.00     0.172 HD
ATOM     18  O   UNL A   1      31.166  27.525  26.570  1.00  0.00    -0.274 OA
BRANCH  16  19
ATOM     19  C   UNL A   1      32.150  24.186  26.247  1.00  0.00     0.190 A 
ATOM     20  C   UNL A   1      36.280  20.065  24.959  1.00  0.00     0.044 C 
ATOM     21  C   UNL A   1      34.909  20.674  25.072  1.00  0.00    -0.046 A 
ATOM     22  C   UNL A   1      34.837  21.988  25.566  1.00  0.00     0.033 A 
ATOM     23  C   UNL A   1      33.720  19.982  24.779  1.00  0.00    -0.047 A 
ATOM     24  C   UNL A   1      33.598  22.626  25.743  1.00  0.00     0.084 A 
ATOM     25  C   UNL A   1      32.472  20.634  24.901  1.00  0.00     0.025 A 
ATOM     26  C   UNL A   1      33.695  18.547  24.320  1.00  0.00     0.044 C 
ATOM     27  N   UNL A   1      33.417  23.892  26.256  1.00  0.00    -0.220 NA
ATOM     28  C   UNL A   1      32.432  21.947  25.393  1.00  0.00     0.057 A 
ATOM     29  S   UNL A   1      31.082  22.980  25.699  1.00  0.00    -0.097 S 
ENDBRANCH  16  19
ENDBRANCH   9  15
ENDBRANCH   5   8
ENDBRANCH   3   4
ENDBRANCH   2   3
ENDBRANCH   1   2
BRANCH   1  30
ATOM     30  C   UNL A   1      34.431  32.221  28.279  1.00  0.00     0.116 C 
BRANCH  30  31
ATOM     31  N   UNL A   1      34.284  32.322  29.718  1.00  0.00    -0.352 N 
ATOM     32  C   UNL A   1      35.129  32.135  30.780  1.00  0.00     0.251 C 
ATOM     33  H   UNL A   1      33.374  32.583  29.994  1.00  0.00     0.163 HD
ATOM     34  O   UNL A   1      34.734  32.562  31.867  1.00  0.00    -0.269 OA
BRANCH  32  35
ATOM     35  C   UNL A   1      36.416  31.390  30.719  1.00  0.00     0.039 A 
ATOM     36  C   UNL A   1      37.678  31.978  30.706  1.00  0.00     0.014 A 
ATOM     37  C   UNL A   1      36.325  29.992  30.581  1.00  0.00     0.014 A 
ATOM     38  C   UNL A   1      38.802  31.218  30.420  1.00  0.00     0.010 A 
ATOM     39  C   UNL A   1      37.456  29.215  30.339  1.00  0.00     0.010 A 
ATOM     40  C   UNL A   1      38.688  29.841  30.209  1.00  0.00    -0.014 A 
BRANCH  40  41
ATOM     41  C   UNL A   1      39.932  29.092  30.064  1.00  0.00     0.031 A 
ATOM     42  C   UNL A   1      40.632  28.888  31.361  1.00  0.00     0.074 A 
ATOM     43  C   UNL A   1      40.395  28.580  28.905  1.00  0.00     0.049 A 
ATOM     44  N   UNL A   1      41.740  29.431  31.746  1.00  0.00    -0.248 NA
ATOM     45  C   UNL A   1      39.919  28.165  32.423  1.00  0.00     0.031 C 
ATOM     46  C   UNL A   1      39.692  28.485  27.625  1.00  0.00     0.029 A 
ATOM     47  N   UNL A   1      41.571  27.930  28.658  1.00  0.00    -0.354 N 
ATOM     48  C   UNL A   1      41.983  28.919  33.021  1.00  0.00     0.074 A 
ATOM     49  C   UNL A   1      40.751  28.320  33.453  1.00  0.00     0.031 C 
ATOM     50  C   UNL A   1      40.344  27.613  26.822  1.00  0.00     0.029 A 
ATOM     51  C   UNL A   1      41.579  27.205  27.469  1.00  0.00     0.049 A 
ATOM     52  H   UNL A   1      42.345  27.971  29.266  1.00  0.00     0.167 HD
ATOM     53  C   UNL A   1      43.254  28.809  33.496  1.00  0.00     0.034 A 
ATOM     54  C   UNL A   1      42.507  26.295  27.081  1.00  0.00     0.034 A 
ATOM     55  C   UNL A   1      44.158  29.629  32.727  1.00  0.00     0.049 A 
ATOM     56  C   UNL A   1      43.740  26.585  27.840  1.00  0.00     0.074 A 
ATOM     57  C   UNL A   1      44.329  30.978  32.498  1.00  0.00     0.029 A 
ATOM     58  N   UNL A   1      44.849  28.968  31.744  1.00  0.00    -0.354 N 
ATOM     59  N   UNL A   1      44.463  27.652  27.664  1.00  0.00    -0.248 NA
ATOM     60  C   UNL A   1      43.996  25.844  29.064  1.00  0.00     0.031 C 
ATOM     61  C   UNL A   1      44.816  31.072  31.162  1.00  0.00     0.029 A 
ATOM     62  C   UNL A   1      44.973  29.780  30.654  1.00  0.00     0.049 A 
ATOM     63  H   UNL A   1      45.199  28.051  31.814  1.00  0.00     0.167 HD
ATOM     64  C   UNL A   1      44.906  27.972  28.937  1.00  0.00     0.074 A 
ATOM     65  C   UNL A   1      44.729  26.750  29.716  1.00  0.00     0.031 C 
ATOM     66  C   UNL A   1      45.081  29.275  29.301  1.00  0.00     0.034 A 
BRANCH  53  67
ATOM     67  C   UNL A   1      43.777  27.650  34.331  1.00  0.00     0.023 A 
ATOM     68  C   UNL A   1      44.462  27.985  35.526  1.00  0.00     0.012 A 
ATOM     69  C   UNL A   1      43.902  26.312  33.891  1.00  0.00     0.148 A 
ATOM     70  C   UNL A   1      45.287  27.071  36.191  1.00  0.00     0.002 A 
ATOM     71  C   UNL A   1      44.666  25.386  34.596  1.00  0.00     0.091 A 
ATOM     72  F   UNL A   1      43.380  25.933  32.725  1.00  0.00    -0.205 F 
ATOM     73  C   UNL A   1      45.390  25.769  35.725  1.00  0.00     0.022 A 
BRANCH  71  74
ATOM     74  S   UNL A   1      44.795  23.669  34.068  1.00  0.00     0.127 S 
ATOM     75  O   UNL A   1      45.990  23.231  34.793  1.00  0.00    -0.237 OA
ATOM     76  O   UNL A   1      43.534  23.116  34.570  1.00  0.00    -0.237 OA
ATOM     77  O   UNL A   1      44.904  23.699  32.623  1.00  0.00    -0.744 OA
ENDBRANCH  71  74
ENDBRANCH  53  67
BRANCH  54  78
ATOM     78  C   UNL A   1      42.384  25.039  26.296  1.00  0.00     0.023 A 
ATOM     79  C   UNL A   1      43.393  24.704  25.364  1.00  0.00     0.012 A 
ATOM     80  C   UNL A   1      41.486  24.026  26.693  1.00  0.00     0.148 A 
ATOM     81  C   UNL A   1      43.542  23.392  24.897  1.00  0.00     0.002 A 
ATOM     82  C   UNL A   1      41.642  22.722  26.228  1.00  0.00     0.091 A 
ATOM     83  F   UNL A   1      40.546  24.318  27.600  1.00  0.00    -0.205 F 
ATOM     84  C   UNL A   1      42.678  22.398  25.341  1.00  0.00     0.022 A 
BRANCH  82  85
ATOM     85  S   UNL A   1      40.605  21.370  26.801  1.00  0.00     0.127 S 
ATOM     86  O   UNL A   1      40.826  21.412  28.247  1.00  0.00    -0.237 OA
ATOM     87  O   UNL A   1      39.279  21.807  26.371  1.00  0.00    -0.237 OA
ATOM     88  O   UNL A   1      41.117  20.171  26.150  1.00  0.00    -0.744 OA
ENDBRANCH  82  85
ENDBRANCH  54  78
BRANCH  66  89
ATOM     89  C   UNL A   1      45.160  30.312  28.209  1.00  0.00     0.023 A 
ATOM     90  C   UNL A   1      44.019  30.884  27.609  1.00  0.00     0.012 A 
ATOM     91  C   UNL A   1      46.425  30.849  27.915  1.00  0.00     0.148 A 
ATOM     92  C   UNL A   1      44.142  31.962  26.728  1.00  0.00     0.002 A 
ATOM     93  C   UNL A   1      46.538  31.958  27.089  1.00  0.00     0.091 A 
ATOM     94  F   UNL A   1      47.500  30.284  28.486  1.00  0.00    -0.205 F 
ATOM     95  C   UNL A   1      45.400  32.513  26.483  1.00  0.00     0.022 A 
BRANCH  93  96
ATOM     96  S   UNL A   1      48.105  32.804  26.867  1.00  0.00     0.127 S 
ATOM     97  O   UNL A   1      48.356  33.338  28.203  1.00  0.00    -0.237 OA
ATOM     98  O   UNL A   1      48.993  31.712  26.465  1.00  0.00    -0.237 OA
ATOM     99  O   UNL A   1      47.880  33.799  25.826  1.00  0.00    -0.744 OA
ENDBRANCH  93  96
ENDBRANCH  66  89
ENDBRANCH  40  41
ENDBRANCH  32  35
ENDBRANCH  30  31
ENDBRANCH   1  30
TORSDOF 16
ENDMDL
MODEL 2
REMARK VINA RESULT:     -13.3      3.169      8.948
REMARK SMILES Cc1cc2nc(NC(=O)[C@H]3[C@@H](C(=O)NCCCCNC(=O)c4ccc(-c5c6nc(c(-c7cccc(S(=O)(=O)[O-])c7F)c7ccc([nH]7)c(-c7cccc(S(=O)(=O)[O-])c7F)c7nc(c(-c8cccc(S(=O)(=O)[O-])c8F)c8ccc5[nH]8)C=C7)C=C6)cc4)[C@@H]4C=C[C@H]3C4)sc2cc1C
REMARK SMILES IDX 17 1 16 2 15 3 14 4 12 5 13 6 11 8 10 9 88 10 85 11 87 12
REMARK SMILES IDX 89 13 86 14 8 15 7 16 9 18 6 19 1 20 2 21 3 22 93 23 4 24
REMARK SMILES IDX 92 25 94 26 5 27 91 28 90 29 18 30 19 31 20 32 21 34 22 35
REMARK SMILES IDX 23 36 84 37 24 38 83 39 25 40 26 41 27 42 77 43 28 44 82 45
REMARK SMILES IDX 76 46 78 47 29 48 81 49 75 50 74 51 30 53 62 54 42 55 61 56
REMARK SMILES IDX 43 57 46 58 60 59 79 60 44 61 45 62 59 64 80 65 47 66 31 67
REMARK SMILES IDX 32 68 40 69 33 70 35 71 41 72 34 73 36 74 37 75 38 76 39 77
REMARK SMILES IDX 63 78 64 79 72 80 65 81 67 82 73 83 66 84 68 85 69 86 70 87
REMARK SMILES IDX 71 88 48 89 49 90 57 91 50 92 52 93 58 94 51 95 53 96 54 97
REMARK SMILES IDX 55 98 56 99
REMARK H PARENT 14 7 7 17 19 33 78 52 46 63
REMARK Flexibility Score: inf
ROOT
ATOM      1  C   UNL A   1      36.457  23.233  26.041  1.00  0.00     0.023 C 
ENDROOT
BRANCH   1   2
ATOM      2  C   UNL A   1      35.330  24.068  25.445  1.00  0.00     0.023 C 
BRANCH   2   3
ATOM      3  C   UNL A   1      33.995  23.916  26.151  1.00  0.00     0.116 C 
BRANCH   3   4
ATOM      4  N   UNL A   1      32.872  23.799  25.243  1.00  0.00    -0.356 N 
ATOM      5  C   UNL A   1      32.420  24.555  24.214  1.00  0.00     0.224 C 
ATOM      6  O   UNL A   1      31.462  24.074  23.590  1.00  0.00    -0.275 OA
ATOM      7  H   UNL A   1      32.320  23.001  25.410  1.00  0.00     0.163 HD
BRANCH   5   8
ATOM      8  C   UNL A   1      32.926  25.943  23.819  1.00  0.00     0.098 C 
ATOM      9  C   UNL A   1      32.290  27.258  24.360  1.00  0.00     0.099 C 
ATOM     10  C   UNL A   1      31.812  27.931  23.025  1.00  0.00     0.025 C 
ATOM     11  C   UNL A   1      32.945  26.152  22.280  1.00  0.00     0.025 C 
ATOM     12  C   UNL A   1      33.076  28.458  22.371  1.00  0.00    -0.027 C 
ATOM     13  C   UNL A   1      31.584  26.781  22.031  1.00  0.00     0.017 C 
ATOM     14  C   UNL A   1      33.774  27.386  21.956  1.00  0.00    -0.027 C 
BRANCH   9  15
ATOM     15  C   UNL A   1      31.258  27.228  25.486  1.00  0.00     0.230 C 
ATOM     16  N   UNL A   1      31.492  27.793  26.704  1.00  0.00    -0.302 N 
ATOM     17  H   UNL A   1      30.854  27.582  27.424  1.00  0.00     0.172 HD
ATOM     18  O   UNL A   1      30.153  26.697  25.321  1.00  0.00    -0.274 OA
BRANCH  16  19
ATOM     19  C   UNL A   1      32.526  28.620  27.022  1.00  0.00     0.190 A 
ATOM     20  C   UNL A   1      37.950  30.576  28.588  1.00  0.00     0.044 C 
ATOM     21  C   UNL A   1      36.494  30.657  28.218  1.00  0.00    -0.046 A 
ATOM     22  C   UNL A   1      35.829  29.440  27.986  1.00  0.00     0.033 A 
ATOM     23  C   UNL A   1      35.802  31.867  28.031  1.00  0.00    -0.047 A 
ATOM     24  C   UNL A   1      34.479  29.418  27.598  1.00  0.00     0.084 A 
ATOM     25  C   UNL A   1      34.429  31.853  27.695  1.00  0.00     0.025 A 
ATOM     26  C   UNL A   1      36.452  33.218  28.180  1.00  0.00     0.044 C 
ATOM     27  N   UNL A   1      33.750  28.286  27.308  1.00  0.00    -0.220 NA
ATOM     28  C   UNL A   1      33.792  30.624  27.473  1.00  0.00     0.057 A 
ATOM     29  S   UNL A   1      32.163  30.283  27.010  1.00  0.00    -0.097 S 
ENDBRANCH  16  19
ENDBRANCH   9  15
ENDBRANCH   5   8
ENDBRANCH   3   4
ENDBRANCH   2   3
ENDBRANCH   1   2
BRANCH   1  30
ATOM     30  C   UNL A   1      37.859  23.548  25.505  1.00  0.00     0.116 C 
BRANCH  30  31
ATOM     31  N   UNL A   1      38.935  22.775  26.094  1.00  0.00    -0.352 N 
ATOM     32  C   UNL A   1      39.803  22.985  27.133  1.00  0.00     0.251 C 
ATOM     33  H   UNL A   1      39.073  21.907  25.649  1.00  0.00     0.163 HD
ATOM     34  O   UNL A   1      40.427  21.996  27.524  1.00  0.00    -0.269 OA
BRANCH  32  35
ATOM     35  C   UNL A   1      40.097  24.312  27.738  1.00  0.00     0.039 A 
ATOM     36  C   UNL A   1      41.364  24.761  28.100  1.00  0.00     0.014 A 
ATOM     37  C   UNL A   1      38.986  25.125  28.035  1.00  0.00     0.014 A 
ATOM     38  C   UNL A   1      41.510  25.911  28.860  1.00  0.00     0.010 A 
ATOM     39  C   UNL A   1      39.130  26.306  28.760  1.00  0.00     0.010 A 
ATOM     40  C   UNL A   1      40.391  26.670  29.214  1.00  0.00    -0.014 A 
BRANCH  40  41
ATOM     41  C   UNL A   1      40.641  27.942  29.884  1.00  0.00     0.031 A 
ATOM     42  C   UNL A   1      41.585  28.810  29.128  1.00  0.00     0.074 A 
ATOM     43  C   UNL A   1      40.057  28.339  31.033  1.00  0.00     0.049 A 
ATOM     44  N   UNL A   1      42.797  29.119  29.454  1.00  0.00    -0.248 NA
ATOM     45  C   UNL A   1      41.211  29.210  27.764  1.00  0.00     0.031 C 
ATOM     46  C   UNL A   1      38.938  27.706  31.732  1.00  0.00     0.029 A 
ATOM     47  N   UNL A   1      40.277  29.470  31.766  1.00  0.00    -0.354 N 
ATOM     48  C   UNL A   1      43.254  29.957  28.438  1.00  0.00     0.074 A 
ATOM     49  C   UNL A   1      42.326  29.812  27.351  1.00  0.00     0.031 C 
ATOM     50  C   UNL A   1      38.424  28.577  32.631  1.00  0.00     0.029 A 
ATOM     51  C   UNL A   1      39.262  29.763  32.675  1.00  0.00     0.049 A 
ATOM     52  H   UNL A   1      41.081  30.029  31.662  1.00  0.00     0.167 HD
ATOM     53  C   UNL A   1      44.214  30.891  28.685  1.00  0.00     0.034 A 
ATOM     54  C   UNL A   1      39.100  30.921  33.363  1.00  0.00     0.034 A 
ATOM     55  C   UNL A   1      44.908  30.595  29.914  1.00  0.00     0.049 A 
ATOM     56  C   UNL A   1      40.418  31.587  33.405  1.00  0.00     0.074 A 
ATOM     57  C   UNL A   1      45.727  29.588  30.378  1.00  0.00     0.029 A 
ATOM     58  N   UNL A   1      44.460  31.282  31.014  1.00  0.00    -0.354 N 
ATOM     59  N   UNL A   1      41.437  31.131  34.074  1.00  0.00    -0.248 NA
ATOM     60  C   UNL A   1      40.719  32.599  32.407  1.00  0.00     0.031 C 
ATOM     61  C   UNL A   1      45.441  29.485  31.771  1.00  0.00     0.029 A 
ATOM     62  C   UNL A   1      44.505  30.466  32.106  1.00  0.00     0.049 A 
ATOM     63  H   UNL A   1      44.154  32.217  31.014  1.00  0.00     0.167 HD
ATOM     64  C   UNL A   1      42.526  31.436  33.275  1.00  0.00     0.074 A 
ATOM     65  C   UNL A   1      42.047  32.470  32.361  1.00  0.00     0.031 C 
ATOM     66  C   UNL A   1      43.608  30.606  33.235  1.00  0.00     0.034 A 
BRANCH  53  67
ATOM     67  C   UNL A   1      44.239  32.295  28.098  1.00  0.00     0.023 A 
ATOM     68  C   UNL A   1      45.338  32.614  27.262  1.00  0.00     0.012 A 
ATOM     69  C   UNL A   1      43.444  33.380  28.532  1.00  0.00     0.148 A 
ATOM     70  C   UNL A   1      45.675  33.937  26.951  1.00  0.00     0.002 A 
ATOM     71  C   UNL A   1      43.740  34.689  28.161  1.00  0.00     0.091 A 
ATOM     72  F   UNL A   1      42.454  33.186  29.402  1.00  0.00    -0.205 F 
ATOM     73  C   UNL A   1      44.875  34.976  27.402  1.00  0.00     0.022 A 
BRANCH  71  74
ATOM     74  S   UNL A   1      42.709  36.074  28.672  1.00  0.00     0.127 S 
ATOM     75  O   UNL A   1      42.970  36.114  30.113  1.00  0.00    -0.237 OA
ATOM     76  O   UNL A   1      43.302  37.175  27.908  1.00  0.00    -0.237 OA
ATOM     77  O   UNL A   1      41.355  35.733  28.282  1.00  0.00    -0.744 OA
ENDBRANCH  71  74
ENDBRANCH  53  67
BRANCH  54  78
ATOM     78  C   UNL A   1      37.876  31.646  33.791  1.00  0.00     0.023 A 
ATOM     79  C   UNL A   1      37.866  32.311  35.038  1.00  0.00     0.012 A 
ATOM     80  C   UNL A   1      36.869  31.972  32.859  1.00  0.00     0.148 A 
ATOM     81  C   UNL A   1      36.927  33.310  35.321  1.00  0.00     0.002 A 
ATOM     82  C   UNL A   1      35.939  32.970  33.144  1.00  0.00     0.091 A 
ATOM     83  F   UNL A   1      36.883  31.377  31.660  1.00  0.00    -0.205 F 
ATOM     84  C   UNL A   1      35.975  33.652  34.367  1.00  0.00     0.022 A 
BRANCH  82  85
ATOM     85  S   UNL A   1      34.717  33.512  31.942  1.00  0.00     0.127 S 
ATOM     86  O   UNL A   1      33.631  33.979  32.804  1.00  0.00    -0.237 OA
ATOM     87  O   UNL A   1      35.438  34.568  31.237  1.00  0.00    -0.237 OA
ATOM     88  O   UNL A   1      34.389  32.334  31.149  1.00  0.00    -0.744 OA
ENDBRANCH  82  85
ENDBRANCH  54  78
BRANCH  66  89
ATOM     89  C   UNL A   1      43.762  29.587  34.336  1.00  0.00     0.023 A 
ATOM     90  C   UNL A   1      44.414  29.866  35.555  1.00  0.00     0.012 A 
ATOM     91  C   UNL A   1      43.067  28.373  34.198  1.00  0.00     0.148 A 
ATOM     92  C   UNL A   1      44.379  28.948  36.608  1.00  0.00     0.002 A 
ATOM     93  C   UNL A   1      42.983  27.492  35.267  1.00  0.00     0.091 A 
ATOM     94  F   UNL A   1      42.464  28.119  33.027  1.00  0.00    -0.205 F 
ATOM     95  C   UNL A   1      43.647  27.770  36.472  1.00  0.00     0.022 A 
BRANCH  93  96
ATOM     96  S   UNL A   1      41.927  26.043  35.204  1.00  0.00     0.127 S 
ATOM     97  O   UNL A   1      41.818  25.681  36.615  1.00  0.00    -0.237 OA
ATOM     98  O   UNL A   1      40.700  26.578  34.611  1.00  0.00    -0.237 OA
ATOM     99  O   UNL A   1      42.621  25.077  34.360  1.00  0.00    -0.744 OA
ENDBRANCH  93  96
ENDBRANCH  66  89
ENDBRANCH  40  41
ENDBRANCH  32  35
ENDBRANCH  30  31
ENDBRANCH   1  30
TORSDOF 16
ENDMDL
MODEL 3
REMARK VINA RESULT:     -13.2      1.252      1.640
REMARK SMILES Cc1cc2nc(NC(=O)[C@H]3[C@@H](C(=O)NCCCCNC(=O)c4ccc(-c5c6nc(c(-c7cccc(S(=O)(=O)[O-])c7F)c7ccc([nH]7)c(-c7cccc(S(=O)(=O)[O-])c7F)c7nc(c(-c8cccc(S(=O)(=O)[O-])c8F)c8ccc5[nH]8)C=C7)C=C6)cc4)[C@@H]4C=C[C@H]3C4)sc2cc1C
REMARK SMILES IDX 17 1 16 2 15 3 14 4 12 5 13 6 11 8 10 9 88 10 85 11 87 12
REMARK SMILES IDX 89 13 86 14 8 15 7 16 9 18 6 19 1 20 2 21 3 22 93 23 4 24
REMARK SMILES IDX 92 25 94 26 5 27 91 28 90 29 18 30 19 31 20 32 21 34 22 35
REMARK SMILES IDX 23 36 84 37 24 38 83 39 25 40 26 41 27 42 77 43 28 44 82 45
REMARK SMILES IDX 76 46 78 47 29 48 81 49 75 50 74 51 30 53 62 54 42 55 61 56
REMARK SMILES IDX 43 57 46 58 60 59 79 60 44 61 45 62 59 64 80 65 47 66 31 67
REMARK SMILES IDX 32 68 40 69 33 70 35 71 41 72 34 73 36 74 37 75 38 76 39 77
REMARK SMILES IDX 63 78 64 79 72 80 65 81 67 82 73 83 66 84 68 85 69 86 70 87
REMARK SMILES IDX 71 88 48 89 49 90 57 91 50 92 52 93 58 94 51 95 53 96 54 97
REMARK SMILES IDX 55 98 56 99
REMARK H PARENT 14 7 7 17 19 33 78 52 46 63
REMARK Flexibility Score: inf
ROOT
ATOM      1  C   UNL A   1      33.315  30.318  27.323  1.00  0.00     0.023 C 
ENDROOT
BRANCH   1   2
ATOM      2  C   UNL A   1      32.050  30.441  26.483  1.00  0.00     0.023 C 
BRANCH   2   3
ATOM      3  C   UNL A   1      32.158  29.841  25.093  1.00  0.00     0.116 C 
BRANCH   3   4
ATOM      4  N   UNL A   1      30.883  29.432  24.539  1.00  0.00    -0.356 N 
ATOM      5  C   UNL A   1      30.458  28.318  23.896  1.00  0.00     0.224 C 
ATOM      6  O   UNL A   1      29.243  28.282  23.654  1.00  0.00    -0.275 OA
ATOM      7  H   UNL A   1      30.175  30.107  24.656  1.00  0.00     0.163 HD
BRANCH   5   8
ATOM      8  C   UNL A   1      31.338  27.174  23.391  1.00  0.00     0.098 C 
ATOM      9  C   UNL A   1      31.975  26.117  24.343  1.00  0.00     0.099 C 
ATOM     10  C   UNL A   1      33.503  26.348  24.068  1.00  0.00     0.025 C 
ATOM     11  C   UNL A   1      32.541  27.678  22.547  1.00  0.00     0.025 C 
ATOM     12  C   UNL A   1      33.761  25.721  22.709  1.00  0.00    -0.027 C 
ATOM     13  C   UNL A   1      33.631  27.806  23.599  1.00  0.00     0.017 C 
ATOM     14  C   UNL A   1      33.152  26.502  21.800  1.00  0.00    -0.027 C 
BRANCH   9  15
ATOM     15  C   UNL A   1      31.578  26.043  25.816  1.00  0.00     0.230 C 
ATOM     16  N   UNL A   1      31.690  24.896  26.543  1.00  0.00    -0.302 N 
ATOM     17  H   UNL A   1      31.256  24.884  27.427  1.00  0.00     0.172 HD
ATOM     18  O   UNL A   1      31.150  27.040  26.410  1.00  0.00    -0.274 OA
BRANCH  16  19
ATOM     19  C   UNL A   1      32.345  23.764  26.165  1.00  0.00     0.190 A 
ATOM     20  C   UNL A   1      36.720  19.887  24.926  1.00  0.00     0.044 C 
ATOM     21  C   UNL A   1      35.313  20.408  25.046  1.00  0.00    -0.046 A 
ATOM     22  C   UNL A   1      35.161  21.729  25.502  1.00  0.00     0.033 A 
ATOM     23  C   UNL A   1      34.168  19.630  24.794  1.00  0.00    -0.047 A 
ATOM     24  C   UNL A   1      33.885  22.288  25.681  1.00  0.00     0.084 A 
ATOM     25  C   UNL A   1      32.882  20.202  24.919  1.00  0.00     0.025 A 
ATOM     26  C   UNL A   1      34.232  18.183  24.378  1.00  0.00     0.044 C 
ATOM     27  N   UNL A   1      33.629  23.554  26.161  1.00  0.00    -0.220 NA
ATOM     28  C   UNL A   1      32.762  21.524  25.373  1.00  0.00     0.057 A 
ATOM     29  S   UNL A   1      31.351  22.473  25.671  1.00  0.00    -0.097 S 
ENDBRANCH  16  19
ENDBRANCH   9  15
ENDBRANCH   5   8
ENDBRANCH   3   4
ENDBRANCH   2   3
ENDBRANCH   1   2
BRANCH   1  30
ATOM     30  C   UNL A   1      34.021  31.641  27.640  1.00  0.00     0.116 C 
BRANCH  30  31
ATOM     31  N   UNL A   1      34.148  31.952  29.051  1.00  0.00    -0.352 N 
ATOM     32  C   UNL A   1      35.183  31.909  29.948  1.00  0.00     0.251 C 
ATOM     33  H   UNL A   1      33.304  32.262  29.454  1.00  0.00     0.163 HD
ATOM     34  O   UNL A   1      34.995  32.494  31.018  1.00  0.00    -0.269 OA
BRANCH  32  35
ATOM     35  C   UNL A   1      36.445  31.146  29.752  1.00  0.00     0.039 A 
ATOM     36  C   UNL A   1      36.532  29.761  29.651  1.00  0.00     0.014 A 
ATOM     37  C   UNL A   1      37.638  31.896  29.756  1.00  0.00     0.014 A 
ATOM     38  C   UNL A   1      37.766  29.130  29.697  1.00  0.00     0.010 A 
ATOM     39  C   UNL A   1      38.883  31.271  29.757  1.00  0.00     0.010 A 
ATOM     40  C   UNL A   1      38.941  29.884  29.778  1.00  0.00    -0.014 A 
BRANCH  40  41
ATOM     41  C   UNL A   1      40.200  29.155  29.671  1.00  0.00     0.031 A 
ATOM     42  C   UNL A   1      40.857  28.952  30.992  1.00  0.00     0.074 A 
ATOM     43  C   UNL A   1      40.713  28.659  28.526  1.00  0.00     0.049 A 
ATOM     44  N   UNL A   1      41.942  29.508  31.420  1.00  0.00    -0.248 NA
ATOM     45  C   UNL A   1      40.118  28.209  32.022  1.00  0.00     0.031 C 
ATOM     46  C   UNL A   1      40.057  28.563  27.221  1.00  0.00     0.029 A 
ATOM     47  N   UNL A   1      41.907  28.030  28.317  1.00  0.00    -0.354 N 
ATOM     48  C   UNL A   1      42.147  28.990  32.698  1.00  0.00     0.074 A 
ATOM     49  C   UNL A   1      40.910  28.368  33.082  1.00  0.00     0.031 C 
ATOM     50  C   UNL A   1      40.751  27.708  26.436  1.00  0.00     0.029 A 
ATOM     51  C   UNL A   1      41.969  27.314  27.123  1.00  0.00     0.049 A 
ATOM     52  H   UNL A   1      42.657  28.078  28.952  1.00  0.00     0.167 HD
ATOM     53  C   UNL A   1      43.402  28.896  33.218  1.00  0.00     0.034 A 
ATOM     54  C   UNL A   1      42.925  26.421  26.762  1.00  0.00     0.034 A 
ATOM     55  C   UNL A   1      44.320  29.737  32.488  1.00  0.00     0.049 A 
ATOM     56  C   UNL A   1      44.125  26.725  27.567  1.00  0.00     0.074 A 
ATOM     57  C   UNL A   1      44.477  31.089  32.276  1.00  0.00     0.029 A 
ATOM     58  N   UNL A   1      45.056  29.094  31.526  1.00  0.00    -0.354 N 
ATOM     59  N   UNL A   1      44.837  27.805  27.425  1.00  0.00    -0.248 NA
ATOM     60  C   UNL A   1      44.348  25.978  28.794  1.00  0.00     0.031 C 
ATOM     61  C   UNL A   1      45.010  31.201  30.958  1.00  0.00     0.029 A 
ATOM     62  C   UNL A   1      45.206  29.916  30.447  1.00  0.00     0.049 A 
ATOM     63  H   UNL A   1      45.418  28.182  31.602  1.00  0.00     0.167 HD
ATOM     64  C   UNL A   1      45.228  28.121  28.715  1.00  0.00     0.074 A 
ATOM     65  C   UNL A   1      45.043  26.890  29.479  1.00  0.00     0.031 C 
ATOM     66  C   UNL A   1      45.370  29.424  29.095  1.00  0.00     0.034 A 
BRANCH  53  67
ATOM     67  C   UNL A   1      43.913  27.739  34.063  1.00  0.00     0.023 A 
ATOM     68  C   UNL A   1      44.340  26.582  33.364  1.00  0.00     0.012 A 
ATOM     69  C   UNL A   1      43.730  27.597  35.458  1.00  0.00     0.148 A 
ATOM     70  C   UNL A   1      44.492  25.344  33.999  1.00  0.00     0.002 A 
ATOM     71  C   UNL A   1      43.951  26.381  36.098  1.00  0.00     0.091 A 
ATOM     72  F   UNL A   1      43.232  28.601  36.178  1.00  0.00    -0.205 F 
ATOM     73  C   UNL A   1      44.296  25.243  35.368  1.00  0.00     0.022 A 
BRANCH  71  74
ATOM     74  S   UNL A   1      43.765  26.202  37.880  1.00  0.00     0.127 S 
ATOM     75  O   UNL A   1      42.310  26.283  38.029  1.00  0.00    -0.237 OA
ATOM     76  O   UNL A   1      44.332  24.868  38.098  1.00  0.00    -0.237 OA
ATOM     77  O   UNL A   1      44.525  27.283  38.475  1.00  0.00    -0.744 OA
ENDBRANCH  71  74
ENDBRANCH  53  67
BRANCH  54  78
ATOM     78  C   UNL A   1      42.849  25.171  25.964  1.00  0.00     0.023 A 
ATOM     79  C   UNL A   1      43.867  24.886  25.026  1.00  0.00     0.012 A 
ATOM     80  C   UNL A   1      41.994  24.118  26.353  1.00  0.00     0.148 A 
ATOM     81  C   UNL A   1      44.067  23.587  24.543  1.00  0.00     0.002 A 
ATOM     82  C   UNL A   1      42.201  22.826  25.873  1.00  0.00     0.091 A 
ATOM     83  F   UNL A   1      41.046  24.362  27.266  1.00  0.00    -0.205 F 
ATOM     84  C   UNL A   1      43.246  22.554  24.980  1.00  0.00     0.022 A 
BRANCH  82  85
ATOM     85  S   UNL A   1      41.221  21.427  26.436  1.00  0.00     0.127 S 
ATOM     86  O   UNL A   1      41.828  20.318  25.700  1.00  0.00    -0.237 OA
ATOM     87  O   UNL A   1      41.492  21.431  27.871  1.00  0.00    -0.237 OA
ATOM     88  O   UNL A   1      39.847  21.723  26.051  1.00  0.00    -0.744 OA
ENDBRANCH  82  85
ENDBRANCH  54  78
BRANCH  66  89
ATOM     89  C   UNL A   1      45.472  30.471  28.015  1.00  0.00     0.023 A 
ATOM     90  C   UNL A   1      44.343  31.035  27.383  1.00  0.00     0.012 A 
ATOM     91  C   UNL A   1      46.740  31.023  27.764  1.00  0.00     0.148 A 
ATOM     92  C   UNL A   1      44.482  32.122  26.515  1.00  0.00     0.002 A 
ATOM     93  C   UNL A   1      46.865  32.140  26.950  1.00  0.00     0.091 A 
ATOM     94  F   UNL A   1      47.803  30.464  28.363  1.00  0.00    -0.205 F 
ATOM     95  C   UNL A   1      45.741  32.687  26.314  1.00  0.00     0.022 A 
BRANCH  93  96
ATOM     96  S   UNL A   1      48.430  33.003  26.783  1.00  0.00     0.127 S 
ATOM     97  O   UNL A   1      48.125  33.991  25.750  1.00  0.00    -0.237 OA
ATOM     98  O   UNL A   1      48.623  33.557  28.124  1.00  0.00    -0.237 OA
ATOM     99  O   UNL A   1      49.410  31.991  26.412  1.00  0.00    -0.744 OA
ENDBRANCH  93  96
ENDBRANCH  66  89
ENDBRANCH  40  41
ENDBRANCH  32  35
ENDBRANCH  30  31
ENDBRANCH   1  30
TORSDOF 16
ENDMDL
