MODEL 1
REMARK VINA RESULT:     -12.4      0.000      0.000
REMARK SMILES COc1ccc(NC(=O)N[C@@H]2C=C[C@H](C(=O)NCCCCNC(=O)c3ccc(-c4c5nc(c(-c6cccc(S(=O)(=O)[O-])c6F)c6ccc([nH]6)c(-c6cccc(S(=O)(=O)[O-])c6F)c6nc(c(-c7cccc(S(=O)(=O)[O-])c7F)c7ccc4[nH]7)C=C6)C=C5)cc3)C2)c(C)c1
REMARK SMILES IDX 19 1 18 2 17 3 15 4 16 5 14 7 11 8 12 9 88 10 13 11 10 12
REMARK SMILES IDX 7 13 8 14 9 16 6 18 3 19 4 20 91 21 5 22 89 23 90 24 2 25
REMARK SMILES IDX 1 26 20 27 21 28 22 29 23 30 24 32 25 33 26 34 87 35 27 36
REMARK SMILES IDX 86 37 28 38 29 39 30 40 80 41 31 42 85 43 79 44 81 45 32 46
REMARK SMILES IDX 84 47 78 48 77 49 33 51 65 52 45 53 64 54 46 55 49 56 63 57
REMARK SMILES IDX 82 58 47 59 48 60 62 62 83 63 50 64 34 65 35 66 43 67 36 68
REMARK SMILES IDX 38 69 44 70 37 71 39 72 40 73 41 74 42 75 66 76 67 77 75 78
REMARK SMILES IDX 68 79 70 80 76 81 69 82 71 83 72 84 73 85 74 86 51 87 52 88
REMARK SMILES IDX 60 89 53 90 55 91 61 92 54 93 56 94 57 95 58 96 59 97
REMARK H PARENT 17 6 7 15 10 17 22 31 81 50 49 61
REMARK Flexibility Score: inf
ROOT
ATOM      1  C   UNL A   1      38.496  23.982  26.720  1.00  0.00     0.023 C 
ENDROOT
BRANCH   1   2
ATOM      2  C   UNL A   1      37.402  23.697  25.683  1.00  0.00     0.116 C 
BRANCH   2   3
ATOM      3  N   UNL A   1      37.068  22.289  25.589  1.00  0.00    -0.356 N 
ATOM      4  C   UNL A   1      35.901  21.682  25.258  1.00  0.00     0.227 C 
ATOM      5  O   UNL A   1      35.840  20.455  25.346  1.00  0.00    -0.274 OA
ATOM      6  H   UNL A   1      37.808  21.675  25.799  1.00  0.00     0.163 HD
BRANCH   4   7
ATOM      7  C   UNL A   1      34.729  22.538  24.808  1.00  0.00     0.103 C 
ATOM      8  C   UNL A   1      32.450  22.956  25.518  1.00  0.00     0.107 C 
ATOM      9  C   UNL A   1      32.531  21.802  24.568  1.00  0.00    -0.006 C 
ATOM     10  C   UNL A   1      33.899  23.048  26.006  1.00  0.00     0.047 C 
ATOM     11  C   UNL A   1      33.761  21.654  24.082  1.00  0.00    -0.016 C 
BRANCH   8  12
ATOM     12  N   UNL A   1      31.407  22.672  26.454  1.00  0.00    -0.332 N 
ATOM     13  N   UNL A   1      29.977  24.628  26.567  1.00  0.00    -0.308 N 
ATOM     14  C   UNL A   1      30.310  23.345  26.840  1.00  0.00     0.319 C 
ATOM     15  H   UNL A   1      29.144  24.874  27.029  1.00  0.00     0.171 HD
ATOM     16  O   UNL A   1      29.539  22.737  27.597  1.00  0.00    -0.248 OA
ATOM     17  H   UNL A   1      31.513  21.805  26.908  1.00  0.00     0.165 HD
BRANCH  13  18
ATOM     18  C   UNL A   1      30.469  25.722  25.817  1.00  0.00     0.046 A 
ATOM     19  C   UNL A   1      30.980  28.164  24.457  1.00  0.00     0.119 A 
ATOM     20  C   UNL A   1      31.330  28.007  25.780  1.00  0.00     0.048 A 
ATOM     21  C   UNL A   1      30.540  27.033  23.766  1.00  0.00     0.052 A 
ATOM     22  C   UNL A   1      31.159  26.770  26.389  1.00  0.00     0.030 A 
ATOM     23  C   UNL A   1      30.311  25.793  24.424  1.00  0.00    -0.024 A 
ATOM     24  C   UNL A   1      30.073  24.591  23.552  1.00  0.00     0.047 C 
BRANCH  19  25
ATOM     25  O   UNL A   1      31.112  29.325  23.750  1.00  0.00    -0.497 OA
ATOM     26  C   UNL A   1      30.937  29.209  22.336  1.00  0.00     0.278 C 
ENDBRANCH  19  25
ENDBRANCH  13  18
ENDBRANCH   8  12
ENDBRANCH   4   7
ENDBRANCH   2   3
ENDBRANCH   1   2
BRANCH   1  27
ATOM     27  C   UNL A   1      39.845  23.302  26.474  1.00  0.00     0.023 C 
BRANCH  27  28
ATOM     28  C   UNL A   1      40.036  21.984  27.201  1.00  0.00     0.116 C 
BRANCH  28  29
ATOM     29  N   UNL A   1      40.959  21.051  26.599  1.00  0.00    -0.352 N 
ATOM     30  C   UNL A   1      42.274  21.273  26.221  1.00  0.00     0.251 C 
ATOM     31  H   UNL A   1      40.611  20.145  26.437  1.00  0.00     0.163 HD
ATOM     32  O   UNL A   1      42.792  20.463  25.454  1.00  0.00    -0.269 OA
BRANCH  30  33
ATOM     33  C   UNL A   1      43.075  22.381  26.827  1.00  0.00     0.039 A 
ATOM     34  C   UNL A   1      43.230  22.393  28.220  1.00  0.00     0.014 A 
ATOM     35  C   UNL A   1      43.469  23.499  26.099  1.00  0.00     0.014 A 
ATOM     36  C   UNL A   1      43.478  23.596  28.881  1.00  0.00     0.010 A 
ATOM     37  C   UNL A   1      43.610  24.706  26.738  1.00  0.00     0.010 A 
ATOM     38  C   UNL A   1      43.524  24.761  28.126  1.00  0.00    -0.014 A 
BRANCH  38  39
ATOM     39  C   UNL A   1      43.498  26.107  28.658  1.00  0.00     0.031 A 
ATOM     40  C   UNL A   1      42.226  26.837  28.709  1.00  0.00     0.074 A 
ATOM     41  C   UNL A   1      44.603  26.553  29.299  1.00  0.00     0.049 A 
ATOM     42  N   UNL A   1      42.134  28.121  28.716  1.00  0.00    -0.248 NA
ATOM     43  C   UNL A   1      40.941  26.148  28.759  1.00  0.00     0.031 C 
ATOM     44  C   UNL A   1      44.697  27.662  30.237  1.00  0.00     0.029 A 
ATOM     45  N   UNL A   1      45.932  26.152  29.118  1.00  0.00    -0.354 N 
ATOM     46  C   UNL A   1      40.833  28.418  29.062  1.00  0.00     0.074 A 
ATOM     47  C   UNL A   1      40.108  27.172  28.971  1.00  0.00     0.031 C 
ATOM     48  C   UNL A   1      45.986  28.029  30.343  1.00  0.00     0.029 A 
ATOM     49  C   UNL A   1      46.720  27.299  29.321  1.00  0.00     0.049 A 
ATOM     50  H   UNL A   1      46.251  25.248  28.894  1.00  0.00     0.167 HD
ATOM     51  C   UNL A   1      40.541  29.635  29.598  1.00  0.00     0.034 A 
ATOM     52  C   UNL A   1      47.499  27.864  28.348  1.00  0.00     0.034 A 
ATOM     53  C   UNL A   1      41.763  30.426  29.775  1.00  0.00     0.049 A 
ATOM     54  C   UNL A   1      47.103  29.301  28.041  1.00  0.00     0.074 A 
ATOM     55  C   UNL A   1      42.610  30.584  30.861  1.00  0.00     0.029 A 
ATOM     56  N   UNL A   1      42.459  30.890  28.666  1.00  0.00    -0.354 N 
ATOM     57  N   UNL A   1      46.035  29.882  28.510  1.00  0.00    -0.248 NA
ATOM     58  C   UNL A   1      47.855  30.179  27.147  1.00  0.00     0.031 C 
ATOM     59  C   UNL A   1      43.845  31.094  30.388  1.00  0.00     0.029 A 
ATOM     60  C   UNL A   1      43.746  31.277  29.020  1.00  0.00     0.049 A 
ATOM     61  H   UNL A   1      42.091  30.939  27.754  1.00  0.00     0.167 HD
ATOM     62  C   UNL A   1      45.846  31.089  27.887  1.00  0.00     0.074 A 
ATOM     63  C   UNL A   1      47.065  31.269  27.117  1.00  0.00     0.031 C 
ATOM     64  C   UNL A   1      44.671  31.787  28.011  1.00  0.00     0.034 A 
BRANCH  51  65
ATOM     65  C   UNL A   1      39.239  29.922  30.319  1.00  0.00     0.023 A 
ATOM     66  C   UNL A   1      38.729  28.920  31.173  1.00  0.00     0.012 A 
ATOM     67  C   UNL A   1      38.455  31.090  30.177  1.00  0.00     0.148 A 
ATOM     68  C   UNL A   1      37.470  29.016  31.771  1.00  0.00     0.002 A 
ATOM     69  C   UNL A   1      37.167  31.158  30.721  1.00  0.00     0.091 A 
ATOM     70  F   UNL A   1      38.972  32.158  29.554  1.00  0.00    -0.205 F 
ATOM     71  C   UNL A   1      36.671  30.119  31.516  1.00  0.00     0.022 A 
BRANCH  69  72
ATOM     72  S   UNL A   1      36.024  32.499  30.344  1.00  0.00     0.127 S 
ATOM     73  O   UNL A   1      34.812  32.087  31.058  1.00  0.00    -0.237 OA
ATOM     74  O   UNL A   1      36.697  33.661  30.916  1.00  0.00    -0.237 OA
ATOM     75  O   UNL A   1      35.879  32.496  28.892  1.00  0.00    -0.744 OA
ENDBRANCH  69  72
ENDBRANCH  51  65
BRANCH  52  76
ATOM     76  C   UNL A   1      47.967  26.880  27.322  1.00  0.00     0.023 A 
ATOM     77  C   UNL A   1      47.124  26.662  26.207  1.00  0.00     0.012 A 
ATOM     78  C   UNL A   1      49.331  26.563  27.214  1.00  0.00     0.148 A 
ATOM     79  C   UNL A   1      47.665  26.341  24.960  1.00  0.00     0.002 A 
ATOM     80  C   UNL A   1      49.861  26.237  25.969  1.00  0.00     0.091 A 
ATOM     81  F   UNL A   1      50.106  26.659  28.302  1.00  0.00    -0.205 F 
ATOM     82  C   UNL A   1      49.041  26.184  24.830  1.00  0.00     0.022 A 
BRANCH  80  83
ATOM     83  S   UNL A   1      51.631  25.999  25.775  1.00  0.00     0.127 S 
ATOM     84  O   UNL A   1      51.787  26.125  24.330  1.00  0.00    -0.237 OA
ATOM     85  O   UNL A   1      52.192  27.103  26.550  1.00  0.00    -0.237 OA
ATOM     86  O   UNL A   1      51.878  24.682  26.345  1.00  0.00    -0.744 OA
ENDBRANCH  80  83
ENDBRANCH  52  76
BRANCH  64  87
ATOM     87  C   UNL A   1      44.264  33.012  27.204  1.00  0.00     0.023 A 
ATOM     88  C   UNL A   1      44.156  32.998  25.801  1.00  0.00     0.012 A 
ATOM     89  C   UNL A   1      43.846  34.207  27.854  1.00  0.00     0.148 A 
ATOM     90  C   UNL A   1      43.728  34.118  25.077  1.00  0.00     0.002 A 
ATOM     91  C   UNL A   1      43.299  35.268  27.139  1.00  0.00     0.091 A 
ATOM     92  F   UNL A   1      44.004  34.342  29.179  1.00  0.00    -0.205 F 
ATOM     93  C   UNL A   1      43.274  35.243  25.746  1.00  0.00     0.022 A 
BRANCH  91  94
ATOM     94  S   UNL A   1      42.473  36.629  27.977  1.00  0.00     0.127 S 
ATOM     95  O   UNL A   1      42.019  37.445  26.853  1.00  0.00    -0.237 OA
ATOM     96  O   UNL A   1      41.401  35.944  28.703  1.00  0.00    -0.237 OA
ATOM     97  O   UNL A   1      43.489  37.223  28.834  1.00  0.00    -0.744 OA
ENDBRANCH  91  94
ENDBRANCH  64  87
ENDBRANCH  38  39
ENDBRANCH  30  33
ENDBRANCH  28  29
ENDBRANCH  27  28
ENDBRANCH   1  27
TORSDOF 17
ENDMDL
MODEL 2
REMARK VINA RESULT:     -12.3      4.231      9.749
REMARK SMILES COc1ccc(NC(=O)N[C@@H]2C=C[C@H](C(=O)NCCCCNC(=O)c3ccc(-c4c5nc(c(-c6cccc(S(=O)(=O)[O-])c6F)c6ccc([nH]6)c(-c6cccc(S(=O)(=O)[O-])c6F)c6nc(c(-c7cccc(S(=O)(=O)[O-])c7F)c7ccc4[nH]7)C=C6)C=C5)cc3)C2)c(C)c1
REMARK SMILES IDX 19 1 18 2 17 3 15 4 16 5 14 7 11 8 12 9 88 10 13 11 10 12
REMARK SMILES IDX 7 13 8 14 9 16 6 18 3 19 4 20 91 21 5 22 89 23 90 24 2 25
REMARK SMILES IDX 1 26 20 27 21 28 22 29 23 30 24 32 25 33 26 34 87 35 27 36
REMARK SMILES IDX 86 37 28 38 29 39 30 40 80 41 31 42 85 43 79 44 81 45 32 46
REMARK SMILES IDX 84 47 78 48 77 49 33 51 65 52 45 53 64 54 46 55 49 56 63 57
REMARK SMILES IDX 82 58 47 59 48 60 62 62 83 63 50 64 34 65 35 66 43 67 36 68
REMARK SMILES IDX 38 69 44 70 37 71 39 72 40 73 41 74 42 75 66 76 67 77 75 78
REMARK SMILES IDX 68 79 70 80 76 81 69 82 71 83 72 84 73 85 74 86 51 87 52 88
REMARK SMILES IDX 60 89 53 90 55 91 61 92 54 93 56 94 57 95 58 96 59 97
REMARK H PARENT 17 6 7 15 10 17 22 31 81 50 49 61
REMARK Flexibility Score: inf
ROOT
ATOM      1  C   UNL A   1      31.870  29.292  26.444  1.00  0.00     0.023 C 
ENDROOT
BRANCH   1   2
ATOM      2  C   UNL A   1      31.728  27.889  25.839  1.00  0.00     0.116 C 
BRANCH   2   3
ATOM      3  N   UNL A   1      31.799  27.891  24.390  1.00  0.00    -0.356 N 
ATOM      4  C   UNL A   1      32.179  26.916  23.527  1.00  0.00     0.227 C 
ATOM      5  O   UNL A   1      32.248  27.195  22.329  1.00  0.00    -0.274 OA
ATOM      6  H   UNL A   1      31.527  28.736  23.965  1.00  0.00     0.163 HD
BRANCH   4   7
ATOM      7  C   UNL A   1      32.510  25.537  24.074  1.00  0.00     0.103 C 
ATOM      8  C   UNL A   1      34.416  24.427  25.076  1.00  0.00     0.107 C 
ATOM      9  C   UNL A   1      34.431  24.313  23.584  1.00  0.00    -0.006 C 
ATOM     10  C   UNL A   1      33.472  25.615  25.280  1.00  0.00     0.047 C 
ATOM     11  C   UNL A   1      33.322  24.813  23.044  1.00  0.00    -0.016 C 
BRANCH   8  12
ATOM     12  N   UNL A   1      35.775  24.522  25.514  1.00  0.00    -0.332 N 
ATOM     13  N   UNL A   1      36.567  22.266  25.920  1.00  0.00    -0.308 N 
ATOM     14  C   UNL A   1      36.716  23.605  25.794  1.00  0.00     0.319 C 
ATOM     15  H   UNL A   1      37.418  21.848  26.186  1.00  0.00     0.171 HD
ATOM     16  O   UNL A   1      37.850  24.047  26.033  1.00  0.00    -0.248 OA
ATOM     17  H   UNL A   1      36.083  25.449  25.636  1.00  0.00     0.165 HD
BRANCH  13  18
ATOM     18  C   UNL A   1      35.556  21.287  25.785  1.00  0.00     0.046 A 
ATOM     19  C   UNL A   1      33.366  19.621  25.075  1.00  0.00     0.119 A 
ATOM     20  C   UNL A   1      34.611  19.424  24.519  1.00  0.00     0.048 A 
ATOM     21  C   UNL A   1      33.264  20.537  26.124  1.00  0.00     0.052 A 
ATOM     22  C   UNL A   1      35.683  20.190  24.960  1.00  0.00     0.030 A 
ATOM     23  C   UNL A   1      34.359  21.355  26.516  1.00  0.00    -0.024 A 
ATOM     24  C   UNL A   1      34.212  22.125  27.800  1.00  0.00     0.047 C 
BRANCH  19  25
ATOM     25  O   UNL A   1      32.242  18.925  24.732  1.00  0.00    -0.497 OA
ATOM     26  C   UNL A   1      32.220  17.553  25.133  1.00  0.00     0.278 C 
ENDBRANCH  19  25
ENDBRANCH  13  18
ENDBRANCH   8  12
ENDBRANCH   4   7
ENDBRANCH   2   3
ENDBRANCH   1   2
BRANCH   1  27
ATOM     27  C   UNL A   1      33.056  29.496  27.390  1.00  0.00     0.023 C 
BRANCH  27  28
ATOM     28  C   UNL A   1      34.065  30.531  26.931  1.00  0.00     0.116 C 
BRANCH  28  29
ATOM     29  N   UNL A   1      34.570  31.424  27.947  1.00  0.00    -0.352 N 
ATOM     30  C   UNL A   1      35.506  31.155  28.934  1.00  0.00     0.251 C 
ATOM     31  H   UNL A   1      34.203  32.338  27.937  1.00  0.00     0.163 HD
ATOM     32  O   UNL A   1      35.575  31.935  29.883  1.00  0.00    -0.269 OA
BRANCH  30  33
ATOM     33  C   UNL A   1      36.484  30.035  28.785  1.00  0.00     0.039 A 
ATOM     34  C   UNL A   1      36.798  29.280  29.923  1.00  0.00     0.014 A 
ATOM     35  C   UNL A   1      37.250  29.863  27.636  1.00  0.00     0.014 A 
ATOM     36  C   UNL A   1      38.021  28.615  30.001  1.00  0.00     0.010 A 
ATOM     37  C   UNL A   1      38.499  29.301  27.734  1.00  0.00     0.010 A 
ATOM     38  C   UNL A   1      38.913  28.758  28.947  1.00  0.00    -0.014 A 
BRANCH  38  39
ATOM     39  C   UNL A   1      40.309  28.374  28.970  1.00  0.00     0.031 A 
ATOM     40  C   UNL A   1      40.673  26.971  28.739  1.00  0.00     0.074 A 
ATOM     41  C   UNL A   1      41.235  29.360  28.976  1.00  0.00     0.049 A 
ATOM     42  N   UNL A   1      41.759  26.430  29.167  1.00  0.00    -0.248 NA
ATOM     43  C   UNL A   1      39.814  26.064  27.985  1.00  0.00     0.031 C 
ATOM     44  C   UNL A   1      42.639  29.259  28.608  1.00  0.00     0.029 A 
ATOM     45  N   UNL A   1      41.107  30.667  29.461  1.00  0.00    -0.354 N 
ATOM     46  C   UNL A   1      41.879  25.223  28.513  1.00  0.00     0.074 A 
ATOM     47  C   UNL A   1      40.603  24.991  27.878  1.00  0.00     0.031 C 
ATOM     48  C   UNL A   1      43.294  30.321  29.111  1.00  0.00     0.029 A 
ATOM     49  C   UNL A   1      42.363  31.017  29.986  1.00  0.00     0.049 A 
ATOM     50  H   UNL A   1      40.299  31.229  29.438  1.00  0.00     0.167 HD
ATOM     51  C   UNL A   1      43.106  24.644  28.391  1.00  0.00     0.034 A 
ATOM     52  C   UNL A   1      42.579  31.302  31.307  1.00  0.00     0.034 A 
ATOM     53  C   UNL A   1      44.143  25.508  28.964  1.00  0.00     0.049 A 
ATOM     54  C   UNL A   1      43.585  30.360  31.953  1.00  0.00     0.074 A 
ATOM     55  C   UNL A   1      44.967  26.464  28.390  1.00  0.00     0.029 A 
ATOM     56  N   UNL A   1      44.191  25.723  30.335  1.00  0.00    -0.354 N 
ATOM     57  N   UNL A   1      44.059  29.290  31.380  1.00  0.00    -0.248 NA
ATOM     58  C   UNL A   1      44.100  30.526  33.311  1.00  0.00     0.031 C 
ATOM     59  C   UNL A   1      45.468  27.294  29.424  1.00  0.00     0.029 A 
ATOM     60  C   UNL A   1      44.975  26.831  30.632  1.00  0.00     0.049 A 
ATOM     61  H   UNL A   1      43.733  25.167  31.006  1.00  0.00     0.167 HD
ATOM     62  C   UNL A   1      44.768  28.547  32.288  1.00  0.00     0.074 A 
ATOM     63  C   UNL A   1      44.845  29.414  33.451  1.00  0.00     0.031 C 
ATOM     64  C   UNL A   1      45.161  27.260  32.016  1.00  0.00     0.034 A 
BRANCH  51  65
ATOM     65  C   UNL A   1      43.390  23.523  27.411  1.00  0.00     0.023 A 
ATOM     66  C   UNL A   1      44.273  23.796  26.343  1.00  0.00     0.012 A 
ATOM     67  C   UNL A   1      42.810  22.235  27.437  1.00  0.00     0.148 A 
ATOM     68  C   UNL A   1      44.491  22.890  25.302  1.00  0.00     0.002 A 
ATOM     69  C   UNL A   1      42.976  21.353  26.362  1.00  0.00     0.091 A 
ATOM     70  F   UNL A   1      42.133  21.839  28.523  1.00  0.00    -0.205 F 
ATOM     71  C   UNL A   1      43.815  21.681  25.291  1.00  0.00     0.022 A 
BRANCH  69  72
ATOM     72  S   UNL A   1      42.045  19.817  26.215  1.00  0.00     0.127 S 
ATOM     73  O   UNL A   1      42.601  19.230  24.991  1.00  0.00    -0.237 OA
ATOM     74  O   UNL A   1      42.402  19.109  27.440  1.00  0.00    -0.237 OA
ATOM     75  O   UNL A   1      40.647  20.214  26.091  1.00  0.00    -0.744 OA
ENDBRANCH  69  72
ENDBRANCH  51  65
BRANCH  52  76
ATOM     76  C   UNL A   1      41.369  31.847  31.998  1.00  0.00     0.023 A 
ATOM     77  C   UNL A   1      40.842  33.066  31.508  1.00  0.00     0.012 A 
ATOM     78  C   UNL A   1      40.535  30.998  32.743  1.00  0.00     0.148 A 
ATOM     79  C   UNL A   1      39.471  33.325  31.578  1.00  0.00     0.002 A 
ATOM     80  C   UNL A   1      39.171  31.268  32.815  1.00  0.00     0.091 A 
ATOM     81  F   UNL A   1      41.062  29.902  33.305  1.00  0.00    -0.205 F 
ATOM     82  C   UNL A   1      38.628  32.398  32.182  1.00  0.00     0.022 A 
BRANCH  80  83
ATOM     83  S   UNL A   1      38.061  30.104  33.614  1.00  0.00     0.127 S 
ATOM     84  O   UNL A   1      38.289  30.403  35.023  1.00  0.00    -0.237 OA
ATOM     85  O   UNL A   1      36.751  30.507  33.107  1.00  0.00    -0.237 OA
ATOM     86  O   UNL A   1      38.509  28.802  33.143  1.00  0.00    -0.744 OA
ENDBRANCH  80  83
ENDBRANCH  52  76
BRANCH  64  87
ATOM     87  C   UNL A   1      45.752  26.272  33.011  1.00  0.00     0.023 A 
ATOM     88  C   UNL A   1      47.137  26.148  33.230  1.00  0.00     0.012 A 
ATOM     89  C   UNL A   1      44.910  25.509  33.868  1.00  0.00     0.148 A 
ATOM     90  C   UNL A   1      47.663  25.272  34.187  1.00  0.00     0.002 A 
ATOM     91  C   UNL A   1      45.435  24.741  34.903  1.00  0.00     0.091 A 
ATOM     92  F   UNL A   1      43.585  25.493  33.668  1.00  0.00    -0.205 F 
ATOM     93  C   UNL A   1      46.813  24.589  35.042  1.00  0.00     0.022 A 
BRANCH  91  94
ATOM     94  S   UNL A   1      44.373  24.048  36.179  1.00  0.00     0.127 S 
ATOM     95  O   UNL A   1      43.714  25.241  36.705  1.00  0.00    -0.237 OA
ATOM     96  O   UNL A   1      43.500  23.159  35.410  1.00  0.00    -0.237 OA
ATOM     97  O   UNL A   1      45.273  23.357  37.091  1.00  0.00    -0.744 OA
ENDBRANCH  91  94
ENDBRANCH  64  87
ENDBRANCH  38  39
ENDBRANCH  30  33
ENDBRANCH  28  29
ENDBRANCH  27  28
ENDBRANCH   1  27
TORSDOF 17
ENDMDL
MODEL 3
REMARK VINA RESULT:     -12.2      4.066      9.579
REMARK SMILES COc1ccc(NC(=O)N[C@@H]2C=C[C@H](C(=O)NCCCCNC(=O)c3ccc(-c4c5nc(c(-c6cccc(S(=O)(=O)[O-])c6F)c6ccc([nH]6)c(-c6cccc(S(=O)(=O)[O-])c6F)c6nc(c(-c7cccc(S(=O)(=O)[O-])c7F)c7ccc4[nH]7)C=C6)C=C5)cc3)C2)c(C)c1
REMARK SMILES IDX 19 1 18 2 17 3 15 4 16 5 14 7 11 8 12 9 88 10 13 11 10 12
REMARK SMILES IDX 7 13 8 14 9 16 6 18 3 19 4 20 91 21 5 22 89 23 90 24 2 25
REMARK SMILES IDX 1 26 20 27 21 28 22 29 23 30 24 32 25 33 26 34 87 35 27 36
REMARK SMILES IDX 86 37 28 38 29 39 30 40 80 41 31 42 85 43 79 44 81 45 32 46
REMARK SMILES IDX 84 47 78 48 77 49 33 51 65 52 45 53 64 54 46 55 49 56 63 57
REMARK SMILES IDX 82 58 47 59 48 60 62 62 83 63 50 64 34 65 35 66 43 67 36 68
REMARK SMILES IDX 38 69 44 70 37 71 39 72 40 73 41 74 42 75 66 76 67 77 75 78
REMARK SMILES IDX 68 79 70 80 76 81 69 82 71 83 72 84 73 85 74 86 51 87 52 88
REMARK SMILES IDX 60 89 53 90 55 91 61 92 54 93 56 94 57 95 58 96 59 97
REMARK H PARENT 17 6 7 15 10 17 22 31 81 50 49 61
REMARK Flexibility Score: inf
ROOT
ATOM      1  C   UNL A   1      33.102  29.760  25.151  1.00  0.00     0.023 C 
ENDROOT
BRANCH   1   2
ATOM      2  C   UNL A   1      31.621  29.830  25.547  1.00  0.00     0.116 C 
BRANCH   2   3
ATOM      3  N   UNL A   1      30.735  29.352  24.502  1.00  0.00    -0.356 N 
ATOM      4  C   UNL A   1      30.644  28.132  23.917  1.00  0.00     0.227 C 
ATOM      5  O   UNL A   1      29.866  27.999  22.971  1.00  0.00    -0.274 OA
ATOM      6  H   UNL A   1      30.097  30.022  24.164  1.00  0.00     0.163 HD
BRANCH   4   7
ATOM      7  C   UNL A   1      31.506  26.997  24.444  1.00  0.00     0.103 C 
ATOM      8  C   UNL A   1      31.169  24.790  25.386  1.00  0.00     0.107 C 
ATOM      9  C   UNL A   1      31.159  25.850  26.443  1.00  0.00    -0.006 C 
ATOM     10  C   UNL A   1      30.892  25.616  24.127  1.00  0.00     0.047 C 
ATOM     11  C   UNL A   1      31.470  27.044  25.941  1.00  0.00    -0.016 C 
BRANCH   8  12
ATOM     12  N   UNL A   1      30.241  23.777  25.783  1.00  0.00    -0.332 N 
ATOM     13  N   UNL A   1      31.524  21.802  26.361  1.00  0.00    -0.308 N 
ATOM     14  C   UNL A   1      30.391  22.536  26.277  1.00  0.00     0.319 C 
ATOM     15  H   UNL A   1      31.327  20.904  26.713  1.00  0.00     0.171 HD
ATOM     16  O   UNL A   1      29.350  21.966  26.637  1.00  0.00    -0.248 OA
ATOM     17  H   UNL A   1      29.300  24.043  25.674  1.00  0.00     0.165 HD
BRANCH  13  18
ATOM     18  C   UNL A   1      32.906  21.937  26.095  1.00  0.00     0.046 A 
ATOM     19  C   UNL A   1      35.538  22.694  25.335  1.00  0.00     0.119 A 
ATOM     20  C   UNL A   1      35.017  23.079  26.551  1.00  0.00     0.048 A 
ATOM     21  C   UNL A   1      34.805  21.777  24.579  1.00  0.00     0.052 A 
ATOM     22  C   UNL A   1      33.767  22.610  26.936  1.00  0.00     0.030 A 
ATOM     23  C   UNL A   1      33.501  21.361  24.961  1.00  0.00    -0.024 A 
ATOM     24  C   UNL A   1      32.907  20.199  24.212  1.00  0.00     0.047 C 
BRANCH  19  25
ATOM     25  O   UNL A   1      36.757  23.080  24.853  1.00  0.00    -0.497 OA
ATOM     26  C   UNL A   1      37.678  23.570  25.830  1.00  0.00     0.278 C 
ENDBRANCH  19  25
ENDBRANCH  13  18
ENDBRANCH   8  12
ENDBRANCH   4   7
ENDBRANCH   2   3
ENDBRANCH   1   2
BRANCH   1  27
ATOM     27  C   UNL A   1      34.099  29.640  26.306  1.00  0.00     0.023 C 
BRANCH  27  28
ATOM     28  C   UNL A   1      33.606  30.185  27.633  1.00  0.00     0.116 C 
BRANCH  28  29
ATOM     29  N   UNL A   1      34.335  31.308  28.171  1.00  0.00    -0.352 N 
ATOM     30  C   UNL A   1      35.541  31.296  28.855  1.00  0.00     0.251 C 
ATOM     31  H   UNL A   1      33.925  32.193  28.035  1.00  0.00     0.163 HD
ATOM     32  O   UNL A   1      35.844  32.302  29.497  1.00  0.00    -0.269 OA
BRANCH  30  33
ATOM     33  C   UNL A   1      36.498  30.157  28.712  1.00  0.00     0.039 A 
ATOM     34  C   UNL A   1      36.809  29.412  29.857  1.00  0.00     0.014 A 
ATOM     35  C   UNL A   1      37.251  29.958  27.559  1.00  0.00     0.014 A 
ATOM     36  C   UNL A   1      38.021  28.726  29.933  1.00  0.00     0.010 A 
ATOM     37  C   UNL A   1      38.490  29.376  27.653  1.00  0.00     0.010 A 
ATOM     38  C   UNL A   1      38.906  28.841  28.869  1.00  0.00    -0.014 A 
BRANCH  38  39
ATOM     39  C   UNL A   1      40.295  28.432  28.885  1.00  0.00     0.031 A 
ATOM     40  C   UNL A   1      40.635  27.027  28.635  1.00  0.00     0.074 A 
ATOM     41  C   UNL A   1      41.238  29.402  28.902  1.00  0.00     0.049 A 
ATOM     42  N   UNL A   1      41.712  26.462  29.055  1.00  0.00    -0.248 NA
ATOM     43  C   UNL A   1      39.759  26.144  27.872  1.00  0.00     0.031 C 
ATOM     44  C   UNL A   1      42.639  29.282  28.529  1.00  0.00     0.029 A 
ATOM     45  N   UNL A   1      41.133  30.705  29.403  1.00  0.00    -0.354 N 
ATOM     46  C   UNL A   1      41.810  25.261  28.385  1.00  0.00     0.074 A 
ATOM     47  C   UNL A   1      40.529  25.058  27.750  1.00  0.00     0.031 C 
ATOM     48  C   UNL A   1      43.313  30.326  29.044  1.00  0.00     0.029 A 
ATOM     49  C   UNL A   1      42.396  31.027  29.929  1.00  0.00     0.049 A 
ATOM     50  H   UNL A   1      40.335  31.281  29.388  1.00  0.00     0.167 HD
ATOM     51  C   UNL A   1      43.027  24.662  28.254  1.00  0.00     0.034 A 
ATOM     52  C   UNL A   1      42.619  31.292  31.253  1.00  0.00     0.034 A 
ATOM     53  C   UNL A   1      44.079  25.502  28.836  1.00  0.00     0.049 A 
ATOM     54  C   UNL A   1      43.609  30.325  31.886  1.00  0.00     0.074 A 
ATOM     55  C   UNL A   1      44.918  26.451  28.272  1.00  0.00     0.029 A 
ATOM     56  N   UNL A   1      44.133  25.699  30.209  1.00  0.00    -0.354 N 
ATOM     57  N   UNL A   1      44.064  29.254  31.299  1.00  0.00    -0.248 NA
ATOM     58  C   UNL A   1      44.129  30.465  33.245  1.00  0.00     0.031 C 
ATOM     59  C   UNL A   1      45.435  27.259  29.315  1.00  0.00     0.029 A 
ATOM     60  C   UNL A   1      44.937  26.790  30.518  1.00  0.00     0.049 A 
ATOM     61  H   UNL A   1      43.667  25.142  30.874  1.00  0.00     0.167 HD
ATOM     62  C   UNL A   1      44.762  28.488  32.196  1.00  0.00     0.074 A 
ATOM     63  C   UNL A   1      44.855  29.339  33.370  1.00  0.00     0.031 C 
ATOM     64  C   UNL A   1      45.132  27.198  31.907  1.00  0.00     0.034 A 
BRANCH  51  65
ATOM     65  C   UNL A   1      43.290  23.550  27.259  1.00  0.00     0.023 A 
ATOM     66  C   UNL A   1      44.045  23.865  26.108  1.00  0.00     0.012 A 
ATOM     67  C   UNL A   1      42.804  22.226  27.352  1.00  0.00     0.148 A 
ATOM     68  C   UNL A   1      44.222  22.962  25.058  1.00  0.00     0.002 A 
ATOM     69  C   UNL A   1      42.925  21.342  26.272  1.00  0.00     0.091 A 
ATOM     70  F   UNL A   1      42.264  21.802  28.502  1.00  0.00    -0.205 F 
ATOM     71  C   UNL A   1      43.632  21.710  25.122  1.00  0.00     0.022 A 
BRANCH  69  72
ATOM     72  S   UNL A   1      42.090  19.745  26.228  1.00  0.00     0.127 S 
ATOM     73  O   UNL A   1      40.681  20.133  26.111  1.00  0.00    -0.237 OA
ATOM     74  O   UNL A   1      42.648  19.127  25.030  1.00  0.00    -0.237 OA
ATOM     75  O   UNL A   1      42.416  19.095  27.493  1.00  0.00    -0.744 OA
ENDBRANCH  69  72
ENDBRANCH  51  65
BRANCH  52  76
ATOM     76  C   UNL A   1      41.419  31.849  31.953  1.00  0.00     0.023 A 
ATOM     77  C   UNL A   1      40.895  33.069  31.463  1.00  0.00     0.012 A 
ATOM     78  C   UNL A   1      40.587  31.009  32.712  1.00  0.00     0.148 A 
ATOM     79  C   UNL A   1      39.527  33.337  31.544  1.00  0.00     0.002 A 
ATOM     80  C   UNL A   1      39.226  31.289  32.795  1.00  0.00     0.091 A 
ATOM     81  F   UNL A   1      41.112  29.913  33.274  1.00  0.00    -0.205 F 
ATOM     82  C   UNL A   1      38.684  32.419  32.162  1.00  0.00     0.022 A 
BRANCH  80  83
ATOM     83  S   UNL A   1      38.115  30.137  33.612  1.00  0.00     0.127 S 
ATOM     84  O   UNL A   1      36.819  30.568  33.101  1.00  0.00    -0.237 OA
ATOM     85  O   UNL A   1      38.570  28.841  33.113  1.00  0.00    -0.237 OA
ATOM     86  O   UNL A   1      38.361  30.350  35.031  1.00  0.00    -0.744 OA
ENDBRANCH  80  83
ENDBRANCH  52  76
BRANCH  64  87
ATOM     87  C   UNL A   1      45.708  26.187  32.889  1.00  0.00     0.023 A 
ATOM     88  C   UNL A   1      47.092  25.992  33.056  1.00  0.00     0.012 A 
ATOM     89  C   UNL A   1      44.861  25.476  33.784  1.00  0.00     0.148 A 
ATOM     90  C   UNL A   1      47.607  25.097  34.002  1.00  0.00     0.002 A 
ATOM     91  C   UNL A   1      45.383  24.690  34.806  1.00  0.00     0.091 A 
ATOM     92  F   UNL A   1      43.530  25.530  33.634  1.00  0.00    -0.205 F 
ATOM     93  C   UNL A   1      46.756  24.466  34.895  1.00  0.00     0.022 A 
BRANCH  91  94
ATOM     94  S   UNL A   1      44.336  24.063  36.128  1.00  0.00     0.127 S 
ATOM     95  O   UNL A   1      43.635  25.271  36.556  1.00  0.00    -0.237 OA
ATOM     96  O   UNL A   1      43.497  23.090  35.427  1.00  0.00    -0.237 OA
ATOM     97  O   UNL A   1      45.252  23.475  37.095  1.00  0.00    -0.744 OA
ENDBRANCH  91  94
ENDBRANCH  64  87
ENDBRANCH  38  39
ENDBRANCH  30  33
ENDBRANCH  28  29
ENDBRANCH  27  28
ENDBRANCH   1  27
TORSDOF 17
ENDMDL
