MODEL 1
REMARK VINA RESULT:     -12.4      0.000      0.000
REMARK SMILES O=C(C[C@@H](C(=O)NCCCCNC(=O)c1ccc(-c2c3nc(c(-c4cccc(S(=O)(=O)[O-])c4F)c4ccc([nH]4)c(-c4cccc(S(=O)(=O)[O-])c4F)c4nc(c(-c5cccc(S(=O)(=O)[O-])c5F)c5ccc2[nH]5)C=C4)C=C3)cc1)c1ccccc1)Nc1cc(C(F)(F)F)ccc1-n1cncn1
REMARK SMILES IDX 9 1 8 2 7 3 5 4 6 5 4 7 3 8 2 9 1 10 84 11 85 13 86 14 94 15
REMARK SMILES IDX 87 16 93 17 92 18 95 19 96 20 99 21 97 22 98 23 88 24 89 25
REMARK SMILES IDX 90 26 91 27 78 28 79 29 83 30 80 31 82 32 81 33 10 34 11 35
REMARK SMILES IDX 12 36 13 37 14 39 15 40 16 41 77 42 17 43 76 44 18 45 19 46
REMARK SMILES IDX 20 47 70 48 21 49 75 50 69 51 71 52 22 53 74 54 68 55 67 56
REMARK SMILES IDX 23 58 55 59 35 60 54 61 36 62 39 63 53 64 72 65 37 66 38 67
REMARK SMILES IDX 52 69 73 70 40 71 24 72 25 73 33 74 26 75 28 76 34 77 27 78
REMARK SMILES IDX 29 79 30 80 31 81 32 82 56 83 57 84 65 85 58 86 60 87 66 88
REMARK SMILES IDX 59 89 61 90 62 91 63 92 64 93 41 94 42 95 50 96 43 97 45 98
REMARK SMILES IDX 51 99 44 100 46 101 47 102 48 103 49 104
REMARK H PARENT 7 6 84 12 12 38 71 57 39 68
REMARK Flexibility Score: inf
ROOT
ATOM      1  C   UNL A   1      36.735  21.905  24.611  1.00  0.00     0.023 C 
ENDROOT
BRANCH   1   2
ATOM      2  C   UNL A   1      36.117  22.590  25.828  1.00  0.00     0.116 C 
BRANCH   2   3
ATOM      3  N   UNL A   1      35.253  21.626  26.491  1.00  0.00    -0.356 N 
ATOM      4  C   UNL A   1      33.924  21.831  26.736  1.00  0.00     0.228 C 
ATOM      5  O   UNL A   1      33.539  21.760  27.906  1.00  0.00    -0.274 OA
ATOM      6  H   UNL A   1      35.651  20.773  26.780  1.00  0.00     0.163 HD
BRANCH   4   7
ATOM      7  C   UNL A   1      32.957  22.039  25.558  1.00  0.00     0.118 C 
BRANCH   7   8
ATOM      8  C   UNL A   1      31.692  22.775  26.039  1.00  0.00     0.118 C 
BRANCH   8   9
ATOM      9  C   UNL A   1      31.695  24.283  25.746  1.00  0.00     0.225 C 
ATOM     10  O   UNL A   1      30.674  24.952  25.645  1.00  0.00    -0.275 OA
ATOM     11  N   UNL A   1      32.978  24.806  25.711  1.00  0.00    -0.324 N 
ATOM     12  H   UNL A   1      33.705  24.199  25.985  1.00  0.00     0.170 HD
BRANCH  11  13
ATOM     13  C   UNL A   1      33.364  26.118  25.327  1.00  0.00     0.067 A 
ATOM     14  C   UNL A   1      33.142  27.184  26.192  1.00  0.00     0.041 A 
ATOM     15  C   UNL A   1      33.704  26.443  24.006  1.00  0.00     0.090 A 
ATOM     16  C   UNL A   1      33.037  28.499  25.704  1.00  0.00     0.058 A 
ATOM     17  C   UNL A   1      33.913  27.766  23.589  1.00  0.00     0.031 A 
ATOM     18  C   UNL A   1      33.531  28.801  24.435  1.00  0.00     0.015 A 
BRANCH  15  19
ATOM     19  N   UNL A   1      33.753  25.437  23.041  1.00  0.00    -0.219 N 
ATOM     20  C   UNL A   1      32.967  25.355  21.920  1.00  0.00     0.226 A 
ATOM     21  N   UNL A   1      34.425  24.285  23.224  1.00  0.00    -0.155 NA
ATOM     22  N   UNL A   1      33.002  24.138  21.437  1.00  0.00    -0.223 NA
ATOM     23  C   UNL A   1      33.894  23.520  22.269  1.00  0.00     0.246 A 
ENDBRANCH  15  19
BRANCH  16  24
ATOM     24  C   UNL A   1      32.110  29.466  26.415  1.00  0.00     0.416 C 
ATOM     25  F   UNL A   1      31.024  29.824  25.680  1.00  0.00    -0.166 F 
ATOM     26  F   UNL A   1      31.622  28.902  27.556  1.00  0.00    -0.166 F 
ATOM     27  F   UNL A   1      32.698  30.610  26.816  1.00  0.00    -0.166 F 
ENDBRANCH  16  24
ENDBRANCH  11  13
ENDBRANCH   8   9
ENDBRANCH   7   8
BRANCH   7  28
ATOM     28  C   UNL A   1      32.666  20.632  24.987  1.00  0.00    -0.035 A 
ATOM     29  C   UNL A   1      32.387  20.476  23.619  1.00  0.00     0.004 A 
ATOM     30  C   UNL A   1      32.863  19.468  25.755  1.00  0.00     0.004 A 
ATOM     31  C   UNL A   1      32.339  19.204  23.035  1.00  0.00     0.000 A 
ATOM     32  C   UNL A   1      32.825  18.198  25.167  1.00  0.00     0.000 A 
ATOM     33  C   UNL A   1      32.571  18.066  23.806  1.00  0.00     0.000 A 
ENDBRANCH   7  28
ENDBRANCH   4   7
ENDBRANCH   2   3
ENDBRANCH   1   2
BRANCH   1  34
ATOM     34  C   UNL A   1      37.592  20.652  24.846  1.00  0.00     0.023 C 
BRANCH  34  35
ATOM     35  C   UNL A   1      38.795  20.709  25.796  1.00  0.00     0.116 C 
BRANCH  35  36
ATOM     36  N   UNL A   1      39.830  19.677  25.696  1.00  0.00    -0.352 N 
ATOM     37  C   UNL A   1      41.165  19.588  26.062  1.00  0.00     0.251 C 
ATOM     38  H   UNL A   1      39.500  18.852  25.270  1.00  0.00     0.163 HD
ATOM     39  O   UNL A   1      41.697  18.476  26.017  1.00  0.00    -0.269 OA
BRANCH  37  40
ATOM     40  C   UNL A   1      42.032  20.766  26.371  1.00  0.00     0.039 A 
ATOM     41  C   UNL A   1      42.290  21.703  25.345  1.00  0.00     0.014 A 
ATOM     42  C   UNL A   1      42.488  21.051  27.647  1.00  0.00     0.014 A 
ATOM     43  C   UNL A   1      42.877  22.953  25.628  1.00  0.00     0.010 A 
ATOM     44  C   UNL A   1      42.988  22.318  27.944  1.00  0.00     0.010 A 
ATOM     45  C   UNL A   1      43.198  23.287  26.947  1.00  0.00    -0.014 A 
BRANCH  45  46
ATOM     46  C   UNL A   1      43.861  24.560  27.365  1.00  0.00     0.031 A 
ATOM     47  C   UNL A   1      42.986  25.635  27.968  1.00  0.00     0.074 A 
ATOM     48  C   UNL A   1      45.143  24.851  27.052  1.00  0.00     0.049 A 
ATOM     49  N   UNL A   1      43.203  26.917  28.089  1.00  0.00    -0.248 NA
ATOM     50  C   UNL A   1      41.648  25.209  28.419  1.00  0.00     0.031 C 
ATOM     51  C   UNL A   1      46.104  23.944  26.425  1.00  0.00     0.029 A 
ATOM     52  N   UNL A   1      45.839  26.034  27.172  1.00  0.00    -0.354 N 
ATOM     53  C   UNL A   1      41.997  27.460  28.520  1.00  0.00     0.074 A 
ATOM     54  C   UNL A   1      41.051  26.373  28.615  1.00  0.00     0.031 C 
ATOM     55  C   UNL A   1      47.253  24.607  26.196  1.00  0.00     0.029 A 
ATOM     56  C   UNL A   1      47.102  25.998  26.619  1.00  0.00     0.049 A 
ATOM     57  H   UNL A   1      45.468  26.834  27.612  1.00  0.00     0.167 HD
ATOM     58  C   UNL A   1      41.706  28.744  28.833  1.00  0.00     0.034 A 
ATOM     59  C   UNL A   1      48.018  26.978  26.453  1.00  0.00     0.034 A 
ATOM     60  C   UNL A   1      42.677  29.800  28.867  1.00  0.00     0.049 A 
ATOM     61  C   UNL A   1      47.698  28.384  26.914  1.00  0.00     0.074 A 
ATOM     62  C   UNL A   1      42.515  31.097  29.320  1.00  0.00     0.029 A 
ATOM     63  N   UNL A   1      43.991  29.677  28.453  1.00  0.00    -0.354 N 
ATOM     64  N   UNL A   1      46.598  28.850  27.456  1.00  0.00    -0.248 NA
ATOM     65  C   UNL A   1      48.760  29.396  26.770  1.00  0.00     0.031 C 
ATOM     66  C   UNL A   1      43.730  31.768  29.159  1.00  0.00     0.029 A 
ATOM     67  C   UNL A   1      44.654  30.875  28.642  1.00  0.00     0.049 A 
ATOM     68  H   UNL A   1      44.394  28.860  28.079  1.00  0.00     0.167 HD
ATOM     69  C   UNL A   1      46.859  30.181  27.770  1.00  0.00     0.074 A 
ATOM     70  C   UNL A   1      48.222  30.450  27.367  1.00  0.00     0.031 C 
ATOM     71  C   UNL A   1      46.039  31.104  28.330  1.00  0.00     0.034 A 
BRANCH  58  72
ATOM     72  C   UNL A   1      40.293  29.075  29.233  1.00  0.00     0.023 A 
ATOM     73  C   UNL A   1      39.339  29.397  28.246  1.00  0.00     0.012 A 
ATOM     74  C   UNL A   1      39.891  28.981  30.581  1.00  0.00     0.148 A 
ATOM     75  C   UNL A   1      38.017  29.659  28.598  1.00  0.00     0.002 A 
ATOM     76  C   UNL A   1      38.559  29.187  30.915  1.00  0.00     0.091 A 
ATOM     77  F   UNL A   1      40.815  28.687  31.505  1.00  0.00    -0.205 F 
ATOM     78  C   UNL A   1      37.624  29.541  29.928  1.00  0.00     0.022 A 
BRANCH  76  79
ATOM     79  S   UNL A   1      37.930  28.963  32.582  1.00  0.00     0.127 S 
ATOM     80  O   UNL A   1      38.097  27.521  32.770  1.00  0.00    -0.237 OA
ATOM     81  O   UNL A   1      38.850  29.789  33.367  1.00  0.00    -0.237 OA
ATOM     82  O   UNL A   1      36.553  29.429  32.565  1.00  0.00    -0.744 OA
ENDBRANCH  76  79
ENDBRANCH  58  72
BRANCH  59  83
ATOM     83  C   UNL A   1      49.365  26.685  25.871  1.00  0.00     0.023 A 
ATOM     84  C   UNL A   1      50.320  26.019  26.667  1.00  0.00     0.012 A 
ATOM     85  C   UNL A   1      49.729  27.102  24.577  1.00  0.00     0.148 A 
ATOM     86  C   UNL A   1      51.626  25.829  26.211  1.00  0.00     0.002 A 
ATOM     87  C   UNL A   1      51.016  26.856  24.106  1.00  0.00     0.091 A 
ATOM     88  F   UNL A   1      48.817  27.747  23.835  1.00  0.00    -0.205 F 
ATOM     89  C   UNL A   1      51.973  26.243  24.930  1.00  0.00     0.022 A 
BRANCH  87  90
ATOM     90  S   UNL A   1      51.521  27.244  22.426  1.00  0.00     0.127 S 
ATOM     91  O   UNL A   1      51.602  28.705  22.466  1.00  0.00    -0.237 OA
ATOM     92  O   UNL A   1      52.813  26.561  22.333  1.00  0.00    -0.237 OA
ATOM     93  O   UNL A   1      50.487  26.690  21.568  1.00  0.00    -0.744 OA
ENDBRANCH  87  90
ENDBRANCH  59  83
BRANCH  71  94
ATOM     94  C   UNL A   1      46.594  32.469  28.643  1.00  0.00     0.023 A 
ATOM     95  C   UNL A   1      47.186  32.727  29.893  1.00  0.00     0.012 A 
ATOM     96  C   UNL A   1      46.635  33.460  27.639  1.00  0.00     0.148 A 
ATOM     97  C   UNL A   1      47.791  33.958  30.149  1.00  0.00     0.002 A 
ATOM     98  C   UNL A   1      47.285  34.663  27.883  1.00  0.00     0.091 A 
ATOM     99  F   UNL A   1      46.052  33.198  26.461  1.00  0.00    -0.205 F 
ATOM    100  C   UNL A   1      47.853  34.918  29.141  1.00  0.00     0.022 A 
BRANCH  98 101
ATOM    101  S   UNL A   1      47.510  35.912  26.611  1.00  0.00     0.127 S 
ATOM    102  O   UNL A   1      46.207  36.575  26.611  1.00  0.00    -0.237 OA
ATOM    103  O   UNL A   1      48.604  36.716  27.157  1.00  0.00    -0.237 OA
ATOM    104  O   UNL A   1      47.840  35.190  25.389  1.00  0.00    -0.744 OA
ENDBRANCH  98 101
ENDBRANCH  71  94
ENDBRANCH  45  46
ENDBRANCH  37  40
ENDBRANCH  35  36
ENDBRANCH  34  35
ENDBRANCH   1  34
TORSDOF 20
ENDMDL
MODEL 2
REMARK VINA RESULT:     -11.6      1.812      2.172
REMARK SMILES O=C(C[C@@H](C(=O)NCCCCNC(=O)c1ccc(-c2c3nc(c(-c4cccc(S(=O)(=O)[O-])c4F)c4ccc([nH]4)c(-c4cccc(S(=O)(=O)[O-])c4F)c4nc(c(-c5cccc(S(=O)(=O)[O-])c5F)c5ccc2[nH]5)C=C4)C=C3)cc1)c1ccccc1)Nc1cc(C(F)(F)F)ccc1-n1cncn1
REMARK SMILES IDX 9 1 8 2 7 3 5 4 6 5 4 7 3 8 2 9 1 10 84 11 85 13 86 14 94 15
REMARK SMILES IDX 87 16 93 17 92 18 95 19 96 20 99 21 97 22 98 23 88 24 89 25
REMARK SMILES IDX 90 26 91 27 78 28 79 29 83 30 80 31 82 32 81 33 10 34 11 35
REMARK SMILES IDX 12 36 13 37 14 39 15 40 16 41 77 42 17 43 76 44 18 45 19 46
REMARK SMILES IDX 20 47 70 48 21 49 75 50 69 51 71 52 22 53 74 54 68 55 67 56
REMARK SMILES IDX 23 58 55 59 35 60 54 61 36 62 39 63 53 64 72 65 37 66 38 67
REMARK SMILES IDX 52 69 73 70 40 71 24 72 25 73 33 74 26 75 28 76 34 77 27 78
REMARK SMILES IDX 29 79 30 80 31 81 32 82 56 83 57 84 65 85 58 86 60 87 66 88
REMARK SMILES IDX 59 89 61 90 62 91 63 92 64 93 41 94 42 95 50 96 43 97 45 98
REMARK SMILES IDX 51 99 44 100 46 101 47 102 48 103 49 104
REMARK H PARENT 7 6 84 12 12 38 71 57 39 68
REMARK Flexibility Score: inf
ROOT
ATOM      1  C   UNL A   1      37.129  21.496  24.535  1.00  0.00     0.023 C 
ENDROOT
BRANCH   1   2
ATOM      2  C   UNL A   1      36.504  22.402  25.593  1.00  0.00     0.116 C 
BRANCH   2   3
ATOM      3  N   UNL A   1      35.736  21.564  26.500  1.00  0.00    -0.356 N 
ATOM      4  C   UNL A   1      34.374  21.600  26.608  1.00  0.00     0.228 C 
ATOM      5  O   UNL A   1      33.892  21.839  27.718  1.00  0.00    -0.274 OA
ATOM      6  H   UNL A   1      36.228  20.931  27.071  1.00  0.00     0.163 HD
BRANCH   4   7
ATOM      7  C   UNL A   1      33.505  21.250  25.387  1.00  0.00     0.118 C 
BRANCH   7   8
ATOM      8  C   UNL A   1      32.081  21.807  25.577  1.00  0.00     0.118 C 
BRANCH   8   9
ATOM      9  C   UNL A   1      31.953  23.310  25.286  1.00  0.00     0.225 C 
ATOM     10  O   UNL A   1      30.923  23.832  24.876  1.00  0.00    -0.275 OA
ATOM     11  N   UNL A   1      33.097  24.010  25.638  1.00  0.00    -0.324 N 
ATOM     12  H   UNL A   1      33.787  23.502  26.123  1.00  0.00     0.170 HD
BRANCH  11  13
ATOM     13  C   UNL A   1      33.384  25.377  25.377  1.00  0.00     0.067 A 
ATOM     14  C   UNL A   1      33.078  26.340  26.330  1.00  0.00     0.041 A 
ATOM     15  C   UNL A   1      33.708  25.844  24.095  1.00  0.00     0.090 A 
ATOM     16  C   UNL A   1      32.876  27.683  25.961  1.00  0.00     0.058 A 
ATOM     17  C   UNL A   1      33.819  27.211  23.801  1.00  0.00     0.031 A 
ATOM     18  C   UNL A   1      33.354  28.134  24.731  1.00  0.00     0.015 A 
BRANCH  15  19
ATOM     19  N   UNL A   1      33.838  24.936  23.045  1.00  0.00    -0.219 N 
ATOM     20  C   UNL A   1      32.995  24.817  21.970  1.00  0.00     0.226 A 
ATOM     21  N   UNL A   1      34.690  23.893  23.085  1.00  0.00    -0.155 NA
ATOM     22  N   UNL A   1      33.180  23.661  21.381  1.00  0.00    -0.223 NA
ATOM     23  C   UNL A   1      34.213  23.129  22.101  1.00  0.00     0.246 A 
ENDBRANCH  15  19
BRANCH  16  24
ATOM     24  C   UNL A   1      31.875  28.510  26.744  1.00  0.00     0.416 C 
ATOM     25  F   UNL A   1      30.930  27.768  27.380  1.00  0.00    -0.166 F 
ATOM     26  F   UNL A   1      32.508  29.225  27.716  1.00  0.00    -0.166 F 
ATOM     27  F   UNL A   1      31.215  29.428  26.011  1.00  0.00    -0.166 F 
ENDBRANCH  16  24
ENDBRANCH  11  13
ENDBRANCH   8   9
ENDBRANCH   7   8
BRANCH   7  28
ATOM     28  C   UNL A   1      33.546  19.710  25.257  1.00  0.00    -0.035 A 
ATOM     29  C   UNL A   1      32.602  18.925  25.939  1.00  0.00     0.004 A 
ATOM     30  C   UNL A   1      34.379  19.070  24.319  1.00  0.00     0.004 A 
ATOM     31  C   UNL A   1      32.475  17.556  25.669  1.00  0.00     0.000 A 
ATOM     32  C   UNL A   1      34.244  17.705  24.043  1.00  0.00     0.000 A 
ATOM     33  C   UNL A   1      33.287  16.949  24.712  1.00  0.00     0.000 A 
ENDBRANCH   7  28
ENDBRANCH   4   7
ENDBRANCH   2   3
ENDBRANCH   1   2
BRANCH   1  34
ATOM     34  C   UNL A   1      37.801  20.196  25.003  1.00  0.00     0.023 C 
BRANCH  34  35
ATOM     35  C   UNL A   1      38.937  20.244  26.033  1.00  0.00     0.116 C 
BRANCH  35  36
ATOM     36  N   UNL A   1      40.098  19.370  25.852  1.00  0.00    -0.352 N 
ATOM     37  C   UNL A   1      41.453  19.468  26.134  1.00  0.00     0.251 C 
ATOM     38  H   UNL A   1      39.861  18.510  25.434  1.00  0.00     0.163 HD
ATOM     39  O   UNL A   1      42.132  18.443  26.037  1.00  0.00    -0.269 OA
BRANCH  37  40
ATOM     40  C   UNL A   1      42.163  20.754  26.409  1.00  0.00     0.039 A 
ATOM     41  C   UNL A   1      41.946  21.846  25.538  1.00  0.00     0.014 A 
ATOM     42  C   UNL A   1      42.923  20.967  27.546  1.00  0.00     0.014 A 
ATOM     43  C   UNL A   1      42.373  23.146  25.876  1.00  0.00     0.010 A 
ATOM     44  C   UNL A   1      43.270  22.263  27.924  1.00  0.00     0.010 A 
ATOM     45  C   UNL A   1      43.011  23.372  27.099  1.00  0.00    -0.014 A 
BRANCH  45  46
ATOM     46  C   UNL A   1      43.546  24.694  27.549  1.00  0.00     0.031 A 
ATOM     47  C   UNL A   1      42.575  25.653  28.198  1.00  0.00     0.074 A 
ATOM     48  C   UNL A   1      44.785  25.125  27.228  1.00  0.00     0.049 A 
ATOM     49  N   UNL A   1      42.660  26.947  28.357  1.00  0.00    -0.248 NA
ATOM     50  C   UNL A   1      41.296  25.077  28.654  1.00  0.00     0.031 C 
ATOM     51  C   UNL A   1      45.824  24.342  26.559  1.00  0.00     0.029 A 
ATOM     52  N   UNL A   1      45.357  26.370  27.376  1.00  0.00    -0.354 N 
ATOM     53  C   UNL A   1      41.412  27.348  28.822  1.00  0.00     0.074 A 
ATOM     54  C   UNL A   1      40.585  26.166  28.895  1.00  0.00     0.031 C 
ATOM     55  C   UNL A   1      46.894  25.128  26.335  1.00  0.00     0.029 A 
ATOM     56  C   UNL A   1      46.607  26.482  26.805  1.00  0.00     0.049 A 
ATOM     57  H   UNL A   1      44.913  27.113  27.847  1.00  0.00     0.167 HD
ATOM     58  C   UNL A   1      40.995  28.584  29.180  1.00  0.00     0.034 A 
ATOM     59  C   UNL A   1      47.414  27.556  26.658  1.00  0.00     0.034 A 
ATOM     60  C   UNL A   1      41.853  29.734  29.235  1.00  0.00     0.049 A 
ATOM     61  C   UNL A   1      46.959  28.906  27.168  1.00  0.00     0.074 A 
ATOM     62  C   UNL A   1      41.566  30.993  29.731  1.00  0.00     0.029 A 
ATOM     63  N   UNL A   1      43.165  29.761  28.799  1.00  0.00    -0.354 N 
ATOM     64  N   UNL A   1      45.827  29.239  27.740  1.00  0.00    -0.248 NA
ATOM     65  C   UNL A   1      47.908  30.027  27.042  1.00  0.00     0.031 C 
ATOM     66  C   UNL A   1      42.702  31.791  29.576  1.00  0.00     0.029 A 
ATOM     67  C   UNL A   1      43.704  31.015  29.017  1.00  0.00     0.049 A 
ATOM     68  H   UNL A   1      43.644  29.002  28.393  1.00  0.00     0.167 HD
ATOM     69  C   UNL A   1      45.954  30.580  28.093  1.00  0.00     0.074 A 
ATOM     70  C   UNL A   1      47.274  31.001  27.680  1.00  0.00     0.031 C 
ATOM     71  C   UNL A   1      45.052  31.395  28.693  1.00  0.00     0.034 A 
BRANCH  58  72
ATOM     72  C   UNL A   1      39.563  28.755  29.610  1.00  0.00     0.023 A 
ATOM     73  C   UNL A   1      39.172  28.398  30.917  1.00  0.00     0.012 A 
ATOM     74  C   UNL A   1      38.624  29.353  28.746  1.00  0.00     0.148 A 
ATOM     75  C   UNL A   1      37.861  28.596  31.344  1.00  0.00     0.002 A 
ATOM     76  C   UNL A   1      37.334  29.599  29.198  1.00  0.00     0.091 A 
ATOM     77  F   UNL A   1      39.011  29.674  27.503  1.00  0.00    -0.205 F 
ATOM     78  C   UNL A   1      36.947  29.207  30.491  1.00  0.00     0.022 A 
BRANCH  76  79
ATOM     79  S   UNL A   1      36.109  30.470  28.215  1.00  0.00     0.127 S 
ATOM     80  O   UNL A   1      35.114  30.824  29.230  1.00  0.00    -0.237 OA
ATOM     81  O   UNL A   1      36.882  31.602  27.701  1.00  0.00    -0.237 OA
ATOM     82  O   UNL A   1      35.654  29.530  27.205  1.00  0.00    -0.744 OA
ENDBRANCH  76  79
ENDBRANCH  58  72
BRANCH  59  83
ATOM     83  C   UNL A   1      48.774  27.423  26.048  1.00  0.00     0.023 A 
ATOM     84  C   UNL A   1      48.905  27.516  24.647  1.00  0.00     0.012 A 
ATOM     85  C   UNL A   1      49.919  27.151  26.821  1.00  0.00     0.148 A 
ATOM     86  C   UNL A   1      50.132  27.281  24.023  1.00  0.00     0.002 A 
ATOM     87  C   UNL A   1      51.151  26.977  26.198  1.00  0.00     0.091 A 
ATOM     88  F   UNL A   1      49.780  27.051  28.151  1.00  0.00    -0.205 F 
ATOM     89  C   UNL A   1      51.255  27.017  24.798  1.00  0.00     0.022 A 
BRANCH  87  90
ATOM     90  S   UNL A   1      52.677  26.751  27.120  1.00  0.00     0.127 S 
ATOM     91  O   UNL A   1      53.418  25.834  26.253  1.00  0.00    -0.237 OA
ATOM     92  O   UNL A   1      53.208  28.115  27.163  1.00  0.00    -0.237 OA
ATOM     93  O   UNL A   1      52.279  26.221  28.413  1.00  0.00    -0.744 OA
ENDBRANCH  87  90
ENDBRANCH  59  83
BRANCH  71  94
ATOM     94  C   UNL A   1      45.469  32.801  29.042  1.00  0.00     0.023 A 
ATOM     95  C   UNL A   1      46.165  33.061  30.238  1.00  0.00     0.012 A 
ATOM     96  C   UNL A   1      45.273  33.845  28.114  1.00  0.00     0.148 A 
ATOM     97  C   UNL A   1      46.640  34.343  30.515  1.00  0.00     0.002 A 
ATOM     98  C   UNL A   1      45.795  35.106  28.372  1.00  0.00     0.091 A 
ATOM     99  F   UNL A   1      44.595  33.578  26.988  1.00  0.00    -0.205 F 
ATOM    100  C   UNL A   1      46.468  35.359  29.577  1.00  0.00     0.022 A 
BRANCH  98 101
ATOM    101  S   UNL A   1      45.718  36.444  27.176  1.00  0.00     0.127 S 
ATOM    102  O   UNL A   1      46.442  37.508  27.872  1.00  0.00    -0.237 OA
ATOM    103  O   UNL A   1      46.426  35.875  26.029  1.00  0.00    -0.237 OA
ATOM    104  O   UNL A   1      44.303  36.702  26.947  1.00  0.00    -0.744 OA
ENDBRANCH  98 101
ENDBRANCH  71  94
ENDBRANCH  45  46
ENDBRANCH  37  40
ENDBRANCH  35  36
ENDBRANCH  34  35
ENDBRANCH   1  34
TORSDOF 20
ENDMDL
MODEL 3
REMARK VINA RESULT:     -10.4      6.655     14.440
REMARK SMILES O=C(C[C@@H](C(=O)NCCCCNC(=O)c1ccc(-c2c3nc(c(-c4cccc(S(=O)(=O)[O-])c4F)c4ccc([nH]4)c(-c4cccc(S(=O)(=O)[O-])c4F)c4nc(c(-c5cccc(S(=O)(=O)[O-])c5F)c5ccc2[nH]5)C=C4)C=C3)cc1)c1ccccc1)Nc1cc(C(F)(F)F)ccc1-n1cncn1
REMARK SMILES IDX 9 1 8 2 7 3 5 4 6 5 4 7 3 8 2 9 1 10 84 11 85 13 86 14 94 15
REMARK SMILES IDX 87 16 93 17 92 18 95 19 96 20 99 21 97 22 98 23 88 24 89 25
REMARK SMILES IDX 90 26 91 27 78 28 79 29 83 30 80 31 82 32 81 33 10 34 11 35
REMARK SMILES IDX 12 36 13 37 14 39 15 40 16 41 77 42 17 43 76 44 18 45 19 46
REMARK SMILES IDX 20 47 70 48 21 49 75 50 69 51 71 52 22 53 74 54 68 55 67 56
REMARK SMILES IDX 23 58 55 59 35 60 54 61 36 62 39 63 53 64 72 65 37 66 38 67
REMARK SMILES IDX 52 69 73 70 40 71 24 72 25 73 33 74 26 75 28 76 34 77 27 78
REMARK SMILES IDX 29 79 30 80 31 81 32 82 56 83 57 84 65 85 58 86 60 87 66 88
REMARK SMILES IDX 59 89 61 90 62 91 63 92 64 93 41 94 42 95 50 96 43 97 45 98
REMARK SMILES IDX 51 99 44 100 46 101 47 102 48 103 49 104
REMARK H PARENT 7 6 84 12 12 38 71 57 39 68
REMARK Flexibility Score: inf
ROOT
ATOM      1  C   UNL A   1      45.810  43.766  29.183  1.00  0.00     0.023 C 
ENDROOT
BRANCH   1   2
ATOM      2  C   UNL A   1      45.024  43.121  28.044  1.00  0.00     0.116 C 
BRANCH   2   3
ATOM      3  N   UNL A   1      45.433  43.758  26.803  1.00  0.00    -0.356 N 
ATOM      4  C   UNL A   1      46.347  43.230  25.935  1.00  0.00     0.228 C 
ATOM      5  O   UNL A   1      47.340  43.909  25.662  1.00  0.00    -0.274 OA
ATOM      6  H   UNL A   1      45.025  44.624  26.573  1.00  0.00     0.163 HD
BRANCH   4   7
ATOM      7  C   UNL A   1      46.062  41.875  25.263  1.00  0.00     0.118 C 
BRANCH   7   8
ATOM      8  C   UNL A   1      47.033  40.806  25.799  1.00  0.00     0.118 C 
BRANCH   8   9
ATOM      9  C   UNL A   1      46.453  39.384  25.816  1.00  0.00     0.225 C 
ATOM     10  O   UNL A   1      46.896  38.467  25.135  1.00  0.00    -0.275 OA
ATOM     11  N   UNL A   1      45.448  39.242  26.760  1.00  0.00    -0.324 N 
ATOM     12  H   UNL A   1      45.308  40.004  27.368  1.00  0.00     0.170 HD
BRANCH  11  13
ATOM     13  C   UNL A   1      44.597  38.119  26.949  1.00  0.00     0.067 A 
ATOM     14  C   UNL A   1      45.139  36.840  26.982  1.00  0.00     0.041 A 
ATOM     15  C   UNL A   1      43.203  38.206  26.828  1.00  0.00     0.090 A 
ATOM     16  C   UNL A   1      44.353  35.714  26.674  1.00  0.00     0.058 A 
ATOM     17  C   UNL A   1      42.377  37.073  26.840  1.00  0.00     0.031 A 
ATOM     18  C   UNL A   1      42.963  35.818  26.716  1.00  0.00     0.015 A 
BRANCH  15  19
ATOM     19  N   UNL A   1      42.608  39.447  26.598  1.00  0.00    -0.219 N 
ATOM     20  C   UNL A   1      41.439  39.898  27.154  1.00  0.00     0.226 A 
ATOM     21  N   UNL A   1      42.996  40.265  25.601  1.00  0.00    -0.155 NA
ATOM     22  N   UNL A   1      40.978  40.914  26.467  1.00  0.00    -0.223 NA
ATOM     23  C   UNL A   1      41.953  41.094  25.525  1.00  0.00     0.246 A 
ENDBRANCH  15  19
BRANCH  16  24
ATOM     24  C   UNL A   1      45.013  34.530  25.994  1.00  0.00     0.416 C 
ATOM     25  F   UNL A   1      44.154  33.517  25.705  1.00  0.00    -0.166 F 
ATOM     26  F   UNL A   1      45.557  34.911  24.803  1.00  0.00    -0.166 F 
ATOM     27  F   UNL A   1      46.032  33.987  26.685  1.00  0.00    -0.166 F 
ENDBRANCH  16  24
ENDBRANCH  11  13
ENDBRANCH   8   9
ENDBRANCH   7   8
BRANCH   7  28
ATOM     28  C   UNL A   1      46.194  42.113  23.741  1.00  0.00    -0.035 A 
ATOM     29  C   UNL A   1      47.215  41.474  23.019  1.00  0.00     0.004 A 
ATOM     30  C   UNL A   1      45.203  42.798  23.012  1.00  0.00     0.004 A 
ATOM     31  C   UNL A   1      47.227  41.494  21.618  1.00  0.00     0.000 A 
ATOM     32  C   UNL A   1      45.209  42.807  21.613  1.00  0.00     0.000 A 
ATOM     33  C   UNL A   1      46.218  42.148  20.915  1.00  0.00     0.000 A 
ENDBRANCH   7  28
ENDBRANCH   4   7
ENDBRANCH   2   3
ENDBRANCH   1   2
BRANCH   1  34
ATOM     34  C   UNL A   1      45.487  43.332  30.620  1.00  0.00     0.023 C 
BRANCH  34  35
ATOM     35  C   UNL A   1      45.174  41.862  30.929  1.00  0.00     0.116 C 
BRANCH  35  36
ATOM     36  N   UNL A   1      44.090  41.546  31.861  1.00  0.00    -0.352 N 
ATOM     37  C   UNL A   1      43.604  40.384  32.443  1.00  0.00     0.251 C 
ATOM     38  H   UNL A   1      43.589  42.347  32.142  1.00  0.00     0.163 HD
ATOM     39  O   UNL A   1      42.790  40.503  33.363  1.00  0.00    -0.269 OA
BRANCH  37  40
ATOM     40  C   UNL A   1      43.895  39.007  31.940  1.00  0.00     0.039 A 
ATOM     41  C   UNL A   1      44.069  37.967  32.879  1.00  0.00     0.014 A 
ATOM     42  C   UNL A   1      43.874  38.677  30.595  1.00  0.00     0.014 A 
ATOM     43  C   UNL A   1      44.090  36.616  32.478  1.00  0.00     0.010 A 
ATOM     44  C   UNL A   1      43.807  37.341  30.204  1.00  0.00     0.010 A 
ATOM     45  C   UNL A   1      43.919  36.289  31.130  1.00  0.00    -0.014 A 
BRANCH  45  46
ATOM     46  C   UNL A   1      43.965  34.900  30.578  1.00  0.00     0.031 A 
ATOM     47  C   UNL A   1      42.710  34.065  30.690  1.00  0.00     0.074 A 
ATOM     48  C   UNL A   1      45.113  34.315  30.173  1.00  0.00     0.049 A 
ATOM     49  N   UNL A   1      42.562  32.769  30.629  1.00  0.00    -0.248 NA
ATOM     50  C   UNL A   1      41.466  34.797  30.994  1.00  0.00     0.031 C 
ATOM     51  C   UNL A   1      46.418  34.966  30.055  1.00  0.00     0.029 A 
ATOM     52  N   UNL A   1      45.370  33.002  29.840  1.00  0.00    -0.354 N 
ATOM     53  C   UNL A   1      41.242  32.527  30.998  1.00  0.00     0.074 A 
ATOM     54  C   UNL A   1      40.644  33.807  31.302  1.00  0.00     0.031 C 
ATOM     55  C   UNL A   1      47.338  34.050  29.700  1.00  0.00     0.029 A 
ATOM     56  C   UNL A   1      46.703  32.737  29.603  1.00  0.00     0.049 A 
ATOM     57  H   UNL A   1      44.666  32.316  29.777  1.00  0.00     0.167 HD
ATOM     58  C   UNL A   1      40.577  31.351  31.056  1.00  0.00     0.034 A 
ATOM     59  C   UNL A   1      47.338  31.568  29.361  1.00  0.00     0.034 A 
ATOM     60  C   UNL A   1      41.129  30.097  30.628  1.00  0.00     0.049 A 
ATOM     61  C   UNL A   1      46.542  30.281  29.328  1.00  0.00     0.074 A 
ATOM     62  C   UNL A   1      40.487  28.878  30.501  1.00  0.00     0.029 A 
ATOM     63  N   UNL A   1      42.442  29.905  30.238  1.00  0.00    -0.354 N 
ATOM     64  N   UNL A   1      45.262  30.090  29.537  1.00  0.00    -0.248 NA
ATOM     65  C   UNL A   1      47.276  29.047  28.992  1.00  0.00     0.031 C 
ATOM     66  C   UNL A   1      41.421  27.940  30.053  1.00  0.00     0.029 A 
ATOM     67  C   UNL A   1      42.631  28.587  29.867  1.00  0.00     0.049 A 
ATOM     68  H   UNL A   1      43.138  30.602  30.227  1.00  0.00     0.167 HD
ATOM     69  C   UNL A   1      45.031  28.737  29.299  1.00  0.00     0.074 A 
ATOM     70  C   UNL A   1      46.299  28.154  28.921  1.00  0.00     0.031 C 
ATOM     71  C   UNL A   1      43.874  28.038  29.397  1.00  0.00     0.034 A 
BRANCH  58  72
ATOM     72  C   UNL A   1      39.151  31.362  31.538  1.00  0.00     0.023 A 
ATOM     73  C   UNL A   1      38.859  31.052  32.882  1.00  0.00     0.012 A 
ATOM     74  C   UNL A   1      38.110  31.769  30.679  1.00  0.00     0.148 A 
ATOM     75  C   UNL A   1      37.549  31.105  33.353  1.00  0.00     0.002 A 
ATOM     76  C   UNL A   1      36.816  31.876  31.172  1.00  0.00     0.091 A 
ATOM     77  F   UNL A   1      38.406  32.048  29.402  1.00  0.00    -0.205 F 
ATOM     78  C   UNL A   1      36.531  31.529  32.504  1.00  0.00     0.022 A 
BRANCH  76  79
ATOM     79  S   UNL A   1      35.451  32.506  30.190  1.00  0.00     0.127 S 
ATOM     80  O   UNL A   1      35.994  33.779  29.712  1.00  0.00    -0.237 OA
ATOM     81  O   UNL A   1      35.319  31.476  29.157  1.00  0.00    -0.237 OA
ATOM     82  O   UNL A   1      34.317  32.617  31.092  1.00  0.00    -0.744 OA
ENDBRANCH  76  79
ENDBRANCH  58  72
BRANCH  59  83
ATOM     83  C   UNL A   1      48.805  31.532  29.071  1.00  0.00     0.023 A 
ATOM     84  C   UNL A   1      49.711  31.446  30.149  1.00  0.00     0.012 A 
ATOM     85  C   UNL A   1      49.313  31.638  27.763  1.00  0.00     0.148 A 
ATOM     86  C   UNL A   1      51.089  31.528  29.937  1.00  0.00     0.002 A 
ATOM     87  C   UNL A   1      50.689  31.659  27.553  1.00  0.00     0.091 A 
ATOM     88  F   UNL A   1      48.443  31.733  26.747  1.00  0.00    -0.205 F 
ATOM     89  C   UNL A   1      51.578  31.630  28.640  1.00  0.00     0.022 A 
BRANCH  87  90
ATOM     90  S   UNL A   1      51.416  31.667  25.910  1.00  0.00     0.127 S 
ATOM     91  O   UNL A   1      51.011  30.358  25.396  1.00  0.00    -0.237 OA
ATOM     92  O   UNL A   1      50.739  32.806  25.286  1.00  0.00    -0.237 OA
ATOM     93  O   UNL A   1      52.843  31.855  26.113  1.00  0.00    -0.744 OA
ENDBRANCH  87  90
ENDBRANCH  59  83
BRANCH  71  94
ATOM     94  C   UNL A   1      43.873  26.583  29.003  1.00  0.00     0.023 A 
ATOM     95  C   UNL A   1      44.116  25.585  29.965  1.00  0.00     0.012 A 
ATOM     96  C   UNL A   1      43.506  26.208  27.694  1.00  0.00     0.148 A 
ATOM     97  C   UNL A   1      44.016  24.235  29.625  1.00  0.00     0.002 A 
ATOM     98  C   UNL A   1      43.356  24.865  27.376  1.00  0.00     0.091 A 
ATOM     99  F   UNL A   1      43.293  27.176  26.790  1.00  0.00    -0.205 F 
ATOM    100  C   UNL A   1      43.622  23.877  28.337  1.00  0.00     0.022 A 
BRANCH  98 101
ATOM    101  S   UNL A   1      42.747  24.314  25.778  1.00  0.00     0.127 S 
ATOM    102  O   UNL A   1      42.369  22.930  26.064  1.00  0.00    -0.237 OA
ATOM    103  O   UNL A   1      41.621  25.218  25.547  1.00  0.00    -0.237 OA
ATOM    104  O   UNL A   1      43.855  24.475  24.846  1.00  0.00    -0.744 OA
ENDBRANCH  98 101
ENDBRANCH  71  94
ENDBRANCH  45  46
ENDBRANCH  37  40
ENDBRANCH  35  36
ENDBRANCH  34  35
ENDBRANCH   1  34
TORSDOF 20
ENDMDL
