MODEL 1
REMARK VINA RESULT:      -8.9      0.000      0.000
REMARK SMILES CC(C)[N@@H+](C)Cc1cc2c(cc1Cl)C=C(C(=O)NCCCCNC(=O)c1ccc(-c3c4nc(c(-c5cccc(S(=O)(=O)[O-])c5F)c5ccc([nH]5)c(-c5cccc(S(=O)(=O)[O-])c5F)c5nc(c(-c6cccc(S(=O)(=O)[O-])c6F)c6ccc3[nH]6)C=C5)C=C4)cc1)[C@@H](C(F)(F)F)O2
REMARK SMILES IDX 20 1 19 2 18 3 16 4 17 5 15 7 7 8 8 9 12 10 9 11 11 12 13 13
REMARK SMILES IDX 10 14 94 15 14 16 89 17 6 18 4 19 5 20 2 22 1 23 3 24 90 25
REMARK SMILES IDX 91 26 92 27 93 28 21 29 22 30 23 31 24 32 25 34 26 35 27 36
REMARK SMILES IDX 88 37 28 38 87 39 29 40 30 41 31 42 81 43 32 44 86 45 80 46
REMARK SMILES IDX 82 47 33 48 85 49 79 50 78 51 34 53 66 54 46 55 65 56 47 57
REMARK SMILES IDX 50 58 64 59 83 60 48 61 49 62 63 64 84 65 51 66 35 67 36 68
REMARK SMILES IDX 44 69 37 70 39 71 45 72 38 73 40 74 41 75 42 76 43 77 67 78
REMARK SMILES IDX 68 79 76 80 69 81 71 82 77 83 70 84 72 85 73 86 74 87 75 88
REMARK SMILES IDX 52 89 53 90 61 91 54 92 56 93 62 94 55 95 57 96 58 97 59 98
REMARK SMILES IDX 60 99
REMARK H PARENT 18 6 4 21 23 33 82 52 50 63
REMARK Flexibility Score: inf
ROOT
ATOM      1  C   UNL A   1      42.381  20.146  26.147  1.00  0.00     0.023 C 
ENDROOT
BRANCH   1   2
ATOM      2  C   UNL A   1      43.630  21.021  26.134  1.00  0.00     0.116 C 
BRANCH   2   3
ATOM      3  N   UNL A   1      43.955  21.496  24.800  1.00  0.00    -0.352 N 
ATOM      4  C   UNL A   1      44.364  22.661  24.247  1.00  0.00     0.251 C 
ATOM      5  O   UNL A   1      44.522  22.645  23.022  1.00  0.00    -0.270 OA
ATOM      6  H   UNL A   1      43.851  20.787  24.125  1.00  0.00     0.163 HD
BRANCH   4   7
ATOM      7  C   UNL A   1      44.630  23.922  25.004  1.00  0.00     0.067 C 
ATOM      8  C   UNL A   1      44.267  28.613  26.871  1.00  0.00     0.029 A 
ATOM      9  C   UNL A   1      45.182  27.554  27.007  1.00  0.00     0.058 A 
ATOM     10  C   UNL A   1      43.067  28.350  26.189  1.00  0.00     0.050 A 
ATOM     11  C   UNL A   1      44.964  26.324  26.391  1.00  0.00     0.128 A 
ATOM     12  C   UNL A   1      42.852  27.110  25.570  1.00  0.00     0.033 A 
ATOM     13  Cl  UNL A   1      41.763  29.481  26.129  1.00  0.00    -0.084 Cl
ATOM     14  C   UNL A   1      43.812  26.100  25.650  1.00  0.00     0.019 A 
ATOM     15  O   UNL A   1      45.922  25.376  26.587  1.00  0.00    -0.475 OA
ATOM     16  C   UNL A   1      43.619  24.812  25.001  1.00  0.00     0.025 C 
ATOM     17  C   UNL A   1      45.938  24.245  25.672  1.00  0.00     0.314 C 
BRANCH   8  18
ATOM     18  C   UNL A   1      44.629  29.950  27.484  1.00  0.00     0.300 C 
BRANCH  18  19
ATOM     19  N   UNL A   1      44.954  31.065  26.584  1.00  0.00    -0.332 N 
ATOM     20  C   UNL A   1      46.381  31.278  26.388  1.00  0.00     0.333 C 
ATOM     21  H   UNL A   1      44.562  30.667  25.730  1.00  0.00     0.348 HD
BRANCH  19  22
ATOM     22  C   UNL A   1      44.187  32.319  26.640  1.00  0.00     0.177 C 
ATOM     23  C   UNL A   1      44.142  32.914  28.051  1.00  0.00     0.075 C 
ATOM     24  C   UNL A   1      44.546  33.396  25.610  1.00  0.00     0.075 C 
ENDBRANCH  19  22
ENDBRANCH  18  19
ENDBRANCH   8  18
BRANCH  17  25
ATOM     25  C   UNL A   1      47.096  24.449  24.679  1.00  0.00     0.429 C 
ATOM     26  F   UNL A   1      46.856  25.531  23.894  1.00  0.00    -0.167 F 
ATOM     27  F   UNL A   1      48.281  24.673  25.287  1.00  0.00    -0.167 F 
ATOM     28  F   UNL A   1      47.263  23.387  23.858  1.00  0.00    -0.167 F 
ENDBRANCH  17  25
ENDBRANCH   4   7
ENDBRANCH   2   3
ENDBRANCH   1   2
BRANCH   1  29
ATOM     29  C   UNL A   1      41.455  20.394  27.340  1.00  0.00     0.023 C 
BRANCH  29  30
ATOM     30  C   UNL A   1      40.717  21.731  27.334  1.00  0.00     0.116 C 
BRANCH  30  31
ATOM     31  N   UNL A   1      39.559  21.772  26.451  1.00  0.00    -0.352 N 
ATOM     32  C   UNL A   1      38.726  22.838  26.192  1.00  0.00     0.251 C 
ATOM     33  H   UNL A   1      39.344  20.933  25.981  1.00  0.00     0.163 HD
ATOM     34  O   UNL A   1      37.747  22.697  25.466  1.00  0.00    -0.269 OA
BRANCH  32  35
ATOM     35  C   UNL A   1      39.005  24.131  26.849  1.00  0.00     0.039 A 
ATOM     36  C   UNL A   1      39.763  25.100  26.192  1.00  0.00     0.014 A 
ATOM     37  C   UNL A   1      38.588  24.326  28.167  1.00  0.00     0.014 A 
ATOM     38  C   UNL A   1      40.260  26.179  26.912  1.00  0.00     0.010 A 
ATOM     39  C   UNL A   1      39.023  25.455  28.865  1.00  0.00     0.010 A 
ATOM     40  C   UNL A   1      39.911  26.359  28.262  1.00  0.00    -0.014 A 
BRANCH  40  41
ATOM     41  C   UNL A   1      40.504  27.492  29.018  1.00  0.00     0.031 A 
ATOM     42  C   UNL A   1      41.921  27.427  29.524  1.00  0.00     0.074 A 
ATOM     43  C   UNL A   1      39.774  28.609  29.197  1.00  0.00     0.049 A 
ATOM     44  N   UNL A   1      42.607  28.347  30.154  1.00  0.00    -0.248 NA
ATOM     45  C   UNL A   1      42.667  26.178  29.301  1.00  0.00     0.031 C 
ATOM     46  C   UNL A   1      38.384  28.783  28.768  1.00  0.00     0.029 A 
ATOM     47  N   UNL A   1      40.102  29.815  29.760  1.00  0.00    -0.354 N 
ATOM     48  C   UNL A   1      43.840  27.776  30.442  1.00  0.00     0.074 A 
ATOM     49  C   UNL A   1      43.815  26.429  29.918  1.00  0.00     0.031 C 
ATOM     50  C   UNL A   1      37.996  30.037  29.037  1.00  0.00     0.029 A 
ATOM     51  C   UNL A   1      39.089  30.742  29.700  1.00  0.00     0.049 A 
ATOM     52  H   UNL A   1      40.978  29.999  30.171  1.00  0.00     0.167 HD
ATOM     53  C   UNL A   1      44.905  28.332  31.066  1.00  0.00     0.034 A 
ATOM     54  C   UNL A   1      39.039  32.018  30.128  1.00  0.00     0.034 A 
ATOM     55  C   UNL A   1      44.957  29.693  31.525  1.00  0.00     0.049 A 
ATOM     56  C   UNL A   1      40.244  32.618  30.790  1.00  0.00     0.074 A 
ATOM     57  C   UNL A   1      46.017  30.359  32.115  1.00  0.00     0.029 A 
ATOM     58  N   UNL A   1      43.911  30.598  31.440  1.00  0.00    -0.354 N 
ATOM     59  N   UNL A   1      41.427  32.084  30.978  1.00  0.00    -0.248 NA
ATOM     60  C   UNL A   1      40.114  33.993  31.292  1.00  0.00     0.031 C 
ATOM     61  C   UNL A   1      45.612  31.669  32.387  1.00  0.00     0.029 A 
ATOM     62  C   UNL A   1      44.300  31.816  31.969  1.00  0.00     0.049 A 
ATOM     63  H   UNL A   1      43.024  30.403  31.061  1.00  0.00     0.167 HD
ATOM     64  C   UNL A   1      42.183  33.058  31.617  1.00  0.00     0.074 A 
ATOM     65  C   UNL A   1      41.335  34.223  31.760  1.00  0.00     0.031 C 
ATOM     66  C   UNL A   1      43.459  32.979  32.067  1.00  0.00     0.034 A 
BRANCH  53  67
ATOM     67  C   UNL A   1      46.142  27.495  31.241  1.00  0.00     0.023 A 
ATOM     68  C   UNL A   1      46.208  26.586  32.316  1.00  0.00     0.012 A 
ATOM     69  C   UNL A   1      47.182  27.528  30.292  1.00  0.00     0.148 A 
ATOM     70  C   UNL A   1      47.296  25.725  32.447  1.00  0.00     0.002 A 
ATOM     71  C   UNL A   1      48.251  26.649  30.416  1.00  0.00     0.091 A 
ATOM     72  F   UNL A   1      47.100  28.411  29.286  1.00  0.00    -0.205 F 
ATOM     73  C   UNL A   1      48.311  25.749  31.494  1.00  0.00     0.022 A 
BRANCH  71  74
ATOM     74  S   UNL A   1      49.586  26.561  29.217  1.00  0.00     0.127 S 
ATOM     75  O   UNL A   1      50.160  27.902  29.320  1.00  0.00    -0.237 OA
ATOM     76  O   UNL A   1      50.423  25.495  29.767  1.00  0.00    -0.237 OA
ATOM     77  O   UNL A   1      48.962  26.251  27.939  1.00  0.00    -0.744 OA
ENDBRANCH  71  74
ENDBRANCH  53  67
BRANCH  54  78
ATOM     78  C   UNL A   1      37.809  32.816  29.881  1.00  0.00     0.023 A 
ATOM     79  C   UNL A   1      37.507  33.222  28.568  1.00  0.00     0.012 A 
ATOM     80  C   UNL A   1      36.897  33.088  30.918  1.00  0.00     0.148 A 
ATOM     81  C   UNL A   1      36.313  33.888  28.291  1.00  0.00     0.002 A 
ATOM     82  C   UNL A   1      35.690  33.709  30.628  1.00  0.00     0.091 A 
ATOM     83  F   UNL A   1      37.216  32.696  32.160  1.00  0.00    -0.205 F 
ATOM     84  C   UNL A   1      35.400  34.119  29.318  1.00  0.00     0.022 A 
BRANCH  82  85
ATOM     85  S   UNL A   1      34.400  33.936  31.858  1.00  0.00     0.127 S 
ATOM     86  O   UNL A   1      33.369  34.623  31.086  1.00  0.00    -0.237 OA
ATOM     87  O   UNL A   1      34.084  32.553  32.218  1.00  0.00    -0.237 OA
ATOM     88  O   UNL A   1      35.008  34.713  32.929  1.00  0.00    -0.744 OA
ENDBRANCH  82  85
ENDBRANCH  54  78
BRANCH  66  89
ATOM     89  C   UNL A   1      44.026  34.177  32.774  1.00  0.00     0.023 A 
ATOM     90  C   UNL A   1      43.960  34.233  34.179  1.00  0.00     0.012 A 
ATOM     91  C   UNL A   1      44.724  35.173  32.067  1.00  0.00     0.148 A 
ATOM     92  C   UNL A   1      44.578  35.271  34.874  1.00  0.00     0.002 A 
ATOM     93  C   UNL A   1      45.364  36.189  32.768  1.00  0.00     0.091 A 
ATOM     94  F   UNL A   1      44.763  35.099  30.728  1.00  0.00    -0.205 F 
ATOM     95  C   UNL A   1      45.289  36.241  34.170  1.00  0.00     0.022 A 
BRANCH  93  96
ATOM     96  S   UNL A   1      46.362  37.444  31.959  1.00  0.00     0.127 S 
ATOM     97  O   UNL A   1      45.425  37.980  30.973  1.00  0.00    -0.237 OA
ATOM     98  O   UNL A   1      46.672  38.351  33.065  1.00  0.00    -0.237 OA
ATOM     99  O   UNL A   1      47.515  36.748  31.404  1.00  0.00    -0.744 OA
ENDBRANCH  93  96
ENDBRANCH  66  89
ENDBRANCH  40  41
ENDBRANCH  32  35
ENDBRANCH  30  31
ENDBRANCH  29  30
ENDBRANCH   1  29
TORSDOF 18
ENDMDL
MODEL 2
REMARK VINA RESULT:      -8.2      3.485     10.832
REMARK SMILES CC(C)[N@@H+](C)Cc1cc2c(cc1Cl)C=C(C(=O)NCCCCNC(=O)c1ccc(-c3c4nc(c(-c5cccc(S(=O)(=O)[O-])c5F)c5ccc([nH]5)c(-c5cccc(S(=O)(=O)[O-])c5F)c5nc(c(-c6cccc(S(=O)(=O)[O-])c6F)c6ccc3[nH]6)C=C5)C=C4)cc1)[C@@H](C(F)(F)F)O2
REMARK SMILES IDX 20 1 19 2 18 3 16 4 17 5 15 7 7 8 8 9 12 10 9 11 11 12 13 13
REMARK SMILES IDX 10 14 94 15 14 16 89 17 6 18 4 19 5 20 2 22 1 23 3 24 90 25
REMARK SMILES IDX 91 26 92 27 93 28 21 29 22 30 23 31 24 32 25 34 26 35 27 36
REMARK SMILES IDX 88 37 28 38 87 39 29 40 30 41 31 42 81 43 32 44 86 45 80 46
REMARK SMILES IDX 82 47 33 48 85 49 79 50 78 51 34 53 66 54 46 55 65 56 47 57
REMARK SMILES IDX 50 58 64 59 83 60 48 61 49 62 63 64 84 65 51 66 35 67 36 68
REMARK SMILES IDX 44 69 37 70 39 71 45 72 38 73 40 74 41 75 42 76 43 77 67 78
REMARK SMILES IDX 68 79 76 80 69 81 71 82 77 83 70 84 72 85 73 86 74 87 75 88
REMARK SMILES IDX 52 89 53 90 61 91 54 92 56 93 62 94 55 95 57 96 58 97 59 98
REMARK SMILES IDX 60 99
REMARK H PARENT 18 6 4 21 23 33 82 52 50 63
REMARK Flexibility Score: inf
ROOT
ATOM      1  C   UNL A   1      34.969  33.114  33.673  1.00  0.00     0.023 C 
ENDROOT
BRANCH   1   2
ATOM      2  C   UNL A   1      35.579  32.357  32.499  1.00  0.00     0.116 C 
BRANCH   2   3
ATOM      3  N   UNL A   1      36.343  33.226  31.621  1.00  0.00    -0.352 N 
ATOM      4  C   UNL A   1      37.168  33.067  30.560  1.00  0.00     0.251 C 
ATOM      5  O   UNL A   1      37.639  34.107  30.089  1.00  0.00    -0.270 OA
ATOM      6  H   UNL A   1      36.232  34.174  31.859  1.00  0.00     0.163 HD
BRANCH   4   7
ATOM      7  C   UNL A   1      37.528  31.754  29.944  1.00  0.00     0.067 C 
ATOM      8  C   UNL A   1      40.094  27.969  27.773  1.00  0.00     0.029 A 
ATOM      9  C   UNL A   1      38.760  28.168  28.173  1.00  0.00     0.058 A 
ATOM     10  C   UNL A   1      41.037  28.938  28.153  1.00  0.00     0.050 A 
ATOM     11  C   UNL A   1      38.365  29.337  28.821  1.00  0.00     0.128 A 
ATOM     12  C   UNL A   1      40.635  30.113  28.804  1.00  0.00     0.033 A 
ATOM     13  Cl  UNL A   1      42.736  28.724  27.922  1.00  0.00    -0.084 Cl
ATOM     14  C   UNL A   1      39.292  30.327  29.119  1.00  0.00     0.019 A 
ATOM     15  O   UNL A   1      37.048  29.422  29.154  1.00  0.00    -0.475 OA
ATOM     16  C   UNL A   1      38.848  31.545  29.779  1.00  0.00     0.025 C 
ATOM     17  C   UNL A   1      36.523  30.743  29.463  1.00  0.00     0.314 C 
BRANCH   8  18
ATOM     18  C   UNL A   1      40.420  26.719  26.982  1.00  0.00     0.300 C 
BRANCH  18  19
ATOM     19  N   UNL A   1      41.053  25.594  27.685  1.00  0.00    -0.332 N 
ATOM     20  C   UNL A   1      42.411  25.304  27.250  1.00  0.00     0.333 C 
ATOM     21  H   UNL A   1      41.090  26.019  28.612  1.00  0.00     0.348 HD
BRANCH  19  22
ATOM     22  C   UNL A   1      40.280  24.384  28.006  1.00  0.00     0.177 C 
ATOM     23  C   UNL A   1      38.995  24.274  27.178  1.00  0.00     0.075 C 
ATOM     24  C   UNL A   1      41.043  23.054  27.998  1.00  0.00     0.075 C 
ENDBRANCH  19  22
ENDBRANCH  18  19
ENDBRANCH   8  18
BRANCH  17  25
ATOM     25  C   UNL A   1      35.701  31.228  28.255  1.00  0.00     0.429 C 
ATOM     26  F   UNL A   1      36.302  32.301  27.679  1.00  0.00    -0.167 F 
ATOM     27  F   UNL A   1      35.581  30.292  27.288  1.00  0.00    -0.167 F 
ATOM     28  F   UNL A   1      34.449  31.606  28.602  1.00  0.00    -0.167 F 
ENDBRANCH  17  25
ENDBRANCH   4   7
ENDBRANCH   2   3
ENDBRANCH   1   2
BRANCH   1  29
ATOM     29  C   UNL A   1      35.707  34.403  34.040  1.00  0.00     0.023 C 
BRANCH  29  30
ATOM     30  C   UNL A   1      37.025  34.216  34.790  1.00  0.00     0.116 C 
BRANCH  30  31
ATOM     31  N   UNL A   1      36.885  33.598  36.102  1.00  0.00    -0.352 N 
ATOM     32  C   UNL A   1      37.567  32.512  36.606  1.00  0.00     0.251 C 
ATOM     33  H   UNL A   1      36.220  34.006  36.703  1.00  0.00     0.163 HD
ATOM     34  O   UNL A   1      37.290  32.067  37.715  1.00  0.00    -0.269 OA
BRANCH  32  35
ATOM     35  C   UNL A   1      38.592  31.866  35.762  1.00  0.00     0.039 A 
ATOM     36  C   UNL A   1      39.946  32.097  36.006  1.00  0.00     0.014 A 
ATOM     37  C   UNL A   1      38.186  31.109  34.661  1.00  0.00     0.014 A 
ATOM     38  C   UNL A   1      40.883  31.727  35.050  1.00  0.00     0.010 A 
ATOM     39  C   UNL A   1      39.141  30.668  33.741  1.00  0.00     0.010 A 
ATOM     40  C   UNL A   1      40.489  31.025  33.897  1.00  0.00    -0.014 A 
BRANCH  40  41
ATOM     41  C   UNL A   1      41.508  30.694  32.868  1.00  0.00     0.031 A 
ATOM     42  C   UNL A   1      41.949  31.721  31.857  1.00  0.00     0.074 A 
ATOM     43  C   UNL A   1      42.079  29.475  32.884  1.00  0.00     0.049 A 
ATOM     44  N   UNL A   1      42.863  31.611  30.927  1.00  0.00    -0.248 NA
ATOM     45  C   UNL A   1      41.285  33.034  31.887  1.00  0.00     0.031 C 
ATOM     46  C   UNL A   1      41.721  28.392  33.803  1.00  0.00     0.029 A 
ATOM     47  N   UNL A   1      43.094  28.949  32.128  1.00  0.00    -0.354 N 
ATOM     48  C   UNL A   1      42.853  32.816  30.235  1.00  0.00     0.074 A 
ATOM     49  C   UNL A   1      41.843  33.648  30.851  1.00  0.00     0.031 C 
ATOM     50  C   UNL A   1      42.537  27.350  33.590  1.00  0.00     0.029 A 
ATOM     51  C   UNL A   1      43.443  27.670  32.491  1.00  0.00     0.049 A 
ATOM     52  H   UNL A   1      43.530  29.439  31.393  1.00  0.00     0.167 HD
ATOM     53  C   UNL A   1      43.630  33.203  29.198  1.00  0.00     0.034 A 
ATOM     54  C   UNL A   1      44.385  26.844  32.000  1.00  0.00     0.034 A 
ATOM     55  C   UNL A   1      44.681  32.405  28.630  1.00  0.00     0.049 A 
ATOM     56  C   UNL A   1      45.252  27.309  30.868  1.00  0.00     0.074 A 
ATOM     57  C   UNL A   1      45.560  32.740  27.614  1.00  0.00     0.029 A 
ATOM     58  N   UNL A   1      45.004  31.118  29.031  1.00  0.00    -0.354 N 
ATOM     59  N   UNL A   1      45.278  28.482  30.284  1.00  0.00    -0.248 NA
ATOM     60  C   UNL A   1      46.222  26.344  30.330  1.00  0.00     0.031 C 
ATOM     61  C   UNL A   1      46.415  31.655  27.400  1.00  0.00     0.029 A 
ATOM     62  C   UNL A   1      46.066  30.645  28.281  1.00  0.00     0.049 A 
ATOM     63  H   UNL A   1      44.545  30.616  29.742  1.00  0.00     0.167 HD
ATOM     64  C   UNL A   1      46.267  28.399  29.313  1.00  0.00     0.074 A 
ATOM     65  C   UNL A   1      46.836  27.070  29.404  1.00  0.00     0.031 C 
ATOM     66  C   UNL A   1      46.648  29.335  28.410  1.00  0.00     0.034 A 
BRANCH  53  67
ATOM     67  C   UNL A   1      43.426  34.582  28.633  1.00  0.00     0.023 A 
ATOM     68  C   UNL A   1      42.633  34.739  27.478  1.00  0.00     0.012 A 
ATOM     69  C   UNL A   1      43.922  35.720  29.298  1.00  0.00     0.148 A 
ATOM     70  C   UNL A   1      42.342  36.012  26.990  1.00  0.00     0.002 A 
ATOM     71  C   UNL A   1      43.606  36.986  28.818  1.00  0.00     0.091 A 
ATOM     72  F   UNL A   1      44.684  35.541  30.386  1.00  0.00    -0.205 F 
ATOM     73  C   UNL A   1      42.819  37.133  27.664  1.00  0.00     0.022 A 
BRANCH  71  74
ATOM     74  S   UNL A   1      44.127  38.497  29.639  1.00  0.00     0.127 S 
ATOM     75  O   UNL A   1      43.312  39.499  28.952  1.00  0.00    -0.237 OA
ATOM     76  O   UNL A   1      43.739  38.242  31.026  1.00  0.00    -0.237 OA
ATOM     77  O   UNL A   1      45.560  38.606  29.414  1.00  0.00    -0.744 OA
ENDBRANCH  71  74
ENDBRANCH  53  67
BRANCH  54  78
ATOM     78  C   UNL A   1      44.579  25.511  32.631  1.00  0.00     0.023 A 
ATOM     79  C   UNL A   1      44.003  24.377  32.031  1.00  0.00     0.012 A 
ATOM     80  C   UNL A   1      45.407  25.354  33.759  1.00  0.00     0.148 A 
ATOM     81  C   UNL A   1      44.247  23.104  32.546  1.00  0.00     0.002 A 
ATOM     82  C   UNL A   1      45.684  24.080  34.238  1.00  0.00     0.091 A 
ATOM     83  F   UNL A   1      45.936  26.454  34.314  1.00  0.00    -0.205 F 
ATOM     84  C   UNL A   1      45.098  22.955  33.639  1.00  0.00     0.022 A 
BRANCH  82  85
ATOM     85  S   UNL A   1      46.864  23.781  35.559  1.00  0.00     0.127 S 
ATOM     86  O   UNL A   1      48.078  24.385  35.017  1.00  0.00    -0.237 OA
ATOM     87  O   UNL A   1      46.257  24.509  36.673  1.00  0.00    -0.237 OA
ATOM     88  O   UNL A   1      46.903  22.335  35.733  1.00  0.00    -0.744 OA
ENDBRANCH  82  85
ENDBRANCH  54  78
BRANCH  66  89
ATOM     89  C   UNL A   1      47.724  28.965  27.430  1.00  0.00     0.023 A 
ATOM     90  C   UNL A   1      49.071  29.094  27.815  1.00  0.00     0.012 A 
ATOM     91  C   UNL A   1      47.404  28.382  26.189  1.00  0.00     0.148 A 
ATOM     92  C   UNL A   1      50.091  28.652  26.975  1.00  0.00     0.002 A 
ATOM     93  C   UNL A   1      48.426  27.915  25.369  1.00  0.00     0.091 A 
ATOM     94  F   UNL A   1      46.112  28.279  25.844  1.00  0.00    -0.205 F 
ATOM     95  C   UNL A   1      49.769  28.052  25.759  1.00  0.00     0.022 A 
BRANCH  93  96
ATOM     96  S   UNL A   1      48.111  27.066  23.818  1.00  0.00     0.127 S 
ATOM     97  O   UNL A   1      47.340  25.907  24.263  1.00  0.00    -0.237 OA
ATOM     98  O   UNL A   1      47.341  28.063  23.072  1.00  0.00    -0.237 OA
ATOM     99  O   UNL A   1      49.418  26.762  23.252  1.00  0.00    -0.744 OA
ENDBRANCH  93  96
ENDBRANCH  66  89
ENDBRANCH  40  41
ENDBRANCH  32  35
ENDBRANCH  30  31
ENDBRANCH  29  30
ENDBRANCH   1  29
TORSDOF 18
ENDMDL
MODEL 3
REMARK VINA RESULT:      -8.1      3.508      4.653
REMARK SMILES CC(C)[N@@H+](C)Cc1cc2c(cc1Cl)C=C(C(=O)NCCCCNC(=O)c1ccc(-c3c4nc(c(-c5cccc(S(=O)(=O)[O-])c5F)c5ccc([nH]5)c(-c5cccc(S(=O)(=O)[O-])c5F)c5nc(c(-c6cccc(S(=O)(=O)[O-])c6F)c6ccc3[nH]6)C=C5)C=C4)cc1)[C@@H](C(F)(F)F)O2
REMARK SMILES IDX 20 1 19 2 18 3 16 4 17 5 15 7 7 8 8 9 12 10 9 11 11 12 13 13
REMARK SMILES IDX 10 14 94 15 14 16 89 17 6 18 4 19 5 20 2 22 1 23 3 24 90 25
REMARK SMILES IDX 91 26 92 27 93 28 21 29 22 30 23 31 24 32 25 34 26 35 27 36
REMARK SMILES IDX 88 37 28 38 87 39 29 40 30 41 31 42 81 43 32 44 86 45 80 46
REMARK SMILES IDX 82 47 33 48 85 49 79 50 78 51 34 53 66 54 46 55 65 56 47 57
REMARK SMILES IDX 50 58 64 59 83 60 48 61 49 62 63 64 84 65 51 66 35 67 36 68
REMARK SMILES IDX 44 69 37 70 39 71 45 72 38 73 40 74 41 75 42 76 43 77 67 78
REMARK SMILES IDX 68 79 76 80 69 81 71 82 77 83 70 84 72 85 73 86 74 87 75 88
REMARK SMILES IDX 52 89 53 90 61 91 54 92 56 93 62 94 55 95 57 96 58 97 59 98
REMARK SMILES IDX 60 99
REMARK H PARENT 18 6 4 21 23 33 82 52 50 63
REMARK Flexibility Score: inf
ROOT
ATOM      1  C   UNL A   1      45.653  22.240  25.403  1.00  0.00     0.023 C 
ENDROOT
BRANCH   1   2
ATOM      2  C   UNL A   1      45.586  23.761  25.493  1.00  0.00     0.116 C 
BRANCH   2   3
ATOM      3  N   UNL A   1      46.350  24.279  26.615  1.00  0.00    -0.352 N 
ATOM      4  C   UNL A   1      47.410  25.102  26.782  1.00  0.00     0.251 C 
ATOM      5  O   UNL A   1      47.769  25.283  27.950  1.00  0.00    -0.270 OA
ATOM      6  H   UNL A   1      46.007  23.945  27.475  1.00  0.00     0.163 HD
BRANCH   4   7
ATOM      7  C   UNL A   1      48.148  25.784  25.676  1.00  0.00     0.067 C 
ATOM      8  C   UNL A   1      51.668  28.267  23.016  1.00  0.00     0.029 A 
ATOM      9  C   UNL A   1      50.387  27.755  22.740  1.00  0.00     0.058 A 
ATOM     10  C   UNL A   1      52.247  27.934  24.252  1.00  0.00     0.050 A 
ATOM     11  C   UNL A   1      49.669  27.043  23.699  1.00  0.00     0.128 A 
ATOM     12  C   UNL A   1      51.520  27.218  25.214  1.00  0.00     0.033 A 
ATOM     13  Cl  UNL A   1      53.889  28.307  24.641  1.00  0.00    -0.084 Cl
ATOM     14  C   UNL A   1      50.219  26.790  24.949  1.00  0.00     0.019 A 
ATOM     15  O   UNL A   1      48.437  26.603  23.322  1.00  0.00    -0.475 OA
ATOM     16  C   UNL A   1      49.440  26.061  25.938  1.00  0.00     0.025 C 
ATOM     17  C   UNL A   1      47.517  26.213  24.379  1.00  0.00     0.314 C 
BRANCH   8  18
ATOM     18  C   UNL A   1      52.337  29.118  21.957  1.00  0.00     0.300 C 
BRANCH  18  19
ATOM     19  N   UNL A   1      53.250  28.463  21.010  1.00  0.00    -0.332 N 
ATOM     20  C   UNL A   1      54.535  29.130  20.860  1.00  0.00     0.333 C 
ATOM     21  H   UNL A   1      53.389  27.599  21.534  1.00  0.00     0.348 HD
BRANCH  19  22
ATOM     22  C   UNL A   1      52.742  27.901  19.749  1.00  0.00     0.177 C 
ATOM     23  C   UNL A   1      52.348  26.426  19.883  1.00  0.00     0.075 C 
ATOM     24  C   UNL A   1      51.639  28.691  19.034  1.00  0.00     0.075 C 
ENDBRANCH  19  22
ENDBRANCH  18  19
ENDBRANCH   8  18
BRANCH  17  25
ATOM     25  C   UNL A   1      46.478  27.336  24.549  1.00  0.00     0.429 C 
ATOM     26  F   UNL A   1      45.233  26.809  24.680  1.00  0.00    -0.167 F 
ATOM     27  F   UNL A   1      46.691  28.091  25.649  1.00  0.00    -0.167 F 
ATOM     28  F   UNL A   1      46.449  28.175  23.488  1.00  0.00    -0.167 F 
ENDBRANCH  17  25
ENDBRANCH   4   7
ENDBRANCH   2   3
ENDBRANCH   1   2
BRANCH   1  29
ATOM     29  C   UNL A   1      44.292  21.546  25.497  1.00  0.00     0.023 C 
BRANCH  29  30
ATOM     30  C   UNL A   1      43.076  22.466  25.411  1.00  0.00     0.116 C 
BRANCH  30  31
ATOM     31  N   UNL A   1      41.797  21.783  25.552  1.00  0.00    -0.352 N 
ATOM     32  C   UNL A   1      40.681  22.205  26.240  1.00  0.00     0.251 C 
ATOM     33  H   UNL A   1      41.721  20.911  25.099  1.00  0.00     0.163 HD
ATOM     34  O   UNL A   1      39.692  21.482  26.318  1.00  0.00    -0.269 OA
BRANCH  32  35
ATOM     35  C   UNL A   1      40.722  23.513  26.924  1.00  0.00     0.039 A 
ATOM     36  C   UNL A   1      40.278  24.660  26.266  1.00  0.00     0.014 A 
ATOM     37  C   UNL A   1      41.304  23.598  28.190  1.00  0.00     0.014 A 
ATOM     38  C   UNL A   1      40.583  25.908  26.794  1.00  0.00     0.010 A 
ATOM     39  C   UNL A   1      41.535  24.854  28.757  1.00  0.00     0.010 A 
ATOM     40  C   UNL A   1      41.232  26.020  28.037  1.00  0.00    -0.014 A 
BRANCH  40  41
ATOM     41  C   UNL A   1      41.593  27.367  28.546  1.00  0.00     0.031 A 
ATOM     42  C   UNL A   1      43.014  27.862  28.486  1.00  0.00     0.074 A 
ATOM     43  C   UNL A   1      40.618  28.170  29.013  1.00  0.00     0.049 A 
ATOM     44  N   UNL A   1      43.488  29.031  28.839  1.00  0.00    -0.248 NA
ATOM     45  C   UNL A   1      44.036  26.937  27.970  1.00  0.00     0.031 C 
ATOM     46  C   UNL A   1      39.208  27.795  29.137  1.00  0.00     0.029 A 
ATOM     47  N   UNL A   1      40.656  29.471  29.445  1.00  0.00    -0.354 N 
ATOM     48  C   UNL A   1      44.861  28.965  28.632  1.00  0.00     0.074 A 
ATOM     49  C   UNL A   1      45.149  27.644  28.121  1.00  0.00     0.031 C 
ATOM     50  C   UNL A   1      38.508  28.856  29.564  1.00  0.00     0.029 A 
ATOM     51  C   UNL A   1      39.423  29.970  29.790  1.00  0.00     0.049 A 
ATOM     52  H   UNL A   1      41.486  29.996  29.504  1.00  0.00     0.167 HD
ATOM     53  C   UNL A   1      45.792  29.927  28.828  1.00  0.00     0.034 A 
ATOM     54  C   UNL A   1      39.063  31.188  30.238  1.00  0.00     0.034 A 
ATOM     55  C   UNL A   1      45.499  31.263  29.270  1.00  0.00     0.049 A 
ATOM     56  C   UNL A   1      40.112  32.244  30.419  1.00  0.00     0.074 A 
ATOM     57  C   UNL A   1      46.375  32.322  29.440  1.00  0.00     0.029 A 
ATOM     58  N   UNL A   1      44.237  31.727  29.604  1.00  0.00    -0.354 N 
ATOM     59  N   UNL A   1      41.391  32.184  30.139  1.00  0.00    -0.248 NA
ATOM     60  C   UNL A   1      39.672  33.534  30.969  1.00  0.00     0.031 C 
ATOM     61  C   UNL A   1      45.641  33.429  29.876  1.00  0.00     0.029 A 
ATOM     62  C   UNL A   1      44.311  33.057  29.981  1.00  0.00     0.049 A 
ATOM     63  H   UNL A   1      43.412  31.192  29.578  1.00  0.00     0.167 HD
ATOM     64  C   UNL A   1      41.910  33.428  30.475  1.00  0.00     0.074 A 
ATOM     65  C   UNL A   1      40.803  34.230  30.954  1.00  0.00     0.031 C 
ATOM     66  C   UNL A   1      43.195  33.854  30.416  1.00  0.00     0.034 A 
BRANCH  53  67
ATOM     67  C   UNL A   1      47.226  29.603  28.509  1.00  0.00     0.023 A 
ATOM     68  C   UNL A   1      47.801  30.124  27.333  1.00  0.00     0.012 A 
ATOM     69  C   UNL A   1      48.026  28.880  29.415  1.00  0.00     0.148 A 
ATOM     70  C   UNL A   1      49.154  29.926  27.061  1.00  0.00     0.002 A 
ATOM     71  C   UNL A   1      49.379  28.708  29.148  1.00  0.00     0.091 A 
ATOM     72  F   UNL A   1      47.450  28.384  30.519  1.00  0.00    -0.205 F 
ATOM     73  C   UNL A   1      49.943  29.228  27.971  1.00  0.00     0.022 A 
BRANCH  71  74
ATOM     74  S   UNL A   1      50.497  27.870  30.277  1.00  0.00     0.127 S 
ATOM     75  O   UNL A   1      49.837  26.574  30.434  1.00  0.00    -0.237 OA
ATOM     76  O   UNL A   1      51.740  27.831  29.506  1.00  0.00    -0.237 OA
ATOM     77  O   UNL A   1      50.547  28.688  31.479  1.00  0.00    -0.744 OA
ENDBRANCH  71  74
ENDBRANCH  53  67
BRANCH  54  78
ATOM     78  C   UNL A   1      37.624  31.470  30.488  1.00  0.00     0.023 A 
ATOM     79  C   UNL A   1      37.134  31.424  31.805  1.00  0.00     0.012 A 
ATOM     80  C   UNL A   1      36.771  31.877  29.444  1.00  0.00     0.148 A 
ATOM     81  C   UNL A   1      35.813  31.778  32.082  1.00  0.00     0.002 A 
ATOM     82  C   UNL A   1      35.471  32.272  29.732  1.00  0.00     0.091 A 
ATOM     83  F   UNL A   1      37.263  31.903  28.198  1.00  0.00    -0.205 F 
ATOM     84  C   UNL A   1      34.988  32.215  31.048  1.00  0.00     0.022 A 
BRANCH  82  85
ATOM     85  S   UNL A   1      34.375  32.967  28.490  1.00  0.00     0.127 S 
ATOM     86  O   UNL A   1      35.317  33.666  27.620  1.00  0.00    -0.237 OA
ATOM     87  O   UNL A   1      33.777  31.763  27.911  1.00  0.00    -0.237 OA
ATOM     88  O   UNL A   1      33.441  33.815  29.217  1.00  0.00    -0.744 OA
ENDBRANCH  82  85
ENDBRANCH  54  78
BRANCH  66  89
ATOM     89  C   UNL A   1      43.493  35.247  30.892  1.00  0.00     0.023 A 
ATOM     90  C   UNL A   1      43.866  35.443  32.234  1.00  0.00     0.012 A 
ATOM     91  C   UNL A   1      43.522  36.330  29.993  1.00  0.00     0.148 A 
ATOM     92  C   UNL A   1      44.262  36.703  32.680  1.00  0.00     0.002 A 
ATOM     93  C   UNL A   1      43.947  37.577  30.437  1.00  0.00     0.091 A 
ATOM     94  F   UNL A   1      43.152  36.115  28.721  1.00  0.00    -0.205 F 
ATOM     95  C   UNL A   1      44.313  37.766  31.780  1.00  0.00     0.022 A 
BRANCH  93  96
ATOM     96  S   UNL A   1      44.114  38.990  29.341  1.00  0.00     0.127 S 
ATOM     97  O   UNL A   1      42.752  39.522  29.331  1.00  0.00    -0.237 OA
ATOM     98  O   UNL A   1      45.089  39.818  30.051  1.00  0.00    -0.237 OA
ATOM     99  O   UNL A   1      44.581  38.460  28.067  1.00  0.00    -0.744 OA
ENDBRANCH  93  96
ENDBRANCH  66  89
ENDBRANCH  40  41
ENDBRANCH  32  35
ENDBRANCH  30  31
ENDBRANCH  29  30
ENDBRANCH   1  29
TORSDOF 18
ENDMDL
