MODEL 1
REMARK VINA RESULT:     -11.0      0.000      0.000
REMARK SMILES [NH3+]CCOCC(=O)N[C@H](C(=O)NCCCCNC(=O)c1ccc(-c2c3nc(c(-c4cccc(S(=O)(=O)[O-])c4F)c4ccc([nH]4)c(-c4cccc(S(=O)(=O)[O-])c4F)c4nc(c(-c5cccc(S(=O)(=O)[O-])c5F)c5ccc2[nH]5)C=C4)C=C3)cc1)c1ccccc1
REMARK SMILES IDX 13 1 12 2 10 3 11 4 9 6 8 7 6 8 7 9 5 11 4 12 3 13 2 14 1 15
REMARK SMILES IDX 83 19 84 20 88 21 85 22 87 23 86 24 14 25 15 26 16 27 17 28
REMARK SMILES IDX 18 29 19 31 20 32 21 33 82 34 22 35 81 36 23 37 24 38 25 39
REMARK SMILES IDX 75 40 26 41 80 42 74 43 76 44 27 45 79 46 73 47 72 48 28 50
REMARK SMILES IDX 60 51 40 52 59 53 41 54 44 55 58 56 77 57 42 58 43 59 57 61
REMARK SMILES IDX 78 62 45 63 29 64 30 65 38 66 31 67 33 68 39 69 32 70 34 71
REMARK SMILES IDX 35 72 36 73 37 74 61 75 62 76 70 77 63 78 65 79 71 80 64 81
REMARK SMILES IDX 66 82 67 83 68 84 69 85 46 86 47 87 55 88 48 89 50 90 56 91
REMARK SMILES IDX 49 92 51 93 52 94 53 95 54 96
REMARK H PARENT 12 5 8 10 1 16 1 17 1 18 17 30 76 49 44 60
REMARK Flexibility Score: inf
ROOT
ATOM      1  C   UNL A   1      31.643  26.702  24.046  1.00  0.00     0.116 C 
ENDROOT
BRANCH   1   2
ATOM      2  N   UNL A   1      32.518  26.536  22.902  1.00  0.00    -0.354 N 
ATOM      3  C   UNL A   1      33.073  25.370  22.438  1.00  0.00     0.247 C 
ATOM      4  O   UNL A   1      33.574  25.366  21.312  1.00  0.00    -0.272 OA
ATOM      5  H   UNL A   1      32.740  27.354  22.401  1.00  0.00     0.163 HD
BRANCH   3   6
ATOM      6  C   UNL A   1      32.960  24.064  23.284  1.00  0.00     0.202 C 
BRANCH   6   7
ATOM      7  N   UNL A   1      32.480  22.988  22.395  1.00  0.00    -0.339 N 
ATOM      8  C   UNL A   1      32.101  21.715  22.692  1.00  0.00     0.246 C 
ATOM      9  O   UNL A   1      31.790  20.971  21.756  1.00  0.00    -0.272 OA
ATOM     10  H   UNL A   1      32.426  23.227  21.442  1.00  0.00     0.164 HD
BRANCH   8  11
ATOM     11  C   UNL A   1      32.064  21.210  24.136  1.00  0.00     0.260 C 
BRANCH  11  12
ATOM     12  O   UNL A   1      32.054  19.802  24.274  1.00  0.00    -0.366 OA
BRANCH  12  13
ATOM     13  C   UNL A   1      33.133  19.269  25.042  1.00  0.00     0.222 C 
BRANCH  13  14
ATOM     14  C   UNL A   1      34.443  20.071  24.950  1.00  0.00     0.287 C 
BRANCH  14  15
ATOM     15  N   UNL A   1      34.868  20.742  26.181  1.00  0.00    -0.356 N 
ATOM     16  H   UNL A   1      35.303  20.062  26.805  1.00  0.00     0.344 HD
ATOM     17  H   UNL A   1      34.057  21.154  26.641  1.00  0.00     0.344 HD
ATOM     18  H   UNL A   1      35.540  21.475  25.954  1.00  0.00     0.344 HD
ENDBRANCH  14  15
ENDBRANCH  13  14
ENDBRANCH  12  13
ENDBRANCH  11  12
ENDBRANCH   8  11
ENDBRANCH   6   7
BRANCH   6  19
ATOM     19  C   UNL A   1      34.337  23.741  23.906  1.00  0.00    -0.016 A 
ATOM     20  C   UNL A   1      34.643  24.196  25.207  1.00  0.00     0.006 A 
ATOM     21  C   UNL A   1      35.366  23.113  23.181  1.00  0.00     0.006 A 
ATOM     22  C   UNL A   1      35.952  24.185  25.690  1.00  0.00     0.000 A 
ATOM     23  C   UNL A   1      36.678  23.103  23.667  1.00  0.00     0.000 A 
ATOM     24  C   UNL A   1      36.976  23.668  24.905  1.00  0.00     0.000 A 
ENDBRANCH   6  19
ENDBRANCH   3   6
ENDBRANCH   1   2
BRANCH   1  25
ATOM     25  C   UNL A   1      32.387  27.192  25.280  1.00  0.00     0.023 C 
BRANCH  25  26
ATOM     26  C   UNL A   1      31.955  28.574  25.757  1.00  0.00     0.023 C 
BRANCH  26  27
ATOM     27  C   UNL A   1      33.057  29.623  25.735  1.00  0.00     0.116 C 
BRANCH  27  28
ATOM     28  N   UNL A   1      32.639  30.923  26.245  1.00  0.00    -0.352 N 
ATOM     29  C   UNL A   1      33.293  31.723  27.155  1.00  0.00     0.251 C 
ATOM     30  H   UNL A   1      31.786  31.270  25.898  1.00  0.00     0.163 HD
ATOM     31  O   UNL A   1      32.802  32.766  27.545  1.00  0.00    -0.269 OA
BRANCH  29  32
ATOM     32  C   UNL A   1      34.588  31.246  27.675  1.00  0.00     0.039 A 
ATOM     33  C   UNL A   1      35.607  32.174  27.884  1.00  0.00     0.014 A 
ATOM     34  C   UNL A   1      34.737  29.910  28.054  1.00  0.00     0.014 A 
ATOM     35  C   UNL A   1      36.771  31.766  28.533  1.00  0.00     0.010 A 
ATOM     36  C   UNL A   1      35.858  29.530  28.779  1.00  0.00     0.010 A 
ATOM     37  C   UNL A   1      36.891  30.450  29.010  1.00  0.00    -0.014 A 
BRANCH  37  38
ATOM     38  C   UNL A   1      38.106  30.011  29.737  1.00  0.00     0.031 A 
ATOM     39  C   UNL A   1      38.362  30.514  31.131  1.00  0.00     0.074 A 
ATOM     40  C   UNL A   1      39.007  29.224  29.118  1.00  0.00     0.049 A 
ATOM     41  N   UNL A   1      39.366  30.256  31.926  1.00  0.00    -0.248 NA
ATOM     42  C   UNL A   1      37.381  31.458  31.693  1.00  0.00     0.031 C 
ATOM     43  C   UNL A   1      38.917  28.759  27.731  1.00  0.00     0.029 A 
ATOM     44  N   UNL A   1      40.185  28.688  29.572  1.00  0.00    -0.354 N 
ATOM     45  C   UNL A   1      39.158  31.032  33.060  1.00  0.00     0.074 A 
ATOM     46  C   UNL A   1      37.960  31.808  32.830  1.00  0.00     0.031 C 
ATOM     47  C   UNL A   1      39.987  27.995  27.453  1.00  0.00     0.029 A 
ATOM     48  C   UNL A   1      40.843  27.928  28.634  1.00  0.00     0.049 A 
ATOM     49  H   UNL A   1      40.528  28.836  30.482  1.00  0.00     0.167 HD
ATOM     50  C   UNL A   1      39.874  31.065  34.207  1.00  0.00     0.034 A 
ATOM     51  C   UNL A   1      41.999  27.242  28.724  1.00  0.00     0.034 A 
ATOM     52  C   UNL A   1      41.025  30.242  34.453  1.00  0.00     0.049 A 
ATOM     53  C   UNL A   1      42.728  27.224  30.041  1.00  0.00     0.074 A 
ATOM     54  C   UNL A   1      41.766  30.120  35.614  1.00  0.00     0.029 A 
ATOM     55  N   UNL A   1      41.599  29.395  33.518  1.00  0.00    -0.354 N 
ATOM     56  N   UNL A   1      42.418  27.825  31.164  1.00  0.00    -0.248 NA
ATOM     57  C   UNL A   1      43.939  26.394  30.120  1.00  0.00     0.031 C 
ATOM     58  C   UNL A   1      42.795  29.204  35.378  1.00  0.00     0.029 A 
ATOM     59  C   UNL A   1      42.685  28.744  34.074  1.00  0.00     0.049 A 
ATOM     60  H   UNL A   1      41.281  29.274  32.595  1.00  0.00     0.167 HD
ATOM     61  C   UNL A   1      43.372  27.422  32.091  1.00  0.00     0.074 A 
ATOM     62  C   UNL A   1      44.257  26.503  31.402  1.00  0.00     0.031 C 
ATOM     63  C   UNL A   1      43.516  27.789  33.387  1.00  0.00     0.034 A 
BRANCH  50  64
ATOM     64  C   UNL A   1      39.383  31.968  35.307  1.00  0.00     0.023 A 
ATOM     65  C   UNL A   1      38.430  31.483  36.229  1.00  0.00     0.012 A 
ATOM     66  C   UNL A   1      39.881  33.277  35.455  1.00  0.00     0.148 A 
ATOM     67  C   UNL A   1      37.954  32.296  37.255  1.00  0.00     0.002 A 
ATOM     68  C   UNL A   1      39.434  34.067  36.509  1.00  0.00     0.091 A 
ATOM     69  F   UNL A   1      40.765  33.731  34.555  1.00  0.00    -0.205 F 
ATOM     70  C   UNL A   1      38.463  33.583  37.401  1.00  0.00     0.022 A 
BRANCH  68  71
ATOM     71  S   UNL A   1      40.084  35.711  36.828  1.00  0.00     0.127 S 
ATOM     72  O   UNL A   1      41.525  35.463  36.825  1.00  0.00    -0.237 OA
ATOM     73  O   UNL A   1      39.593  36.465  35.673  1.00  0.00    -0.237 OA
ATOM     74  O   UNL A   1      39.520  36.123  38.105  1.00  0.00    -0.744 OA
ENDBRANCH  68  71
ENDBRANCH  50  64
BRANCH  51  75
ATOM     75  C   UNL A   1      42.482  26.436  27.567  1.00  0.00     0.023 A 
ATOM     76  C   UNL A   1      43.359  27.024  26.635  1.00  0.00     0.012 A 
ATOM     77  C   UNL A   1      42.106  25.089  27.400  1.00  0.00     0.148 A 
ATOM     78  C   UNL A   1      43.827  26.297  25.540  1.00  0.00     0.002 A 
ATOM     79  C   UNL A   1      42.618  24.354  26.336  1.00  0.00     0.091 A 
ATOM     80  F   UNL A   1      41.262  24.549  28.291  1.00  0.00    -0.205 F 
ATOM     81  C   UNL A   1      43.465  24.960  25.396  1.00  0.00     0.022 A 
BRANCH  79  82
ATOM     82  S   UNL A   1      42.309  22.595  26.148  1.00  0.00     0.127 S 
ATOM     83  O   UNL A   1      42.976  22.308  24.881  1.00  0.00    -0.237 OA
ATOM     84  O   UNL A   1      42.969  22.042  27.331  1.00  0.00    -0.237 OA
ATOM     85  O   UNL A   1      40.860  22.451  26.151  1.00  0.00    -0.744 OA
ENDBRANCH  79  82
ENDBRANCH  51  75
BRANCH  63  86
ATOM     86  C   UNL A   1      44.654  27.178  34.161  1.00  0.00     0.023 A 
ATOM     87  C   UNL A   1      45.914  27.808  34.164  1.00  0.00     0.012 A 
ATOM     88  C   UNL A   1      44.455  26.023  34.941  1.00  0.00     0.148 A 
ATOM     89  C   UNL A   1      46.969  27.278  34.905  1.00  0.00     0.002 A 
ATOM     90  C   UNL A   1      45.498  25.527  35.715  1.00  0.00     0.091 A 
ATOM     91  F   UNL A   1      43.255  25.424  34.909  1.00  0.00    -0.205 F 
ATOM     92  C   UNL A   1      46.757  26.147  35.689  1.00  0.00     0.022 A 
BRANCH  90  93
ATOM     93  S   UNL A   1      45.281  24.134  36.827  1.00  0.00     0.127 S 
ATOM     94  O   UNL A   1      46.649  23.901  37.285  1.00  0.00    -0.237 OA
ATOM     95  O   UNL A   1      44.382  24.679  37.845  1.00  0.00    -0.237 OA
ATOM     96  O   UNL A   1      44.696  23.071  36.020  1.00  0.00    -0.744 OA
ENDBRANCH  90  93
ENDBRANCH  63  86
ENDBRANCH  37  38
ENDBRANCH  29  32
ENDBRANCH  27  28
ENDBRANCH  26  27
ENDBRANCH  25  26
ENDBRANCH   1  25
TORSDOF 21
ENDMDL
MODEL 2
REMARK VINA RESULT:     -10.9      5.089     10.247
REMARK SMILES [NH3+]CCOCC(=O)N[C@H](C(=O)NCCCCNC(=O)c1ccc(-c2c3nc(c(-c4cccc(S(=O)(=O)[O-])c4F)c4ccc([nH]4)c(-c4cccc(S(=O)(=O)[O-])c4F)c4nc(c(-c5cccc(S(=O)(=O)[O-])c5F)c5ccc2[nH]5)C=C4)C=C3)cc1)c1ccccc1
REMARK SMILES IDX 13 1 12 2 10 3 11 4 9 6 8 7 6 8 7 9 5 11 4 12 3 13 2 14 1 15
REMARK SMILES IDX 83 19 84 20 88 21 85 22 87 23 86 24 14 25 15 26 16 27 17 28
REMARK SMILES IDX 18 29 19 31 20 32 21 33 82 34 22 35 81 36 23 37 24 38 25 39
REMARK SMILES IDX 75 40 26 41 80 42 74 43 76 44 27 45 79 46 73 47 72 48 28 50
REMARK SMILES IDX 60 51 40 52 59 53 41 54 44 55 58 56 77 57 42 58 43 59 57 61
REMARK SMILES IDX 78 62 45 63 29 64 30 65 38 66 31 67 33 68 39 69 32 70 34 71
REMARK SMILES IDX 35 72 36 73 37 74 61 75 62 76 70 77 63 78 65 79 71 80 64 81
REMARK SMILES IDX 66 82 67 83 68 84 69 85 46 86 47 87 55 88 48 89 50 90 56 91
REMARK SMILES IDX 49 92 51 93 52 94 53 95 54 96
REMARK H PARENT 12 5 8 10 1 16 1 17 1 18 17 30 76 49 44 60
REMARK Flexibility Score: inf
ROOT
ATOM      1  C   UNL A   1      33.198  23.010  24.289  1.00  0.00     0.116 C 
ENDROOT
BRANCH   1   2
ATOM      2  N   UNL A   1      32.686  23.151  25.638  1.00  0.00    -0.354 N 
ATOM      3  C   UNL A   1      31.953  24.193  26.148  1.00  0.00     0.247 C 
ATOM      4  O   UNL A   1      31.378  24.034  27.227  1.00  0.00    -0.272 OA
ATOM      5  H   UNL A   1      32.886  22.414  26.259  1.00  0.00     0.163 HD
BRANCH   3   6
ATOM      6  C   UNL A   1      31.772  25.499  25.313  1.00  0.00     0.202 C 
BRANCH   6   7
ATOM      7  N   UNL A   1      30.336  25.641  25.000  1.00  0.00    -0.339 N 
ATOM      8  C   UNL A   1      29.728  26.302  23.977  1.00  0.00     0.246 C 
ATOM      9  O   UNL A   1      28.493  26.328  23.959  1.00  0.00    -0.272 OA
ATOM     10  H   UNL A   1      29.726  25.188  25.625  1.00  0.00     0.164 HD
BRANCH   8  11
ATOM     11  C   UNL A   1      30.541  26.998  22.883  1.00  0.00     0.260 C 
BRANCH  11  12
ATOM     12  O   UNL A   1      29.951  28.174  22.362  1.00  0.00    -0.366 OA
BRANCH  12  13
ATOM     13  C   UNL A   1      30.063  29.322  23.204  1.00  0.00     0.222 C 
BRANCH  13  14
ATOM     14  C   UNL A   1      29.220  30.529  22.758  1.00  0.00     0.287 C 
BRANCH  14  15
ATOM     15  N   UNL A   1      29.583  31.119  21.467  1.00  0.00    -0.356 N 
ATOM     16  H   UNL A   1      29.427  32.127  21.498  1.00  0.00     0.344 HD
ATOM     17  H   UNL A   1      29.007  30.709  20.732  1.00  0.00     0.344 HD
ATOM     18  H   UNL A   1      30.567  30.932  21.273  1.00  0.00     0.344 HD
ENDBRANCH  14  15
ENDBRANCH  13  14
ENDBRANCH  12  13
ENDBRANCH  11  12
ENDBRANCH   8  11
ENDBRANCH   6   7
BRANCH   6  19
ATOM     19  C   UNL A   1      32.317  26.698  26.121  1.00  0.00    -0.016 A 
ATOM     20  C   UNL A   1      31.427  27.510  26.855  1.00  0.00     0.006 A 
ATOM     21  C   UNL A   1      33.663  27.102  26.061  1.00  0.00     0.006 A 
ATOM     22  C   UNL A   1      31.822  28.753  27.353  1.00  0.00     0.000 A 
ATOM     23  C   UNL A   1      34.056  28.349  26.560  1.00  0.00     0.000 A 
ATOM     24  C   UNL A   1      33.130  29.187  27.175  1.00  0.00     0.000 A 
ENDBRANCH   6  19
ENDBRANCH   3   6
ENDBRANCH   1   2
BRANCH   1  25
ATOM     25  C   UNL A   1      34.686  23.320  24.199  1.00  0.00     0.023 C 
BRANCH  25  26
ATOM     26  C   UNL A   1      35.587  22.118  24.459  1.00  0.00     0.023 C 
BRANCH  26  27
ATOM     27  C   UNL A   1      36.732  22.385  25.425  1.00  0.00     0.116 C 
BRANCH  27  28
ATOM     28  N   UNL A   1      37.693  21.292  25.509  1.00  0.00    -0.352 N 
ATOM     29  C   UNL A   1      38.970  21.329  26.022  1.00  0.00     0.251 C 
ATOM     30  H   UNL A   1      37.393  20.423  25.156  1.00  0.00     0.163 HD
ATOM     31  O   UNL A   1      39.696  20.353  25.977  1.00  0.00    -0.269 OA
BRANCH  29  32
ATOM     32  C   UNL A   1      39.442  22.608  26.585  1.00  0.00     0.039 A 
ATOM     33  C   UNL A   1      40.476  22.585  27.519  1.00  0.00     0.014 A 
ATOM     34  C   UNL A   1      38.934  23.813  26.096  1.00  0.00     0.014 A 
ATOM     35  C   UNL A   1      41.044  23.791  27.928  1.00  0.00     0.010 A 
ATOM     36  C   UNL A   1      39.561  25.003  26.437  1.00  0.00     0.010 A 
ATOM     37  C   UNL A   1      40.611  25.004  27.367  1.00  0.00    -0.014 A 
BRANCH  37  38
ATOM     38  C   UNL A   1      41.231  26.291  27.761  1.00  0.00     0.031 A 
ATOM     39  C   UNL A   1      42.649  26.588  27.358  1.00  0.00     0.074 A 
ATOM     40  C   UNL A   1      40.547  27.152  28.538  1.00  0.00     0.049 A 
ATOM     41  N   UNL A   1      43.372  27.646  27.612  1.00  0.00    -0.248 NA
ATOM     42  C   UNL A   1      43.363  25.544  26.602  1.00  0.00     0.031 C 
ATOM     43  C   UNL A   1      39.204  26.926  29.078  1.00  0.00     0.029 A 
ATOM     44  N   UNL A   1      40.895  28.387  29.023  1.00  0.00    -0.354 N 
ATOM     45  C   UNL A   1      44.629  27.381  27.082  1.00  0.00     0.074 A 
ATOM     46  C   UNL A   1      44.587  26.043  26.538  1.00  0.00     0.031 C 
ATOM     47  C   UNL A   1      38.836  27.993  29.806  1.00  0.00     0.029 A 
ATOM     48  C   UNL A   1      39.920  28.971  29.797  1.00  0.00     0.049 A 
ATOM     49  H   UNL A   1      41.762  28.814  28.836  1.00  0.00     0.167 HD
ATOM     50  C   UNL A   1      45.708  28.193  27.016  1.00  0.00     0.034 A 
ATOM     51  C   UNL A   1      39.900  30.168  30.415  1.00  0.00     0.034 A 
ATOM     52  C   UNL A   1      45.720  29.545  27.500  1.00  0.00     0.049 A 
ATOM     53  C   UNL A   1      41.079  31.088  30.247  1.00  0.00     0.074 A 
ATOM     54  C   UNL A   1      46.724  30.490  27.394  1.00  0.00     0.029 A 
ATOM     55  N   UNL A   1      44.672  30.147  28.179  1.00  0.00    -0.354 N 
ATOM     56  N   UNL A   1      42.195  30.889  29.589  1.00  0.00    -0.248 NA
ATOM     57  C   UNL A   1      40.979  32.418  30.867  1.00  0.00     0.031 C 
ATOM     58  C   UNL A   1      46.285  31.662  28.018  1.00  0.00     0.029 A 
ATOM     59  C   UNL A   1      45.002  31.451  28.498  1.00  0.00     0.049 A 
ATOM     60  H   UNL A   1      43.818  29.710  28.400  1.00  0.00     0.167 HD
ATOM     61  C   UNL A   1      42.914  32.074  29.685  1.00  0.00     0.074 A 
ATOM     62  C   UNL A   1      42.094  32.997  30.445  1.00  0.00     0.031 C 
ATOM     63  C   UNL A   1      44.146  32.370  29.204  1.00  0.00     0.034 A 
BRANCH  50  64
ATOM     64  C   UNL A   1      46.937  27.661  26.328  1.00  0.00     0.023 A 
ATOM     65  C   UNL A   1      47.867  26.895  27.064  1.00  0.00     0.012 A 
ATOM     66  C   UNL A   1      47.160  27.884  24.956  1.00  0.00     0.148 A 
ATOM     67  C   UNL A   1      49.016  26.393  26.456  1.00  0.00     0.002 A 
ATOM     68  C   UNL A   1      48.286  27.341  24.346  1.00  0.00     0.091 A 
ATOM     69  F   UNL A   1      46.281  28.636  24.278  1.00  0.00    -0.205 F 
ATOM     70  C   UNL A   1      49.220  26.607  25.096  1.00  0.00     0.022 A 
BRANCH  68  71
ATOM     71  S   UNL A   1      48.601  27.495  22.584  1.00  0.00     0.127 S 
ATOM     72  O   UNL A   1      48.654  26.093  22.171  1.00  0.00    -0.237 OA
ATOM     73  O   UNL A   1      47.417  28.222  22.123  1.00  0.00    -0.237 OA
ATOM     74  O   UNL A   1      49.850  28.234  22.463  1.00  0.00    -0.744 OA
ENDBRANCH  68  71
ENDBRANCH  50  64
BRANCH  51  75
ATOM     75  C   UNL A   1      38.683  30.604  31.158  1.00  0.00     0.023 A 
ATOM     76  C   UNL A   1      38.610  30.386  32.548  1.00  0.00     0.012 A 
ATOM     77  C   UNL A   1      37.619  31.259  30.509  1.00  0.00     0.148 A 
ATOM     78  C   UNL A   1      37.485  30.781  33.272  1.00  0.00     0.002 A 
ATOM     79  C   UNL A   1      36.523  31.697  31.246  1.00  0.00     0.091 A 
ATOM     80  F   UNL A   1      37.702  31.449  29.185  1.00  0.00    -0.205 F 
ATOM     81  C   UNL A   1      36.447  31.444  32.624  1.00  0.00     0.022 A 
BRANCH  79  82
ATOM     82  S   UNL A   1      35.205  32.674  30.516  1.00  0.00     0.127 S 
ATOM     83  O   UNL A   1      35.907  33.902  30.156  1.00  0.00    -0.237 OA
ATOM     84  O   UNL A   1      34.799  31.841  29.385  1.00  0.00    -0.237 OA
ATOM     85  O   UNL A   1      34.193  32.801  31.557  1.00  0.00    -0.744 OA
ENDBRANCH  79  82
ENDBRANCH  51  75
BRANCH  63  86
ATOM     86  C   UNL A   1      44.678  33.756  29.458  1.00  0.00     0.023 A 
ATOM     87  C   UNL A   1      45.369  34.030  30.654  1.00  0.00     0.012 A 
ATOM     88  C   UNL A   1      44.556  34.762  28.481  1.00  0.00     0.148 A 
ATOM     89  C   UNL A   1      45.901  35.297  30.890  1.00  0.00     0.002 A 
ATOM     90  C   UNL A   1      45.131  36.008  28.702  1.00  0.00     0.091 A 
ATOM     91  F   UNL A   1      43.876  34.489  27.357  1.00  0.00    -0.205 F 
ATOM     92  C   UNL A   1      45.793  36.281  29.909  1.00  0.00     0.022 A 
BRANCH  90  93
ATOM     93  S   UNL A   1      45.121  37.298  27.452  1.00  0.00     0.127 S 
ATOM     94  O   UNL A   1      45.753  38.408  28.162  1.00  0.00    -0.237 OA
ATOM     95  O   UNL A   1      45.937  36.711  26.388  1.00  0.00    -0.237 OA
ATOM     96  O   UNL A   1      43.722  37.492  27.095  1.00  0.00    -0.744 OA
ENDBRANCH  90  93
ENDBRANCH  63  86
ENDBRANCH  37  38
ENDBRANCH  29  32
ENDBRANCH  27  28
ENDBRANCH  26  27
ENDBRANCH  25  26
ENDBRANCH   1  25
TORSDOF 21
ENDMDL
MODEL 3
REMARK VINA RESULT:     -10.8      1.689      2.849
REMARK SMILES [NH3+]CCOCC(=O)N[C@H](C(=O)NCCCCNC(=O)c1ccc(-c2c3nc(c(-c4cccc(S(=O)(=O)[O-])c4F)c4ccc([nH]4)c(-c4cccc(S(=O)(=O)[O-])c4F)c4nc(c(-c5cccc(S(=O)(=O)[O-])c5F)c5ccc2[nH]5)C=C4)C=C3)cc1)c1ccccc1
REMARK SMILES IDX 13 1 12 2 10 3 11 4 9 6 8 7 6 8 7 9 5 11 4 12 3 13 2 14 1 15
REMARK SMILES IDX 83 19 84 20 88 21 85 22 87 23 86 24 14 25 15 26 16 27 17 28
REMARK SMILES IDX 18 29 19 31 20 32 21 33 82 34 22 35 81 36 23 37 24 38 25 39
REMARK SMILES IDX 75 40 26 41 80 42 74 43 76 44 27 45 79 46 73 47 72 48 28 50
REMARK SMILES IDX 60 51 40 52 59 53 41 54 44 55 58 56 77 57 42 58 43 59 57 61
REMARK SMILES IDX 78 62 45 63 29 64 30 65 38 66 31 67 33 68 39 69 32 70 34 71
REMARK SMILES IDX 35 72 36 73 37 74 61 75 62 76 70 77 63 78 65 79 71 80 64 81
REMARK SMILES IDX 66 82 67 83 68 84 69 85 46 86 47 87 55 88 48 89 50 90 56 91
REMARK SMILES IDX 49 92 51 93 52 94 53 95 54 96
REMARK H PARENT 12 5 8 10 1 16 1 17 1 18 17 30 76 49 44 60
REMARK Flexibility Score: inf
ROOT
ATOM      1  C   UNL A   1      32.240  26.732  26.670  1.00  0.00     0.116 C 
ENDROOT
BRANCH   1   2
ATOM      2  N   UNL A   1      31.416  25.549  26.509  1.00  0.00    -0.354 N 
ATOM      3  C   UNL A   1      31.209  24.826  25.361  1.00  0.00     0.247 C 
ATOM      4  O   UNL A   1      30.697  23.708  25.456  1.00  0.00    -0.272 OA
ATOM      5  H   UNL A   1      30.953  25.228  27.316  1.00  0.00     0.163 HD
BRANCH   3   6
ATOM      6  C   UNL A   1      31.719  25.375  23.993  1.00  0.00     0.202 C 
BRANCH   6   7
ATOM      7  N   UNL A   1      31.896  24.226  23.082  1.00  0.00    -0.339 N 
ATOM      8  C   UNL A   1      33.003  23.475  22.831  1.00  0.00     0.246 C 
ATOM      9  O   UNL A   1      32.919  22.592  21.971  1.00  0.00    -0.272 OA
ATOM     10  H   UNL A   1      31.092  23.965  22.579  1.00  0.00     0.164 HD
BRANCH   8  11
ATOM     11  C   UNL A   1      34.315  23.711  23.583  1.00  0.00     0.260 C 
BRANCH  11  12
ATOM     12  O   UNL A   1      34.409  23.057  24.835  1.00  0.00    -0.366 OA
BRANCH  12  13
ATOM     13  C   UNL A   1      35.471  23.517  25.670  1.00  0.00     0.222 C 
BRANCH  13  14
ATOM     14  C   UNL A   1      36.816  23.712  24.949  1.00  0.00     0.287 C 
BRANCH  14  15
ATOM     15  N   UNL A   1      37.594  22.494  24.710  1.00  0.00    -0.356 N 
ATOM     16  H   UNL A   1      36.996  21.787  24.281  1.00  0.00     0.344 HD
ATOM     17  H   UNL A   1      37.954  22.141  25.596  1.00  0.00     0.344 HD
ATOM     18  H   UNL A   1      38.373  22.705  24.086  1.00  0.00     0.344 HD
ENDBRANCH  14  15
ENDBRANCH  13  14
ENDBRANCH  12  13
ENDBRANCH  11  12
ENDBRANCH   8  11
ENDBRANCH   6   7
BRANCH   6  19
ATOM     19  C   UNL A   1      30.705  26.405  23.449  1.00  0.00    -0.016 A 
ATOM     20  C   UNL A   1      31.158  27.489  22.666  1.00  0.00     0.006 A 
ATOM     21  C   UNL A   1      29.344  26.388  23.803  1.00  0.00     0.006 A 
ATOM     22  C   UNL A   1      30.338  28.586  22.402  1.00  0.00     0.000 A 
ATOM     23  C   UNL A   1      28.523  27.489  23.538  1.00  0.00     0.000 A 
ATOM     24  C   UNL A   1      29.028  28.601  22.868  1.00  0.00     0.000 A 
ENDBRANCH   6  19
ENDBRANCH   3   6
ENDBRANCH   1   2
BRANCH   1  25
ATOM     25  C   UNL A   1      31.412  27.990  26.887  1.00  0.00     0.023 C 
BRANCH  25  26
ATOM     26  C   UNL A   1      31.782  29.145  25.964  1.00  0.00     0.023 C 
BRANCH  26  27
ATOM     27  C   UNL A   1      33.049  29.889  26.359  1.00  0.00     0.116 C 
BRANCH  27  28
ATOM     28  N   UNL A   1      32.812  31.263  26.785  1.00  0.00    -0.352 N 
ATOM     29  C   UNL A   1      33.624  32.057  27.564  1.00  0.00     0.251 C 
ATOM     30  H   UNL A   1      31.971  31.672  26.479  1.00  0.00     0.163 HD
ATOM     31  O   UNL A   1      33.278  33.175  27.898  1.00  0.00    -0.269 OA
BRANCH  29  32
ATOM     32  C   UNL A   1      34.906  31.484  28.016  1.00  0.00     0.039 A 
ATOM     33  C   UNL A   1      36.020  32.319  28.090  1.00  0.00     0.014 A 
ATOM     34  C   UNL A   1      34.959  30.164  28.467  1.00  0.00     0.014 A 
ATOM     35  C   UNL A   1      37.190  31.835  28.676  1.00  0.00     0.010 A 
ATOM     36  C   UNL A   1      36.093  29.717  29.130  1.00  0.00     0.010 A 
ATOM     37  C   UNL A   1      37.223  30.542  29.225  1.00  0.00    -0.014 A 
BRANCH  37  38
ATOM     38  C   UNL A   1      38.445  30.027  29.887  1.00  0.00     0.031 A 
ATOM     39  C   UNL A   1      38.811  30.517  31.261  1.00  0.00     0.074 A 
ATOM     40  C   UNL A   1      39.257  29.180  29.225  1.00  0.00     0.049 A 
ATOM     41  N   UNL A   1      39.839  30.198  32.001  1.00  0.00    -0.248 NA
ATOM     42  C   UNL A   1      37.927  31.526  31.869  1.00  0.00     0.031 C 
ATOM     43  C   UNL A   1      39.060  28.717  27.849  1.00  0.00     0.029 A 
ATOM     44  N   UNL A   1      40.421  28.571  29.617  1.00  0.00    -0.354 N 
ATOM     45  C   UNL A   1      39.745  30.990  33.139  1.00  0.00     0.074 A 
ATOM     46  C   UNL A   1      38.590  31.842  32.970  1.00  0.00     0.031 C 
ATOM     47  C   UNL A   1      40.060  27.884  27.517  1.00  0.00     0.029 A 
ATOM     48  C   UNL A   1      40.975  27.765  28.649  1.00  0.00     0.049 A 
ATOM     49  H   UNL A   1      40.823  28.699  30.506  1.00  0.00     0.167 HD
ATOM     50  C   UNL A   1      40.525  30.981  34.244  1.00  0.00     0.034 A 
ATOM     51  C   UNL A   1      42.087  27.006  28.681  1.00  0.00     0.034 A 
ATOM     52  C   UNL A   1      41.632  30.085  34.432  1.00  0.00     0.049 A 
ATOM     53  C   UNL A   1      42.885  26.944  29.955  1.00  0.00     0.074 A 
ATOM     54  C   UNL A   1      42.426  29.919  35.551  1.00  0.00     0.029 A 
ATOM     55  N   UNL A   1      42.097  29.198  33.473  1.00  0.00    -0.354 N 
ATOM     56  N   UNL A   1      42.678  27.569  31.089  1.00  0.00    -0.248 NA
ATOM     57  C   UNL A   1      44.042  26.037  29.973  1.00  0.00     0.031 C 
ATOM     58  C   UNL A   1      43.379  28.936  35.265  1.00  0.00     0.029 A 
ATOM     59  C   UNL A   1      43.167  28.479  33.973  1.00  0.00     0.049 A 
ATOM     60  H   UNL A   1      41.720  29.095  32.570  1.00  0.00     0.167 HD
ATOM     61  C   UNL A   1      43.655  27.107  31.964  1.00  0.00     0.074 A 
ATOM     62  C   UNL A   1      44.438  26.130  31.235  1.00  0.00     0.031 C 
ATOM     63  C   UNL A   1      43.894  27.470  33.248  1.00  0.00     0.034 A 
BRANCH  50  64
ATOM     64  C   UNL A   1      40.156  31.918  35.363  1.00  0.00     0.023 A 
ATOM     65  C   UNL A   1      40.847  33.141  35.500  1.00  0.00     0.012 A 
ATOM     66  C   UNL A   1      39.111  31.613  36.256  1.00  0.00     0.148 A 
ATOM     67  C   UNL A   1      40.531  34.027  36.528  1.00  0.00     0.002 A 
ATOM     68  C   UNL A   1      38.771  32.522  37.252  1.00  0.00     0.091 A 
ATOM     69  F   UNL A   1      38.483  30.435  36.129  1.00  0.00    -0.205 F 
ATOM     70  C   UNL A   1      39.488  33.722  37.397  1.00  0.00     0.022 A 
BRANCH  68  71
ATOM     71  S   UNL A   1      37.394  32.258  38.374  1.00  0.00     0.127 S 
ATOM     72  O   UNL A   1      36.329  33.015  37.716  1.00  0.00    -0.237 OA
ATOM     73  O   UNL A   1      37.230  30.804  38.323  1.00  0.00    -0.237 OA
ATOM     74  O   UNL A   1      37.824  32.774  39.666  1.00  0.00    -0.744 OA
ENDBRANCH  68  71
ENDBRANCH  50  64
BRANCH  51  75
ATOM     75  C   UNL A   1      42.450  26.165  27.504  1.00  0.00     0.023 A 
ATOM     76  C   UNL A   1      43.273  26.707  26.498  1.00  0.00     0.012 A 
ATOM     77  C   UNL A   1      42.016  24.829  27.392  1.00  0.00     0.148 A 
ATOM     78  C   UNL A   1      43.630  25.946  25.384  1.00  0.00     0.002 A 
ATOM     79  C   UNL A   1      42.419  24.061  26.304  1.00  0.00     0.091 A 
ATOM     80  F   UNL A   1      41.226  24.334  28.354  1.00  0.00    -0.205 F 
ATOM     81  C   UNL A   1      43.212  24.622  25.292  1.00  0.00     0.022 A 
BRANCH  79  82
ATOM     82  S   UNL A   1      42.036  22.311  26.172  1.00  0.00     0.127 S 
ATOM     83  O   UNL A   1      40.580  22.331  26.061  1.00  0.00    -0.237 OA
ATOM     84  O   UNL A   1      42.743  21.936  24.948  1.00  0.00    -0.237 OA
ATOM     85  O   UNL A   1      42.574  21.702  27.382  1.00  0.00    -0.744 OA
ENDBRANCH  79  82
ENDBRANCH  51  75
BRANCH  63  86
ATOM     86  C   UNL A   1      45.032  26.788  33.962  1.00  0.00     0.023 A 
ATOM     87  C   UNL A   1      46.335  27.311  33.856  1.00  0.00     0.012 A 
ATOM     88  C   UNL A   1      44.795  25.677  34.794  1.00  0.00     0.148 A 
ATOM     89  C   UNL A   1      47.394  26.716  34.540  1.00  0.00     0.002 A 
ATOM     90  C   UNL A   1      45.847  25.119  35.511  1.00  0.00     0.091 A 
ATOM     91  F   UNL A   1      43.552  25.180  34.866  1.00  0.00    -0.205 F 
ATOM     92  C   UNL A   1      47.148  25.629  35.377  1.00  0.00     0.022 A 
BRANCH  90  93
ATOM     93  S   UNL A   1      45.598  23.781  36.683  1.00  0.00     0.127 S 
ATOM     94  O   UNL A   1      44.690  24.395  37.649  1.00  0.00    -0.237 OA
ATOM     95  O   UNL A   1      44.992  22.741  35.851  1.00  0.00    -0.237 OA
ATOM     96  O   UNL A   1      46.924  23.447  37.188  1.00  0.00    -0.744 OA
ENDBRANCH  90  93
ENDBRANCH  63  86
ENDBRANCH  37  38
ENDBRANCH  29  32
ENDBRANCH  27  28
ENDBRANCH  26  27
ENDBRANCH  25  26
ENDBRANCH   1  25
TORSDOF 21
ENDMDL
