MODEL 1
REMARK VINA RESULT:     -12.6      0.000      0.000
REMARK SMILES Cc1ccccc1OCC(=O)N[C@@H](Cc1c[nH]c2ccccc12)C(=O)NCCCCNC(=O)c1ccc(-c2c3nc(c(-c4cccc(S(=O)(=O)[O-])c4F)c4ccc([nH]4)c(-c4cccc(S(=O)(=O)[O-])c4F)c4nc(c(-c5cccc(S(=O)(=O)[O-])c5F)c5ccc2[nH]5)C=C4)C=C3)cc1
REMARK SMILES IDX 28 1 27 2 26 3 24 4 25 5 13 7 12 8 10 9 11 10 9 12 8 13 7 14
REMARK SMILES IDX 1 15 2 16 3 17 4 18 6 19 5 20 14 21 15 22 16 23 23 24 17 25
REMARK SMILES IDX 18 26 22 27 19 29 21 30 20 31 29 32 30 33 31 34 32 35 33 37
REMARK SMILES IDX 34 38 35 39 96 40 36 41 95 42 37 43 38 44 39 45 89 46 40 47
REMARK SMILES IDX 94 48 88 49 90 50 41 51 93 52 87 53 86 54 42 56 74 57 54 58
REMARK SMILES IDX 73 59 55 60 58 61 72 62 91 63 56 64 57 65 71 67 92 68 59 69
REMARK SMILES IDX 43 70 44 71 52 72 45 73 47 74 53 75 46 76 48 77 49 78 50 79
REMARK SMILES IDX 51 80 75 81 76 82 84 83 77 84 79 85 85 86 78 87 80 88 81 89
REMARK SMILES IDX 82 90 83 91 60 92 61 93 69 94 62 95 64 96 70 97 63 98 65 99
REMARK SMILES IDX 66 100 67 101 68 102
REMARK H PARENT 26 6 12 11 17 28 31 36 90 55 58 66
REMARK Flexibility Score: inf
ROOT
ATOM      1  C   UNL A   1      31.530  31.034  26.127  1.00  0.00     0.023 C 
ENDROOT
BRANCH   1   2
ATOM      2  C   UNL A   1      32.037  29.919  25.210  1.00  0.00     0.116 C 
BRANCH   2   3
ATOM      3  N   UNL A   1      31.132  29.545  24.135  1.00  0.00    -0.354 N 
ATOM      4  C   UNL A   1      30.826  28.322  23.598  1.00  0.00     0.242 C 
ATOM      5  O   UNL A   1      29.768  28.244  22.961  1.00  0.00    -0.273 OA
ATOM      6  H   UNL A   1      30.657  30.302  23.721  1.00  0.00     0.163 HD
BRANCH   4   7
ATOM      7  C   UNL A   1      31.693  27.048  23.787  1.00  0.00     0.175 C 
BRANCH   7   8
ATOM      8  N   UNL A   1      32.736  26.975  22.761  1.00  0.00    -0.341 N 
ATOM      9  C   UNL A   1      33.021  25.878  22.005  1.00  0.00     0.258 C 
ATOM     10  O   UNL A   1      33.335  26.026  20.822  1.00  0.00    -0.271 OA
ATOM     11  H   UNL A   1      33.273  27.785  22.606  1.00  0.00     0.164 HD
BRANCH   9  12
ATOM     12  C   UNL A   1      32.969  24.496  22.658  1.00  0.00     0.329 C 
BRANCH  12  13
ATOM     13  O   UNL A   1      33.920  23.531  22.249  1.00  0.00    -0.484 OA
BRANCH  13  14
ATOM     14  C   UNL A   1      34.496  22.645  23.113  1.00  0.00     0.122 A 
ATOM     15  C   UNL A   1      32.487  21.191  23.905  1.00  0.00     0.048 C 
ATOM     16  C   UNL A   1      33.929  21.606  23.869  1.00  0.00    -0.009 A 
ATOM     17  C   UNL A   1      34.784  20.821  24.681  1.00  0.00     0.007 A 
ATOM     18  C   UNL A   1      36.148  21.083  24.788  1.00  0.00     0.001 A 
ATOM     19  C   UNL A   1      35.874  22.901  23.245  1.00  0.00     0.047 A 
ATOM     20  C   UNL A   1      36.695  22.133  24.072  1.00  0.00     0.004 A 
ENDBRANCH  13  14
ENDBRANCH  12  13
ENDBRANCH   9  12
ENDBRANCH   7   8
BRANCH   7  21
ATOM     21  C   UNL A   1      32.163  26.800  25.233  1.00  0.00     0.072 C 
BRANCH  21  22
ATOM     22  C   UNL A   1      31.809  25.464  25.796  1.00  0.00    -0.020 A 
ATOM     23  C   UNL A   1      30.533  24.969  25.980  1.00  0.00     0.087 A 
ATOM     24  C   UNL A   1      32.717  24.479  26.298  1.00  0.00     0.003 A 
ATOM     25  N   UNL A   1      30.621  23.793  26.682  1.00  0.00    -0.361 N 
ATOM     26  C   UNL A   1      31.945  23.515  26.946  1.00  0.00     0.046 A 
ATOM     27  C   UNL A   1      34.122  24.359  26.337  1.00  0.00     0.010 A 
ATOM     28  H   UNL A   1      29.858  23.234  26.953  1.00  0.00     0.166 HD
ATOM     29  C   UNL A   1      32.517  22.500  27.716  1.00  0.00     0.026 A 
ATOM     30  C   UNL A   1      34.703  23.300  27.043  1.00  0.00     0.001 A 
ATOM     31  C   UNL A   1      33.909  22.398  27.744  1.00  0.00     0.002 A 
ENDBRANCH  21  22
ENDBRANCH   7  21
ENDBRANCH   4   7
ENDBRANCH   2   3
ENDBRANCH   1   2
BRANCH   1  32
ATOM     32  C   UNL A   1      32.441  31.448  27.293  1.00  0.00     0.023 C 
BRANCH  32  33
ATOM     33  C   UNL A   1      33.817  30.808  27.275  1.00  0.00     0.116 C 
BRANCH  33  34
ATOM     34  N   UNL A   1      34.887  31.785  27.433  1.00  0.00    -0.352 N 
ATOM     35  C   UNL A   1      36.074  31.682  28.121  1.00  0.00     0.251 C 
ATOM     36  H   UNL A   1      34.738  32.648  26.981  1.00  0.00     0.163 HD
ATOM     37  O   UNL A   1      36.582  32.724  28.554  1.00  0.00    -0.269 OA
BRANCH  35  38
ATOM     38  C   UNL A   1      36.793  30.398  28.227  1.00  0.00     0.039 A 
ATOM     39  C   UNL A   1      36.701  29.617  29.389  1.00  0.00     0.014 A 
ATOM     40  C   UNL A   1      37.779  30.112  27.290  1.00  0.00     0.014 A 
ATOM     41  C   UNL A   1      37.730  28.726  29.690  1.00  0.00     0.010 A 
ATOM     42  C   UNL A   1      38.651  29.090  27.473  1.00  0.00     0.010 A 
ATOM     43  C   UNL A   1      38.748  28.586  28.761  1.00  0.00    -0.014 A 
BRANCH  43  44
ATOM     44  C   UNL A   1      40.092  28.110  29.011  1.00  0.00     0.031 A 
ATOM     45  C   UNL A   1      40.353  26.685  28.849  1.00  0.00     0.074 A 
ATOM     46  C   UNL A   1      41.028  29.084  28.883  1.00  0.00     0.049 A 
ATOM     47  N   UNL A   1      41.470  26.118  29.120  1.00  0.00    -0.248 NA
ATOM     48  C   UNL A   1      39.327  25.773  28.360  1.00  0.00     0.031 C 
ATOM     49  C   UNL A   1      42.384  28.993  28.367  1.00  0.00     0.029 A 
ATOM     50  N   UNL A   1      40.903  30.437  29.258  1.00  0.00    -0.354 N 
ATOM     51  C   UNL A   1      41.417  24.858  28.563  1.00  0.00     0.074 A 
ATOM     52  C   UNL A   1      40.029  24.645  28.234  1.00  0.00     0.031 C 
ATOM     53  C   UNL A   1      43.045  30.119  28.701  1.00  0.00     0.029 A 
ATOM     54  C   UNL A   1      42.189  30.850  29.628  1.00  0.00     0.049 A 
ATOM     55  H   UNL A   1      40.081  30.979  29.258  1.00  0.00     0.167 HD
ATOM     56  C   UNL A   1      42.591  24.234  28.269  1.00  0.00     0.034 A 
ATOM     57  C   UNL A   1      42.512  31.145  30.925  1.00  0.00     0.034 A 
ATOM     58  C   UNL A   1      43.722  25.090  28.677  1.00  0.00     0.049 A 
ATOM     59  C   UNL A   1      43.546  30.181  31.477  1.00  0.00     0.074 A 
ATOM     60  C   UNL A   1      44.500  25.993  27.969  1.00  0.00     0.029 A 
ATOM     61  N   UNL A   1      43.927  25.371  30.025  1.00  0.00    -0.354 N 
ATOM     62  N   UNL A   1      43.855  29.041  30.924  1.00  0.00    -0.248 NA
ATOM     63  C   UNL A   1      44.297  30.425  32.702  1.00  0.00     0.031 C 
ATOM     64  C   UNL A   1      45.095  26.884  28.904  1.00  0.00     0.029 A 
ATOM     65  C   UNL A   1      44.712  26.507  30.181  1.00  0.00     0.049 A 
ATOM     66  H   UNL A   1      43.565  24.837  30.768  1.00  0.00     0.167 HD
ATOM     67  C   UNL A   1      44.699  28.343  31.739  1.00  0.00     0.074 A 
ATOM     68  C   UNL A   1      45.008  29.289  32.802  1.00  0.00     0.031 C 
ATOM     69  C   UNL A   1      45.015  27.030  31.512  1.00  0.00     0.034 A 
BRANCH  56  70
ATOM     70  C   UNL A   1      42.757  23.043  27.331  1.00  0.00     0.023 A 
ATOM     71  C   UNL A   1      41.936  21.920  27.585  1.00  0.00     0.012 A 
ATOM     72  C   UNL A   1      43.667  22.905  26.255  1.00  0.00     0.148 A 
ATOM     73  C   UNL A   1      42.061  20.716  26.882  1.00  0.00     0.002 A 
ATOM     74  C   UNL A   1      43.826  21.687  25.580  1.00  0.00     0.091 A 
ATOM     75  F   UNL A   1      44.341  23.962  25.805  1.00  0.00    -0.205 F 
ATOM     76  C   UNL A   1      43.025  20.589  25.896  1.00  0.00     0.022 A 
BRANCH  74  77
ATOM     77  S   UNL A   1      45.081  21.431  24.308  1.00  0.00     0.127 S 
ATOM     78  O   UNL A   1      46.246  22.105  24.885  1.00  0.00    -0.237 OA
ATOM     79  O   UNL A   1      45.185  19.974  24.261  1.00  0.00    -0.237 OA
ATOM     80  O   UNL A   1      44.571  22.060  23.096  1.00  0.00    -0.744 OA
ENDBRANCH  74  77
ENDBRANCH  56  70
BRANCH  57  81
ATOM     81  C   UNL A   1      41.361  31.681  31.724  1.00  0.00     0.023 A 
ATOM     82  C   UNL A   1      40.857  32.951  31.368  1.00  0.00     0.012 A 
ATOM     83  C   UNL A   1      40.535  30.809  32.459  1.00  0.00     0.148 A 
ATOM     84  C   UNL A   1      39.512  33.272  31.587  1.00  0.00     0.002 A 
ATOM     85  C   UNL A   1      39.191  31.129  32.651  1.00  0.00     0.091 A 
ATOM     86  F   UNL A   1      41.046  29.642  32.869  1.00  0.00    -0.205 F 
ATOM     87  C   UNL A   1      38.666  32.336  32.172  1.00  0.00     0.022 A 
BRANCH  85  88
ATOM     88  S   UNL A   1      38.051  29.955  33.397  1.00  0.00     0.127 S 
ATOM     89  O   UNL A   1      38.613  28.682  32.951  1.00  0.00    -0.237 OA
ATOM     90  O   UNL A   1      38.203  30.223  34.829  1.00  0.00    -0.237 OA
ATOM     91  O   UNL A   1      36.750  30.314  32.865  1.00  0.00    -0.744 OA
ENDBRANCH  85  88
ENDBRANCH  57  81
BRANCH  69  92
ATOM     92  C   UNL A   1      45.650  26.124  32.549  1.00  0.00     0.023 A 
ATOM     93  C   UNL A   1      47.048  25.984  32.658  1.00  0.00     0.012 A 
ATOM     94  C   UNL A   1      44.870  25.494  33.552  1.00  0.00     0.148 A 
ATOM     95  C   UNL A   1      47.641  25.184  33.639  1.00  0.00     0.002 A 
ATOM     96  C   UNL A   1      45.471  24.808  34.602  1.00  0.00     0.091 A 
ATOM     97  F   UNL A   1      43.531  25.541  33.487  1.00  0.00    -0.205 F 
ATOM     98  C   UNL A   1      46.853  24.611  34.624  1.00  0.00     0.022 A 
BRANCH  96  99
ATOM     99  S   UNL A   1      44.527  24.286  36.040  1.00  0.00     0.127 S 
ATOM    100  O   UNL A   1      43.817  25.513  36.394  1.00  0.00    -0.237 OA
ATOM    101  O   UNL A   1      43.677  23.229  35.488  1.00  0.00    -0.237 OA
ATOM    102  O   UNL A   1      45.516  23.816  37.000  1.00  0.00    -0.744 OA
ENDBRANCH  96  99
ENDBRANCH  69  92
ENDBRANCH  43  44
ENDBRANCH  35  38
ENDBRANCH  33  34
ENDBRANCH  32  33
ENDBRANCH   1  32
TORSDOF 20
ENDMDL
MODEL 2
REMARK VINA RESULT:     -12.5      3.770      9.472
REMARK SMILES Cc1ccccc1OCC(=O)N[C@@H](Cc1c[nH]c2ccccc12)C(=O)NCCCCNC(=O)c1ccc(-c2c3nc(c(-c4cccc(S(=O)(=O)[O-])c4F)c4ccc([nH]4)c(-c4cccc(S(=O)(=O)[O-])c4F)c4nc(c(-c5cccc(S(=O)(=O)[O-])c5F)c5ccc2[nH]5)C=C4)C=C3)cc1
REMARK SMILES IDX 28 1 27 2 26 3 24 4 25 5 13 7 12 8 10 9 11 10 9 12 8 13 7 14
REMARK SMILES IDX 1 15 2 16 3 17 4 18 6 19 5 20 14 21 15 22 16 23 23 24 17 25
REMARK SMILES IDX 18 26 22 27 19 29 21 30 20 31 29 32 30 33 31 34 32 35 33 37
REMARK SMILES IDX 34 38 35 39 96 40 36 41 95 42 37 43 38 44 39 45 89 46 40 47
REMARK SMILES IDX 94 48 88 49 90 50 41 51 93 52 87 53 86 54 42 56 74 57 54 58
REMARK SMILES IDX 73 59 55 60 58 61 72 62 91 63 56 64 57 65 71 67 92 68 59 69
REMARK SMILES IDX 43 70 44 71 52 72 45 73 47 74 53 75 46 76 48 77 49 78 50 79
REMARK SMILES IDX 51 80 75 81 76 82 84 83 77 84 79 85 85 86 78 87 80 88 81 89
REMARK SMILES IDX 82 90 83 91 60 92 61 93 69 94 62 95 64 96 70 97 63 98 65 99
REMARK SMILES IDX 66 100 67 101 68 102
REMARK H PARENT 26 6 12 11 17 28 31 36 90 55 58 66
REMARK Flexibility Score: inf
ROOT
ATOM      1  C   UNL A   1      36.409  20.841  24.714  1.00  0.00     0.023 C 
ENDROOT
BRANCH   1   2
ATOM      2  C   UNL A   1      35.326  21.019  25.780  1.00  0.00     0.116 C 
BRANCH   2   3
ATOM      3  N   UNL A   1      34.133  20.209  25.587  1.00  0.00    -0.354 N 
ATOM      4  C   UNL A   1      32.853  20.558  25.246  1.00  0.00     0.242 C 
ATOM      5  O   UNL A   1      32.135  19.658  24.791  1.00  0.00    -0.273 OA
ATOM      6  H   UNL A   1      34.269  19.244  25.728  1.00  0.00     0.163 HD
BRANCH   4   7
ATOM      7  C   UNL A   1      32.286  22.000  25.350  1.00  0.00     0.175 C 
BRANCH   7   8
ATOM      8  N   UNL A   1      31.529  22.169  26.592  1.00  0.00    -0.341 N 
ATOM      9  C   UNL A   1      30.795  23.269  26.923  1.00  0.00     0.258 C 
ATOM     10  O   UNL A   1      29.729  23.124  27.524  1.00  0.00    -0.271 OA
ATOM     11  H   UNL A   1      31.552  21.428  27.239  1.00  0.00     0.164 HD
BRANCH   9  12
ATOM     12  C   UNL A   1      31.334  24.654  26.559  1.00  0.00     0.329 C 
BRANCH  12  13
ATOM     13  O   UNL A   1      30.438  25.748  26.606  1.00  0.00    -0.484 OA
BRANCH  13  14
ATOM     14  C   UNL A   1      30.726  26.966  26.057  1.00  0.00     0.122 A 
ATOM     15  C   UNL A   1      29.748  26.785  23.652  1.00  0.00     0.048 C 
ATOM     16  C   UNL A   1      30.458  27.479  24.779  1.00  0.00    -0.009 A 
ATOM     17  C   UNL A   1      30.864  28.804  24.487  1.00  0.00     0.007 A 
ATOM     18  C   UNL A   1      31.559  29.584  25.406  1.00  0.00     0.001 A 
ATOM     19  C   UNL A   1      31.441  27.767  26.969  1.00  0.00     0.047 A 
ATOM     20  C   UNL A   1      31.856  29.061  26.653  1.00  0.00     0.004 A 
ENDBRANCH  13  14
ENDBRANCH  12  13
ENDBRANCH   9  12
ENDBRANCH   7   8
BRANCH   7  21
ATOM     21  C   UNL A   1      33.303  23.113  25.032  1.00  0.00     0.072 C 
BRANCH  21  22
ATOM     22  C   UNL A   1      32.968  23.962  23.853  1.00  0.00    -0.020 A 
ATOM     23  C   UNL A   1      32.336  23.542  22.698  1.00  0.00     0.087 A 
ATOM     24  C   UNL A   1      33.285  25.346  23.676  1.00  0.00     0.003 A 
ATOM     25  N   UNL A   1      32.371  24.567  21.787  1.00  0.00    -0.361 N 
ATOM     26  C   UNL A   1      33.011  25.653  22.343  1.00  0.00     0.046 A 
ATOM     27  C   UNL A   1      33.858  26.340  24.495  1.00  0.00     0.010 A 
ATOM     28  H   UNL A   1      31.996  24.532  20.878  1.00  0.00     0.166 HD
ATOM     29  C   UNL A   1      33.378  26.873  21.772  1.00  0.00     0.026 A 
ATOM     30  C   UNL A   1      34.160  27.593  23.950  1.00  0.00     0.001 A 
ATOM     31  C   UNL A   1      33.946  27.845  22.599  1.00  0.00     0.002 A 
ENDBRANCH  21  22
ENDBRANCH   7  21
ENDBRANCH   4   7
ENDBRANCH   2   3
ENDBRANCH   1   2
BRANCH   1  32
ATOM     32  C   UNL A   1      37.869  20.843  25.194  1.00  0.00     0.023 C 
BRANCH  32  33
ATOM     33  C   UNL A   1      38.378  22.197  25.655  1.00  0.00     0.116 C 
BRANCH  33  34
ATOM     34  N   UNL A   1      39.450  22.083  26.636  1.00  0.00    -0.352 N 
ATOM     35  C   UNL A   1      40.374  23.020  27.038  1.00  0.00     0.251 C 
ATOM     36  H   UNL A   1      39.525  21.204  27.076  1.00  0.00     0.163 HD
ATOM     37  O   UNL A   1      41.462  22.612  27.464  1.00  0.00    -0.269 OA
BRANCH  35  38
ATOM     38  C   UNL A   1      40.039  24.456  27.092  1.00  0.00     0.039 A 
ATOM     39  C   UNL A   1      40.624  25.364  26.196  1.00  0.00     0.014 A 
ATOM     40  C   UNL A   1      39.368  24.937  28.210  1.00  0.00     0.014 A 
ATOM     41  C   UNL A   1      40.721  26.706  26.559  1.00  0.00     0.010 A 
ATOM     42  C   UNL A   1      39.263  26.268  28.450  1.00  0.00     0.010 A 
ATOM     43  C   UNL A   1      40.134  27.091  27.753  1.00  0.00    -0.014 A 
BRANCH  43  44
ATOM     44  C   UNL A   1      40.464  28.255  28.547  1.00  0.00     0.031 A 
ATOM     45  C   UNL A   1      39.516  29.363  28.563  1.00  0.00     0.074 A 
ATOM     46  C   UNL A   1      41.345  27.980  29.542  1.00  0.00     0.049 A 
ATOM     47  N   UNL A   1      39.722  30.483  29.151  1.00  0.00    -0.248 NA
ATOM     48  C   UNL A   1      38.231  29.276  27.882  1.00  0.00     0.031 C 
ATOM     49  C   UNL A   1      41.418  28.536  30.883  1.00  0.00     0.029 A 
ATOM     50  N   UNL A   1      42.436  27.090  29.490  1.00  0.00    -0.354 N 
ATOM     51  C   UNL A   1      38.506  31.133  29.194  1.00  0.00     0.074 A 
ATOM     52  C   UNL A   1      37.657  30.414  28.276  1.00  0.00     0.031 C 
ATOM     53  C   UNL A   1      42.610  28.208  31.418  1.00  0.00     0.029 A 
ATOM     54  C   UNL A   1      43.407  27.627  30.344  1.00  0.00     0.049 A 
ATOM     55  H   UNL A   1      42.500  26.261  28.962  1.00  0.00     0.167 HD
ATOM     56  C   UNL A   1      38.315  32.079  30.155  1.00  0.00     0.034 A 
ATOM     57  C   UNL A   1      44.582  28.146  29.872  1.00  0.00     0.034 A 
ATOM     58  C   UNL A   1      39.547  32.227  30.955  1.00  0.00     0.049 A 
ATOM     59  C   UNL A   1      44.687  29.635  30.148  1.00  0.00     0.074 A 
ATOM     60  C   UNL A   1      39.938  31.668  32.163  1.00  0.00     0.029 A 
ATOM     61  N   UNL A   1      40.706  32.716  30.358  1.00  0.00    -0.354 N 
ATOM     62  N   UNL A   1      43.680  30.389  30.492  1.00  0.00    -0.248 NA
ATOM     63  C   UNL A   1      45.932  30.384  30.040  1.00  0.00     0.031 C 
ATOM     64  C   UNL A   1      41.356  31.737  32.238  1.00  0.00     0.029 A 
ATOM     65  C   UNL A   1      41.829  32.368  31.098  1.00  0.00     0.049 A 
ATOM     66  H   UNL A   1      40.727  33.238  29.525  1.00  0.00     0.167 HD
ATOM     67  C   UNL A   1      44.068  31.698  30.517  1.00  0.00     0.074 A 
ATOM     68  C   UNL A   1      45.507  31.632  30.304  1.00  0.00     0.031 C 
ATOM     69  C   UNL A   1      43.170  32.725  30.636  1.00  0.00     0.034 A 
BRANCH  56  70
ATOM     70  C   UNL A   1      36.968  32.627  30.610  1.00  0.00     0.023 A 
ATOM     71  C   UNL A   1      36.528  32.236  31.896  1.00  0.00     0.012 A 
ATOM     72  C   UNL A   1      36.075  33.452  29.883  1.00  0.00     0.148 A 
ATOM     73  C   UNL A   1      35.264  32.565  32.397  1.00  0.00     0.002 A 
ATOM     74  C   UNL A   1      34.791  33.744  30.363  1.00  0.00     0.091 A 
ATOM     75  F   UNL A   1      36.470  34.038  28.754  1.00  0.00    -0.205 F 
ATOM     76  C   UNL A   1      34.382  33.298  31.620  1.00  0.00     0.022 A 
BRANCH  74  77
ATOM     77  S   UNL A   1      33.573  34.664  29.398  1.00  0.00     0.127 S 
ATOM     78  O   UNL A   1      34.346  35.826  28.954  1.00  0.00    -0.237 OA
ATOM     79  O   UNL A   1      33.239  33.717  28.335  1.00  0.00    -0.237 OA
ATOM     80  O   UNL A   1      32.485  34.987  30.311  1.00  0.00    -0.744 OA
ENDBRANCH  74  77
ENDBRANCH  56  70
BRANCH  57  81
ATOM     81  C   UNL A   1      45.062  27.496  28.608  1.00  0.00     0.023 A 
ATOM     82  C   UNL A   1      44.611  28.036  27.385  1.00  0.00     0.012 A 
ATOM     83  C   UNL A   1      46.235  26.716  28.609  1.00  0.00     0.148 A 
ATOM     84  C   UNL A   1      45.397  27.948  26.231  1.00  0.00     0.002 A 
ATOM     85  C   UNL A   1      47.024  26.654  27.459  1.00  0.00     0.091 A 
ATOM     86  F   UNL A   1      46.613  26.133  29.753  1.00  0.00    -0.205 F 
ATOM     87  C   UNL A   1      46.632  27.311  26.286  1.00  0.00     0.022 A 
BRANCH  85  88
ATOM     88  S   UNL A   1      48.631  25.847  27.474  1.00  0.00     0.127 S 
ATOM     89  O   UNL A   1      49.150  26.214  26.158  1.00  0.00    -0.237 OA
ATOM     90  O   UNL A   1      49.307  26.494  28.600  1.00  0.00    -0.237 OA
ATOM     91  O   UNL A   1      48.338  24.443  27.689  1.00  0.00    -0.744 OA
ENDBRANCH  85  88
ENDBRANCH  57  81
BRANCH  69  92
ATOM     92  C   UNL A   1      43.496  34.172  30.323  1.00  0.00     0.023 A 
ATOM     93  C   UNL A   1      43.977  35.055  31.309  1.00  0.00     0.012 A 
ATOM     94  C   UNL A   1      43.475  34.659  28.991  1.00  0.00     0.148 A 
ATOM     95  C   UNL A   1      44.321  36.379  31.018  1.00  0.00     0.002 A 
ATOM     96  C   UNL A   1      43.942  35.934  28.687  1.00  0.00     0.091 A 
ATOM     97  F   UNL A   1      42.984  33.893  28.006  1.00  0.00    -0.205 F 
ATOM     98  C   UNL A   1      44.322  36.813  29.702  1.00  0.00     0.022 A 
BRANCH  96  99
ATOM     99  S   UNL A   1      44.222  36.445  26.986  1.00  0.00     0.127 S 
ATOM    100  O   UNL A   1      45.000  35.325  26.461  1.00  0.00    -0.237 OA
ATOM    101  O   UNL A   1      42.859  36.540  26.461  1.00  0.00    -0.237 OA
ATOM    102  O   UNL A   1      44.916  37.722  27.079  1.00  0.00    -0.744 OA
ENDBRANCH  96  99
ENDBRANCH  69  92
ENDBRANCH  43  44
ENDBRANCH  35  38
ENDBRANCH  33  34
ENDBRANCH  32  33
ENDBRANCH   1  32
TORSDOF 20
ENDMDL
MODEL 3
REMARK VINA RESULT:     -12.4      1.659      2.008
REMARK SMILES Cc1ccccc1OCC(=O)N[C@@H](Cc1c[nH]c2ccccc12)C(=O)NCCCCNC(=O)c1ccc(-c2c3nc(c(-c4cccc(S(=O)(=O)[O-])c4F)c4ccc([nH]4)c(-c4cccc(S(=O)(=O)[O-])c4F)c4nc(c(-c5cccc(S(=O)(=O)[O-])c5F)c5ccc2[nH]5)C=C4)C=C3)cc1
REMARK SMILES IDX 28 1 27 2 26 3 24 4 25 5 13 7 12 8 10 9 11 10 9 12 8 13 7 14
REMARK SMILES IDX 1 15 2 16 3 17 4 18 6 19 5 20 14 21 15 22 16 23 23 24 17 25
REMARK SMILES IDX 18 26 22 27 19 29 21 30 20 31 29 32 30 33 31 34 32 35 33 37
REMARK SMILES IDX 34 38 35 39 96 40 36 41 95 42 37 43 38 44 39 45 89 46 40 47
REMARK SMILES IDX 94 48 88 49 90 50 41 51 93 52 87 53 86 54 42 56 74 57 54 58
REMARK SMILES IDX 73 59 55 60 58 61 72 62 91 63 56 64 57 65 71 67 92 68 59 69
REMARK SMILES IDX 43 70 44 71 52 72 45 73 47 74 53 75 46 76 48 77 49 78 50 79
REMARK SMILES IDX 51 80 75 81 76 82 84 83 77 84 79 85 85 86 78 87 80 88 81 89
REMARK SMILES IDX 82 90 83 91 60 92 61 93 69 94 62 95 64 96 70 97 63 98 65 99
REMARK SMILES IDX 66 100 67 101 68 102
REMARK H PARENT 26 6 12 11 17 28 31 36 90 55 58 66
REMARK Flexibility Score: inf
ROOT
ATOM      1  C   UNL A   1      31.389  31.105  25.938  1.00  0.00     0.023 C 
ENDROOT
BRANCH   1   2
ATOM      2  C   UNL A   1      31.783  29.822  25.202  1.00  0.00     0.116 C 
BRANCH   2   3
ATOM      3  N   UNL A   1      31.031  29.553  23.986  1.00  0.00    -0.354 N 
ATOM      4  C   UNL A   1      30.808  28.387  23.304  1.00  0.00     0.242 C 
ATOM      5  O   UNL A   1      29.844  28.372  22.528  1.00  0.00    -0.273 OA
ATOM      6  H   UNL A   1      30.609  30.347  23.585  1.00  0.00     0.163 HD
BRANCH   4   7
ATOM      7  C   UNL A   1      31.652  27.096  23.487  1.00  0.00     0.175 C 
BRANCH   7   8
ATOM      8  N   UNL A   1      32.667  26.989  22.438  1.00  0.00    -0.341 N 
ATOM      9  C   UNL A   1      32.970  25.852  21.748  1.00  0.00     0.258 C 
ATOM     10  O   UNL A   1      33.245  25.930  20.550  1.00  0.00    -0.271 OA
ATOM     11  H   UNL A   1      33.171  27.804  22.212  1.00  0.00     0.164 HD
BRANCH   9  12
ATOM     12  C   UNL A   1      32.985  24.517  22.494  1.00  0.00     0.329 C 
BRANCH  12  13
ATOM     13  O   UNL A   1      34.069  23.638  22.261  1.00  0.00    -0.484 OA
BRANCH  13  14
ATOM     14  C   UNL A   1      34.436  22.663  23.145  1.00  0.00     0.122 A 
ATOM     15  C   UNL A   1      32.189  21.462  23.677  1.00  0.00     0.048 C 
ATOM     16  C   UNL A   1      33.668  21.687  23.800  1.00  0.00    -0.009 A 
ATOM     17  C   UNL A   1      34.329  20.779  24.663  1.00  0.00     0.007 A 
ATOM     18  C   UNL A   1      35.696  20.860  24.915  1.00  0.00     0.001 A 
ATOM     19  C   UNL A   1      35.814  22.736  23.423  1.00  0.00     0.047 A 
ATOM     20  C   UNL A   1      36.442  21.848  24.297  1.00  0.00     0.004 A 
ENDBRANCH  13  14
ENDBRANCH  12  13
ENDBRANCH   9  12
ENDBRANCH   7   8
BRANCH   7  21
ATOM     21  C   UNL A   1      32.152  26.856  24.925  1.00  0.00     0.072 C 
BRANCH  21  22
ATOM     22  C   UNL A   1      31.705  25.576  25.548  1.00  0.00    -0.020 A 
ATOM     23  C   UNL A   1      30.396  25.161  25.710  1.00  0.00     0.087 A 
ATOM     24  C   UNL A   1      32.537  24.575  26.140  1.00  0.00     0.003 A 
ATOM     25  N   UNL A   1      30.394  24.026  26.479  1.00  0.00    -0.361 N 
ATOM     26  C   UNL A   1      31.689  23.693  26.811  1.00  0.00     0.046 A 
ATOM     27  C   UNL A   1      33.931  24.383  26.242  1.00  0.00     0.010 A 
ATOM     28  H   UNL A   1      29.591  23.525  26.750  1.00  0.00     0.166 HD
ATOM     29  C   UNL A   1      32.176  22.695  27.658  1.00  0.00     0.026 A 
ATOM     30  C   UNL A   1      34.426  23.337  27.028  1.00  0.00     0.001 A 
ATOM     31  C   UNL A   1      33.558  22.521  27.747  1.00  0.00     0.002 A 
ENDBRANCH  21  22
ENDBRANCH   7  21
ENDBRANCH   4   7
ENDBRANCH   2   3
ENDBRANCH   1   2
BRANCH   1  32
ATOM     32  C   UNL A   1      32.164  31.439  27.222  1.00  0.00     0.023 C 
BRANCH  32  33
ATOM     33  C   UNL A   1      33.598  30.940  27.240  1.00  0.00     0.116 C 
BRANCH  33  34
ATOM     34  N   UNL A   1      34.530  31.947  27.732  1.00  0.00    -0.352 N 
ATOM     35  C   UNL A   1      35.559  31.822  28.636  1.00  0.00     0.251 C 
ATOM     36  H   UNL A   1      34.405  32.851  27.361  1.00  0.00     0.163 HD
ATOM     37  O   UNL A   1      35.883  32.826  29.284  1.00  0.00    -0.269 OA
BRANCH  35  38
ATOM     38  C   UNL A   1      36.344  30.577  28.741  1.00  0.00     0.039 A 
ATOM     39  C   UNL A   1      36.325  29.812  29.918  1.00  0.00     0.014 A 
ATOM     40  C   UNL A   1      37.317  30.326  27.780  1.00  0.00     0.014 A 
ATOM     41  C   UNL A   1      37.407  28.980  30.202  1.00  0.00     0.010 A 
ATOM     42  C   UNL A   1      38.244  29.352  27.954  1.00  0.00     0.010 A 
ATOM     43  C   UNL A   1      38.403  28.875  29.246  1.00  0.00    -0.014 A 
BRANCH  43  44
ATOM     44  C   UNL A   1      39.776  28.471  29.463  1.00  0.00     0.031 A 
ATOM     45  C   UNL A   1      40.144  27.098  29.137  1.00  0.00     0.074 A 
ATOM     46  C   UNL A   1      40.638  29.519  29.470  1.00  0.00     0.049 A 
ATOM     47  N   UNL A   1      41.297  26.586  29.360  1.00  0.00    -0.248 NA
ATOM     48  C   UNL A   1      39.194  26.180  28.523  1.00  0.00     0.031 C 
ATOM     49  C   UNL A   1      42.002  29.589  28.973  1.00  0.00     0.029 A 
ATOM     50  N   UNL A   1      40.410  30.804  30.001  1.00  0.00    -0.354 N 
ATOM     51  C   UNL A   1      41.344  25.401  28.656  1.00  0.00     0.074 A 
ATOM     52  C   UNL A   1      39.979  25.129  28.277  1.00  0.00     0.031 C 
ATOM     53  C   UNL A   1      42.575  30.711  29.452  1.00  0.00     0.029 A 
ATOM     54  C   UNL A   1      41.657  31.261  30.443  1.00  0.00     0.049 A 
ATOM     55  H   UNL A   1      39.549  31.281  30.050  1.00  0.00     0.167 HD
ATOM     56  C   UNL A   1      42.564  24.903  28.313  1.00  0.00     0.034 A 
ATOM     57  C   UNL A   1      41.943  31.420  31.772  1.00  0.00     0.034 A 
ATOM     58  C   UNL A   1      43.624  25.784  28.841  1.00  0.00     0.049 A 
ATOM     59  C   UNL A   1      43.041  30.475  32.225  1.00  0.00     0.074 A 
ATOM     60  C   UNL A   1      44.340  26.820  28.262  1.00  0.00     0.029 A 
ATOM     61  N   UNL A   1      43.793  25.915  30.218  1.00  0.00    -0.354 N 
ATOM     62  N   UNL A   1      43.439  29.435  31.546  1.00  0.00    -0.248 NA
ATOM     63  C   UNL A   1      43.758  30.624  33.485  1.00  0.00     0.031 C 
ATOM     64  C   UNL A   1      44.857  27.633  29.307  1.00  0.00     0.029 A 
ATOM     65  C   UNL A   1      44.490  27.078  30.523  1.00  0.00     0.049 A 
ATOM     66  H   UNL A   1      43.464  25.271  30.885  1.00  0.00     0.167 HD
ATOM     67  C   UNL A   1      44.324  28.707  32.288  1.00  0.00     0.074 A 
ATOM     68  C   UNL A   1      44.551  29.538  33.462  1.00  0.00     0.031 C 
ATOM     69  C   UNL A   1      44.739  27.457  31.913  1.00  0.00     0.034 A 
BRANCH  56  70
ATOM     70  C   UNL A   1      42.828  23.850  27.243  1.00  0.00     0.023 A 
ATOM     71  C   UNL A   1      43.453  24.297  26.056  1.00  0.00     0.012 A 
ATOM     72  C   UNL A   1      42.483  22.476  27.272  1.00  0.00     0.148 A 
ATOM     73  C   UNL A   1      43.650  23.469  24.945  1.00  0.00     0.002 A 
ATOM     74  C   UNL A   1      42.637  21.657  26.147  1.00  0.00     0.091 A 
ATOM     75  F   UNL A   1      42.076  21.910  28.408  1.00  0.00    -0.205 F 
ATOM     76  C   UNL A   1      43.217  22.154  24.979  1.00  0.00     0.022 A 
BRANCH  74  77
ATOM     77  S   UNL A   1      42.069  19.944  26.100  1.00  0.00     0.127 S 
ATOM     78  O   UNL A   1      42.531  19.431  27.392  1.00  0.00    -0.237 OA
ATOM     79  O   UNL A   1      40.620  20.098  25.991  1.00  0.00    -0.237 OA
ATOM     80  O   UNL A   1      42.719  19.327  24.950  1.00  0.00    -0.744 OA
ENDBRANCH  74  77
ENDBRANCH  56  70
BRANCH  57  81
ATOM     81  C   UNL A   1      40.748  31.772  32.607  1.00  0.00     0.023 A 
ATOM     82  C   UNL A   1      39.940  30.711  33.069  1.00  0.00     0.012 A 
ATOM     83  C   UNL A   1      40.687  33.008  33.279  1.00  0.00     0.148 A 
ATOM     84  C   UNL A   1      39.227  30.825  34.267  1.00  0.00     0.002 A 
ATOM     85  C   UNL A   1      39.992  33.105  34.485  1.00  0.00     0.091 A 
ATOM     86  F   UNL A   1      41.387  34.037  32.787  1.00  0.00    -0.205 F 
ATOM     87  C   UNL A   1      39.304  32.000  35.006  1.00  0.00     0.022 A 
BRANCH  85  88
ATOM     88  S   UNL A   1      40.060  34.598  35.484  1.00  0.00     0.127 S 
ATOM     89  O   UNL A   1      39.208  35.501  34.713  1.00  0.00    -0.237 OA
ATOM     90  O   UNL A   1      39.491  34.160  36.760  1.00  0.00    -0.237 OA
ATOM     91  O   UNL A   1      41.470  34.935  35.551  1.00  0.00    -0.744 OA
ENDBRANCH  85  88
ENDBRANCH  57  81
BRANCH  69  92
ATOM     92  C   UNL A   1      45.429  26.482  32.846  1.00  0.00     0.023 A 
ATOM     93  C   UNL A   1      46.822  26.505  33.049  1.00  0.00     0.012 A 
ATOM     94  C   UNL A   1      44.683  25.601  33.671  1.00  0.00     0.148 A 
ATOM     95  C   UNL A   1      47.459  25.637  33.941  1.00  0.00     0.002 A 
ATOM     96  C   UNL A   1      45.308  24.834  34.648  1.00  0.00     0.091 A 
ATOM     97  F   UNL A   1      43.358  25.486  33.501  1.00  0.00    -0.205 F 
ATOM     98  C   UNL A   1      46.699  24.814  34.756  1.00  0.00     0.022 A 
BRANCH  96  99
ATOM     99  S   UNL A   1      44.358  23.966  35.904  1.00  0.00     0.127 S 
ATOM    100  O   UNL A   1      43.584  23.025  35.097  1.00  0.00    -0.237 OA
ATOM    101  O   UNL A   1      45.407  23.350  36.718  1.00  0.00    -0.237 OA
ATOM    102  O   UNL A   1      43.597  24.999  36.593  1.00  0.00    -0.744 OA
ENDBRANCH  96  99
ENDBRANCH  69  92
ENDBRANCH  43  44
ENDBRANCH  35  38
ENDBRANCH  33  34
ENDBRANCH  32  33
ENDBRANCH   1  32
TORSDOF 20
ENDMDL
