MODEL 1
REMARK VINA RESULT:     -11.7      0.000      0.000
REMARK SMILES C[C@@H](O)[C@@H](NC(=O)CSc1ccc(F)c(F)c1)C(=O)NCCCCNC(=O)c1ccc(-c2c3nc(c(-c4cccc(S(=O)(=O)[O-])c4F)c4ccc([nH]4)c(-c4cccc(S(=O)(=O)[O-])c4F)c4nc(c(-c5cccc(S(=O)(=O)[O-])c5F)c5ccc2[nH]5)C=C4)C=C3)cc1
REMARK SMILES IDX 22 1 21 2 20 3 18 4 19 5 4 7 2 8 1 9 3 10 5 12 6 13 7 15
REMARK SMILES IDX 8 16 9 17 10 18 11 19 17 20 12 21 15 22 13 23 16 24 14 25
REMARK SMILES IDX 23 26 24 27 25 28 26 29 27 31 28 32 29 33 90 34 30 35 89 36
REMARK SMILES IDX 31 37 32 38 33 39 83 40 34 41 88 42 82 43 84 44 35 45 87 46
REMARK SMILES IDX 81 47 80 48 36 50 68 51 48 52 67 53 49 54 52 55 66 56 85 57
REMARK SMILES IDX 50 58 51 59 65 61 86 62 53 63 37 64 38 65 46 66 39 67 41 68
REMARK SMILES IDX 47 69 40 70 42 71 43 72 44 73 45 74 69 75 70 76 78 77 71 78
REMARK SMILES IDX 73 79 79 80 72 81 74 82 75 83 76 84 77 85 54 86 55 87 63 88
REMARK SMILES IDX 56 89 58 90 64 91 57 92 59 93 60 94 61 95 62 96
REMARK H PARENT 20 6 3 11 5 14 25 30 84 49 52 60
REMARK Flexibility Score: inf
ROOT
ATOM      1  C   UNL A   1      32.083  27.863  27.312  1.00  0.00     0.023 C 
ENDROOT
BRANCH   1   2
ATOM      2  C   UNL A   1      32.269  26.492  26.679  1.00  0.00     0.116 C 
BRANCH   2   3
ATOM      3  N   UNL A   1      31.117  25.633  26.736  1.00  0.00    -0.354 N 
ATOM      4  C   UNL A   1      31.093  24.278  26.560  1.00  0.00     0.245 C 
ATOM      5  O   UNL A   1      30.083  23.676  26.935  1.00  0.00    -0.273 OA
ATOM      6  H   UNL A   1      30.254  26.068  26.922  1.00  0.00     0.163 HD
BRANCH   4   7
ATOM      7  C   UNL A   1      32.231  23.521  25.822  1.00  0.00     0.200 C 
BRANCH   7   8
ATOM      8  C   UNL A   1      32.693  22.326  26.721  1.00  0.00     0.143 C 
ATOM      9  C   UNL A   1      34.209  22.126  26.715  1.00  0.00     0.041 C 
BRANCH   8  10
ATOM     10  O   UNL A   1      32.348  22.511  28.094  1.00  0.00    -0.391 OA
ATOM     11  H   UNL A   1      32.277  23.460  28.285  1.00  0.00     0.211 HD
ENDBRANCH   8  10
ENDBRANCH   7   8
BRANCH   7  12
ATOM     12  N   UNL A   1      31.985  23.043  24.437  1.00  0.00    -0.341 N 
ATOM     13  C   UNL A   1      31.963  23.775  23.284  1.00  0.00     0.231 C 
ATOM     14  H   UNL A   1      31.817  22.077  24.338  1.00  0.00     0.164 HD
ATOM     15  O   UNL A   1      32.655  23.372  22.347  1.00  0.00    -0.274 OA
BRANCH  13  16
ATOM     16  C   UNL A   1      31.017  24.935  23.141  1.00  0.00     0.174 C 
BRANCH  16  17
ATOM     17  S   UNL A   1      31.868  26.564  23.039  1.00  0.00    -0.116 SA
BRANCH  17  18
ATOM     18  C   UNL A   1      30.599  27.830  22.995  1.00  0.00     0.011 A 
ATOM     19  C   UNL A   1      30.789  29.042  22.319  1.00  0.00     0.018 A 
ATOM     20  C   UNL A   1      29.309  27.510  23.426  1.00  0.00     0.057 A 
ATOM     21  C   UNL A   1      29.719  29.890  22.014  1.00  0.00     0.043 A 
ATOM     22  C   UNL A   1      28.244  28.365  23.141  1.00  0.00     0.159 A 
ATOM     23  C   UNL A   1      28.443  29.536  22.420  1.00  0.00     0.158 A 
ATOM     24  F   UNL A   1      27.009  28.029  23.538  1.00  0.00    -0.204 F 
ATOM     25  F   UNL A   1      27.407  30.323  22.098  1.00  0.00    -0.204 F 
ENDBRANCH  17  18
ENDBRANCH  16  17
ENDBRANCH  13  16
ENDBRANCH   7  12
ENDBRANCH   4   7
ENDBRANCH   2   3
ENDBRANCH   1   2
BRANCH   1  26
ATOM     26  C   UNL A   1      31.716  28.990  26.343  1.00  0.00     0.023 C 
BRANCH  26  27
ATOM     27  C   UNL A   1      32.781  30.065  26.112  1.00  0.00     0.116 C 
BRANCH  27  28
ATOM     28  N   UNL A   1      32.456  31.347  26.728  1.00  0.00    -0.352 N 
ATOM     29  C   UNL A   1      33.236  32.190  27.487  1.00  0.00     0.251 C 
ATOM     30  H   UNL A   1      31.533  31.657  26.577  1.00  0.00     0.163 HD
ATOM     31  O   UNL A   1      32.775  33.220  27.944  1.00  0.00    -0.269 OA
BRANCH  29  32
ATOM     32  C   UNL A   1      34.612  31.772  27.794  1.00  0.00     0.039 A 
ATOM     33  C   UNL A   1      35.621  32.740  27.778  1.00  0.00     0.014 A 
ATOM     34  C   UNL A   1      34.861  30.471  28.230  1.00  0.00     0.014 A 
ATOM     35  C   UNL A   1      36.869  32.432  28.316  1.00  0.00     0.010 A 
ATOM     36  C   UNL A   1      36.081  30.188  28.822  1.00  0.00     0.010 A 
ATOM     37  C   UNL A   1      37.081  31.174  28.898  1.00  0.00    -0.014 A 
BRANCH  37  38
ATOM     38  C   UNL A   1      38.311  30.843  29.653  1.00  0.00     0.031 A 
ATOM     39  C   UNL A   1      39.251  29.823  29.084  1.00  0.00     0.074 A 
ATOM     40  C   UNL A   1      38.454  31.305  30.910  1.00  0.00     0.049 A 
ATOM     41  N   UNL A   1      40.209  29.163  29.675  1.00  0.00    -0.248 NA
ATOM     42  C   UNL A   1      39.043  29.455  27.672  1.00  0.00     0.031 C 
ATOM     43  C   UNL A   1      37.550  32.249  31.577  1.00  0.00     0.029 A 
ATOM     44  N   UNL A   1      39.379  31.000  31.875  1.00  0.00    -0.354 N 
ATOM     45  C   UNL A   1      40.675  28.257  28.730  1.00  0.00     0.074 A 
ATOM     46  C   UNL A   1      39.882  28.440  27.535  1.00  0.00     0.031 C 
ATOM     47  C   UNL A   1      37.955  32.429  32.844  1.00  0.00     0.029 A 
ATOM     48  C   UNL A   1      39.119  31.588  33.093  1.00  0.00     0.049 A 
ATOM     49  H   UNL A   1      40.155  30.417  31.713  1.00  0.00     0.167 HD
ATOM     50  C   UNL A   1      41.687  27.366  28.849  1.00  0.00     0.034 A 
ATOM     51  C   UNL A   1      39.741  31.445  34.280  1.00  0.00     0.034 A 
ATOM     52  C   UNL A   1      42.497  27.248  30.030  1.00  0.00     0.049 A 
ATOM     53  C   UNL A   1      40.924  30.517  34.356  1.00  0.00     0.074 A 
ATOM     54  C   UNL A   1      43.593  26.433  30.249  1.00  0.00     0.029 A 
ATOM     55  N   UNL A   1      42.307  27.987  31.189  1.00  0.00    -0.354 N 
ATOM     56  N   UNL A   1      41.423  29.743  33.421  1.00  0.00    -0.248 NA
ATOM     57  C   UNL A   1      41.653  30.465  35.631  1.00  0.00     0.031 C 
ATOM     58  C   UNL A   1      44.071  26.688  31.538  1.00  0.00     0.029 A 
ATOM     59  C   UNL A   1      43.280  27.669  32.117  1.00  0.00     0.049 A 
ATOM     60  H   UNL A   1      41.586  28.643  31.329  1.00  0.00     0.167 HD
ATOM     61  C   UNL A   1      42.552  29.154  33.975  1.00  0.00     0.074 A 
ATOM     62  C   UNL A   1      42.666  29.663  35.328  1.00  0.00     0.031 C 
ATOM     63  C   UNL A   1      43.411  28.263  33.424  1.00  0.00     0.034 A 
BRANCH  50  64
ATOM     64  C   UNL A   1      42.009  26.508  27.654  1.00  0.00     0.023 A 
ATOM     65  C   UNL A   1      42.702  27.075  26.565  1.00  0.00     0.012 A 
ATOM     66  C   UNL A   1      41.660  25.144  27.615  1.00  0.00     0.148 A 
ATOM     67  C   UNL A   1      43.007  26.312  25.439  1.00  0.00     0.002 A 
ATOM     68  C   UNL A   1      42.008  24.377  26.508  1.00  0.00     0.091 A 
ATOM     69  F   UNL A   1      40.983  24.625  28.648  1.00  0.00    -0.205 F 
ATOM     70  C   UNL A   1      42.669  24.962  25.414  1.00  0.00     0.022 A 
BRANCH  68  71
ATOM     71  S   UNL A   1      41.687  22.612  26.408  1.00  0.00     0.127 S 
ATOM     72  O   UNL A   1      42.384  22.254  25.174  1.00  0.00    -0.237 OA
ATOM     73  O   UNL A   1      42.318  22.114  27.630  1.00  0.00    -0.237 OA
ATOM     74  O   UNL A   1      40.238  22.470  26.372  1.00  0.00    -0.744 OA
ENDBRANCH  68  71
ENDBRANCH  50  64
BRANCH  51  75
ATOM     75  C   UNL A   1      39.319  32.263  35.453  1.00  0.00     0.023 A 
ATOM     76  C   UNL A   1      38.475  31.680  36.418  1.00  0.00     0.012 A 
ATOM     77  C   UNL A   1      39.770  33.583  35.648  1.00  0.00     0.148 A 
ATOM     78  C   UNL A   1      38.063  32.403  37.538  1.00  0.00     0.002 A 
ATOM     79  C   UNL A   1      39.396  34.281  36.793  1.00  0.00     0.091 A 
ATOM     80  F   UNL A   1      40.565  34.129  34.717  1.00  0.00    -0.205 F 
ATOM     81  C   UNL A   1      38.530  33.699  37.731  1.00  0.00     0.022 A 
BRANCH  79  82
ATOM     82  S   UNL A   1      40.063  35.904  37.184  1.00  0.00     0.127 S 
ATOM     83  O   UNL A   1      41.484  35.614  37.345  1.00  0.00    -0.237 OA
ATOM     84  O   UNL A   1      39.723  36.674  35.985  1.00  0.00    -0.237 OA
ATOM     85  O   UNL A   1      39.355  36.333  38.383  1.00  0.00    -0.744 OA
ENDBRANCH  79  82
ENDBRANCH  51  75
BRANCH  63  86
ATOM     86  C   UNL A   1      44.593  27.832  34.245  1.00  0.00     0.023 A 
ATOM     87  C   UNL A   1      45.751  28.630  34.277  1.00  0.00     0.012 A 
ATOM     88  C   UNL A   1      44.500  26.698  35.075  1.00  0.00     0.148 A 
ATOM     89  C   UNL A   1      46.813  28.294  35.116  1.00  0.00     0.002 A 
ATOM     90  C   UNL A   1      45.543  26.395  35.940  1.00  0.00     0.091 A 
ATOM     91  F   UNL A   1      43.393  25.945  35.007  1.00  0.00    -0.205 F 
ATOM     92  C   UNL A   1      46.703  27.187  35.956  1.00  0.00     0.022 A 
BRANCH  90  93
ATOM     93  S   UNL A   1      45.448  25.047  37.122  1.00  0.00     0.127 S 
ATOM     94  O   UNL A   1      46.855  24.672  37.259  1.00  0.00    -0.237 OA
ATOM     95  O   UNL A   1      44.875  25.706  38.297  1.00  0.00    -0.237 OA
ATOM     96  O   UNL A   1      44.589  24.040  36.515  1.00  0.00    -0.744 OA
ENDBRANCH  90  93
ENDBRANCH  63  86
ENDBRANCH  37  38
ENDBRANCH  29  32
ENDBRANCH  27  28
ENDBRANCH  26  27
ENDBRANCH   1  26
TORSDOF 20
ENDMDL
MODEL 2
REMARK VINA RESULT:     -11.5      2.062      8.507
REMARK SMILES C[C@@H](O)[C@@H](NC(=O)CSc1ccc(F)c(F)c1)C(=O)NCCCCNC(=O)c1ccc(-c2c3nc(c(-c4cccc(S(=O)(=O)[O-])c4F)c4ccc([nH]4)c(-c4cccc(S(=O)(=O)[O-])c4F)c4nc(c(-c5cccc(S(=O)(=O)[O-])c5F)c5ccc2[nH]5)C=C4)C=C3)cc1
REMARK SMILES IDX 22 1 21 2 20 3 18 4 19 5 4 7 2 8 1 9 3 10 5 12 6 13 7 15
REMARK SMILES IDX 8 16 9 17 10 18 11 19 17 20 12 21 15 22 13 23 16 24 14 25
REMARK SMILES IDX 23 26 24 27 25 28 26 29 27 31 28 32 29 33 90 34 30 35 89 36
REMARK SMILES IDX 31 37 32 38 33 39 83 40 34 41 88 42 82 43 84 44 35 45 87 46
REMARK SMILES IDX 81 47 80 48 36 50 68 51 48 52 67 53 49 54 52 55 66 56 85 57
REMARK SMILES IDX 50 58 51 59 65 61 86 62 53 63 37 64 38 65 46 66 39 67 41 68
REMARK SMILES IDX 47 69 40 70 42 71 43 72 44 73 45 74 69 75 70 76 78 77 71 78
REMARK SMILES IDX 73 79 79 80 72 81 74 82 75 83 76 84 77 85 54 86 55 87 63 88
REMARK SMILES IDX 56 89 58 90 64 91 57 92 59 93 60 94 61 95 62 96
REMARK H PARENT 20 6 3 11 5 14 25 30 84 49 52 60
REMARK Flexibility Score: inf
ROOT
ATOM      1  C   UNL A   1      33.331  29.328  24.828  1.00  0.00     0.023 C 
ENDROOT
BRANCH   1   2
ATOM      2  C   UNL A   1      33.641  27.926  25.336  1.00  0.00     0.116 C 
BRANCH   2   3
ATOM      3  N   UNL A   1      33.518  26.883  24.354  1.00  0.00    -0.354 N 
ATOM      4  C   UNL A   1      32.398  26.549  23.645  1.00  0.00     0.245 C 
ATOM      5  O   UNL A   1      32.549  25.840  22.648  1.00  0.00    -0.273 OA
ATOM      6  H   UNL A   1      34.327  26.352  24.173  1.00  0.00     0.163 HD
BRANCH   4   7
ATOM      7  C   UNL A   1      30.972  26.945  24.120  1.00  0.00     0.200 C 
BRANCH   7   8
ATOM      8  C   UNL A   1      30.087  27.209  22.856  1.00  0.00     0.143 C 
ATOM      9  C   UNL A   1      28.955  28.203  23.118  1.00  0.00     0.041 C 
BRANCH   8  10
ATOM     10  O   UNL A   1      30.832  27.770  21.775  1.00  0.00    -0.391 OA
ATOM     11  H   UNL A   1      31.177  28.638  22.036  1.00  0.00     0.211 HD
ENDBRANCH   8  10
ENDBRANCH   7   8
BRANCH   7  12
ATOM     12  N   UNL A   1      30.258  26.040  25.055  1.00  0.00    -0.341 N 
ATOM     13  C   UNL A   1      30.637  24.799  25.482  1.00  0.00     0.231 C 
ATOM     14  H   UNL A   1      29.403  26.376  25.412  1.00  0.00     0.164 HD
ATOM     15  O   UNL A   1      30.638  24.597  26.698  1.00  0.00    -0.274 OA
BRANCH  13  16
ATOM     16  C   UNL A   1      30.898  23.702  24.487  1.00  0.00     0.174 C 
BRANCH  16  17
ATOM     17  S   UNL A   1      32.052  22.410  25.107  1.00  0.00    -0.116 SA
BRANCH  17  18
ATOM     18  C   UNL A   1      33.713  23.076  24.999  1.00  0.00     0.011 A 
ATOM     19  C   UNL A   1      34.355  23.642  26.108  1.00  0.00     0.018 A 
ATOM     20  C   UNL A   1      34.477  22.806  23.861  1.00  0.00     0.057 A 
ATOM     21  C   UNL A   1      35.734  23.875  26.120  1.00  0.00     0.043 A 
ATOM     22  C   UNL A   1      35.850  23.056  23.864  1.00  0.00     0.159 A 
ATOM     23  C   UNL A   1      36.479  23.566  24.993  1.00  0.00     0.158 A 
ATOM     24  F   UNL A   1      36.573  22.764  22.774  1.00  0.00    -0.204 F 
ATOM     25  F   UNL A   1      37.806  23.748  25.012  1.00  0.00    -0.204 F 
ENDBRANCH  17  18
ENDBRANCH  16  17
ENDBRANCH  13  16
ENDBRANCH   7  12
ENDBRANCH   4   7
ENDBRANCH   2   3
ENDBRANCH   1   2
BRANCH   1  26
ATOM     26  C   UNL A   1      32.130  30.013  25.486  1.00  0.00     0.023 C 
BRANCH  26  27
ATOM     27  C   UNL A   1      32.293  30.414  26.954  1.00  0.00     0.116 C 
BRANCH  27  28
ATOM     28  N   UNL A   1      32.433  31.852  27.152  1.00  0.00    -0.352 N 
ATOM     29  C   UNL A   1      33.517  32.588  27.573  1.00  0.00     0.251 C 
ATOM     30  H   UNL A   1      31.624  32.379  26.955  1.00  0.00     0.163 HD
ATOM     31  O   UNL A   1      33.435  33.796  27.706  1.00  0.00    -0.269 OA
BRANCH  29  32
ATOM     32  C   UNL A   1      34.748  31.867  27.931  1.00  0.00     0.039 A 
ATOM     33  C   UNL A   1      35.910  32.609  28.162  1.00  0.00     0.014 A 
ATOM     34  C   UNL A   1      34.702  30.494  28.172  1.00  0.00     0.014 A 
ATOM     35  C   UNL A   1      37.009  31.987  28.754  1.00  0.00     0.010 A 
ATOM     36  C   UNL A   1      35.771  29.895  28.817  1.00  0.00     0.010 A 
ATOM     37  C   UNL A   1      36.918  30.643  29.141  1.00  0.00    -0.014 A 
BRANCH  37  38
ATOM     38  C   UNL A   1      37.968  29.972  29.940  1.00  0.00     0.031 A 
ATOM     39  C   UNL A   1      38.218  30.444  31.341  1.00  0.00     0.074 A 
ATOM     40  C   UNL A   1      38.802  29.106  29.332  1.00  0.00     0.049 A 
ATOM     41  N   UNL A   1      39.247  30.229  32.113  1.00  0.00    -0.248 NA
ATOM     42  C   UNL A   1      37.194  31.326  31.927  1.00  0.00     0.031 C 
ATOM     43  C   UNL A   1      38.682  28.639  27.947  1.00  0.00     0.029 A 
ATOM     44  N   UNL A   1      39.952  28.507  29.780  1.00  0.00    -0.354 N 
ATOM     45  C   UNL A   1      39.028  30.999  33.249  1.00  0.00     0.074 A 
ATOM     46  C   UNL A   1      37.778  31.700  33.055  1.00  0.00     0.031 C 
ATOM     47  C   UNL A   1      39.723  27.844  27.655  1.00  0.00     0.029 A 
ATOM     48  C   UNL A   1      40.605  27.775  28.813  1.00  0.00     0.049 A 
ATOM     49  H   UNL A   1      40.279  28.591  30.705  1.00  0.00     0.167 HD
ATOM     50  C   UNL A   1      39.796  31.095  34.359  1.00  0.00     0.034 A 
ATOM     51  C   UNL A   1      41.793  27.139  28.856  1.00  0.00     0.034 A 
ATOM     52  C   UNL A   1      41.004  30.340  34.548  1.00  0.00     0.049 A 
ATOM     53  C   UNL A   1      42.579  27.186  30.139  1.00  0.00     0.074 A 
ATOM     54  C   UNL A   1      41.832  30.299  35.655  1.00  0.00     0.029 A 
ATOM     55  N   UNL A   1      41.544  29.475  33.608  1.00  0.00    -0.354 N 
ATOM     56  N   UNL A   1      42.306  27.834  31.247  1.00  0.00    -0.248 NA
ATOM     57  C   UNL A   1      43.814  26.391  30.197  1.00  0.00     0.031 C 
ATOM     58  C   UNL A   1      42.869  29.400  35.385  1.00  0.00     0.029 A 
ATOM     59  C   UNL A   1      42.679  28.874  34.116  1.00  0.00     0.049 A 
ATOM     60  H   UNL A   1      41.173  29.313  32.710  1.00  0.00     0.167 HD
ATOM     61  C   UNL A   1      43.303  27.485  32.149  1.00  0.00     0.074 A 
ATOM     62  C   UNL A   1      44.185  26.565  31.458  1.00  0.00     0.031 C 
ATOM     63  C   UNL A   1      43.483  27.896  33.428  1.00  0.00     0.034 A 
BRANCH  50  64
ATOM     64  C   UNL A   1      39.314  31.994  35.468  1.00  0.00     0.023 A 
ATOM     65  C   UNL A   1      38.359  31.506  36.384  1.00  0.00     0.012 A 
ATOM     66  C   UNL A   1      39.822  33.298  35.629  1.00  0.00     0.148 A 
ATOM     67  C   UNL A   1      37.885  32.314  37.415  1.00  0.00     0.002 A 
ATOM     68  C   UNL A   1      39.377  34.082  36.688  1.00  0.00     0.091 A 
ATOM     69  F   UNL A   1      40.713  33.753  34.738  1.00  0.00    -0.205 F 
ATOM     70  C   UNL A   1      38.400  33.597  37.573  1.00  0.00     0.022 A 
BRANCH  68  71
ATOM     71  S   UNL A   1      40.033  35.721  37.026  1.00  0.00     0.127 S 
ATOM     72  O   UNL A   1      39.668  36.443  35.809  1.00  0.00    -0.237 OA
ATOM     73  O   UNL A   1      39.279  36.114  38.217  1.00  0.00    -0.237 OA
ATOM     74  O   UNL A   1      41.461  35.544  37.244  1.00  0.00    -0.744 OA
ENDBRANCH  68  71
ENDBRANCH  50  64
BRANCH  51  75
ATOM     75  C   UNL A   1      42.255  26.334  27.690  1.00  0.00     0.023 A 
ATOM     76  C   UNL A   1      43.135  26.926  26.763  1.00  0.00     0.012 A 
ATOM     77  C   UNL A   1      41.876  24.989  27.510  1.00  0.00     0.148 A 
ATOM     78  C   UNL A   1      43.604  26.208  25.662  1.00  0.00     0.002 A 
ATOM     79  C   UNL A   1      42.388  24.263  26.437  1.00  0.00     0.091 A 
ATOM     80  F   UNL A   1      41.032  24.440  28.394  1.00  0.00    -0.205 F 
ATOM     81  C   UNL A   1      43.239  24.875  25.504  1.00  0.00     0.022 A 
BRANCH  79  82
ATOM     82  S   UNL A   1      42.075  22.504  26.238  1.00  0.00     0.127 S 
ATOM     83  O   UNL A   1      42.624  21.959  27.475  1.00  0.00    -0.237 OA
ATOM     84  O   UNL A   1      40.615  22.459  26.139  1.00  0.00    -0.237 OA
ATOM     85  O   UNL A   1      42.764  22.127  25.009  1.00  0.00    -0.744 OA
ENDBRANCH  79  82
ENDBRANCH  51  75
BRANCH  63  86
ATOM     86  C   UNL A   1      44.631  27.304  34.196  1.00  0.00     0.023 A 
ATOM     87  C   UNL A   1      45.871  27.967  34.222  1.00  0.00     0.012 A 
ATOM     88  C   UNL A   1      44.434  26.154  34.984  1.00  0.00     0.148 A 
ATOM     89  C   UNL A   1      46.910  27.482  35.015  1.00  0.00     0.002 A 
ATOM     90  C   UNL A   1      45.459  25.702  35.804  1.00  0.00     0.091 A 
ATOM     91  F   UNL A   1      43.248  25.531  34.922  1.00  0.00    -0.205 F 
ATOM     92  C   UNL A   1      46.700  26.360  35.815  1.00  0.00     0.022 A 
BRANCH  90  93
ATOM     93  S   UNL A   1      45.246  24.326  36.937  1.00  0.00     0.127 S 
ATOM     94  O   UNL A   1      44.175  24.816  37.803  1.00  0.00    -0.237 OA
ATOM     95  O   UNL A   1      44.855  23.240  36.037  1.00  0.00    -0.237 OA
ATOM     96  O   UNL A   1      46.536  24.136  37.586  1.00  0.00    -0.744 OA
ENDBRANCH  90  93
ENDBRANCH  63  86
ENDBRANCH  37  38
ENDBRANCH  29  32
ENDBRANCH  27  28
ENDBRANCH  26  27
ENDBRANCH   1  26
TORSDOF 20
ENDMDL
MODEL 3
REMARK VINA RESULT:     -11.4      2.232      3.687
REMARK SMILES C[C@@H](O)[C@@H](NC(=O)CSc1ccc(F)c(F)c1)C(=O)NCCCCNC(=O)c1ccc(-c2c3nc(c(-c4cccc(S(=O)(=O)[O-])c4F)c4ccc([nH]4)c(-c4cccc(S(=O)(=O)[O-])c4F)c4nc(c(-c5cccc(S(=O)(=O)[O-])c5F)c5ccc2[nH]5)C=C4)C=C3)cc1
REMARK SMILES IDX 22 1 21 2 20 3 18 4 19 5 4 7 2 8 1 9 3 10 5 12 6 13 7 15
REMARK SMILES IDX 8 16 9 17 10 18 11 19 17 20 12 21 15 22 13 23 16 24 14 25
REMARK SMILES IDX 23 26 24 27 25 28 26 29 27 31 28 32 29 33 90 34 30 35 89 36
REMARK SMILES IDX 31 37 32 38 33 39 83 40 34 41 88 42 82 43 84 44 35 45 87 46
REMARK SMILES IDX 81 47 80 48 36 50 68 51 48 52 67 53 49 54 52 55 66 56 85 57
REMARK SMILES IDX 50 58 51 59 65 61 86 62 53 63 37 64 38 65 46 66 39 67 41 68
REMARK SMILES IDX 47 69 40 70 42 71 43 72 44 73 45 74 69 75 70 76 78 77 71 78
REMARK SMILES IDX 73 79 79 80 72 81 74 82 75 83 76 84 77 85 54 86 55 87 63 88
REMARK SMILES IDX 56 89 58 90 64 91 57 92 59 93 60 94 61 95 62 96
REMARK H PARENT 20 6 3 11 5 14 25 30 84 49 52 60
REMARK Flexibility Score: inf
ROOT
ATOM      1  C   UNL A   1      31.917  27.264  26.886  1.00  0.00     0.023 C 
ENDROOT
BRANCH   1   2
ATOM      2  C   UNL A   1      31.668  26.962  25.415  1.00  0.00     0.116 C 
BRANCH   2   3
ATOM      3  N   UNL A   1      30.293  27.040  25.003  1.00  0.00    -0.354 N 
ATOM      4  C   UNL A   1      29.822  27.113  23.721  1.00  0.00     0.245 C 
ATOM      5  O   UNL A   1      28.625  26.876  23.543  1.00  0.00    -0.273 OA
ATOM      6  H   UNL A   1      29.618  27.042  25.719  1.00  0.00     0.163 HD
BRANCH   4   7
ATOM      7  C   UNL A   1      30.716  27.581  22.540  1.00  0.00     0.200 C 
BRANCH   7   8
ATOM      8  C   UNL A   1      30.662  29.144  22.471  1.00  0.00     0.143 C 
ATOM      9  C   UNL A   1      29.309  29.675  21.994  1.00  0.00     0.041 C 
BRANCH   8  10
ATOM     10  O   UNL A   1      30.873  29.754  23.744  1.00  0.00    -0.391 OA
ATOM     11  H   UNL A   1      30.122  29.556  24.327  1.00  0.00     0.211 HD
ENDBRANCH   8  10
ENDBRANCH   7   8
BRANCH   7  12
ATOM     12  N   UNL A   1      32.127  27.123  22.490  1.00  0.00    -0.341 N 
ATOM     13  C   UNL A   1      32.607  25.915  22.071  1.00  0.00     0.231 C 
ATOM     14  H   UNL A   1      32.802  27.772  22.798  1.00  0.00     0.164 HD
ATOM     15  O   UNL A   1      33.517  25.928  21.239  1.00  0.00    -0.274 OA
BRANCH  13  16
ATOM     16  C   UNL A   1      32.129  24.644  22.717  1.00  0.00     0.174 C 
BRANCH  16  17
ATOM     17  S   UNL A   1      33.102  23.162  22.225  1.00  0.00    -0.116 SA
BRANCH  17  18
ATOM     18  C   UNL A   1      34.221  22.783  23.573  1.00  0.00     0.011 A 
ATOM     19  C   UNL A   1      34.154  21.568  24.269  1.00  0.00     0.018 A 
ATOM     20  C   UNL A   1      35.338  23.597  23.775  1.00  0.00     0.057 A 
ATOM     21  C   UNL A   1      35.197  21.135  25.094  1.00  0.00     0.043 A 
ATOM     22  C   UNL A   1      36.370  23.175  24.614  1.00  0.00     0.159 A 
ATOM     23  C   UNL A   1      36.311  21.942  25.251  1.00  0.00     0.158 A 
ATOM     24  F   UNL A   1      37.447  23.957  24.774  1.00  0.00    -0.204 F 
ATOM     25  F   UNL A   1      37.332  21.516  26.009  1.00  0.00    -0.204 F 
ENDBRANCH  17  18
ENDBRANCH  16  17
ENDBRANCH  13  16
ENDBRANCH   7  12
ENDBRANCH   4   7
ENDBRANCH   2   3
ENDBRANCH   1   2
BRANCH   1  26
ATOM     26  C   UNL A   1      31.752  28.731  27.293  1.00  0.00     0.023 C 
BRANCH  26  27
ATOM     27  C   UNL A   1      32.651  29.743  26.578  1.00  0.00     0.116 C 
BRANCH  27  28
ATOM     28  N   UNL A   1      32.393  31.125  26.966  1.00  0.00    -0.352 N 
ATOM     29  C   UNL A   1      33.237  32.064  27.516  1.00  0.00     0.251 C 
ATOM     30  H   UNL A   1      31.471  31.435  26.811  1.00  0.00     0.163 HD
ATOM     31  O   UNL A   1      32.828  33.175  27.802  1.00  0.00    -0.269 OA
BRANCH  29  32
ATOM     32  C   UNL A   1      34.618  31.661  27.820  1.00  0.00     0.039 A 
ATOM     33  C   UNL A   1      35.616  32.641  27.800  1.00  0.00     0.014 A 
ATOM     34  C   UNL A   1      34.883  30.364  28.255  1.00  0.00     0.014 A 
ATOM     35  C   UNL A   1      36.869  32.347  28.336  1.00  0.00     0.010 A 
ATOM     36  C   UNL A   1      36.107  30.095  28.843  1.00  0.00     0.010 A 
ATOM     37  C   UNL A   1      37.097  31.092  28.916  1.00  0.00    -0.014 A 
BRANCH  37  38
ATOM     38  C   UNL A   1      38.333  30.775  29.668  1.00  0.00     0.031 A 
ATOM     39  C   UNL A   1      39.286  29.771  29.092  1.00  0.00     0.074 A 
ATOM     40  C   UNL A   1      38.470  31.232  30.927  1.00  0.00     0.049 A 
ATOM     41  N   UNL A   1      40.254  29.122  29.678  1.00  0.00    -0.248 NA
ATOM     42  C   UNL A   1      39.082  29.408  27.679  1.00  0.00     0.031 C 
ATOM     43  C   UNL A   1      37.554  32.160  31.600  1.00  0.00     0.029 A 
ATOM     44  N   UNL A   1      39.401  30.936  31.890  1.00  0.00    -0.354 N 
ATOM     45  C   UNL A   1      40.732  28.228  28.729  1.00  0.00     0.074 A 
ATOM     46  C   UNL A   1      39.935  28.405  27.535  1.00  0.00     0.031 C 
ATOM     47  C   UNL A   1      37.958  32.339  32.868  1.00  0.00     0.029 A 
ATOM     48  C   UNL A   1      39.134  31.514  33.111  1.00  0.00     0.049 A 
ATOM     49  H   UNL A   1      40.186  30.364  31.723  1.00  0.00     0.167 HD
ATOM     50  C   UNL A   1      41.757  27.351  28.842  1.00  0.00     0.034 A 
ATOM     51  C   UNL A   1      39.760  31.373  34.297  1.00  0.00     0.034 A 
ATOM     52  C   UNL A   1      42.570  27.238  30.021  1.00  0.00     0.049 A 
ATOM     53  C   UNL A   1      40.956  30.462  34.366  1.00  0.00     0.074 A 
ATOM     54  C   UNL A   1      43.678  26.438  30.234  1.00  0.00     0.029 A 
ATOM     55  N   UNL A   1      42.372  27.968  31.184  1.00  0.00    -0.354 N 
ATOM     56  N   UNL A   1      41.465  29.700  33.426  1.00  0.00    -0.248 NA
ATOM     57  C   UNL A   1      41.689  30.414  35.639  1.00  0.00     0.031 C 
ATOM     58  C   UNL A   1      44.154  26.693  31.524  1.00  0.00     0.029 A 
ATOM     59  C   UNL A   1      43.350  27.660  32.109  1.00  0.00     0.049 A 
ATOM     60  H   UNL A   1      41.641  28.613  31.328  1.00  0.00     0.167 HD
ATOM     61  C   UNL A   1      42.604  29.124  33.976  1.00  0.00     0.074 A 
ATOM     62  C   UNL A   1      42.712  29.628  35.331  1.00  0.00     0.031 C 
ATOM     63  C   UNL A   1      43.474  28.248  33.418  1.00  0.00     0.034 A 
BRANCH  50  64
ATOM     64  C   UNL A   1      42.089  26.503  27.642  1.00  0.00     0.023 A 
ATOM     65  C   UNL A   1      42.770  27.086  26.553  1.00  0.00     0.012 A 
ATOM     66  C   UNL A   1      41.763  25.133  27.598  1.00  0.00     0.148 A 
ATOM     67  C   UNL A   1      43.083  26.334  25.423  1.00  0.00     0.002 A 
ATOM     68  C   UNL A   1      42.120  24.378  26.486  1.00  0.00     0.091 A 
ATOM     69  F   UNL A   1      41.098  24.599  28.631  1.00  0.00    -0.205 F 
ATOM     70  C   UNL A   1      42.768  24.979  25.393  1.00  0.00     0.022 A 
BRANCH  68  71
ATOM     71  S   UNL A   1      41.828  22.608  26.379  1.00  0.00     0.127 S 
ATOM     72  O   UNL A   1      40.368  22.550  26.348  1.00  0.00    -0.237 OA
ATOM     73  O   UNL A   1      42.480  22.264  25.114  1.00  0.00    -0.237 OA
ATOM     74  O   UNL A   1      42.452  22.027  27.560  1.00  0.00    -0.744 OA
ENDBRANCH  68  71
ENDBRANCH  50  64
BRANCH  51  75
ATOM     75  C   UNL A   1      39.328  32.179  35.474  1.00  0.00     0.023 A 
ATOM     76  C   UNL A   1      38.474  31.587  36.425  1.00  0.00     0.012 A 
ATOM     77  C   UNL A   1      39.780  33.496  35.687  1.00  0.00     0.148 A 
ATOM     78  C   UNL A   1      38.052  32.298  37.548  1.00  0.00     0.002 A 
ATOM     79  C   UNL A   1      39.396  34.182  36.837  1.00  0.00     0.091 A 
ATOM     80  F   UNL A   1      40.585  34.051  34.771  1.00  0.00    -0.205 F 
ATOM     81  C   UNL A   1      38.519  33.591  37.760  1.00  0.00     0.022 A 
BRANCH  79  82
ATOM     82  S   UNL A   1      40.062  35.800  37.252  1.00  0.00     0.127 S 
ATOM     83  O   UNL A   1      41.487  35.514  37.381  1.00  0.00    -0.237 OA
ATOM     84  O   UNL A   1      39.697  36.594  36.077  1.00  0.00    -0.237 OA
ATOM     85  O   UNL A   1      39.374  36.198  38.473  1.00  0.00    -0.744 OA
ENDBRANCH  79  82
ENDBRANCH  51  75
BRANCH  63  86
ATOM     86  C   UNL A   1      44.663  27.831  34.236  1.00  0.00     0.023 A 
ATOM     87  C   UNL A   1      45.836  28.607  34.214  1.00  0.00     0.012 A 
ATOM     88  C   UNL A   1      44.566  26.734  35.114  1.00  0.00     0.148 A 
ATOM     89  C   UNL A   1      46.907  28.287  35.047  1.00  0.00     0.002 A 
ATOM     90  C   UNL A   1      45.619  26.447  35.972  1.00  0.00     0.091 A 
ATOM     91  F   UNL A   1      43.445  25.999  35.098  1.00  0.00    -0.205 F 
ATOM     92  C   UNL A   1      46.793  27.218  35.934  1.00  0.00     0.022 A 
BRANCH  90  93
ATOM     93  S   UNL A   1      45.523  25.152  37.212  1.00  0.00     0.127 S 
ATOM     94  O   UNL A   1      45.821  23.960  36.420  1.00  0.00    -0.237 OA
ATOM     95  O   UNL A   1      46.576  25.542  38.150  1.00  0.00    -0.237 OA
ATOM     96  O   UNL A   1      44.174  25.218  37.757  1.00  0.00    -0.744 OA
ENDBRANCH  90  93
ENDBRANCH  63  86
ENDBRANCH  37  38
ENDBRANCH  29  32
ENDBRANCH  27  28
ENDBRANCH  26  27
ENDBRANCH   1  26
TORSDOF 20
ENDMDL
