MODEL 1
REMARK VINA RESULT:     -13.1      0.000      0.000
REMARK SMILES O=C1Nc2ccc(Br)cc2/C1=N/c1ccc(C(=O)NCCCCNC(=O)c2ccc(-c3c4nc(c(-c5cccc(S(=O)(=O)[O-])c5F)c5ccc([nH]5)c(-c5cccc(S(=O)(=O)[O-])c5F)c5nc(c(-c6cccc(S(=O)(=O)[O-])c6F)c6ccc3[nH]6)C=C5)C=C4)cc2)cc1
REMARK SMILES IDX 22 1 21 2 20 3 19 4 17 5 18 6 16 8 13 9 14 10 91 11 15 12
REMARK SMILES IDX 90 13 12 14 1 15 2 16 3 17 11 18 4 19 10 21 5 22 9 23 6 24
REMARK SMILES IDX 7 25 8 26 23 27 24 28 25 29 26 31 27 32 28 33 89 34 29 35
REMARK SMILES IDX 88 36 30 37 31 38 32 39 82 40 33 41 87 42 81 43 83 44 34 45
REMARK SMILES IDX 86 46 80 47 79 48 35 50 67 51 47 52 66 53 48 54 51 55 65 56
REMARK SMILES IDX 84 57 49 58 50 59 64 61 85 62 52 63 36 64 37 65 45 66 38 67
REMARK SMILES IDX 40 68 46 69 39 70 41 71 42 72 43 73 44 74 68 75 69 76 77 77
REMARK SMILES IDX 70 78 72 79 78 80 71 81 73 82 74 83 75 84 76 85 53 86 54 87
REMARK SMILES IDX 62 88 55 89 57 90 63 91 56 92 58 93 59 94 60 95 61 96
REMARK H PARENT 19 7 3 20 24 30 83 49 51 60
REMARK Flexibility Score: inf
ROOT
ATOM      1  C   UNL A   1      31.777  31.555  26.875  1.00  0.00     0.023 C 
ENDROOT
BRANCH   1   2
ATOM      2  C   UNL A   1      32.113  30.079  26.659  1.00  0.00     0.023 C 
BRANCH   2   3
ATOM      3  C   UNL A   1      32.375  29.709  25.196  1.00  0.00     0.116 C 
BRANCH   3   4
ATOM      4  N   UNL A   1      31.178  29.909  24.403  1.00  0.00    -0.352 N 
ATOM      5  C   UNL A   1      30.397  29.034  23.691  1.00  0.00     0.251 C 
ATOM      6  O   UNL A   1      29.397  29.477  23.125  1.00  0.00    -0.269 OA
ATOM      7  H   UNL A   1      30.869  30.843  24.369  1.00  0.00     0.163 HD
BRANCH   5   8
ATOM      8  C   UNL A   1      30.671  27.572  23.624  1.00  0.00     0.039 A 
ATOM      9  C   UNL A   1      31.206  24.809  23.719  1.00  0.00     0.064 A 
ATOM     10  C   UNL A   1      30.414  25.401  24.700  1.00  0.00     0.029 A 
ATOM     11  C   UNL A   1      31.652  25.583  22.646  1.00  0.00     0.029 A 
ATOM     12  C   UNL A   1      30.154  26.775  24.657  1.00  0.00     0.016 A 
ATOM     13  C   UNL A   1      31.372  26.950  22.589  1.00  0.00     0.016 A 
BRANCH   9  14
ATOM     14  N   UNL A   1      31.481  23.440  23.756  1.00  0.00    -0.243 NA
ATOM     15  O   UNL A   1      33.621  24.988  25.447  1.00  0.00    -0.267 OA
ATOM     16  C   UNL A   1      33.610  23.813  25.179  1.00  0.00     0.275 C 
ATOM     17  N   UNL A   1      34.554  22.865  25.533  1.00  0.00    -0.320 N 
ATOM     18  C   UNL A   1      32.546  23.032  24.371  1.00  0.00     0.138 C 
ATOM     19  C   UNL A   1      34.205  21.608  25.058  1.00  0.00     0.051 A 
ATOM     20  H   UNL A   1      35.367  23.058  26.053  1.00  0.00     0.170 HD
ATOM     21  C   UNL A   1      32.995  21.645  24.368  1.00  0.00     0.031 A 
ATOM     22  C   UNL A   1      34.915  20.434  25.189  1.00  0.00     0.028 A 
ATOM     23  C   UNL A   1      32.439  20.532  23.772  1.00  0.00     0.028 A 
ATOM     24  C   UNL A   1      34.374  19.286  24.594  1.00  0.00     0.018 A 
ATOM     25  C   UNL A   1      33.150  19.341  23.894  1.00  0.00     0.018 A 
ATOM     26  Br  UNL A   1      32.470  17.770  23.089  1.00  0.00    -0.051 Br
ENDBRANCH   9  14
ENDBRANCH   5   8
ENDBRANCH   3   4
ENDBRANCH   2   3
ENDBRANCH   1   2
BRANCH   1  27
ATOM     27  C   UNL A   1      32.948  32.418  27.328  1.00  0.00     0.116 C 
BRANCH  27  28
ATOM     28  N   UNL A   1      32.568  33.797  27.603  1.00  0.00    -0.352 N 
ATOM     29  C   UNL A   1      33.084  34.650  28.549  1.00  0.00     0.251 C 
ATOM     30  H   UNL A   1      31.850  34.165  27.039  1.00  0.00     0.163 HD
ATOM     31  O   UNL A   1      32.570  35.747  28.742  1.00  0.00    -0.269 OA
BRANCH  29  32
ATOM     32  C   UNL A   1      34.244  34.211  29.352  1.00  0.00     0.039 A 
ATOM     33  C   UNL A   1      34.016  33.524  30.545  1.00  0.00     0.014 A 
ATOM     34  C   UNL A   1      35.546  34.434  28.897  1.00  0.00     0.014 A 
ATOM     35  C   UNL A   1      35.101  33.004  31.254  1.00  0.00     0.010 A 
ATOM     36  C   UNL A   1      36.616  33.845  29.562  1.00  0.00     0.010 A 
ATOM     37  C   UNL A   1      36.407  33.129  30.749  1.00  0.00    -0.014 A 
BRANCH  37  38
ATOM     38  C   UNL A   1      37.561  32.504  31.444  1.00  0.00     0.031 A 
ATOM     39  C   UNL A   1      38.300  31.360  30.806  1.00  0.00     0.074 A 
ATOM     40  C   UNL A   1      37.889  32.910  32.687  1.00  0.00     0.049 A 
ATOM     41  N   UNL A   1      39.298  30.659  31.279  1.00  0.00    -0.248 NA
ATOM     42  C   UNL A   1      37.842  30.924  29.476  1.00  0.00     0.031 C 
ATOM     43  C   UNL A   1      37.193  33.951  33.449  1.00  0.00     0.029 A 
ATOM     44  N   UNL A   1      38.871  32.477  33.542  1.00  0.00    -0.354 N 
ATOM     45  C   UNL A   1      39.560  29.680  30.328  1.00  0.00     0.074 A 
ATOM     46  C   UNL A   1      38.598  29.857  29.264  1.00  0.00     0.031 C 
ATOM     47  C   UNL A   1      37.770  34.076  34.654  1.00  0.00     0.029 A 
ATOM     48  C   UNL A   1      38.852  33.103  34.768  1.00  0.00     0.049 A 
ATOM     49  H   UNL A   1      39.528  31.785  33.302  1.00  0.00     0.167 HD
ATOM     50  C   UNL A   1      40.528  28.734  30.330  1.00  0.00     0.034 A 
ATOM     51  C   UNL A   1      39.608  32.904  35.866  1.00  0.00     0.034 A 
ATOM     52  C   UNL A   1      41.508  28.588  31.373  1.00  0.00     0.049 A 
ATOM     53  C   UNL A   1      40.705  31.875  35.822  1.00  0.00     0.074 A 
ATOM     54  C   UNL A   1      42.593  27.730  31.416  1.00  0.00     0.029 A 
ATOM     55  N   UNL A   1      41.512  29.300  32.561  1.00  0.00    -0.354 N 
ATOM     56  N   UNL A   1      41.048  31.077  34.841  1.00  0.00    -0.248 NA
ATOM     57  C   UNL A   1      41.544  31.745  37.022  1.00  0.00     0.031 C 
ATOM     58  C   UNL A   1      43.229  27.893  32.649  1.00  0.00     0.029 A 
ATOM     59  C   UNL A   1      42.569  28.887  33.354  1.00  0.00     0.049 A 
ATOM     60  H   UNL A   1      40.860  29.996  32.805  1.00  0.00     0.167 HD
ATOM     61  C   UNL A   1      42.162  30.378  35.290  1.00  0.00     0.074 A 
ATOM     62  C   UNL A   1      42.450  30.863  36.623  1.00  0.00     0.031 C 
ATOM     63  C   UNL A   1      42.876  29.413  34.660  1.00  0.00     0.034 A 
BRANCH  50  64
ATOM     64  C   UNL A   1      40.603  27.797  29.153  1.00  0.00     0.023 A 
ATOM     65  C   UNL A   1      39.717  26.704  29.067  1.00  0.00     0.012 A 
ATOM     66  C   UNL A   1      41.498  28.046  28.095  1.00  0.00     0.148 A 
ATOM     67  C   UNL A   1      39.742  25.853  27.963  1.00  0.00     0.002 A 
ATOM     68  C   UNL A   1      41.484  27.223  26.974  1.00  0.00     0.091 A 
ATOM     69  F   UNL A   1      42.346  29.078  28.204  1.00  0.00    -0.205 F 
ATOM     70  C   UNL A   1      40.616  26.121  26.912  1.00  0.00     0.022 A 
BRANCH  68  71
ATOM     71  S   UNL A   1      42.508  27.531  25.531  1.00  0.00     0.127 S 
ATOM     72  O   UNL A   1      43.847  27.541  26.117  1.00  0.00    -0.237 OA
ATOM     73  O   UNL A   1      42.216  26.367  24.696  1.00  0.00    -0.237 OA
ATOM     74  O   UNL A   1      42.059  28.804  24.982  1.00  0.00    -0.744 OA
ENDBRANCH  68  71
ENDBRANCH  50  64
BRANCH  51  75
ATOM     75  C   UNL A   1      39.379  33.723  37.090  1.00  0.00     0.023 A 
ATOM     76  C   UNL A   1      39.860  35.047  37.146  1.00  0.00     0.012 A 
ATOM     77  C   UNL A   1      38.679  33.201  38.194  1.00  0.00     0.148 A 
ATOM     78  C   UNL A   1      39.686  35.819  38.296  1.00  0.00     0.002 A 
ATOM     79  C   UNL A   1      38.456  33.995  39.312  1.00  0.00     0.091 A 
ATOM     80  F   UNL A   1      38.237  31.938  38.125  1.00  0.00    -0.205 F 
ATOM     81  C   UNL A   1      38.976  35.297  39.374  1.00  0.00     0.022 A 
BRANCH  79  82
ATOM     82  S   UNL A   1      37.439  33.453  40.690  1.00  0.00     0.127 S 
ATOM     83  O   UNL A   1      36.244  32.967  40.007  1.00  0.00    -0.237 OA
ATOM     84  O   UNL A   1      38.275  32.411  41.287  1.00  0.00    -0.237 OA
ATOM     85  O   UNL A   1      37.256  34.629  41.529  1.00  0.00    -0.744 OA
ENDBRANCH  79  82
ENDBRANCH  51  75
BRANCH  63  86
ATOM     86  C   UNL A   1      44.073  28.843  35.376  1.00  0.00     0.023 A 
ATOM     87  C   UNL A   1      45.345  29.421  35.199  1.00  0.00     0.012 A 
ATOM     88  C   UNL A   1      43.917  27.778  36.285  1.00  0.00     0.148 A 
ATOM     89  C   UNL A   1      46.450  28.924  35.888  1.00  0.00     0.002 A 
ATOM     90  C   UNL A   1      45.012  27.324  37.010  1.00  0.00     0.091 A 
ATOM     91  F   UNL A   1      42.701  27.231  36.428  1.00  0.00    -0.205 F 
ATOM     92  C   UNL A   1      46.282  27.885  36.802  1.00  0.00     0.022 A 
BRANCH  90  93
ATOM     93  S   UNL A   1      44.871  26.063  38.281  1.00  0.00     0.127 S 
ATOM     94  O   UNL A   1      46.258  25.933  38.727  1.00  0.00    -0.237 OA
ATOM     95  O   UNL A   1      43.976  26.699  39.248  1.00  0.00    -0.237 OA
ATOM     96  O   UNL A   1      44.316  24.888  37.625  1.00  0.00    -0.744 OA
ENDBRANCH  90  93
ENDBRANCH  63  86
ENDBRANCH  37  38
ENDBRANCH  29  32
ENDBRANCH  27  28
ENDBRANCH   1  27
TORSDOF 15
ENDMDL
MODEL 2
REMARK VINA RESULT:     -13.1      6.400     11.804
REMARK SMILES O=C1Nc2ccc(Br)cc2/C1=N/c1ccc(C(=O)NCCCCNC(=O)c2ccc(-c3c4nc(c(-c5cccc(S(=O)(=O)[O-])c5F)c5ccc([nH]5)c(-c5cccc(S(=O)(=O)[O-])c5F)c5nc(c(-c6cccc(S(=O)(=O)[O-])c6F)c6ccc3[nH]6)C=C5)C=C4)cc2)cc1
REMARK SMILES IDX 22 1 21 2 20 3 19 4 17 5 18 6 16 8 13 9 14 10 91 11 15 12
REMARK SMILES IDX 90 13 12 14 1 15 2 16 3 17 11 18 4 19 10 21 5 22 9 23 6 24
REMARK SMILES IDX 7 25 8 26 23 27 24 28 25 29 26 31 27 32 28 33 89 34 29 35
REMARK SMILES IDX 88 36 30 37 31 38 32 39 82 40 33 41 87 42 81 43 83 44 34 45
REMARK SMILES IDX 86 46 80 47 79 48 35 50 67 51 47 52 66 53 48 54 51 55 65 56
REMARK SMILES IDX 84 57 49 58 50 59 64 61 85 62 52 63 36 64 37 65 45 66 38 67
REMARK SMILES IDX 40 68 46 69 39 70 41 71 42 72 43 73 44 74 68 75 69 76 77 77
REMARK SMILES IDX 70 78 72 79 78 80 71 81 73 82 74 83 75 84 76 85 53 86 54 87
REMARK SMILES IDX 62 88 55 89 57 90 63 91 56 92 58 93 59 94 60 95 61 96
REMARK H PARENT 19 7 3 20 24 30 83 49 51 60
REMARK Flexibility Score: inf
ROOT
ATOM      1  C   UNL A   1      37.972  20.321  24.681  1.00  0.00     0.023 C 
ENDROOT
BRANCH   1   2
ATOM      2  C   UNL A   1      36.728  19.490  25.000  1.00  0.00     0.023 C 
BRANCH   2   3
ATOM      3  C   UNL A   1      35.427  20.296  25.003  1.00  0.00     0.116 C 
BRANCH   3   4
ATOM      4  N   UNL A   1      34.282  19.409  25.081  1.00  0.00    -0.352 N 
ATOM      5  C   UNL A   1      32.943  19.626  24.882  1.00  0.00     0.251 C 
ATOM      6  O   UNL A   1      32.178  18.666  24.982  1.00  0.00    -0.269 OA
ATOM      7  H   UNL A   1      34.509  18.481  25.320  1.00  0.00     0.163 HD
BRANCH   5   8
ATOM      8  C   UNL A   1      32.385  20.950  24.493  1.00  0.00     0.039 A 
ATOM      9  C   UNL A   1      31.165  23.418  23.901  1.00  0.00     0.064 A 
ATOM     10  C   UNL A   1      31.170  22.937  25.209  1.00  0.00     0.029 A 
ATOM     11  C   UNL A   1      31.848  22.708  22.913  1.00  0.00     0.029 A 
ATOM     12  C   UNL A   1      31.770  21.708  25.502  1.00  0.00     0.016 A 
ATOM     13  C   UNL A   1      32.468  21.492  23.209  1.00  0.00     0.016 A 
BRANCH   9  14
ATOM     14  N   UNL A   1      30.561  24.640  23.595  1.00  0.00    -0.243 NA
ATOM     15  O   UNL A   1      33.523  25.130  24.500  1.00  0.00    -0.267 OA
ATOM     16  C   UNL A   1      32.683  25.961  24.261  1.00  0.00     0.275 C 
ATOM     17  N   UNL A   1      32.816  27.336  24.352  1.00  0.00    -0.320 N 
ATOM     18  C   UNL A   1      31.228  25.733  23.786  1.00  0.00     0.138 C 
ATOM     19  C   UNL A   1      31.641  27.979  23.988  1.00  0.00     0.051 A 
ATOM     20  H   UNL A   1      33.637  27.796  24.639  1.00  0.00     0.170 HD
ATOM     21  C   UNL A   1      30.657  27.065  23.618  1.00  0.00     0.031 A 
ATOM     22  C   UNL A   1      31.392  29.334  23.985  1.00  0.00     0.028 A 
ATOM     23  C   UNL A   1      29.386  27.445  23.240  1.00  0.00     0.028 A 
ATOM     24  C   UNL A   1      30.108  29.751  23.604  1.00  0.00     0.018 A 
ATOM     25  C   UNL A   1      29.121  28.812  23.237  1.00  0.00     0.018 A 
ATOM     26  Br  UNL A   1      27.397  29.421  22.751  1.00  0.00    -0.051 Br
ENDBRANCH   9  14
ENDBRANCH   5   8
ENDBRANCH   3   4
ENDBRANCH   2   3
ENDBRANCH   1   2
BRANCH   1  27
ATOM     27  C   UNL A   1      38.945  20.487  25.842  1.00  0.00     0.116 C 
BRANCH  27  28
ATOM     28  N   UNL A   1      39.907  19.397  25.940  1.00  0.00    -0.352 N 
ATOM     29  C   UNL A   1      41.262  19.475  26.159  1.00  0.00     0.251 C 
ATOM     30  H   UNL A   1      39.541  18.490  25.835  1.00  0.00     0.163 HD
ATOM     31  O   UNL A   1      41.961  18.469  26.090  1.00  0.00    -0.269 OA
BRANCH  29  32
ATOM     32  C   UNL A   1      41.866  20.792  26.444  1.00  0.00     0.039 A 
ATOM     33  C   UNL A   1      42.230  21.613  25.376  1.00  0.00     0.014 A 
ATOM     34  C   UNL A   1      42.021  21.231  27.762  1.00  0.00     0.014 A 
ATOM     35  C   UNL A   1      42.695  22.904  25.630  1.00  0.00     0.010 A 
ATOM     36  C   UNL A   1      42.406  22.544  28.008  1.00  0.00     0.010 A 
ATOM     37  C   UNL A   1      42.753  23.393  26.947  1.00  0.00    -0.014 A 
BRANCH  37  38
ATOM     38  C   UNL A   1      43.158  24.794  27.228  1.00  0.00     0.031 A 
ATOM     39  C   UNL A   1      42.195  25.744  27.886  1.00  0.00     0.074 A 
ATOM     40  C   UNL A   1      44.363  25.234  26.813  1.00  0.00     0.049 A 
ATOM     41  N   UNL A   1      42.353  27.012  28.168  1.00  0.00    -0.248 NA
ATOM     42  C   UNL A   1      40.871  25.211  28.249  1.00  0.00     0.031 C 
ATOM     43  C   UNL A   1      45.352  24.434  26.086  1.00  0.00     0.029 A 
ATOM     44  N   UNL A   1      44.951  26.470  26.916  1.00  0.00    -0.354 N 
ATOM     45  C   UNL A   1      41.142  27.436  28.701  1.00  0.00     0.074 A 
ATOM     46  C   UNL A   1      40.248  26.300  28.678  1.00  0.00     0.031 C 
ATOM     47  C   UNL A   1      46.421  25.197  25.810  1.00  0.00     0.029 A 
ATOM     48  C   UNL A   1      46.182  26.548  26.307  1.00  0.00     0.049 A 
ATOM     49  H   UNL A   1      44.531  27.229  27.381  1.00  0.00     0.167 HD
ATOM     50  C   UNL A   1      40.810  28.656  29.187  1.00  0.00     0.034 A 
ATOM     51  C   UNL A   1      47.018  27.595  26.149  1.00  0.00     0.034 A 
ATOM     52  C   UNL A   1      41.716  29.771  29.245  1.00  0.00     0.049 A 
ATOM     53  C   UNL A   1      46.641  28.927  26.740  1.00  0.00     0.074 A 
ATOM     54  C   UNL A   1      41.509  31.014  29.816  1.00  0.00     0.029 A 
ATOM     55  N   UNL A   1      42.989  29.788  28.698  1.00  0.00    -0.354 N 
ATOM     56  N   UNL A   1      45.558  29.260  27.398  1.00  0.00    -0.248 NA
ATOM     57  C   UNL A   1      47.617  30.017  26.599  1.00  0.00     0.031 C 
ATOM     58  C   UNL A   1      42.641  31.798  29.576  1.00  0.00     0.029 A 
ATOM     59  C   UNL A   1      43.573  31.027  28.899  1.00  0.00     0.049 A 
ATOM     60  H   UNL A   1      43.415  29.031  28.234  1.00  0.00     0.167 HD
ATOM     61  C   UNL A   1      45.737  30.584  27.782  1.00  0.00     0.074 A 
ATOM     62  C   UNL A   1      47.043  30.985  27.301  1.00  0.00     0.031 C 
ATOM     63  C   UNL A   1      44.893  31.398  28.460  1.00  0.00     0.034 A 
BRANCH  50  64
ATOM     64  C   UNL A   1      39.419  28.845  29.730  1.00  0.00     0.023 A 
ATOM     65  C   UNL A   1      39.130  28.489  31.064  1.00  0.00     0.012 A 
ATOM     66  C   UNL A   1      38.417  29.447  28.944  1.00  0.00     0.148 A 
ATOM     67  C   UNL A   1      37.859  28.698  31.596  1.00  0.00     0.002 A 
ATOM     68  C   UNL A   1      37.167  29.700  29.497  1.00  0.00     0.091 A 
ATOM     69  F   UNL A   1      38.705  29.761  27.673  1.00  0.00    -0.205 F 
ATOM     70  C   UNL A   1      36.883  29.315  30.818  1.00  0.00     0.022 A 
BRANCH  68  71
ATOM     71  S   UNL A   1      35.869  30.565  28.608  1.00  0.00     0.127 S 
ATOM     72  O   UNL A   1      35.101  29.452  28.052  1.00  0.00    -0.237 OA
ATOM     73  O   UNL A   1      35.197  31.294  29.682  1.00  0.00    -0.237 OA
ATOM     74  O   UNL A   1      36.543  31.406  27.628  1.00  0.00    -0.744 OA
ENDBRANCH  68  71
ENDBRANCH  50  64
BRANCH  51  75
ATOM     75  C   UNL A   1      48.312  27.416  25.433  1.00  0.00     0.023 A 
ATOM     76  C   UNL A   1      49.479  27.111  26.161  1.00  0.00     0.012 A 
ATOM     77  C   UNL A   1      48.391  27.539  24.032  1.00  0.00     0.148 A 
ATOM     78  C   UNL A   1      50.708  26.973  25.513  1.00  0.00     0.002 A 
ATOM     79  C   UNL A   1      49.606  27.341  23.387  1.00  0.00     0.091 A 
ATOM     80  F   UNL A   1      47.273  27.839  23.358  1.00  0.00    -0.205 F 
ATOM     81  C   UNL A   1      50.769  27.079  24.126  1.00  0.00     0.022 A 
BRANCH  79  82
ATOM     82  S   UNL A   1      49.752  27.326  21.597  1.00  0.00     0.127 S 
ATOM     83  O   UNL A   1      49.436  28.711  21.259  1.00  0.00    -0.237 OA
ATOM     84  O   UNL A   1      51.155  26.952  21.414  1.00  0.00    -0.237 OA
ATOM     85  O   UNL A   1      48.799  26.327  21.133  1.00  0.00    -0.744 OA
ENDBRANCH  79  82
ENDBRANCH  51  75
BRANCH  63  86
ATOM     86  C   UNL A   1      45.364  32.794  28.774  1.00  0.00     0.023 A 
ATOM     87  C   UNL A   1      46.112  33.044  29.941  1.00  0.00     0.012 A 
ATOM     88  C   UNL A   1      45.126  33.847  27.868  1.00  0.00     0.148 A 
ATOM     89  C   UNL A   1      46.585  34.326  30.219  1.00  0.00     0.002 A 
ATOM     90  C   UNL A   1      45.647  35.109  28.123  1.00  0.00     0.091 A 
ATOM     91  F   UNL A   1      44.398  33.593  26.770  1.00  0.00    -0.205 F 
ATOM     92  C   UNL A   1      46.363  35.354  29.305  1.00  0.00     0.022 A 
BRANCH  90  93
ATOM     93  S   UNL A   1      45.500  36.466  26.956  1.00  0.00     0.127 S 
ATOM     94  O   UNL A   1      46.120  35.897  25.759  1.00  0.00    -0.237 OA
ATOM     95  O   UNL A   1      44.051  36.641  26.867  1.00  0.00    -0.237 OA
ATOM     96  O   UNL A   1      46.211  37.589  27.549  1.00  0.00    -0.744 OA
ENDBRANCH  90  93
ENDBRANCH  63  86
ENDBRANCH  37  38
ENDBRANCH  29  32
ENDBRANCH  27  28
ENDBRANCH   1  27
TORSDOF 15
ENDMDL
MODEL 3
REMARK VINA RESULT:     -13.0      1.438      1.852
REMARK SMILES O=C1Nc2ccc(Br)cc2/C1=N/c1ccc(C(=O)NCCCCNC(=O)c2ccc(-c3c4nc(c(-c5cccc(S(=O)(=O)[O-])c5F)c5ccc([nH]5)c(-c5cccc(S(=O)(=O)[O-])c5F)c5nc(c(-c6cccc(S(=O)(=O)[O-])c6F)c6ccc3[nH]6)C=C5)C=C4)cc2)cc1
REMARK SMILES IDX 22 1 21 2 20 3 19 4 17 5 18 6 16 8 13 9 14 10 91 11 15 12
REMARK SMILES IDX 90 13 12 14 1 15 2 16 3 17 11 18 4 19 10 21 5 22 9 23 6 24
REMARK SMILES IDX 7 25 8 26 23 27 24 28 25 29 26 31 27 32 28 33 89 34 29 35
REMARK SMILES IDX 88 36 30 37 31 38 32 39 82 40 33 41 87 42 81 43 83 44 34 45
REMARK SMILES IDX 86 46 80 47 79 48 35 50 67 51 47 52 66 53 48 54 51 55 65 56
REMARK SMILES IDX 84 57 49 58 50 59 64 61 85 62 52 63 36 64 37 65 45 66 38 67
REMARK SMILES IDX 40 68 46 69 39 70 41 71 42 72 43 73 44 74 68 75 69 76 77 77
REMARK SMILES IDX 70 78 72 79 78 80 71 81 73 82 74 83 75 84 76 85 53 86 54 87
REMARK SMILES IDX 62 88 55 89 57 90 63 91 56 92 58 93 59 94 60 95 61 96
REMARK H PARENT 19 7 3 20 24 30 83 49 51 60
REMARK Flexibility Score: inf
ROOT
ATOM      1  C   UNL A   1      31.381  31.540  26.876  1.00  0.00     0.023 C 
ENDROOT
BRANCH   1   2
ATOM      2  C   UNL A   1      31.778  30.079  26.661  1.00  0.00     0.023 C 
BRANCH   2   3
ATOM      3  C   UNL A   1      32.161  29.746  25.216  1.00  0.00     0.116 C 
BRANCH   3   4
ATOM      4  N   UNL A   1      31.028  29.945  24.334  1.00  0.00    -0.352 N 
ATOM      5  C   UNL A   1      30.314  29.073  23.552  1.00  0.00     0.251 C 
ATOM      6  O   UNL A   1      29.357  29.515  22.915  1.00  0.00    -0.269 OA
ATOM      7  H   UNL A   1      30.714  30.878  24.288  1.00  0.00     0.163 HD
BRANCH   5   8
ATOM      8  C   UNL A   1      30.607  27.615  23.488  1.00  0.00     0.039 A 
ATOM      9  C   UNL A   1      31.159  24.855  23.589  1.00  0.00     0.064 A 
ATOM     10  C   UNL A   1      30.280  25.426  24.508  1.00  0.00     0.029 A 
ATOM     11  C   UNL A   1      31.686  25.649  22.570  1.00  0.00     0.029 A 
ATOM     12  C   UNL A   1      30.011  26.799  24.463  1.00  0.00     0.016 A 
ATOM     13  C   UNL A   1      31.399  27.014  22.509  1.00  0.00     0.016 A 
BRANCH   9  14
ATOM     14  N   UNL A   1      31.443  23.488  23.631  1.00  0.00    -0.243 NA
ATOM     15  O   UNL A   1      33.442  25.034  25.487  1.00  0.00    -0.267 OA
ATOM     16  C   UNL A   1      33.461  23.862  25.206  1.00  0.00     0.275 C 
ATOM     17  N   UNL A   1      34.386  22.918  25.616  1.00  0.00    -0.320 N 
ATOM     18  C   UNL A   1      32.464  23.082  24.316  1.00  0.00     0.138 C 
ATOM     19  C   UNL A   1      34.083  21.663  25.103  1.00  0.00     0.051 A 
ATOM     20  H   UNL A   1      35.158  23.111  26.195  1.00  0.00     0.170 HD
ATOM     21  C   UNL A   1      32.926  21.699  24.329  1.00  0.00     0.031 A 
ATOM     22  C   UNL A   1      34.793  20.494  25.271  1.00  0.00     0.028 A 
ATOM     23  C   UNL A   1      32.423  20.589  23.682  1.00  0.00     0.028 A 
ATOM     24  C   UNL A   1      34.306  19.348  24.626  1.00  0.00     0.018 A 
ATOM     25  C   UNL A   1      33.134  19.402  23.841  1.00  0.00     0.018 A 
ATOM     26  Br  UNL A   1      32.528  17.835  22.973  1.00  0.00    -0.051 Br
ENDBRANCH   9  14
ENDBRANCH   5   8
ENDBRANCH   3   4
ENDBRANCH   2   3
ENDBRANCH   1   2
BRANCH   1  27
ATOM     27  C   UNL A   1      32.479  32.552  26.572  1.00  0.00     0.116 C 
BRANCH  27  28
ATOM     28  N   UNL A   1      32.283  33.828  27.248  1.00  0.00    -0.352 N 
ATOM     29  C   UNL A   1      32.993  34.351  28.302  1.00  0.00     0.251 C 
ATOM     30  H   UNL A   1      31.548  34.386  26.907  1.00  0.00     0.163 HD
ATOM     31  O   UNL A   1      32.625  35.387  28.846  1.00  0.00    -0.269 OA
BRANCH  29  32
ATOM     32  C   UNL A   1      34.185  33.627  28.791  1.00  0.00     0.039 A 
ATOM     33  C   UNL A   1      35.440  34.218  28.645  1.00  0.00     0.014 A 
ATOM     34  C   UNL A   1      34.050  32.395  29.437  1.00  0.00     0.014 A 
ATOM     35  C   UNL A   1      36.559  33.599  29.205  1.00  0.00     0.010 A 
ATOM     36  C   UNL A   1      35.153  31.823  30.062  1.00  0.00     0.010 A 
ATOM     37  C   UNL A   1      36.419  32.414  29.949  1.00  0.00    -0.014 A 
BRANCH  37  38
ATOM     38  C   UNL A   1      37.585  31.791  30.627  1.00  0.00     0.031 A 
ATOM     39  C   UNL A   1      38.401  30.743  29.920  1.00  0.00     0.074 A 
ATOM     40  C   UNL A   1      37.855  32.106  31.910  1.00  0.00     0.049 A 
ATOM     41  N   UNL A   1      39.420  30.056  30.366  1.00  0.00    -0.248 NA
ATOM     42  C   UNL A   1      38.004  30.400  28.544  1.00  0.00     0.031 C 
ATOM     43  C   UNL A   1      37.084  33.042  32.732  1.00  0.00     0.029 A 
ATOM     44  N   UNL A   1      38.834  31.652  32.757  1.00  0.00    -0.354 N 
ATOM     45  C   UNL A   1      39.760  29.176  29.346  1.00  0.00     0.074 A 
ATOM     46  C   UNL A   1      38.821  29.393  28.269  1.00  0.00     0.031 C 
ATOM     47  C   UNL A   1      37.619  33.093  33.962  1.00  0.00     0.029 A 
ATOM     48  C   UNL A   1      38.746  32.170  34.029  1.00  0.00     0.049 A 
ATOM     49  H   UNL A   1      39.533  31.015  32.481  1.00  0.00     0.167 HD
ATOM     50  C   UNL A   1      40.776  28.282  29.301  1.00  0.00     0.034 A 
ATOM     51  C   UNL A   1      39.480  31.916  35.132  1.00  0.00     0.034 A 
ATOM     52  C   UNL A   1      41.732  28.097  30.359  1.00  0.00     0.049 A 
ATOM     53  C   UNL A   1      40.631  30.950  35.038  1.00  0.00     0.074 A 
ATOM     54  C   UNL A   1      42.859  27.294  30.366  1.00  0.00     0.029 A 
ATOM     55  N   UNL A   1      41.665  28.705  31.602  1.00  0.00    -0.354 N 
ATOM     56  N   UNL A   1      41.043  30.257  34.005  1.00  0.00    -0.248 NA
ATOM     57  C   UNL A   1      41.440  30.761  36.250  1.00  0.00     0.031 C 
ATOM     58  C   UNL A   1      43.450  27.384  31.629  1.00  0.00     0.029 A 
ATOM     59  C   UNL A   1      42.719  28.280  32.393  1.00  0.00     0.049 A 
ATOM     60  H   UNL A   1      40.970  29.345  31.882  1.00  0.00     0.167 HD
ATOM     61  C   UNL A   1      42.179  29.578  34.431  1.00  0.00     0.074 A 
ATOM     62  C   UNL A   1      42.403  29.962  35.809  1.00  0.00     0.031 C 
ATOM     63  C   UNL A   1      42.960  28.707  33.747  1.00  0.00     0.034 A 
BRANCH  50  64
ATOM     64  C   UNL A   1      40.934  27.454  28.053  1.00  0.00     0.023 A 
ATOM     65  C   UNL A   1      41.541  28.014  26.910  1.00  0.00     0.012 A 
ATOM     66  C   UNL A   1      40.551  26.099  28.038  1.00  0.00     0.148 A 
ATOM     67  C   UNL A   1      41.736  27.249  25.761  1.00  0.00     0.002 A 
ATOM     68  C   UNL A   1      40.793  25.328  26.906  1.00  0.00     0.091 A 
ATOM     69  F   UNL A   1      39.957  25.590  29.126  1.00  0.00    -0.205 F 
ATOM     70  C   UNL A   1      41.373  25.904  25.764  1.00  0.00     0.022 A 
BRANCH  68  71
ATOM     71  S   UNL A   1      40.443  23.568  26.838  1.00  0.00     0.127 S 
ATOM     72  O   UNL A   1      39.020  23.563  26.505  1.00  0.00    -0.237 OA
ATOM     73  O   UNL A   1      41.324  23.123  25.758  1.00  0.00    -0.237 OA
ATOM     74  O   UNL A   1      40.776  23.039  28.154  1.00  0.00    -0.744 OA
ENDBRANCH  68  71
ENDBRANCH  50  64
BRANCH  51  75
ATOM     75  C   UNL A   1      39.173  32.616  36.411  1.00  0.00     0.023 A 
ATOM     76  C   UNL A   1      39.748  33.875  36.675  1.00  0.00     0.012 A 
ATOM     77  C   UNL A   1      38.307  32.044  37.363  1.00  0.00     0.148 A 
ATOM     78  C   UNL A   1      39.501  34.531  37.882  1.00  0.00     0.002 A 
ATOM     79  C   UNL A   1      38.017  32.730  38.536  1.00  0.00     0.091 A 
ATOM     80  F   UNL A   1      37.778  30.842  37.098  1.00  0.00    -0.205 F 
ATOM     81  C   UNL A   1      38.628  33.964  38.807  1.00  0.00     0.022 A 
BRANCH  79  82
ATOM     82  S   UNL A   1      36.805  32.139  39.721  1.00  0.00     0.127 S 
ATOM     83  O   UNL A   1      37.335  30.821  40.059  1.00  0.00    -0.237 OA
ATOM     84  O   UNL A   1      36.913  33.138  40.785  1.00  0.00    -0.237 OA
ATOM     85  O   UNL A   1      35.530  32.148  39.017  1.00  0.00    -0.744 OA
ENDBRANCH  79  82
ENDBRANCH  51  75
BRANCH  63  86
ATOM     86  C   UNL A   1      44.164  28.140  34.452  1.00  0.00     0.023 A 
ATOM     87  C   UNL A   1      45.403  28.807  34.387  1.00  0.00     0.012 A 
ATOM     88  C   UNL A   1      44.044  26.980  35.243  1.00  0.00     0.148 A 
ATOM     89  C   UNL A   1      46.512  28.309  35.069  1.00  0.00     0.002 A 
ATOM     90  C   UNL A   1      45.139  26.520  35.965  1.00  0.00     0.091 A 
ATOM     91  F   UNL A   1      42.861  26.349  35.280  1.00  0.00    -0.205 F 
ATOM     92  C   UNL A   1      46.378  27.174  35.867  1.00  0.00     0.022 A 
BRANCH  90  93
ATOM     93  S   UNL A   1      45.032  25.129  37.096  1.00  0.00     0.127 S 
ATOM     94  O   UNL A   1      44.032  25.601  38.053  1.00  0.00    -0.237 OA
ATOM     95  O   UNL A   1      44.576  24.052  36.218  1.00  0.00    -0.237 OA
ATOM     96  O   UNL A   1      46.371  24.943  37.637  1.00  0.00    -0.744 OA
ENDBRANCH  90  93
ENDBRANCH  63  86
ENDBRANCH  37  38
ENDBRANCH  29  32
ENDBRANCH  27  28
ENDBRANCH   1  27
TORSDOF 15
ENDMDL
