MODEL 1
REMARK VINA RESULT:     -12.5      0.000      0.000
REMARK SMILES O=C(NCCCCNC(=O)c1nccnc1C(=O)Nc1ccc2c(c1)OCO2)c1ccc(-c2c3nc(c(-c4cccc(S(=O)(=O)[O-])c4F)c4ccc([nH]4)c(-c4cccc(S(=O)(=O)[O-])c4F)c4nc(c(-c5cccc(S(=O)(=O)[O-])c5F)c5ccc2[nH]5)C=C4)C=C3)cc1
REMARK SMILES IDX 5 1 4 2 3 3 1 4 2 5 29 7 30 8 91 9 31 10 90 11 32 12 33 13
REMARK SMILES IDX 34 14 84 15 35 16 89 17 83 18 85 19 36 20 88 21 82 22 81 23
REMARK SMILES IDX 37 25 69 26 49 27 68 28 50 29 53 30 67 31 86 32 51 33 52 34
REMARK SMILES IDX 66 36 87 37 54 38 38 39 39 40 47 41 40 42 42 43 48 44 41 45
REMARK SMILES IDX 43 46 44 47 45 48 46 49 70 50 71 51 79 52 72 53 74 54 80 55
REMARK SMILES IDX 73 56 75 57 76 58 77 59 78 60 55 61 56 62 64 63 57 64 59 65
REMARK SMILES IDX 65 66 58 67 60 68 61 69 62 70 63 71 6 72 7 73 8 74 9 75
REMARK SMILES IDX 10 77 11 78 12 79 16 80 13 81 15 82 14 83 17 84 18 85 19 86
REMARK SMILES IDX 20 88 21 89 25 90 22 91 24 92 23 93 26 94 28 95 27 96
REMARK H PARENT 3 6 85 24 53 35 8 76 19 87
REMARK Flexibility Score: inf
ROOT
ATOM      1  C   UNL A   1      31.708  28.408  26.756  1.00  0.00     0.023 C 
ENDROOT
BRANCH   1   2
ATOM      2  C   UNL A   1      32.695  29.297  26.010  1.00  0.00     0.116 C 
BRANCH   2   3
ATOM      3  N   UNL A   1      32.429  30.711  26.207  1.00  0.00    -0.352 N 
ATOM      4  O   UNL A   1      32.591  32.705  27.240  1.00  0.00    -0.269 OA
ATOM      5  C   UNL A   1      33.083  31.600  27.035  1.00  0.00     0.251 C 
ATOM      6  H   UNL A   1      31.684  31.083  25.682  1.00  0.00     0.163 HD
BRANCH   5   7
ATOM      7  C   UNL A   1      34.364  31.218  27.684  1.00  0.00     0.039 A 
ATOM      8  C   UNL A   1      35.336  32.179  27.971  1.00  0.00     0.014 A 
ATOM      9  C   UNL A   1      34.578  29.885  28.058  1.00  0.00     0.014 A 
ATOM     10  C   UNL A   1      36.554  31.796  28.528  1.00  0.00     0.010 A 
ATOM     11  C   UNL A   1      35.776  29.514  28.685  1.00  0.00     0.010 A 
ATOM     12  C   UNL A   1      36.782  30.463  28.914  1.00  0.00    -0.014 A 
BRANCH  12  13
ATOM     13  C   UNL A   1      38.030  30.132  29.656  1.00  0.00     0.031 A 
ATOM     14  C   UNL A   1      38.299  30.653  31.041  1.00  0.00     0.074 A 
ATOM     15  C   UNL A   1      38.929  29.322  29.061  1.00  0.00     0.049 A 
ATOM     16  N   UNL A   1      39.298  30.372  31.842  1.00  0.00    -0.248 NA
ATOM     17  C   UNL A   1      37.338  31.614  31.602  1.00  0.00     0.031 C 
ATOM     18  C   UNL A   1      38.818  28.812  27.691  1.00  0.00     0.029 A 
ATOM     19  N   UNL A   1      40.103  28.780  29.521  1.00  0.00    -0.354 N 
ATOM     20  C   UNL A   1      39.098  31.130  32.990  1.00  0.00     0.074 A 
ATOM     21  C   UNL A   1      37.890  31.900  32.774  1.00  0.00     0.031 C 
ATOM     22  C   UNL A   1      39.862  28.009  27.433  1.00  0.00     0.029 A 
ATOM     23  C   UNL A   1      40.734  27.975  28.602  1.00  0.00     0.049 A 
ATOM     24  H   UNL A   1      40.458  28.951  30.423  1.00  0.00     0.167 HD
ATOM     25  C   UNL A   1      39.839  31.164  34.125  1.00  0.00     0.034 A 
ATOM     26  C   UNL A   1      41.888  27.285  28.684  1.00  0.00     0.034 A 
ATOM     27  C   UNL A   1      41.028  30.381  34.345  1.00  0.00     0.049 A 
ATOM     28  C   UNL A   1      42.659  27.304  29.971  1.00  0.00     0.074 A 
ATOM     29  C   UNL A   1      41.818  30.316  35.481  1.00  0.00     0.029 A 
ATOM     30  N   UNL A   1      41.603  29.529  33.414  1.00  0.00    -0.354 N 
ATOM     31  N   UNL A   1      42.372  27.917  31.095  1.00  0.00    -0.248 NA
ATOM     32  C   UNL A   1      43.895  26.510  30.016  1.00  0.00     0.031 C 
ATOM     33  C   UNL A   1      42.875  29.433  35.233  1.00  0.00     0.029 A 
ATOM     34  C   UNL A   1      42.736  28.935  33.948  1.00  0.00     0.049 A 
ATOM     35  H   UNL A   1      41.257  29.369  32.506  1.00  0.00     0.167 HD
ATOM     36  C   UNL A   1      43.383  27.574  31.983  1.00  0.00     0.074 A 
ATOM     37  C   UNL A   1      44.264  26.662  31.281  1.00  0.00     0.031 C 
ATOM     38  C   UNL A   1      43.582  27.998  33.255  1.00  0.00     0.034 A 
BRANCH  25  39
ATOM     39  C   UNL A   1      39.355  32.034  35.258  1.00  0.00     0.023 A 
ATOM     40  C   UNL A   1      38.483  31.484  36.219  1.00  0.00     0.012 A 
ATOM     41  C   UNL A   1      39.832  33.349  35.431  1.00  0.00     0.148 A 
ATOM     42  C   UNL A   1      38.076  32.233  37.324  1.00  0.00     0.002 A 
ATOM     43  C   UNL A   1      39.450  34.078  36.553  1.00  0.00     0.091 A 
ATOM     44  F   UNL A   1      40.648  33.860  34.499  1.00  0.00    -0.205 F 
ATOM     45  C   UNL A   1      38.567  33.525  37.495  1.00  0.00     0.022 A 
BRANCH  43  46
ATOM     46  S   UNL A   1      40.081  35.723  36.907  1.00  0.00     0.127 S 
ATOM     47  O   UNL A   1      41.522  35.480  36.962  1.00  0.00    -0.237 OA
ATOM     48  O   UNL A   1      39.635  36.482  35.739  1.00  0.00    -0.237 OA
ATOM     49  O   UNL A   1      39.468  36.127  38.165  1.00  0.00    -0.744 OA
ENDBRANCH  43  46
ENDBRANCH  25  39
BRANCH  26  50
ATOM     50  C   UNL A   1      42.351  26.478  27.519  1.00  0.00     0.023 A 
ATOM     51  C   UNL A   1      43.222  27.051  26.574  1.00  0.00     0.012 A 
ATOM     52  C   UNL A   1      41.962  25.133  27.368  1.00  0.00     0.148 A 
ATOM     53  C   UNL A   1      43.676  26.307  25.485  1.00  0.00     0.002 A 
ATOM     54  C   UNL A   1      42.470  24.379  26.316  1.00  0.00     0.091 A 
ATOM     55  F   UNL A   1      41.114  24.609  28.264  1.00  0.00    -0.205 F 
ATOM     56  C   UNL A   1      43.312  24.968  25.363  1.00  0.00     0.022 A 
BRANCH  54  57
ATOM     57  S   UNL A   1      42.167  22.613  26.193  1.00  0.00     0.127 S 
ATOM     58  O   UNL A   1      42.903  22.266  24.981  1.00  0.00    -0.237 OA
ATOM     59  O   UNL A   1      42.753  22.110  27.437  1.00  0.00    -0.237 OA
ATOM     60  O   UNL A   1      40.717  22.480  26.125  1.00  0.00    -0.744 OA
ENDBRANCH  54  57
ENDBRANCH  26  50
BRANCH  38  61
ATOM     61  C   UNL A   1      44.800  27.476  33.970  1.00  0.00     0.023 A 
ATOM     62  C   UNL A   1      45.985  28.242  33.968  1.00  0.00     0.012 A 
ATOM     63  C   UNL A   1      44.768  26.254  34.667  1.00  0.00     0.148 A 
ATOM     64  C   UNL A   1      47.129  27.779  34.615  1.00  0.00     0.002 A 
ATOM     65  C   UNL A   1      45.901  25.821  35.348  1.00  0.00     0.091 A 
ATOM     66  F   UNL A   1      43.642  25.528  34.639  1.00  0.00    -0.205 F 
ATOM     67  C   UNL A   1      47.085  26.575  35.313  1.00  0.00     0.022 A 
BRANCH  65  68
ATOM     68  S   UNL A   1      45.905  24.322  36.339  1.00  0.00     0.127 S 
ATOM     69  O   UNL A   1      47.232  24.368  36.947  1.00  0.00    -0.237 OA
ATOM     70  O   UNL A   1      44.799  24.556  37.268  1.00  0.00    -0.237 OA
ATOM     71  O   UNL A   1      45.678  23.229  35.401  1.00  0.00    -0.744 OA
ENDBRANCH  65  68
ENDBRANCH  38  61
ENDBRANCH  12  13
ENDBRANCH   5   7
ENDBRANCH   2   3
ENDBRANCH   1   2
BRANCH   1  72
ATOM     72  C   UNL A   1      31.115  27.198  26.024  1.00  0.00     0.023 C 
BRANCH  72  73
ATOM     73  C   UNL A   1      31.622  25.800  26.373  1.00  0.00     0.116 C 
BRANCH  73  74
ATOM     74  N   UNL A   1      30.614  24.746  26.393  1.00  0.00    -0.351 N 
ATOM     75  C   UNL A   1      30.780  23.379  26.558  1.00  0.00     0.272 C 
ATOM     76  H   UNL A   1      29.685  25.048  26.274  1.00  0.00     0.163 HD
ATOM     77  O   UNL A   1      29.836  22.669  26.892  1.00  0.00    -0.267 OA
BRANCH  75  78
ATOM     78  C   UNL A   1      32.122  22.782  26.451  1.00  0.00     0.159 A 
ATOM     79  N   UNL A   1      32.672  22.596  27.705  1.00  0.00    -0.247 NA
ATOM     80  C   UNL A   1      32.746  22.348  25.287  1.00  0.00     0.159 A 
ATOM     81  C   UNL A   1      33.858  21.971  27.772  1.00  0.00     0.132 A 
ATOM     82  N   UNL A   1      33.992  21.760  25.409  1.00  0.00    -0.247 NA
ATOM     83  C   UNL A   1      34.512  21.567  26.638  1.00  0.00     0.132 A 
BRANCH  80  84
ATOM     84  C   UNL A   1      32.281  22.248  23.842  1.00  0.00     0.276 C 
ATOM     85  O   UNL A   1      32.138  21.111  23.365  1.00  0.00    -0.267 OA
ATOM     86  N   UNL A   1      31.799  23.250  23.038  1.00  0.00    -0.320 N 
ATOM     87  H   UNL A   1      31.048  22.959  22.471  1.00  0.00     0.170 HD
BRANCH  86  88
ATOM     88  C   UNL A   1      32.135  24.585  22.848  1.00  0.00     0.045 A 
ATOM     89  C   UNL A   1      33.420  25.087  23.105  1.00  0.00     0.030 A 
ATOM     90  C   UNL A   1      31.121  25.420  22.363  1.00  0.00     0.076 A 
ATOM     91  C   UNL A   1      33.661  26.461  22.979  1.00  0.00     0.053 A 
ATOM     92  C   UNL A   1      31.364  26.773  22.361  1.00  0.00     0.167 A 
ATOM     93  C   UNL A   1      32.597  27.281  22.681  1.00  0.00     0.165 A 
ATOM     94  O   UNL A   1      30.445  27.749  22.130  1.00  0.00    -0.454 OA
ATOM     95  O   UNL A   1      32.605  28.640  22.713  1.00  0.00    -0.454 OA
ATOM     96  C   UNL A   1      31.194  28.910  22.548  1.00  0.00     0.468 C 
ENDBRANCH  86  88
ENDBRANCH  80  84
ENDBRANCH  75  78
ENDBRANCH  73  74
ENDBRANCH  72  73
ENDBRANCH   1  72
TORSDOF 16
ENDMDL
MODEL 2
REMARK VINA RESULT:     -12.3      1.868      3.289
REMARK SMILES O=C(NCCCCNC(=O)c1nccnc1C(=O)Nc1ccc2c(c1)OCO2)c1ccc(-c2c3nc(c(-c4cccc(S(=O)(=O)[O-])c4F)c4ccc([nH]4)c(-c4cccc(S(=O)(=O)[O-])c4F)c4nc(c(-c5cccc(S(=O)(=O)[O-])c5F)c5ccc2[nH]5)C=C4)C=C3)cc1
REMARK SMILES IDX 5 1 4 2 3 3 1 4 2 5 29 7 30 8 91 9 31 10 90 11 32 12 33 13
REMARK SMILES IDX 34 14 84 15 35 16 89 17 83 18 85 19 36 20 88 21 82 22 81 23
REMARK SMILES IDX 37 25 69 26 49 27 68 28 50 29 53 30 67 31 86 32 51 33 52 34
REMARK SMILES IDX 66 36 87 37 54 38 38 39 39 40 47 41 40 42 42 43 48 44 41 45
REMARK SMILES IDX 43 46 44 47 45 48 46 49 70 50 71 51 79 52 72 53 74 54 80 55
REMARK SMILES IDX 73 56 75 57 76 58 77 59 78 60 55 61 56 62 64 63 57 64 59 65
REMARK SMILES IDX 65 66 58 67 60 68 61 69 62 70 63 71 6 72 7 73 8 74 9 75
REMARK SMILES IDX 10 77 11 78 12 79 16 80 13 81 15 82 14 83 17 84 18 85 19 86
REMARK SMILES IDX 20 88 21 89 25 90 22 91 24 92 23 93 26 94 28 95 27 96
REMARK H PARENT 3 6 85 24 53 35 8 76 19 87
REMARK Flexibility Score: inf
ROOT
ATOM      1  C   UNL A   1      31.780  28.830  26.653  1.00  0.00     0.023 C 
ENDROOT
BRANCH   1   2
ATOM      2  C   UNL A   1      32.915  29.697  26.123  1.00  0.00     0.116 C 
BRANCH   2   3
ATOM      3  N   UNL A   1      32.714  31.108  26.400  1.00  0.00    -0.352 N 
ATOM      4  O   UNL A   1      32.971  33.032  27.541  1.00  0.00    -0.269 OA
ATOM      5  C   UNL A   1      33.412  31.919  27.271  1.00  0.00     0.251 C 
ATOM      6  H   UNL A   1      31.984  31.541  25.902  1.00  0.00     0.163 HD
BRANCH   5   7
ATOM      7  C   UNL A   1      34.678  31.445  27.888  1.00  0.00     0.039 A 
ATOM      8  C   UNL A   1      35.782  32.293  27.999  1.00  0.00     0.014 A 
ATOM      9  C   UNL A   1      34.748  30.147  28.409  1.00  0.00     0.014 A 
ATOM     10  C   UNL A   1      36.979  31.816  28.529  1.00  0.00     0.010 A 
ATOM     11  C   UNL A   1      35.931  29.691  29.008  1.00  0.00     0.010 A 
ATOM     12  C   UNL A   1      37.064  30.517  29.062  1.00  0.00    -0.014 A 
BRANCH  12  13
ATOM     13  C   UNL A   1      38.310  30.108  29.766  1.00  0.00     0.031 A 
ATOM     14  C   UNL A   1      38.647  30.600  31.147  1.00  0.00     0.074 A 
ATOM     15  C   UNL A   1      39.143  29.252  29.141  1.00  0.00     0.049 A 
ATOM     16  N   UNL A   1      39.650  30.256  31.918  1.00  0.00    -0.248 NA
ATOM     17  C   UNL A   1      37.759  31.612  31.740  1.00  0.00     0.031 C 
ATOM     18  C   UNL A   1      38.965  28.759  27.771  1.00  0.00     0.029 A 
ATOM     19  N   UNL A   1      40.295  28.638  29.565  1.00  0.00    -0.354 N 
ATOM     20  C   UNL A   1      39.526  31.015  33.075  1.00  0.00     0.074 A 
ATOM     21  C   UNL A   1      38.360  31.855  32.899  1.00  0.00     0.031 C 
ATOM     22  C   UNL A   1      39.952  27.900  27.480  1.00  0.00     0.029 A 
ATOM     23  C   UNL A   1      40.853  27.805  28.623  1.00  0.00     0.049 A 
ATOM     24  H   UNL A   1      40.685  28.781  30.457  1.00  0.00     0.167 HD
ATOM     25  C   UNL A   1      40.298  30.997  34.189  1.00  0.00     0.034 A 
ATOM     26  C   UNL A   1      41.967  27.048  28.668  1.00  0.00     0.034 A 
ATOM     27  C   UNL A   1      41.445  30.143  34.371  1.00  0.00     0.049 A 
ATOM     28  C   UNL A   1      42.773  27.012  29.934  1.00  0.00     0.074 A 
ATOM     29  C   UNL A   1      42.261  30.023  35.484  1.00  0.00     0.029 A 
ATOM     30  N   UNL A   1      41.943  29.267  33.419  1.00  0.00    -0.354 N 
ATOM     31  N   UNL A   1      42.553  27.631  31.069  1.00  0.00    -0.248 NA
ATOM     32  C   UNL A   1      43.960  26.147  29.939  1.00  0.00     0.031 C 
ATOM     33  C   UNL A   1      43.258  29.082  35.201  1.00  0.00     0.029 A 
ATOM     34  C   UNL A   1      43.054  28.603  33.917  1.00  0.00     0.049 A 
ATOM     35  H   UNL A   1      41.564  29.134  32.520  1.00  0.00     0.167 HD
ATOM     36  C   UNL A   1      43.566  27.223  31.926  1.00  0.00     0.074 A 
ATOM     37  C   UNL A   1      44.372  26.267  31.194  1.00  0.00     0.031 C 
ATOM     38  C   UNL A   1      43.824  27.624  33.195  1.00  0.00     0.034 A 
BRANCH  25  39
ATOM     39  C   UNL A   1      39.897  31.884  35.341  1.00  0.00     0.023 A 
ATOM     40  C   UNL A   1      40.360  33.215  35.374  1.00  0.00     0.012 A 
ATOM     41  C   UNL A   1      38.994  31.442  36.329  1.00  0.00     0.148 A 
ATOM     42  C   UNL A   1      39.948  34.088  36.381  1.00  0.00     0.002 A 
ATOM     43  C   UNL A   1      38.559  32.328  37.310  1.00  0.00     0.091 A 
ATOM     44  F   UNL A   1      38.576  30.170  36.290  1.00  0.00    -0.205 F 
ATOM     45  C   UNL A   1      39.041  33.648  37.342  1.00  0.00     0.022 A 
BRANCH  43  46
ATOM     46  S   UNL A   1      37.338  31.885  38.551  1.00  0.00     0.127 S 
ATOM     47  O   UNL A   1      36.267  32.840  38.265  1.00  0.00    -0.237 OA
ATOM     48  O   UNL A   1      37.028  30.500  38.198  1.00  0.00    -0.237 OA
ATOM     49  O   UNL A   1      37.994  32.052  39.840  1.00  0.00    -0.744 OA
ENDBRANCH  43  46
ENDBRANCH  25  39
BRANCH  26  50
ATOM     50  C   UNL A   1      42.349  26.225  27.486  1.00  0.00     0.023 A 
ATOM     51  C   UNL A   1      43.156  26.784  26.477  1.00  0.00     0.012 A 
ATOM     52  C   UNL A   1      41.949  24.879  27.379  1.00  0.00     0.148 A 
ATOM     53  C   UNL A   1      43.535  26.025  25.370  1.00  0.00     0.002 A 
ATOM     54  C   UNL A   1      42.384  24.110  26.306  1.00  0.00     0.091 A 
ATOM     55  F   UNL A   1      41.162  24.368  28.336  1.00  0.00    -0.205 F 
ATOM     56  C   UNL A   1      43.162  24.685  25.290  1.00  0.00     0.022 A 
BRANCH  54  57
ATOM     57  S   UNL A   1      42.071  22.343  26.226  1.00  0.00     0.127 S 
ATOM     58  O   UNL A   1      40.615  22.300  26.129  1.00  0.00    -0.237 OA
ATOM     59  O   UNL A   1      42.783  21.957  25.006  1.00  0.00    -0.237 OA
ATOM     60  O   UNL A   1      42.652  21.800  27.447  1.00  0.00    -0.744 OA
ENDBRANCH  54  57
ENDBRANCH  26  50
BRANCH  38  61
ATOM     61  C   UNL A   1      45.029  27.027  33.872  1.00  0.00     0.023 A 
ATOM     62  C   UNL A   1      46.286  27.650  33.725  1.00  0.00     0.012 A 
ATOM     63  C   UNL A   1      44.918  25.876  34.676  1.00  0.00     0.148 A 
ATOM     64  C   UNL A   1      47.419  27.113  34.335  1.00  0.00     0.002 A 
ATOM     65  C   UNL A   1      46.045  25.373  35.316  1.00  0.00     0.091 A 
ATOM     66  F   UNL A   1      43.720  25.283  34.785  1.00  0.00    -0.205 F 
ATOM     67  C   UNL A   1      47.298  25.982  35.138  1.00  0.00     0.022 A 
BRANCH  65  68
ATOM     68  S   UNL A   1      45.961  23.968  36.434  1.00  0.00     0.127 S 
ATOM     69  O   UNL A   1      47.347  23.860  36.883  1.00  0.00    -0.237 OA
ATOM     70  O   UNL A   1      45.024  24.435  37.456  1.00  0.00    -0.237 OA
ATOM     71  O   UNL A   1      45.468  22.856  35.631  1.00  0.00    -0.744 OA
ENDBRANCH  65  68
ENDBRANCH  38  61
ENDBRANCH  12  13
ENDBRANCH   5   7
ENDBRANCH   2   3
ENDBRANCH   1   2
BRANCH   1  72
ATOM     72  C   UNL A   1      32.026  27.326  26.824  1.00  0.00     0.023 C 
BRANCH  72  73
ATOM     73  C   UNL A   1      31.190  26.341  26.008  1.00  0.00     0.116 C 
BRANCH  73  74
ATOM     74  N   UNL A   1      30.985  25.030  26.612  1.00  0.00    -0.351 N 
ATOM     75  C   UNL A   1      31.815  23.919  26.593  1.00  0.00     0.272 C 
ATOM     76  H   UNL A   1      30.140  24.919  27.103  1.00  0.00     0.163 HD
ATOM     77  O   UNL A   1      31.674  23.018  27.415  1.00  0.00    -0.267 OA
BRANCH  75  78
ATOM     78  C   UNL A   1      32.952  23.863  25.659  1.00  0.00     0.159 A 
ATOM     79  N   UNL A   1      34.136  24.131  26.320  1.00  0.00    -0.247 NA
ATOM     80  C   UNL A   1      32.907  23.493  24.320  1.00  0.00     0.159 A 
ATOM     81  C   UNL A   1      35.273  24.023  25.614  1.00  0.00     0.132 A 
ATOM     82  N   UNL A   1      34.104  23.453  23.626  1.00  0.00    -0.247 NA
ATOM     83  C   UNL A   1      35.255  23.697  24.284  1.00  0.00     0.132 A 
BRANCH  80  84
ATOM     84  C   UNL A   1      31.792  22.965  23.432  1.00  0.00     0.276 C 
ATOM     85  O   UNL A   1      30.880  23.751  23.130  1.00  0.00    -0.267 OA
ATOM     86  N   UNL A   1      31.750  21.778  22.743  1.00  0.00    -0.320 N 
ATOM     87  H   UNL A   1      31.346  21.867  21.850  1.00  0.00     0.170 HD
BRANCH  86  88
ATOM     88  C   UNL A   1      32.153  20.479  23.028  1.00  0.00     0.045 A 
ATOM     89  C   UNL A   1      32.203  19.469  22.055  1.00  0.00     0.030 A 
ATOM     90  C   UNL A   1      32.531  20.220  24.352  1.00  0.00     0.076 A 
ATOM     91  C   UNL A   1      32.529  18.162  22.434  1.00  0.00     0.053 A 
ATOM     92  C   UNL A   1      32.734  18.908  24.706  1.00  0.00     0.167 A 
ATOM     93  C   UNL A   1      32.712  17.902  23.773  1.00  0.00     0.165 A 
ATOM     94  O   UNL A   1      32.898  18.438  25.971  1.00  0.00    -0.454 OA
ATOM     95  O   UNL A   1      32.840  16.671  24.336  1.00  0.00    -0.454 OA
ATOM     96  C   UNL A   1      32.765  17.020  25.737  1.00  0.00     0.468 C 
ENDBRANCH  86  88
ENDBRANCH  80  84
ENDBRANCH  75  78
ENDBRANCH  73  74
ENDBRANCH  72  73
ENDBRANCH   1  72
TORSDOF 16
ENDMDL
MODEL 3
REMARK VINA RESULT:     -12.3      1.861      3.556
REMARK SMILES O=C(NCCCCNC(=O)c1nccnc1C(=O)Nc1ccc2c(c1)OCO2)c1ccc(-c2c3nc(c(-c4cccc(S(=O)(=O)[O-])c4F)c4ccc([nH]4)c(-c4cccc(S(=O)(=O)[O-])c4F)c4nc(c(-c5cccc(S(=O)(=O)[O-])c5F)c5ccc2[nH]5)C=C4)C=C3)cc1
REMARK SMILES IDX 5 1 4 2 3 3 1 4 2 5 29 7 30 8 91 9 31 10 90 11 32 12 33 13
REMARK SMILES IDX 34 14 84 15 35 16 89 17 83 18 85 19 36 20 88 21 82 22 81 23
REMARK SMILES IDX 37 25 69 26 49 27 68 28 50 29 53 30 67 31 86 32 51 33 52 34
REMARK SMILES IDX 66 36 87 37 54 38 38 39 39 40 47 41 40 42 42 43 48 44 41 45
REMARK SMILES IDX 43 46 44 47 45 48 46 49 70 50 71 51 79 52 72 53 74 54 80 55
REMARK SMILES IDX 73 56 75 57 76 58 77 59 78 60 55 61 56 62 64 63 57 64 59 65
REMARK SMILES IDX 65 66 58 67 60 68 61 69 62 70 63 71 6 72 7 73 8 74 9 75
REMARK SMILES IDX 10 77 11 78 12 79 16 80 13 81 15 82 14 83 17 84 18 85 19 86
REMARK SMILES IDX 20 88 21 89 25 90 22 91 24 92 23 93 26 94 28 95 27 96
REMARK H PARENT 3 6 85 24 53 35 8 76 19 87
REMARK Flexibility Score: inf
ROOT
ATOM      1  C   UNL A   1      32.193  28.070  25.673  1.00  0.00     0.023 C 
ENDROOT
BRANCH   1   2
ATOM      2  C   UNL A   1      33.194  29.183  25.391  1.00  0.00     0.116 C 
BRANCH   2   3
ATOM      3  N   UNL A   1      32.721  30.482  25.836  1.00  0.00    -0.352 N 
ATOM      4  O   UNL A   1      32.530  32.221  27.254  1.00  0.00    -0.269 OA
ATOM      5  C   UNL A   1      33.184  31.250  26.884  1.00  0.00     0.251 C 
ATOM      6  H   UNL A   1      31.974  30.864  25.322  1.00  0.00     0.163 HD
BRANCH   5   7
ATOM      7  C   UNL A   1      34.453  30.896  27.571  1.00  0.00     0.039 A 
ATOM      8  C   UNL A   1      35.421  31.868  27.833  1.00  0.00     0.014 A 
ATOM      9  C   UNL A   1      34.661  29.581  28.005  1.00  0.00     0.014 A 
ATOM     10  C   UNL A   1      36.629  31.510  28.427  1.00  0.00     0.010 A 
ATOM     11  C   UNL A   1      35.847  29.237  28.669  1.00  0.00     0.010 A 
ATOM     12  C   UNL A   1      36.850  30.195  28.874  1.00  0.00    -0.014 A 
BRANCH  12  13
ATOM     13  C   UNL A   1      38.085  29.897  29.650  1.00  0.00     0.031 A 
ATOM     14  C   UNL A   1      38.325  30.466  31.022  1.00  0.00     0.074 A 
ATOM     15  C   UNL A   1      38.999  29.072  29.101  1.00  0.00     0.049 A 
ATOM     16  N   UNL A   1      39.309  30.218  31.851  1.00  0.00    -0.248 NA
ATOM     17  C   UNL A   1      37.348  31.441  31.530  1.00  0.00     0.031 C 
ATOM     18  C   UNL A   1      38.917  28.514  27.747  1.00  0.00     0.029 A 
ATOM     19  N   UNL A   1      40.166  28.552  29.601  1.00  0.00    -0.354 N 
ATOM     20  C   UNL A   1      39.084  31.014  32.967  1.00  0.00     0.074 A 
ATOM     21  C   UNL A   1      37.877  31.769  32.703  1.00  0.00     0.031 C 
ATOM     22  C   UNL A   1      39.969  27.709  27.537  1.00  0.00     0.029 A 
ATOM     23  C   UNL A   1      40.819  27.719  28.723  1.00  0.00     0.049 A 
ATOM     24  H   UNL A   1      40.503  28.755  30.504  1.00  0.00     0.167 HD
ATOM     25  C   UNL A   1      39.802  31.091  34.114  1.00  0.00     0.034 A 
ATOM     26  C   UNL A   1      41.974  27.038  28.850  1.00  0.00     0.034 A 
ATOM     27  C   UNL A   1      40.990  30.322  34.384  1.00  0.00     0.049 A 
ATOM     28  C   UNL A   1      42.720  27.106  30.151  1.00  0.00     0.074 A 
ATOM     29  C   UNL A   1      41.759  30.300  35.537  1.00  0.00     0.029 A 
ATOM     30  N   UNL A   1      41.587  29.441  33.495  1.00  0.00    -0.354 N 
ATOM     31  N   UNL A   1      42.409  27.755  31.247  1.00  0.00    -0.248 NA
ATOM     32  C   UNL A   1      43.958  26.320  30.247  1.00  0.00     0.031 C 
ATOM     33  C   UNL A   1      42.825  29.415  35.339  1.00  0.00     0.029 A 
ATOM     34  C   UNL A   1      42.713  28.872  34.070  1.00  0.00     0.049 A 
ATOM     35  H   UNL A   1      41.260  29.248  32.586  1.00  0.00     0.167 HD
ATOM     36  C   UNL A   1      43.403  27.448  32.166  1.00  0.00     0.074 A 
ATOM     37  C   UNL A   1      44.302  26.517  31.512  1.00  0.00     0.031 C 
ATOM     38  C   UNL A   1      43.576  27.917  33.426  1.00  0.00     0.034 A 
BRANCH  25  39
ATOM     39  C   UNL A   1      39.292  31.997  35.208  1.00  0.00     0.023 A 
ATOM     40  C   UNL A   1      38.368  31.489  36.143  1.00  0.00     0.012 A 
ATOM     41  C   UNL A   1      39.793  33.304  35.372  1.00  0.00     0.148 A 
ATOM     42  C   UNL A   1      37.934  32.271  37.213  1.00  0.00     0.002 A 
ATOM     43  C   UNL A   1      39.383  34.066  36.462  1.00  0.00     0.091 A 
ATOM     44  F   UNL A   1      40.660  33.775  34.466  1.00  0.00    -0.205 F 
ATOM     45  C   UNL A   1      38.448  33.554  37.377  1.00  0.00     0.022 A 
BRANCH  43  46
ATOM     46  S   UNL A   1      40.038  35.703  36.807  1.00  0.00     0.127 S 
ATOM     47  O   UNL A   1      41.470  35.430  36.920  1.00  0.00    -0.237 OA
ATOM     48  O   UNL A   1      39.653  36.449  35.609  1.00  0.00    -0.237 OA
ATOM     49  O   UNL A   1      39.388  36.146  38.033  1.00  0.00    -0.744 OA
ENDBRANCH  43  46
ENDBRANCH  25  39
BRANCH  26  50
ATOM     50  C   UNL A   1      42.462  26.194  27.723  1.00  0.00     0.023 A 
ATOM     51  C   UNL A   1      43.445  26.696  26.849  1.00  0.00     0.012 A 
ATOM     52  C   UNL A   1      41.987  24.882  27.540  1.00  0.00     0.148 A 
ATOM     53  C   UNL A   1      43.924  25.916  25.797  1.00  0.00     0.002 A 
ATOM     54  C   UNL A   1      42.515  24.088  26.529  1.00  0.00     0.091 A 
ATOM     55  F   UNL A   1      41.035  24.426  28.366  1.00  0.00    -0.205 F 
ATOM     56  C   UNL A   1      43.471  24.608  25.645  1.00  0.00     0.022 A 
BRANCH  54  57
ATOM     57  S   UNL A   1      42.090  22.349  26.379  1.00  0.00     0.127 S 
ATOM     58  O   UNL A   1      40.642  22.408  26.203  1.00  0.00    -0.237 OA
ATOM     59  O   UNL A   1      42.841  21.948  25.187  1.00  0.00    -0.237 OA
ATOM     60  O   UNL A   1      42.565  21.734  27.612  1.00  0.00    -0.744 OA
ENDBRANCH  54  57
ENDBRANCH  26  50
BRANCH  38  61
ATOM     61  C   UNL A   1      44.783  27.426  34.182  1.00  0.00     0.023 A 
ATOM     62  C   UNL A   1      46.023  28.072  33.999  1.00  0.00     0.012 A 
ATOM     63  C   UNL A   1      44.688  26.356  35.091  1.00  0.00     0.148 A 
ATOM     64  C   UNL A   1      47.158  27.634  34.680  1.00  0.00     0.002 A 
ATOM     65  C   UNL A   1      45.815  25.954  35.799  1.00  0.00     0.091 A 
ATOM     66  F   UNL A   1      43.507  25.738  35.234  1.00  0.00    -0.205 F 
ATOM     67  C   UNL A   1      47.052  26.582  35.587  1.00  0.00     0.022 A 
BRANCH  65  68
ATOM     68  S   UNL A   1      45.748  24.661  37.046  1.00  0.00     0.127 S 
ATOM     69  O   UNL A   1      45.518  23.470  36.231  1.00  0.00    -0.237 OA
ATOM     70  O   UNL A   1      47.078  24.738  37.652  1.00  0.00    -0.237 OA
ATOM     71  O   UNL A   1      44.659  25.034  37.941  1.00  0.00    -0.744 OA
ENDBRANCH  65  68
ENDBRANCH  38  61
ENDBRANCH  12  13
ENDBRANCH   5   7
ENDBRANCH   2   3
ENDBRANCH   1   2
BRANCH   1  72
ATOM     72  C   UNL A   1      32.721  26.721  26.177  1.00  0.00     0.023 C 
BRANCH  72  73
ATOM     73  C   UNL A   1      32.128  25.434  25.607  1.00  0.00     0.116 C 
BRANCH  73  74
ATOM     74  N   UNL A   1      31.824  24.391  26.580  1.00  0.00    -0.351 N 
ATOM     75  C   UNL A   1      32.582  23.290  26.947  1.00  0.00     0.272 C 
ATOM     76  H   UNL A   1      30.959  24.482  27.040  1.00  0.00     0.163 HD
ATOM     77  O   UNL A   1      32.362  22.701  28.002  1.00  0.00    -0.267 OA
BRANCH  75  78
ATOM     78  C   UNL A   1      33.740  22.887  26.132  1.00  0.00     0.159 A 
ATOM     79  N   UNL A   1      34.916  23.331  26.706  1.00  0.00    -0.247 NA
ATOM     80  C   UNL A   1      33.716  22.082  24.998  1.00  0.00     0.159 A 
ATOM     81  C   UNL A   1      36.067  22.957  26.124  1.00  0.00     0.132 A 
ATOM     82  N   UNL A   1      34.928  21.774  24.406  1.00  0.00    -0.247 NA
ATOM     83  C   UNL A   1      36.071  22.196  24.984  1.00  0.00     0.132 A 
BRANCH  80  84
ATOM     84  C   UNL A   1      32.605  21.313  24.301  1.00  0.00     0.276 C 
ATOM     85  O   UNL A   1      31.612  21.957  23.927  1.00  0.00    -0.267 OA
ATOM     86  N   UNL A   1      32.630  20.020  23.844  1.00  0.00    -0.320 N 
ATOM     87  H   UNL A   1      32.172  19.909  22.981  1.00  0.00     0.170 HD
BRANCH  86  88
ATOM     88  C   UNL A   1      33.162  18.831  24.331  1.00  0.00     0.045 A 
ATOM     89  C   UNL A   1      34.518  18.496  24.199  1.00  0.00     0.030 A 
ATOM     90  C   UNL A   1      32.270  17.973  24.987  1.00  0.00     0.076 A 
ATOM     91  C   UNL A   1      34.963  17.241  24.632  1.00  0.00     0.053 A 
ATOM     92  C   UNL A   1      32.718  16.711  25.294  1.00  0.00     0.167 A 
ATOM     93  C   UNL A   1      34.027  16.348  25.101  1.00  0.00     0.165 A 
ATOM     94  O   UNL A   1      31.953  15.676  25.734  1.00  0.00    -0.454 OA
ATOM     95  O   UNL A   1      34.246  15.034  25.376  1.00  0.00    -0.454 OA
ATOM     96  C   UNL A   1      32.888  14.586  25.591  1.00  0.00     0.468 C 
ENDBRANCH  86  88
ENDBRANCH  80  84
ENDBRANCH  75  78
ENDBRANCH  73  74
ENDBRANCH  72  73
ENDBRANCH   1  72
TORSDOF 16
ENDMDL
