MODEL 1
REMARK VINA RESULT:     -11.7      0.000      0.000
REMARK SMILES C[N@@H+]1CC[N@@H+](C)[C@H](C[NH2+]Cc2ccc(C(=O)NCCCCNC(=O)c3ccc(-c4c5nc(c(-c6cccc(S(=O)(=O)[O-])c6F)c6ccc([nH]6)c(-c6cccc(S(=O)(=O)[O-])c6F)c6nc(c(-c7cccc(S(=O)(=O)[O-])c7F)c7ccc4[nH]7)C=C6)C=C5)cc3)cn2)C1
REMARK SMILES IDX 19 1 18 2 17 3 15 4 16 5 14 7 11 8 12 9 89 10 13 11 88 12
REMARK SMILES IDX 10 13 9 14 8 17 7 18 1 19 2 20 3 21 90 22 4 24 5 25 6 26
REMARK SMILES IDX 20 28 21 29 22 30 23 31 24 33 25 34 26 35 87 36 27 37 86 38
REMARK SMILES IDX 28 39 29 40 30 41 80 42 31 43 85 44 79 45 81 46 32 47 84 48
REMARK SMILES IDX 78 49 77 50 33 52 65 53 45 54 64 55 46 56 49 57 63 58 82 59
REMARK SMILES IDX 47 60 48 61 62 63 83 64 50 65 34 66 35 67 43 68 36 69 38 70
REMARK SMILES IDX 44 71 37 72 39 73 40 74 41 75 42 76 66 77 67 78 75 79 68 80
REMARK SMILES IDX 70 81 76 82 69 83 71 84 72 85 73 86 74 87 51 88 52 89 60 90
REMARK SMILES IDX 53 91 55 92 61 93 54 94 56 95 57 96 58 97 59 98
REMARK H PARENT 17 6 9 15 9 16 2 23 5 27 22 32 81 51 49 62
REMARK Flexibility Score: inf
ROOT
ATOM      1  C   UNL A   1      32.066  30.229  26.753  1.00  0.00     0.023 C 
ENDROOT
BRANCH   1   2
ATOM      2  C   UNL A   1      32.220  29.698  25.325  1.00  0.00     0.116 C 
BRANCH   2   3
ATOM      3  N   UNL A   1      31.054  30.022  24.532  1.00  0.00    -0.352 N 
ATOM      4  C   UNL A   1      30.306  29.286  23.649  1.00  0.00     0.252 C 
ATOM      5  O   UNL A   1      29.362  29.857  23.100  1.00  0.00    -0.269 OA
ATOM      6  H   UNL A   1      30.737  30.947  24.648  1.00  0.00     0.163 HD
BRANCH   4   7
ATOM      7  C   UNL A   1      30.527  27.844  23.365  1.00  0.00     0.058 A 
ATOM      8  C   UNL A   1      30.915  25.109  23.291  1.00  0.00     0.094 A 
ATOM      9  C   UNL A   1      31.680  25.923  22.466  1.00  0.00     0.030 A 
ATOM     10  N   UNL A   1      29.898  25.591  24.046  1.00  0.00    -0.255 NA
ATOM     11  C   UNL A   1      31.463  27.296  22.491  1.00  0.00     0.017 A 
ATOM     12  C   UNL A   1      29.743  26.939  24.075  1.00  0.00     0.125 A 
BRANCH   8  13
ATOM     13  C   UNL A   1      31.318  23.665  23.478  1.00  0.00     0.318 C 
BRANCH  13  14
ATOM     14  N   UNL A   1      31.615  23.386  24.885  1.00  0.00    -0.336 N 
ATOM     15  H   UNL A   1      32.495  23.838  25.135  1.00  0.00     0.346 HD
ATOM     16  H   UNL A   1      30.850  23.747  25.454  1.00  0.00     0.346 HD
BRANCH  14  17
ATOM     17  C   UNL A   1      31.734  21.937  25.130  1.00  0.00     0.332 C 
BRANCH  17  18
ATOM     18  C   UNL A   1      33.188  21.540  25.538  1.00  0.00     0.295 C 
ATOM     19  C   UNL A   1      36.321  23.710  25.718  1.00  0.00     0.333 C 
ATOM     20  N   UNL A   1      35.501  22.505  25.776  1.00  0.00    -0.328 N 
ATOM     21  C   UNL A   1      35.986  21.482  24.836  1.00  0.00     0.324 C 
ATOM     22  C   UNL A   1      34.095  22.806  25.434  1.00  0.00     0.334 C 
ATOM     23  H   UNL A   1      35.562  22.155  26.732  1.00  0.00     0.348 HD
ATOM     24  C   UNL A   1      35.150  20.191  24.953  1.00  0.00     0.324 C 
ATOM     25  N   UNL A   1      33.700  20.379  24.730  1.00  0.00    -0.321 N 
ATOM     26  C   UNL A   1      32.999  19.131  25.057  1.00  0.00     0.333 C 
ATOM     27  H   UNL A   1      33.525  20.600  23.750  1.00  0.00     0.348 HD
ENDBRANCH  17  18
ENDBRANCH  14  17
ENDBRANCH  13  14
ENDBRANCH   8  13
ENDBRANCH   4   7
ENDBRANCH   2   3
ENDBRANCH   1   2
BRANCH   1  28
ATOM     28  C   UNL A   1      31.788  31.731  26.838  1.00  0.00     0.023 C 
BRANCH  28  29
ATOM     29  C   UNL A   1      32.939  32.563  27.391  1.00  0.00     0.116 C 
BRANCH  29  30
ATOM     30  N   UNL A   1      32.574  33.947  27.657  1.00  0.00    -0.352 N 
ATOM     31  C   UNL A   1      33.120  34.808  28.579  1.00  0.00     0.251 C 
ATOM     32  H   UNL A   1      31.844  34.313  27.108  1.00  0.00     0.163 HD
ATOM     33  O   UNL A   1      32.636  35.919  28.751  1.00  0.00    -0.269 OA
BRANCH  31  34
ATOM     34  C   UNL A   1      34.268  34.352  29.388  1.00  0.00     0.039 A 
ATOM     35  C   UNL A   1      34.017  33.756  30.626  1.00  0.00     0.014 A 
ATOM     36  C   UNL A   1      35.573  34.461  28.902  1.00  0.00     0.014 A 
ATOM     37  C   UNL A   1      35.076  33.207  31.348  1.00  0.00     0.010 A 
ATOM     38  C   UNL A   1      36.617  33.851  29.592  1.00  0.00     0.010 A 
ATOM     39  C   UNL A   1      36.378  33.216  30.819  1.00  0.00    -0.014 A 
BRANCH  39  40
ATOM     40  C   UNL A   1      37.487  32.528  31.522  1.00  0.00     0.031 A 
ATOM     41  C   UNL A   1      38.205  31.375  30.878  1.00  0.00     0.074 A 
ATOM     42  C   UNL A   1      37.795  32.897  32.782  1.00  0.00     0.049 A 
ATOM     43  N   UNL A   1      39.198  30.663  31.341  1.00  0.00    -0.248 NA
ATOM     44  C   UNL A   1      37.728  30.947  29.552  1.00  0.00     0.031 C 
ATOM     45  C   UNL A   1      37.100  33.932  33.552  1.00  0.00     0.029 A 
ATOM     46  N   UNL A   1      38.755  32.431  33.642  1.00  0.00    -0.354 N 
ATOM     47  C   UNL A   1      39.448  29.688  30.383  1.00  0.00     0.074 A 
ATOM     48  C   UNL A   1      38.475  29.876  29.328  1.00  0.00     0.031 C 
ATOM     49  C   UNL A   1      37.665  34.029  34.766  1.00  0.00     0.029 A 
ATOM     50  C   UNL A   1      38.747  33.056  34.868  1.00  0.00     0.049 A 
ATOM     51  H   UNL A   1      39.390  31.718  33.406  1.00  0.00     0.167 HD
ATOM     52  C   UNL A   1      40.420  28.746  30.366  1.00  0.00     0.034 A 
ATOM     53  C   UNL A   1      39.531  32.872  35.948  1.00  0.00     0.034 A 
ATOM     54  C   UNL A   1      41.409  28.593  31.397  1.00  0.00     0.049 A 
ATOM     55  C   UNL A   1      40.645  31.864  35.875  1.00  0.00     0.074 A 
ATOM     56  C   UNL A   1      42.495  27.736  31.428  1.00  0.00     0.029 A 
ATOM     57  N   UNL A   1      41.433  29.308  32.584  1.00  0.00    -0.354 N 
ATOM     58  N   UNL A   1      40.984  31.079  34.881  1.00  0.00    -0.248 NA
ATOM     59  C   UNL A   1      41.511  31.747  37.056  1.00  0.00     0.031 C 
ATOM     60  C   UNL A   1      43.167  27.923  32.642  1.00  0.00     0.029 A 
ATOM     61  C   UNL A   1      42.508  28.909  33.360  1.00  0.00     0.049 A 
ATOM     62  H   UNL A   1      40.779  29.999  32.840  1.00  0.00     0.167 HD
ATOM     63  C   UNL A   1      42.117  30.395  35.305  1.00  0.00     0.074 A 
ATOM     64  C   UNL A   1      42.425  30.883  36.634  1.00  0.00     0.031 C 
ATOM     65  C   UNL A   1      42.827  29.435  34.662  1.00  0.00     0.034 A 
BRANCH  52  66
ATOM     66  C   UNL A   1      40.500  27.849  29.159  1.00  0.00     0.023 A 
ATOM     67  C   UNL A   1      39.618  26.752  29.054  1.00  0.00     0.012 A 
ATOM     68  C   UNL A   1      41.399  28.114  28.109  1.00  0.00     0.148 A 
ATOM     69  C   UNL A   1      39.653  25.915  27.940  1.00  0.00     0.002 A 
ATOM     70  C   UNL A   1      41.399  27.300  26.981  1.00  0.00     0.091 A 
ATOM     71  F   UNL A   1      42.246  29.145  28.236  1.00  0.00    -0.205 F 
ATOM     72  C   UNL A   1      40.534  26.195  26.900  1.00  0.00     0.022 A 
BRANCH  70  73
ATOM     73  S   UNL A   1      42.443  27.620  25.556  1.00  0.00     0.127 S 
ATOM     74  O   UNL A   1      41.897  28.885  25.068  1.00  0.00    -0.237 OA
ATOM     75  O   UNL A   1      43.772  27.723  26.162  1.00  0.00    -0.237 OA
ATOM     76  O   UNL A   1      42.271  26.479  24.668  1.00  0.00    -0.744 OA
ENDBRANCH  70  73
ENDBRANCH  52  66
BRANCH  53  77
ATOM     77  C   UNL A   1      39.342  33.723  37.156  1.00  0.00     0.023 A 
ATOM     78  C   UNL A   1      39.800  35.055  37.137  1.00  0.00     0.012 A 
ATOM     79  C   UNL A   1      38.685  33.239  38.302  1.00  0.00     0.148 A 
ATOM     80  C   UNL A   1      39.634  35.880  38.251  1.00  0.00     0.002 A 
ATOM     81  C   UNL A   1      38.474  34.082  39.387  1.00  0.00     0.091 A 
ATOM     82  F   UNL A   1      38.268  31.965  38.306  1.00  0.00    -0.205 F 
ATOM     83  C   UNL A   1      38.963  35.398  39.370  1.00  0.00     0.022 A 
BRANCH  81  84
ATOM     84  S   UNL A   1      37.501  33.586  40.814  1.00  0.00     0.127 S 
ATOM     85  O   UNL A   1      36.273  33.104  40.186  1.00  0.00    -0.237 OA
ATOM     86  O   UNL A   1      38.341  32.545  41.408  1.00  0.00    -0.237 OA
ATOM     87  O   UNL A   1      37.370  34.785  41.630  1.00  0.00    -0.744 OA
ENDBRANCH  81  84
ENDBRANCH  53  77
BRANCH  65  88
ATOM     88  C   UNL A   1      44.016  28.855  35.384  1.00  0.00     0.023 A 
ATOM     89  C   UNL A   1      45.294  29.410  35.178  1.00  0.00     0.012 A 
ATOM     90  C   UNL A   1      43.860  27.800  36.304  1.00  0.00     0.148 A 
ATOM     91  C   UNL A   1      46.406  28.899  35.846  1.00  0.00     0.002 A 
ATOM     92  C   UNL A   1      44.966  27.327  37.001  1.00  0.00     0.091 A 
ATOM     93  F   UNL A   1      42.641  27.269  36.472  1.00  0.00    -0.205 F 
ATOM     94  C   UNL A   1      46.241  27.866  36.764  1.00  0.00     0.022 A 
BRANCH  92  95
ATOM     95  S   UNL A   1      44.825  26.063  38.270  1.00  0.00     0.127 S 
ATOM     96  O   UNL A   1      43.894  26.685  39.210  1.00  0.00    -0.237 OA
ATOM     97  O   UNL A   1      44.273  24.930  37.525  1.00  0.00    -0.237 OA
ATOM     98  O   UNL A   1      46.177  25.850  38.769  1.00  0.00    -0.744 OA
ENDBRANCH  92  95
ENDBRANCH  65  88
ENDBRANCH  39  40
ENDBRANCH  31  34
ENDBRANCH  29  30
ENDBRANCH  28  29
ENDBRANCH   1  28
TORSDOF 18
ENDMDL
MODEL 2
REMARK VINA RESULT:     -11.3      1.817      7.872
REMARK SMILES C[N@@H+]1CC[N@@H+](C)[C@H](C[NH2+]Cc2ccc(C(=O)NCCCCNC(=O)c3ccc(-c4c5nc(c(-c6cccc(S(=O)(=O)[O-])c6F)c6ccc([nH]6)c(-c6cccc(S(=O)(=O)[O-])c6F)c6nc(c(-c7cccc(S(=O)(=O)[O-])c7F)c7ccc4[nH]7)C=C6)C=C5)cc3)cn2)C1
REMARK SMILES IDX 19 1 18 2 17 3 15 4 16 5 14 7 11 8 12 9 89 10 13 11 88 12
REMARK SMILES IDX 10 13 9 14 8 17 7 18 1 19 2 20 3 21 90 22 4 24 5 25 6 26
REMARK SMILES IDX 20 28 21 29 22 30 23 31 24 33 25 34 26 35 87 36 27 37 86 38
REMARK SMILES IDX 28 39 29 40 30 41 80 42 31 43 85 44 79 45 81 46 32 47 84 48
REMARK SMILES IDX 78 49 77 50 33 52 65 53 45 54 64 55 46 56 49 57 63 58 82 59
REMARK SMILES IDX 47 60 48 61 62 63 83 64 50 65 34 66 35 67 43 68 36 69 38 70
REMARK SMILES IDX 44 71 37 72 39 73 40 74 41 75 42 76 66 77 67 78 75 79 68 80
REMARK SMILES IDX 70 81 76 82 69 83 71 84 72 85 73 86 74 87 51 88 52 89 60 90
REMARK SMILES IDX 53 91 55 92 61 93 54 94 56 95 57 96 58 97 59 98
REMARK H PARENT 17 6 9 15 9 16 2 23 5 27 22 32 81 51 49 62
REMARK Flexibility Score: inf
ROOT
ATOM      1  C   UNL A   1      31.610  30.199  26.687  1.00  0.00     0.023 C 
ENDROOT
BRANCH   1   2
ATOM      2  C   UNL A   1      32.699  29.739  25.715  1.00  0.00     0.116 C 
BRANCH   2   3
ATOM      3  N   UNL A   1      32.114  29.273  24.477  1.00  0.00    -0.352 N 
ATOM      4  C   UNL A   1      31.631  28.049  24.088  1.00  0.00     0.252 C 
ATOM      5  O   UNL A   1      31.204  27.953  22.936  1.00  0.00    -0.269 OA
ATOM      6  H   UNL A   1      32.048  29.966  23.781  1.00  0.00     0.163 HD
BRANCH   4   7
ATOM      7  C   UNL A   1      31.540  26.864  24.981  1.00  0.00     0.058 A 
ATOM      8  C   UNL A   1      31.687  24.479  26.368  1.00  0.00     0.094 A 
ATOM      9  C   UNL A   1      30.443  25.049  26.134  1.00  0.00     0.030 A 
ATOM     10  N   UNL A   1      32.845  25.106  26.048  1.00  0.00    -0.255 NA
ATOM     11  C   UNL A   1      30.378  26.262  25.456  1.00  0.00     0.017 A 
ATOM     12  C   UNL A   1      32.741  26.267  25.353  1.00  0.00     0.125 A 
BRANCH   8  13
ATOM     13  C   UNL A   1      31.762  23.049  26.851  1.00  0.00     0.318 C 
BRANCH  13  14
ATOM     14  N   UNL A   1      31.440  22.116  25.769  1.00  0.00    -0.336 N 
ATOM     15  H   UNL A   1      30.552  21.659  25.976  1.00  0.00     0.346 HD
ATOM     16  H   UNL A   1      31.382  22.642  24.897  1.00  0.00     0.346 HD
BRANCH  14  17
ATOM     17  C   UNL A   1      32.485  21.087  25.622  1.00  0.00     0.332 C 
BRANCH  17  18
ATOM     18  C   UNL A   1      33.662  21.585  24.724  1.00  0.00     0.295 C 
ATOM     19  C   UNL A   1      37.096  22.890  25.753  1.00  0.00     0.333 C 
ATOM     20  N   UNL A   1      35.989  22.534  24.873  1.00  0.00    -0.328 N 
ATOM     21  C   UNL A   1      35.525  23.698  24.101  1.00  0.00     0.324 C 
ATOM     22  C   UNL A   1      34.841  22.018  25.649  1.00  0.00     0.334 C 
ATOM     23  H   UNL A   1      36.336  21.814  24.240  1.00  0.00     0.348 HD
ATOM     24  C   UNL A   1      34.397  23.295  23.128  1.00  0.00     0.324 C 
ATOM     25  N   UNL A   1      33.225  22.670  23.778  1.00  0.00    -0.321 N 
ATOM     26  C   UNL A   1      32.318  22.161  22.741  1.00  0.00     0.333 C 
ATOM     27  H   UNL A   1      32.723  23.363  24.333  1.00  0.00     0.348 HD
ENDBRANCH  17  18
ENDBRANCH  14  17
ENDBRANCH  13  14
ENDBRANCH   8  13
ENDBRANCH   4   7
ENDBRANCH   2   3
ENDBRANCH   1   2
BRANCH   1  28
ATOM     28  C   UNL A   1      31.416  31.716  26.740  1.00  0.00     0.023 C 
BRANCH  28  29
ATOM     29  C   UNL A   1      32.707  32.525  26.778  1.00  0.00     0.116 C 
BRANCH  29  30
ATOM     30  N   UNL A   1      32.586  33.770  27.523  1.00  0.00    -0.352 N 
ATOM     31  C   UNL A   1      33.379  34.228  28.547  1.00  0.00     0.251 C 
ATOM     32  H   UNL A   1      31.842  34.358  27.259  1.00  0.00     0.163 HD
ATOM     33  O   UNL A   1      33.089  35.258  29.142  1.00  0.00    -0.269 OA
BRANCH  31  34
ATOM     34  C   UNL A   1      34.557  33.432  28.948  1.00  0.00     0.039 A 
ATOM     35  C   UNL A   1      35.826  33.986  28.773  1.00  0.00     0.014 A 
ATOM     36  C   UNL A   1      34.403  32.177  29.541  1.00  0.00     0.014 A 
ATOM     37  C   UNL A   1      36.943  33.305  29.258  1.00  0.00     0.010 A 
ATOM     38  C   UNL A   1      35.510  31.533  30.085  1.00  0.00     0.010 A 
ATOM     39  C   UNL A   1      36.789  32.092  29.951  1.00  0.00    -0.014 A 
BRANCH  39  40
ATOM     40  C   UNL A   1      37.955  31.422  30.576  1.00  0.00     0.031 A 
ATOM     41  C   UNL A   1      38.350  31.734  31.993  1.00  0.00     0.074 A 
ATOM     42  C   UNL A   1      38.708  30.587  29.833  1.00  0.00     0.049 A 
ATOM     43  N   UNL A   1      39.333  31.241  32.699  1.00  0.00    -0.248 NA
ATOM     44  C   UNL A   1      37.556  32.752  32.699  1.00  0.00     0.031 C 
ATOM     45  C   UNL A   1      38.487  30.286  28.415  1.00  0.00     0.029 A 
ATOM     46  N   UNL A   1      39.821  29.855  30.158  1.00  0.00    -0.354 N 
ATOM     47  C   UNL A   1      39.295  31.904  33.919  1.00  0.00     0.074 A 
ATOM     48  C   UNL A   1      38.215  32.865  33.843  1.00  0.00     0.031 C 
ATOM     49  C   UNL A   1      39.428  29.424  27.998  1.00  0.00     0.029 A 
ATOM     50  C   UNL A   1      40.327  29.124  29.108  1.00  0.00     0.049 A 
ATOM     51  H   UNL A   1      40.221  29.852  31.057  1.00  0.00     0.167 HD
ATOM     52  C   UNL A   1      40.066  31.708  35.015  1.00  0.00     0.034 A 
ATOM     53  C   UNL A   1      41.389  28.297  29.049  1.00  0.00     0.034 A 
ATOM     54  C   UNL A   1      41.109  30.722  35.098  1.00  0.00     0.049 A 
ATOM     55  C   UNL A   1      42.186  28.048  30.300  1.00  0.00     0.074 A 
ATOM     56  C   UNL A   1      41.881  30.376  36.193  1.00  0.00     0.029 A 
ATOM     57  N   UNL A   1      41.533  29.928  34.044  1.00  0.00    -0.354 N 
ATOM     58  N   UNL A   1      42.015  28.547  31.500  1.00  0.00    -0.248 NA
ATOM     59  C   UNL A   1      43.295  27.089  30.198  1.00  0.00     0.031 C 
ATOM     60  C   UNL A   1      42.783  29.381  35.796  1.00  0.00     0.029 A 
ATOM     61  C   UNL A   1      42.561  29.098  34.458  1.00  0.00     0.049 A 
ATOM     62  H   UNL A   1      41.159  29.952  33.134  1.00  0.00     0.167 HD
ATOM     63  C   UNL A   1      42.976  27.944  32.303  1.00  0.00     0.074 A 
ATOM     64  C   UNL A   1      43.704  27.018  31.459  1.00  0.00     0.031 C 
ATOM     65  C   UNL A   1      43.246  28.151  33.617  1.00  0.00     0.034 A 
BRANCH  52  66
ATOM     66  C   UNL A   1      39.763  32.534  36.238  1.00  0.00     0.023 A 
ATOM     67  C   UNL A   1      40.445  33.753  36.434  1.00  0.00     0.012 A 
ATOM     68  C   UNL A   1      38.775  32.140  37.159  1.00  0.00     0.148 A 
ATOM     69  C   UNL A   1      40.173  34.550  37.545  1.00  0.00     0.002 A 
ATOM     70  C   UNL A   1      38.478  32.960  38.242  1.00  0.00     0.091 A 
ATOM     71  F   UNL A   1      38.154  30.967  36.970  1.00  0.00    -0.205 F 
ATOM     72  C   UNL A   1      39.182  34.160  38.442  1.00  0.00     0.022 A 
BRANCH  70  73
ATOM     73  S   UNL A   1      37.169  32.584  39.413  1.00  0.00     0.127 S 
ATOM     74  O   UNL A   1      37.336  33.653  40.396  1.00  0.00    -0.237 OA
ATOM     75  O   UNL A   1      35.969  32.703  38.583  1.00  0.00    -0.237 OA
ATOM     76  O   UNL A   1      37.439  31.238  39.897  1.00  0.00    -0.744 OA
ENDBRANCH  70  73
ENDBRANCH  52  66
BRANCH  53  77
ATOM     77  C   UNL A   1      41.703  27.581  27.781  1.00  0.00     0.023 A 
ATOM     78  C   UNL A   1      42.151  28.318  26.667  1.00  0.00     0.012 A 
ATOM     79  C   UNL A   1      41.594  26.182  27.680  1.00  0.00     0.148 A 
ATOM     80  C   UNL A   1      42.457  27.676  25.466  1.00  0.00     0.002 A 
ATOM     81  C   UNL A   1      41.953  25.543  26.498  1.00  0.00     0.091 A 
ATOM     82  F   UNL A   1      41.153  25.499  28.746  1.00  0.00    -0.205 F 
ATOM     83  C   UNL A   1      42.368  26.291  25.385  1.00  0.00     0.022 A 
BRANCH  81  84
ATOM     84  S   UNL A   1      41.999  23.753  26.350  1.00  0.00     0.127 S 
ATOM     85  O   UNL A   1      40.580  23.411  26.407  1.00  0.00    -0.237 OA
ATOM     86  O   UNL A   1      42.626  23.573  25.040  1.00  0.00    -0.237 OA
ATOM     87  O   UNL A   1      42.811  23.292  27.468  1.00  0.00    -0.744 OA
ENDBRANCH  81  84
ENDBRANCH  53  77
BRANCH  65  88
ATOM     88  C   UNL A   1      44.371  27.353  34.224  1.00  0.00     0.023 A 
ATOM     89  C   UNL A   1      45.693  27.830  34.128  1.00  0.00     0.012 A 
ATOM     90  C   UNL A   1      44.115  26.165  34.934  1.00  0.00     0.148 A 
ATOM     91  C   UNL A   1      46.748  27.115  34.694  1.00  0.00     0.002 A 
ATOM     92  C   UNL A   1      45.166  25.483  35.537  1.00  0.00     0.091 A 
ATOM     93  F   UNL A   1      42.854  25.714  34.998  1.00  0.00    -0.205 F 
ATOM     94  C   UNL A   1      46.484  25.949  35.407  1.00  0.00     0.022 A 
BRANCH  92  95
ATOM     95  S   UNL A   1      44.901  24.024  36.551  1.00  0.00     0.127 S 
ATOM     96  O   UNL A   1      44.167  23.152  35.635  1.00  0.00    -0.237 OA
ATOM     97  O   UNL A   1      46.268  23.590  36.843  1.00  0.00    -0.237 OA
ATOM     98  O   UNL A   1      44.156  24.483  37.716  1.00  0.00    -0.744 OA
ENDBRANCH  92  95
ENDBRANCH  65  88
ENDBRANCH  39  40
ENDBRANCH  31  34
ENDBRANCH  29  30
ENDBRANCH  28  29
ENDBRANCH   1  28
TORSDOF 18
ENDMDL
MODEL 3
REMARK VINA RESULT:     -11.1      1.676      2.216
REMARK SMILES C[N@@H+]1CC[N@@H+](C)[C@H](C[NH2+]Cc2ccc(C(=O)NCCCCNC(=O)c3ccc(-c4c5nc(c(-c6cccc(S(=O)(=O)[O-])c6F)c6ccc([nH]6)c(-c6cccc(S(=O)(=O)[O-])c6F)c6nc(c(-c7cccc(S(=O)(=O)[O-])c7F)c7ccc4[nH]7)C=C6)C=C5)cc3)cn2)C1
REMARK SMILES IDX 19 1 18 2 17 3 15 4 16 5 14 7 11 8 12 9 89 10 13 11 88 12
REMARK SMILES IDX 10 13 9 14 8 17 7 18 1 19 2 20 3 21 90 22 4 24 5 25 6 26
REMARK SMILES IDX 20 28 21 29 22 30 23 31 24 33 25 34 26 35 87 36 27 37 86 38
REMARK SMILES IDX 28 39 29 40 30 41 80 42 31 43 85 44 79 45 81 46 32 47 84 48
REMARK SMILES IDX 78 49 77 50 33 52 65 53 45 54 64 55 46 56 49 57 63 58 82 59
REMARK SMILES IDX 47 60 48 61 62 63 83 64 50 65 34 66 35 67 43 68 36 69 38 70
REMARK SMILES IDX 44 71 37 72 39 73 40 74 41 75 42 76 66 77 67 78 75 79 68 80
REMARK SMILES IDX 70 81 76 82 69 83 71 84 72 85 73 86 74 87 51 88 52 89 60 90
REMARK SMILES IDX 53 91 55 92 61 93 54 94 56 95 57 96 58 97 59 98
REMARK H PARENT 17 6 9 15 9 16 2 23 5 27 22 32 81 51 49 62
REMARK Flexibility Score: inf
ROOT
ATOM      1  C   UNL A   1      31.928  29.764  26.652  1.00  0.00     0.023 C 
ENDROOT
BRANCH   1   2
ATOM      2  C   UNL A   1      31.813  28.998  25.332  1.00  0.00     0.116 C 
BRANCH   2   3
ATOM      3  N   UNL A   1      32.981  29.225  24.508  1.00  0.00    -0.352 N 
ATOM      4  C   UNL A   1      33.657  28.422  23.625  1.00  0.00     0.252 C 
ATOM      5  O   UNL A   1      34.651  28.901  23.076  1.00  0.00    -0.269 OA
ATOM      6  H   UNL A   1      33.362  30.128  24.597  1.00  0.00     0.163 HD
BRANCH   4   7
ATOM      7  C   UNL A   1      33.233  27.047  23.251  1.00  0.00     0.058 A 
ATOM      8  C   UNL A   1      32.891  24.397  22.548  1.00  0.00     0.094 A 
ATOM      9  C   UNL A   1      32.112  25.366  21.930  1.00  0.00     0.030 A 
ATOM     10  N   UNL A   1      33.731  24.684  23.572  1.00  0.00    -0.255 NA
ATOM     11  C   UNL A   1      32.272  26.696  22.306  1.00  0.00     0.017 A 
ATOM     12  C   UNL A   1      33.891  25.996  23.883  1.00  0.00     0.125 A 
BRANCH   8  13
ATOM     13  C   UNL A   1      32.928  23.003  21.968  1.00  0.00     0.318 C 
BRANCH  13  14
ATOM     14  N   UNL A   1      32.018  22.113  22.694  1.00  0.00    -0.336 N 
ATOM     15  H   UNL A   1      31.430  22.671  23.313  1.00  0.00     0.346 HD
ATOM     16  H   UNL A   1      31.450  21.608  22.013  1.00  0.00     0.346 HD
BRANCH  14  17
ATOM     17  C   UNL A   1      32.763  21.128  23.499  1.00  0.00     0.332 C 
BRANCH  17  18
ATOM     18  C   UNL A   1      32.618  21.408  25.029  1.00  0.00     0.295 C 
ATOM     19  C   UNL A   1      29.871  23.295  26.886  1.00  0.00     0.333 C 
ATOM     20  N   UNL A   1      31.118  22.566  26.686  1.00  0.00    -0.328 N 
ATOM     21  C   UNL A   1      32.277  23.358  27.127  1.00  0.00     0.324 C 
ATOM     22  C   UNL A   1      31.313  22.232  25.259  1.00  0.00     0.334 C 
ATOM     23  H   UNL A   1      31.051  21.712  27.240  1.00  0.00     0.348 HD
ATOM     24  C   UNL A   1      33.583  22.552  26.970  1.00  0.00     0.324 C 
ATOM     25  N   UNL A   1      33.843  22.070  25.596  1.00  0.00    -0.321 N 
ATOM     26  C   UNL A   1      34.997  21.164  25.617  1.00  0.00     0.333 C 
ATOM     27  H   UNL A   1      34.063  22.858  24.987  1.00  0.00     0.348 HD
ENDBRANCH  17  18
ENDBRANCH  14  17
ENDBRANCH  13  14
ENDBRANCH   8  13
ENDBRANCH   4   7
ENDBRANCH   2   3
ENDBRANCH   1   2
BRANCH   1  28
ATOM     28  C   UNL A   1      31.761  31.279  26.515  1.00  0.00     0.023 C 
BRANCH  28  29
ATOM     29  C   UNL A   1      32.908  32.102  27.090  1.00  0.00     0.116 C 
BRANCH  29  30
ATOM     30  N   UNL A   1      32.542  33.483  27.371  1.00  0.00    -0.352 N 
ATOM     31  C   UNL A   1      33.093  34.337  28.297  1.00  0.00     0.251 C 
ATOM     32  H   UNL A   1      31.806  33.852  26.831  1.00  0.00     0.163 HD
ATOM     33  O   UNL A   1      32.608  35.445  28.483  1.00  0.00    -0.269 OA
BRANCH  31  34
ATOM     34  C   UNL A   1      34.249  33.876  29.093  1.00  0.00     0.039 A 
ATOM     35  C   UNL A   1      34.011  33.073  30.210  1.00  0.00     0.014 A 
ATOM     36  C   UNL A   1      35.554  34.188  28.706  1.00  0.00     0.014 A 
ATOM     37  C   UNL A   1      35.091  32.525  30.901  1.00  0.00     0.010 A 
ATOM     38  C   UNL A   1      36.627  33.584  29.354  1.00  0.00     0.010 A 
ATOM     39  C   UNL A   1      36.405  32.746  30.456  1.00  0.00    -0.014 A 
BRANCH  39  40
ATOM     40  C   UNL A   1      37.552  32.069  31.110  1.00  0.00     0.031 A 
ATOM     41  C   UNL A   1      38.369  31.053  30.363  1.00  0.00     0.074 A 
ATOM     42  C   UNL A   1      37.805  32.318  32.410  1.00  0.00     0.049 A 
ATOM     43  N   UNL A   1      39.406  30.371  30.774  1.00  0.00    -0.248 NA
ATOM     44  C   UNL A   1      37.953  30.740  28.987  1.00  0.00     0.031 C 
ATOM     45  C   UNL A   1      37.017  33.206  33.270  1.00  0.00     0.029 A 
ATOM     46  N   UNL A   1      38.783  31.834  33.241  1.00  0.00    -0.354 N 
ATOM     47  C   UNL A   1      39.750  29.531  29.722  1.00  0.00     0.074 A 
ATOM     48  C   UNL A   1      38.786  29.760  28.667  1.00  0.00     0.031 C 
ATOM     49  C   UNL A   1      37.549  33.210  34.503  1.00  0.00     0.029 A 
ATOM     50  C   UNL A   1      38.702  32.316  34.527  1.00  0.00     0.049 A 
ATOM     51  H   UNL A   1      39.475  31.201  32.946  1.00  0.00     0.167 HD
ATOM     52  C   UNL A   1      40.793  28.672  29.630  1.00  0.00     0.034 A 
ATOM     53  C   UNL A   1      39.477  32.073  35.602  1.00  0.00     0.034 A 
ATOM     54  C   UNL A   1      41.772  28.481  30.665  1.00  0.00     0.049 A 
ATOM     55  C   UNL A   1      40.668  31.167  35.450  1.00  0.00     0.074 A 
ATOM     56  C   UNL A   1      42.920  27.710  30.632  1.00  0.00     0.029 A 
ATOM     57  N   UNL A   1      41.716  29.060  31.923  1.00  0.00    -0.354 N 
ATOM     58  N   UNL A   1      41.085  30.525  34.386  1.00  0.00    -0.248 NA
ATOM     59  C   UNL A   1      41.517  30.985  36.635  1.00  0.00     0.031 C 
ATOM     60  C   UNL A   1      43.552  27.812  31.877  1.00  0.00     0.029 A 
ATOM     61  C   UNL A   1      42.804  28.659  32.680  1.00  0.00     0.049 A 
ATOM     62  H   UNL A   1      41.006  29.666  32.234  1.00  0.00     0.167 HD
ATOM     63  C   UNL A   1      42.260  29.885  34.764  1.00  0.00     0.074 A 
ATOM     64  C   UNL A   1      42.504  30.245  36.147  1.00  0.00     0.031 C 
ATOM     65  C   UNL A   1      43.056  29.059  34.040  1.00  0.00     0.034 A 
BRANCH  52  66
ATOM     66  C   UNL A   1      40.966  27.923  28.334  1.00  0.00     0.023 A 
ATOM     67  C   UNL A   1      41.509  28.593  27.217  1.00  0.00     0.012 A 
ATOM     68  C   UNL A   1      40.647  26.557  28.230  1.00  0.00     0.148 A 
ATOM     69  C   UNL A   1      41.701  27.925  26.009  1.00  0.00     0.002 A 
ATOM     70  C   UNL A   1      40.880  25.885  27.035  1.00  0.00     0.091 A 
ATOM     71  F   UNL A   1      40.109  25.942  29.293  1.00  0.00    -0.205 F 
ATOM     72  C   UNL A   1      41.397  26.569  25.922  1.00  0.00     0.022 A 
BRANCH  70  73
ATOM     73  S   UNL A   1      40.593  24.122  26.843  1.00  0.00     0.127 S 
ATOM     74  O   UNL A   1      39.176  24.092  26.483  1.00  0.00    -0.237 OA
ATOM     75  O   UNL A   1      41.505  23.777  25.751  1.00  0.00    -0.237 OA
ATOM     76  O   UNL A   1      40.927  23.519  28.125  1.00  0.00    -0.744 OA
ENDBRANCH  70  73
ENDBRANCH  52  66
BRANCH  53  77
ATOM     77  C   UNL A   1      39.198  32.768  36.890  1.00  0.00     0.023 A 
ATOM     78  C   UNL A   1      39.835  33.995  37.161  1.00  0.00     0.012 A 
ATOM     79  C   UNL A   1      38.287  32.245  37.826  1.00  0.00     0.148 A 
ATOM     80  C   UNL A   1      39.592  34.673  38.357  1.00  0.00     0.002 A 
ATOM     81  C   UNL A   1      38.008  32.953  38.990  1.00  0.00     0.091 A 
ATOM     82  F   UNL A   1      37.702  31.070  37.556  1.00  0.00    -0.205 F 
ATOM     83  C   UNL A   1      38.673  34.159  39.265  1.00  0.00     0.022 A 
BRANCH  81  84
ATOM     84  S   UNL A   1      36.738  32.432  40.149  1.00  0.00     0.127 S 
ATOM     85  O   UNL A   1      36.744  33.529  41.113  1.00  0.00    -0.237 OA
ATOM     86  O   UNL A   1      35.553  32.368  39.293  1.00  0.00    -0.237 OA
ATOM     87  O   UNL A   1      37.180  31.139  40.654  1.00  0.00    -0.744 OA
ENDBRANCH  81  84
ENDBRANCH  53  77
BRANCH  65  88
ATOM     88  C   UNL A   1      44.272  28.495  34.727  1.00  0.00     0.023 A 
ATOM     89  C   UNL A   1      45.493  29.194  34.667  1.00  0.00     0.012 A 
ATOM     90  C   UNL A   1      44.194  27.304  35.475  1.00  0.00     0.148 A 
ATOM     91  C   UNL A   1      46.628  28.697  35.306  1.00  0.00     0.002 A 
ATOM     92  C   UNL A   1      45.318  26.840  36.149  1.00  0.00     0.091 A 
ATOM     93  F   UNL A   1      43.029  26.640  35.504  1.00  0.00    -0.205 F 
ATOM     94  C   UNL A   1      46.538  27.528  36.055  1.00  0.00     0.022 A 
BRANCH  92  95
ATOM     95  S   UNL A   1      45.263  25.392  37.212  1.00  0.00     0.127 S 
ATOM     96  O   UNL A   1      45.018  25.992  38.523  1.00  0.00    -0.237 OA
ATOM     97  O   UNL A   1      44.132  24.642  36.664  1.00  0.00    -0.237 OA
ATOM     98  O   UNL A   1      46.553  24.734  37.051  1.00  0.00    -0.744 OA
ENDBRANCH  92  95
ENDBRANCH  65  88
ENDBRANCH  39  40
ENDBRANCH  31  34
ENDBRANCH  29  30
ENDBRANCH  28  29
ENDBRANCH   1  28
TORSDOF 18
ENDMDL
