MODEL 1
REMARK VINA RESULT:     -10.9      0.000      0.000
REMARK SMILES COc1ccccc1[C@H]([NH3+])c1nc(C(=O)NCCCCNC(=O)c2ccc(-c3c4nc(c(-c5cccc(S(=O)(=O)[O-])c5F)c5ccc([nH]5)c(-c5cccc(S(=O)(=O)[O-])c5F)c5nc(c(-c6cccc(S(=O)(=O)[O-])c6F)c6ccc3[nH]6)C=C5)C=C4)cc2)c[nH]1
REMARK SMILES IDX 18 1 17 2 16 3 14 4 15 5 13 7 11 8 12 9 88 10 87 11 9 13
REMARK SMILES IDX 8 14 3 15 4 16 5 17 7 18 6 19 2 20 1 21 10 22 19 26 20 27
REMARK SMILES IDX 21 28 22 29 23 31 24 32 25 33 86 34 26 35 85 36 27 37 28 38
REMARK SMILES IDX 29 39 79 40 30 41 84 42 78 43 80 44 31 45 83 46 77 47 76 48
REMARK SMILES IDX 32 50 64 51 44 52 63 53 45 54 48 55 62 56 81 57 46 58 47 59
REMARK SMILES IDX 61 61 82 62 49 63 33 64 34 65 42 66 35 67 37 68 43 69 36 70
REMARK SMILES IDX 38 71 39 72 40 73 41 74 65 75 66 76 74 77 67 78 69 79 75 80
REMARK SMILES IDX 68 81 70 82 71 83 72 84 73 85 50 86 51 87 59 88 52 89 54 90
REMARK SMILES IDX 60 91 53 92 55 93 56 94 57 95 58 96
REMARK H PARENT 16 6 88 12 10 23 10 24 10 25 21 30 80 49 48 60
REMARK Flexibility Score: inf
ROOT
ATOM      1  C   UNL A   1      32.970  28.940  24.052  1.00  0.00     0.023 C 
ENDROOT
BRANCH   1   2
ATOM      2  C   UNL A   1      31.902  28.336  23.145  1.00  0.00     0.116 C 
BRANCH   2   3
ATOM      3  N   UNL A   1      32.473  27.782  21.930  1.00  0.00    -0.351 N 
ATOM      4  C   UNL A   1      32.932  26.508  21.690  1.00  0.00     0.271 C 
ATOM      5  O   UNL A   1      33.287  26.213  20.546  1.00  0.00    -0.267 OA
ATOM      6  H   UNL A   1      32.541  28.405  21.172  1.00  0.00     0.163 HD
BRANCH   4   7
ATOM      7  C   UNL A   1      32.941  25.523  22.774  1.00  0.00     0.146 A 
ATOM      8  C   UNL A   1      33.530  24.482  24.593  1.00  0.00     0.170 A 
ATOM      9  N   UNL A   1      33.921  25.409  23.741  1.00  0.00    -0.222 NA
ATOM     10  N   UNL A   1      32.336  23.944  24.166  1.00  0.00    -0.342 N 
ATOM     11  C   UNL A   1      31.976  24.564  23.004  1.00  0.00     0.118 A 
ATOM     12  H   UNL A   1      31.829  23.234  24.623  1.00  0.00     0.167 HD
BRANCH   8  13
ATOM     13  C   UNL A   1      34.274  24.083  25.861  1.00  0.00     0.283 C 
BRANCH  13  14
ATOM     14  C   UNL A   1      35.529  23.247  25.601  1.00  0.00     0.059 A 
ATOM     15  C   UNL A   1      35.577  22.053  24.861  1.00  0.00     0.128 A 
ATOM     16  C   UNL A   1      36.792  21.393  24.636  1.00  0.00     0.047 A 
ATOM     17  C   UNL A   1      37.981  21.917  25.141  1.00  0.00     0.004 A 
ATOM     18  C   UNL A   1      36.745  23.726  26.142  1.00  0.00     0.014 A 
ATOM     19  C   UNL A   1      37.956  23.079  25.904  1.00  0.00     0.001 A 
BRANCH  15  20
ATOM     20  O   UNL A   1      34.419  21.422  24.490  1.00  0.00    -0.496 OA
ATOM     21  C   UNL A   1      34.124  20.282  25.295  1.00  0.00     0.278 C 
ENDBRANCH  15  20
ENDBRANCH  13  14
BRANCH  13  22
ATOM     22  N   UNL A   1      33.315  23.497  26.809  1.00  0.00    -0.345 N 
ATOM     23  H   UNL A   1      33.160  24.146  27.580  1.00  0.00     0.345 HD
ATOM     24  H   UNL A   1      33.689  22.620  27.173  1.00  0.00     0.345 HD
ATOM     25  H   UNL A   1      32.431  23.318  26.332  1.00  0.00     0.345 HD
ENDBRANCH  13  22
ENDBRANCH   8  13
ENDBRANCH   4   7
ENDBRANCH   2   3
ENDBRANCH   1   2
BRANCH   1  26
ATOM     26  C   UNL A   1      32.527  29.088  25.510  1.00  0.00     0.023 C 
BRANCH  26  27
ATOM     27  C   UNL A   1      33.659  29.316  26.506  1.00  0.00     0.116 C 
BRANCH  27  28
ATOM     28  N   UNL A   1      33.780  30.705  26.934  1.00  0.00    -0.352 N 
ATOM     29  C   UNL A   1      34.767  31.264  27.714  1.00  0.00     0.251 C 
ATOM     30  H   UNL A   1      33.071  31.316  26.630  1.00  0.00     0.163 HD
ATOM     31  O   UNL A   1      34.690  32.426  28.098  1.00  0.00    -0.269 OA
BRANCH  29  32
ATOM     32  C   UNL A   1      35.911  30.418  28.110  1.00  0.00     0.039 A 
ATOM     33  C   UNL A   1      37.056  30.403  27.312  1.00  0.00     0.014 A 
ATOM     34  C   UNL A   1      35.877  29.726  29.323  1.00  0.00     0.014 A 
ATOM     35  C   UNL A   1      38.204  29.754  27.771  1.00  0.00     0.010 A 
ATOM     36  C   UNL A   1      37.042  29.151  29.812  1.00  0.00     0.010 A 
ATOM     37  C   UNL A   1      38.219  29.162  29.044  1.00  0.00    -0.014 A 
BRANCH  37  38
ATOM     38  C   UNL A   1      39.451  28.563  29.619  1.00  0.00     0.031 A 
ATOM     39  C   UNL A   1      40.176  29.268  30.730  1.00  0.00     0.074 A 
ATOM     40  C   UNL A   1      39.993  27.468  29.050  1.00  0.00     0.049 A 
ATOM     41  N   UNL A   1      41.339  28.998  31.260  1.00  0.00    -0.248 NA
ATOM     42  C   UNL A   1      39.520  30.460  31.294  1.00  0.00     0.031 C 
ATOM     43  C   UNL A   1      39.428  26.737  27.914  1.00  0.00     0.029 A 
ATOM     44  N   UNL A   1      41.168  26.809  29.318  1.00  0.00    -0.354 N 
ATOM     45  C   UNL A   1      41.582  30.013  32.176  1.00  0.00     0.074 A 
ATOM     46  C   UNL A   1      40.455  30.918  32.111  1.00  0.00     0.031 C 
ATOM     47  C   UNL A   1      40.265  25.746  27.569  1.00  0.00     0.029 A 
ATOM     48  C   UNL A   1      41.444  25.796  28.428  1.00  0.00     0.049 A 
ATOM     49  H   UNL A   1      41.757  27.039  30.073  1.00  0.00     0.167 HD
ATOM     50  C   UNL A   1      42.638  30.171  33.009  1.00  0.00     0.034 A 
ATOM     51  C   UNL A   1      42.536  25.017  28.293  1.00  0.00     0.034 A 
ATOM     52  C   UNL A   1      43.737  29.249  33.092  1.00  0.00     0.049 A 
ATOM     53  C   UNL A   1      43.682  25.182  29.252  1.00  0.00     0.074 A 
ATOM     54  C   UNL A   1      44.799  29.257  33.978  1.00  0.00     0.029 A 
ATOM     55  N   UNL A   1      43.932  28.169  32.244  1.00  0.00    -0.354 N 
ATOM     56  N   UNL A   1      43.821  26.050  30.225  1.00  0.00    -0.248 NA
ATOM     57  C   UNL A   1      44.805  24.243  29.121  1.00  0.00     0.031 C 
ATOM     58  C   UNL A   1      45.659  28.209  33.637  1.00  0.00     0.029 A 
ATOM     59  C   UNL A   1      45.107  27.516  32.571  1.00  0.00     0.049 A 
ATOM     60  H   UNL A   1      43.323  27.906  31.517  1.00  0.00     0.167 HD
ATOM     61  C   UNL A   1      45.026  25.740  30.844  1.00  0.00     0.074 A 
ATOM     62  C   UNL A   1      45.575  24.598  30.142  1.00  0.00     0.031 C 
ATOM     63  C   UNL A   1      45.623  26.351  31.897  1.00  0.00     0.034 A 
BRANCH  50  64
ATOM     64  C   UNL A   1      42.643  31.380  33.907  1.00  0.00     0.023 A 
ATOM     65  C   UNL A   1      43.219  32.589  33.461  1.00  0.00     0.012 A 
ATOM     66  C   UNL A   1      42.053  31.328  35.186  1.00  0.00     0.148 A 
ATOM     67  C   UNL A   1      43.256  33.707  34.292  1.00  0.00     0.002 A 
ATOM     68  C   UNL A   1      42.048  32.464  35.988  1.00  0.00     0.091 A 
ATOM     69  F   UNL A   1      41.530  30.167  35.603  1.00  0.00    -0.205 F 
ATOM     70  C   UNL A   1      42.663  33.647  35.550  1.00  0.00     0.022 A 
BRANCH  68  71
ATOM     71  S   UNL A   1      41.230  32.509  37.586  1.00  0.00     0.127 S 
ATOM     72  O   UNL A   1      42.054  31.584  38.364  1.00  0.00    -0.237 OA
ATOM     73  O   UNL A   1      41.371  33.916  37.964  1.00  0.00    -0.237 OA
ATOM     74  O   UNL A   1      39.860  32.081  37.347  1.00  0.00    -0.744 OA
ENDBRANCH  68  71
ENDBRANCH  50  64
BRANCH  51  75
ATOM     75  C   UNL A   1      42.571  23.989  27.214  1.00  0.00     0.023 A 
ATOM     76  C   UNL A   1      43.240  24.266  26.007  1.00  0.00     0.012 A 
ATOM     77  C   UNL A   1      42.000  22.716  27.409  1.00  0.00     0.148 A 
ATOM     78  C   UNL A   1      43.323  23.300  25.003  1.00  0.00     0.002 A 
ATOM     79  C   UNL A   1      42.136  21.740  26.429  1.00  0.00     0.091 A 
ATOM     80  F   UNL A   1      41.364  22.477  28.565  1.00  0.00    -0.205 F 
ATOM     81  C   UNL A   1      42.782  22.035  25.219  1.00  0.00     0.022 A 
BRANCH  79  82
ATOM     82  S   UNL A   1      41.594  20.045  26.671  1.00  0.00     0.127 S 
ATOM     83  O   UNL A   1      41.934  19.436  25.388  1.00  0.00    -0.237 OA
ATOM     84  O   UNL A   1      42.430  19.624  27.796  1.00  0.00    -0.237 OA
ATOM     85  O   UNL A   1      40.170  20.123  26.972  1.00  0.00    -0.744 OA
ENDBRANCH  79  82
ENDBRANCH  51  75
BRANCH  63  86
ATOM     86  C   UNL A   1      46.919  25.779  32.409  1.00  0.00     0.023 A 
ATOM     87  C   UNL A   1      48.149  26.249  31.910  1.00  0.00     0.012 A 
ATOM     88  C   UNL A   1      46.911  24.852  33.471  1.00  0.00     0.148 A 
ATOM     89  C   UNL A   1      49.352  25.791  32.448  1.00  0.00     0.002 A 
ATOM     90  C   UNL A   1      48.111  24.442  34.037  1.00  0.00     0.091 A 
ATOM     91  F   UNL A   1      45.729  24.405  33.919  1.00  0.00    -0.205 F 
ATOM     92  C   UNL A   1      49.333  24.901  33.520  1.00  0.00     0.022 A 
BRANCH  90  93
ATOM     93  S   UNL A   1      48.182  23.380  35.486  1.00  0.00     0.127 S 
ATOM     94  O   UNL A   1      47.448  22.202  35.026  1.00  0.00    -0.237 OA
ATOM     95  O   UNL A   1      49.621  23.177  35.648  1.00  0.00    -0.237 OA
ATOM     96  O   UNL A   1      47.548  24.124  36.565  1.00  0.00    -0.744 OA
ENDBRANCH  90  93
ENDBRANCH  63  86
ENDBRANCH  37  38
ENDBRANCH  29  32
ENDBRANCH  27  28
ENDBRANCH  26  27
ENDBRANCH   1  26
TORSDOF 18
ENDMDL
MODEL 2
REMARK VINA RESULT:     -10.8      3.459      8.643
REMARK SMILES COc1ccccc1[C@H]([NH3+])c1nc(C(=O)NCCCCNC(=O)c2ccc(-c3c4nc(c(-c5cccc(S(=O)(=O)[O-])c5F)c5ccc([nH]5)c(-c5cccc(S(=O)(=O)[O-])c5F)c5nc(c(-c6cccc(S(=O)(=O)[O-])c6F)c6ccc3[nH]6)C=C5)C=C4)cc2)c[nH]1
REMARK SMILES IDX 18 1 17 2 16 3 14 4 15 5 13 7 11 8 12 9 88 10 87 11 9 13
REMARK SMILES IDX 8 14 3 15 4 16 5 17 7 18 6 19 2 20 1 21 10 22 19 26 20 27
REMARK SMILES IDX 21 28 22 29 23 31 24 32 25 33 86 34 26 35 85 36 27 37 28 38
REMARK SMILES IDX 29 39 79 40 30 41 84 42 78 43 80 44 31 45 83 46 77 47 76 48
REMARK SMILES IDX 32 50 64 51 44 52 63 53 45 54 48 55 62 56 81 57 46 58 47 59
REMARK SMILES IDX 61 61 82 62 49 63 33 64 34 65 42 66 35 67 37 68 43 69 36 70
REMARK SMILES IDX 38 71 39 72 40 73 41 74 65 75 66 76 74 77 67 78 69 79 75 80
REMARK SMILES IDX 68 81 70 82 71 83 72 84 73 85 50 86 51 87 59 88 52 89 54 90
REMARK SMILES IDX 60 91 53 92 55 93 56 94 57 95 58 96
REMARK H PARENT 16 6 88 12 10 23 10 24 10 25 21 30 80 49 48 60
REMARK Flexibility Score: inf
ROOT
ATOM      1  C   UNL A   1      31.576  30.499  25.743  1.00  0.00     0.023 C 
ENDROOT
BRANCH   1   2
ATOM      2  C   UNL A   1      32.113  29.405  24.825  1.00  0.00     0.116 C 
BRANCH   2   3
ATOM      3  N   UNL A   1      31.537  29.485  23.494  1.00  0.00    -0.351 N 
ATOM      4  C   UNL A   1      30.599  28.671  22.904  1.00  0.00     0.271 C 
ATOM      5  O   UNL A   1      30.166  28.979  21.791  1.00  0.00    -0.267 OA
ATOM      6  H   UNL A   1      31.864  30.227  22.936  1.00  0.00     0.163 HD
BRANCH   4   7
ATOM      7  C   UNL A   1      30.100  27.497  23.624  1.00  0.00     0.146 A 
ATOM      8  C   UNL A   1      30.058  25.769  24.948  1.00  0.00     0.170 A 
ATOM      9  N   UNL A   1      30.873  26.636  24.379  1.00  0.00    -0.222 NA
ATOM     10  N   UNL A   1      28.768  26.013  24.530  1.00  0.00    -0.342 N 
ATOM     11  C   UNL A   1      28.788  27.072  23.668  1.00  0.00     0.118 A 
ATOM     12  H   UNL A   1      27.969  25.509  24.807  1.00  0.00     0.167 HD
BRANCH   8  13
ATOM     13  C   UNL A   1      30.477  24.682  25.929  1.00  0.00     0.283 C 
BRANCH  13  14
ATOM     14  C   UNL A   1      31.244  23.529  25.278  1.00  0.00     0.059 A 
ATOM     15  C   UNL A   1      31.978  22.545  25.964  1.00  0.00     0.128 A 
ATOM     16  C   UNL A   1      32.600  21.498  25.273  1.00  0.00     0.047 A 
ATOM     17  C   UNL A   1      32.496  21.411  23.885  1.00  0.00     0.004 A 
ATOM     18  C   UNL A   1      31.198  23.440  23.867  1.00  0.00     0.014 A 
ATOM     19  C   UNL A   1      31.802  22.389  23.181  1.00  0.00     0.001 A 
BRANCH  15  20
ATOM     20  O   UNL A   1      32.241  22.685  27.301  1.00  0.00    -0.496 OA
ATOM     21  C   UNL A   1      33.576  22.322  27.646  1.00  0.00     0.278 C 
ENDBRANCH  15  20
ENDBRANCH  13  14
BRANCH  13  22
ATOM     22  N   UNL A   1      29.307  24.286  26.726  1.00  0.00    -0.345 N 
ATOM     23  H   UNL A   1      28.772  23.581  26.219  1.00  0.00     0.345 HD
ATOM     24  H   UNL A   1      28.718  25.102  26.895  1.00  0.00     0.345 HD
ATOM     25  H   UNL A   1      29.617  23.900  27.618  1.00  0.00     0.345 HD
ENDBRANCH  13  22
ENDBRANCH   8  13
ENDBRANCH   4   7
ENDBRANCH   2   3
ENDBRANCH   1   2
BRANCH   1  26
ATOM     26  C   UNL A   1      32.239  30.523  27.124  1.00  0.00     0.023 C 
BRANCH  26  27
ATOM     27  C   UNL A   1      33.334  31.571  27.293  1.00  0.00     0.116 C 
BRANCH  27  28
ATOM     28  N   UNL A   1      32.818  32.926  27.438  1.00  0.00    -0.352 N 
ATOM     29  C   UNL A   1      33.234  33.896  28.323  1.00  0.00     0.251 C 
ATOM     30  H   UNL A   1      32.086  33.179  26.833  1.00  0.00     0.163 HD
ATOM     31  O   UNL A   1      32.637  34.963  28.421  1.00  0.00    -0.269 OA
BRANCH  29  32
ATOM     32  C   UNL A   1      34.400  33.608  29.182  1.00  0.00     0.039 A 
ATOM     33  C   UNL A   1      34.245  32.762  30.282  1.00  0.00     0.014 A 
ATOM     34  C   UNL A   1      35.660  34.098  28.831  1.00  0.00     0.014 A 
ATOM     35  C   UNL A   1      35.374  32.340  30.988  1.00  0.00     0.010 A 
ATOM     36  C   UNL A   1      36.786  33.614  29.485  1.00  0.00     0.010 A 
ATOM     37  C   UNL A   1      36.656  32.727  30.567  1.00  0.00    -0.014 A 
BRANCH  37  38
ATOM     38  C   UNL A   1      37.887  32.210  31.218  1.00  0.00     0.031 A 
ATOM     39  C   UNL A   1      38.656  31.089  30.576  1.00  0.00     0.074 A 
ATOM     40  C   UNL A   1      38.231  32.647  32.445  1.00  0.00     0.049 A 
ATOM     41  N   UNL A   1      39.656  30.397  31.051  1.00  0.00    -0.248 NA
ATOM     42  C   UNL A   1      38.213  30.667  29.238  1.00  0.00     0.031 C 
ATOM     43  C   UNL A   1      37.520  33.675  33.208  1.00  0.00     0.029 A 
ATOM     44  N   UNL A   1      39.237  32.244  33.289  1.00  0.00    -0.354 N 
ATOM     45  C   UNL A   1      39.926  29.422  30.099  1.00  0.00     0.074 A 
ATOM     46  C   UNL A   1      38.967  29.599  29.030  1.00  0.00     0.031 C 
ATOM     47  C   UNL A   1      38.096  33.806  34.412  1.00  0.00     0.029 A 
ATOM     48  C   UNL A   1      39.189  32.845  34.526  1.00  0.00     0.049 A 
ATOM     49  H   UNL A   1      39.926  31.587  33.034  1.00  0.00     0.167 HD
ATOM     50  C   UNL A   1      40.895  28.476  30.104  1.00  0.00     0.034 A 
ATOM     51  C   UNL A   1      39.918  32.626  35.639  1.00  0.00     0.034 A 
ATOM     52  C   UNL A   1      41.866  28.329  31.153  1.00  0.00     0.049 A 
ATOM     53  C   UNL A   1      41.015  31.598  35.612  1.00  0.00     0.074 A 
ATOM     54  C   UNL A   1      42.955  27.477  31.201  1.00  0.00     0.029 A 
ATOM     55  N   UNL A   1      41.853  29.031  32.349  1.00  0.00    -0.354 N 
ATOM     56  N   UNL A   1      41.363  30.794  34.636  1.00  0.00    -0.248 NA
ATOM     57  C   UNL A   1      41.840  31.468  36.820  1.00  0.00     0.031 C 
ATOM     58  C   UNL A   1      43.574  27.632  32.446  1.00  0.00     0.029 A 
ATOM     59  C   UNL A   1      42.901  28.617  33.152  1.00  0.00     0.049 A 
ATOM     60  H   UNL A   1      41.195  29.722  32.590  1.00  0.00     0.167 HD
ATOM     61  C   UNL A   1      42.469  30.089  35.098  1.00  0.00     0.074 A 
ATOM     62  C   UNL A   1      42.739  30.567  36.439  1.00  0.00     0.031 C 
ATOM     63  C   UNL A   1      43.191  29.132  34.467  1.00  0.00     0.034 A 
BRANCH  50  64
ATOM     64  C   UNL A   1      40.959  27.538  28.927  1.00  0.00     0.023 A 
ATOM     65  C   UNL A   1      40.072  26.443  28.849  1.00  0.00     0.012 A 
ATOM     66  C   UNL A   1      41.881  27.754  27.884  1.00  0.00     0.148 A 
ATOM     67  C   UNL A   1      40.138  25.550  27.780  1.00  0.00     0.002 A 
ATOM     68  C   UNL A   1      41.904  26.889  26.796  1.00  0.00     0.091 A 
ATOM     69  F   UNL A   1      42.730  28.786  27.984  1.00  0.00    -0.205 F 
ATOM     70  C   UNL A   1      41.047  25.778  26.751  1.00  0.00     0.022 A 
BRANCH  68  71
ATOM     71  S   UNL A   1      42.977  27.152  25.381  1.00  0.00     0.127 S 
ATOM     72  O   UNL A   1      42.308  28.262  24.705  1.00  0.00    -0.237 OA
ATOM     73  O   UNL A   1      44.247  27.504  26.019  1.00  0.00    -0.237 OA
ATOM     74  O   UNL A   1      42.996  25.893  24.652  1.00  0.00    -0.744 OA
ENDBRANCH  68  71
ENDBRANCH  50  64
BRANCH  51  75
ATOM     75  C   UNL A   1      39.640  33.428  36.864  1.00  0.00     0.023 A 
ATOM     76  C   UNL A   1      40.104  34.754  36.950  1.00  0.00     0.012 A 
ATOM     77  C   UNL A   1      38.861  32.901  37.913  1.00  0.00     0.148 A 
ATOM     78  C   UNL A   1      39.815  35.536  38.069  1.00  0.00     0.002 A 
ATOM     79  C   UNL A   1      38.529  33.703  38.998  1.00  0.00     0.091 A 
ATOM     80  F   UNL A   1      38.435  31.634  37.811  1.00  0.00    -0.205 F 
ATOM     81  C   UNL A   1      39.019  35.015  39.087  1.00  0.00     0.022 A 
BRANCH  79  82
ATOM     82  S   UNL A   1      37.399  33.167  40.287  1.00  0.00     0.127 S 
ATOM     83  O   UNL A   1      38.114  32.028  40.856  1.00  0.00    -0.237 OA
ATOM     84  O   UNL A   1      37.343  34.352  41.144  1.00  0.00    -0.237 OA
ATOM     85  O   UNL A   1      36.148  32.850  39.611  1.00  0.00    -0.744 OA
ENDBRANCH  79  82
ENDBRANCH  51  75
BRANCH  63  86
ATOM     86  C   UNL A   1      44.386  28.556  35.182  1.00  0.00     0.023 A 
ATOM     87  C   UNL A   1      45.666  29.107  34.981  1.00  0.00     0.012 A 
ATOM     88  C   UNL A   1      44.212  27.538  36.141  1.00  0.00     0.148 A 
ATOM     89  C   UNL A   1      46.759  28.640  35.711  1.00  0.00     0.002 A 
ATOM     90  C   UNL A   1      45.295  27.116  36.902  1.00  0.00     0.091 A 
ATOM     91  F   UNL A   1      42.988  27.016  36.304  1.00  0.00    -0.205 F 
ATOM     92  C   UNL A   1      46.571  27.658  36.681  1.00  0.00     0.022 A 
BRANCH  90  93
ATOM     93  S   UNL A   1      45.128  25.931  38.243  1.00  0.00     0.127 S 
ATOM     94  O   UNL A   1      44.147  26.592  39.103  1.00  0.00    -0.237 OA
ATOM     95  O   UNL A   1      44.629  24.746  37.546  1.00  0.00    -0.237 OA
ATOM     96  O   UNL A   1      46.457  25.782  38.819  1.00  0.00    -0.744 OA
ENDBRANCH  90  93
ENDBRANCH  63  86
ENDBRANCH  37  38
ENDBRANCH  29  32
ENDBRANCH  27  28
ENDBRANCH  26  27
ENDBRANCH   1  26
TORSDOF 18
ENDMDL
MODEL 3
REMARK VINA RESULT:     -10.8      4.901      8.216
REMARK SMILES COc1ccccc1[C@H]([NH3+])c1nc(C(=O)NCCCCNC(=O)c2ccc(-c3c4nc(c(-c5cccc(S(=O)(=O)[O-])c5F)c5ccc([nH]5)c(-c5cccc(S(=O)(=O)[O-])c5F)c5nc(c(-c6cccc(S(=O)(=O)[O-])c6F)c6ccc3[nH]6)C=C5)C=C4)cc2)c[nH]1
REMARK SMILES IDX 18 1 17 2 16 3 14 4 15 5 13 7 11 8 12 9 88 10 87 11 9 13
REMARK SMILES IDX 8 14 3 15 4 16 5 17 7 18 6 19 2 20 1 21 10 22 19 26 20 27
REMARK SMILES IDX 21 28 22 29 23 31 24 32 25 33 86 34 26 35 85 36 27 37 28 38
REMARK SMILES IDX 29 39 79 40 30 41 84 42 78 43 80 44 31 45 83 46 77 47 76 48
REMARK SMILES IDX 32 50 64 51 44 52 63 53 45 54 48 55 62 56 81 57 46 58 47 59
REMARK SMILES IDX 61 61 82 62 49 63 33 64 34 65 42 66 35 67 37 68 43 69 36 70
REMARK SMILES IDX 38 71 39 72 40 73 41 74 65 75 66 76 74 77 67 78 69 79 75 80
REMARK SMILES IDX 68 81 70 82 71 83 72 84 73 85 50 86 51 87 59 88 52 89 54 90
REMARK SMILES IDX 60 91 53 92 55 93 56 94 57 95 58 96
REMARK H PARENT 16 6 88 12 10 23 10 24 10 25 21 30 80 49 48 60
REMARK Flexibility Score: inf
ROOT
ATOM      1  C   UNL A   1      35.068  20.344  25.012  1.00  0.00     0.023 C 
ENDROOT
BRANCH   1   2
ATOM      2  C   UNL A   1      33.610  20.362  25.463  1.00  0.00     0.116 C 
BRANCH   2   3
ATOM      3  N   UNL A   1      33.464  20.919  26.797  1.00  0.00    -0.351 N 
ATOM      4  C   UNL A   1      32.786  22.047  27.197  1.00  0.00     0.271 C 
ATOM      5  O   UNL A   1      32.699  22.287  28.404  1.00  0.00    -0.267 OA
ATOM      6  H   UNL A   1      33.912  20.417  27.516  1.00  0.00     0.163 HD
BRANCH   4   7
ATOM      7  C   UNL A   1      32.145  22.902  26.196  1.00  0.00     0.146 A 
ATOM      8  C   UNL A   1      31.905  24.290  24.536  1.00  0.00     0.170 A 
ATOM      9  N   UNL A   1      32.803  23.780  25.357  1.00  0.00    -0.222 NA
ATOM     10  N   UNL A   1      30.659  23.802  24.863  1.00  0.00    -0.342 N 
ATOM     11  C   UNL A   1      30.792  22.959  25.929  1.00  0.00     0.118 A 
ATOM     12  H   UNL A   1      29.816  24.025  24.405  1.00  0.00     0.167 HD
BRANCH   8  13
ATOM     13  C   UNL A   1      32.205  25.251  23.394  1.00  0.00     0.283 C 
BRANCH  13  14
ATOM     14  C   UNL A   1      32.299  26.715  23.830  1.00  0.00     0.059 A 
ATOM     15  C   UNL A   1      31.209  27.560  24.097  1.00  0.00     0.128 A 
ATOM     16  C   UNL A   1      31.407  28.873  24.545  1.00  0.00     0.047 A 
ATOM     17  C   UNL A   1      32.698  29.362  24.739  1.00  0.00     0.004 A 
ATOM     18  C   UNL A   1      33.596  27.257  23.989  1.00  0.00     0.014 A 
ATOM     19  C   UNL A   1      33.794  28.557  24.450  1.00  0.00     0.001 A 
BRANCH  15  20
ATOM     20  O   UNL A   1      29.937  27.175  23.764  1.00  0.00    -0.496 OA
ATOM     21  C   UNL A   1      29.211  28.190  23.073  1.00  0.00     0.278 C 
ENDBRANCH  15  20
ENDBRANCH  13  14
BRANCH  13  22
ATOM     22  N   UNL A   1      31.270  24.984  22.292  1.00  0.00    -0.345 N 
ATOM     23  H   UNL A   1      31.231  25.795  21.674  1.00  0.00     0.345 HD
ATOM     24  H   UNL A   1      30.340  24.802  22.670  1.00  0.00     0.345 HD
ATOM     25  H   UNL A   1      31.588  24.171  21.764  1.00  0.00     0.345 HD
ENDBRANCH  13  22
ENDBRANCH   8  13
ENDBRANCH   4   7
ENDBRANCH   2   3
ENDBRANCH   1   2
BRANCH   1  26
ATOM     26  C   UNL A   1      35.616  21.727  24.650  1.00  0.00     0.023 C 
BRANCH  26  27
ATOM     27  C   UNL A   1      36.919  22.104  25.348  1.00  0.00     0.116 C 
BRANCH  27  28
ATOM     28  N   UNL A   1      37.846  20.986  25.482  1.00  0.00    -0.352 N 
ATOM     29  C   UNL A   1      39.115  21.004  26.016  1.00  0.00     0.251 C 
ATOM     30  H   UNL A   1      37.527  20.116  25.152  1.00  0.00     0.163 HD
ATOM     31  O   UNL A   1      39.837  20.014  25.965  1.00  0.00    -0.269 OA
BRANCH  29  32
ATOM     32  C   UNL A   1      39.604  22.258  26.623  1.00  0.00     0.039 A 
ATOM     33  C   UNL A   1      40.573  22.198  27.626  1.00  0.00     0.014 A 
ATOM     34  C   UNL A   1      39.171  23.488  26.120  1.00  0.00     0.014 A 
ATOM     35  C   UNL A   1      41.171  23.378  28.074  1.00  0.00     0.010 A 
ATOM     36  C   UNL A   1      39.823  24.650  26.511  1.00  0.00     0.010 A 
ATOM     37  C   UNL A   1      40.833  24.608  27.487  1.00  0.00    -0.014 A 
BRANCH  37  38
ATOM     38  C   UNL A   1      41.526  25.870  27.852  1.00  0.00     0.031 A 
ATOM     39  C   UNL A   1      40.791  26.926  28.629  1.00  0.00     0.074 A 
ATOM     40  C   UNL A   1      42.757  26.124  27.367  1.00  0.00     0.049 A 
ATOM     41  N   UNL A   1      41.157  28.148  28.911  1.00  0.00    -0.248 NA
ATOM     42  C   UNL A   1      39.449  26.572  29.118  1.00  0.00     0.031 C 
ATOM     43  C   UNL A   1      43.543  25.212  26.535  1.00  0.00     0.029 A 
ATOM     44  N   UNL A   1      43.541  27.248  27.462  1.00  0.00    -0.354 N 
ATOM     45  C   UNL A   1      40.073  28.726  29.560  1.00  0.00     0.074 A 
ATOM     46  C   UNL A   1      39.028  27.728  29.606  1.00  0.00     0.031 C 
ATOM     47  C   UNL A   1      44.686  25.819  26.178  1.00  0.00     0.029 A 
ATOM     48  C   UNL A   1      44.697  27.175  26.717  1.00  0.00     0.049 A 
ATOM     49  H   UNL A   1      43.301  28.031  28.010  1.00  0.00     0.167 HD
ATOM     50  C   UNL A   1      39.963  29.970  30.084  1.00  0.00     0.034 A 
ATOM     51  C   UNL A   1      45.641  28.103  26.466  1.00  0.00     0.034 A 
ATOM     52  C   UNL A   1      41.019  30.945  30.065  1.00  0.00     0.049 A 
ATOM     53  C   UNL A   1      45.520  29.466  27.090  1.00  0.00     0.074 A 
ATOM     54  C   UNL A   1      41.048  32.190  30.665  1.00  0.00     0.029 A 
ATOM     55  N   UNL A   1      42.222  30.796  29.391  1.00  0.00    -0.354 N 
ATOM     56  N   UNL A   1      44.557  29.942  27.842  1.00  0.00    -0.248 NA
ATOM     57  C   UNL A   1      46.625  30.407  26.863  1.00  0.00     0.031 C 
ATOM     58  C   UNL A   1      42.251  32.814  30.317  1.00  0.00     0.029 A 
ATOM     59  C   UNL A   1      42.992  31.935  29.541  1.00  0.00     0.049 A 
ATOM     60  H   UNL A   1      42.488  29.998  28.881  1.00  0.00     0.167 HD
ATOM     61  C   UNL A   1      44.956  31.223  28.207  1.00  0.00     0.074 A 
ATOM     62  C   UNL A   1      46.252  31.446  27.601  1.00  0.00     0.031 C 
ATOM     63  C   UNL A   1      44.303  32.131  28.973  1.00  0.00     0.034 A 
BRANCH  50  64
ATOM     64  C   UNL A   1      38.657  30.337  30.738  1.00  0.00     0.023 A 
ATOM     65  C   UNL A   1      38.410  29.971  32.079  1.00  0.00     0.012 A 
ATOM     66  C   UNL A   1      37.680  31.068  30.033  1.00  0.00     0.148 A 
ATOM     67  C   UNL A   1      37.195  30.279  32.688  1.00  0.00     0.002 A 
ATOM     68  C   UNL A   1      36.492  31.417  30.665  1.00  0.00     0.091 A 
ATOM     69  F   UNL A   1      37.920  31.389  28.755  1.00  0.00    -0.205 F 
ATOM     70  C   UNL A   1      36.241  31.009  31.984  1.00  0.00     0.022 A 
BRANCH  68  71
ATOM     71  S   UNL A   1      35.242  32.432  29.870  1.00  0.00     0.127 S 
ATOM     72  O   UNL A   1      34.297  32.647  30.965  1.00  0.00    -0.237 OA
ATOM     73  O   UNL A   1      36.008  33.618  29.484  1.00  0.00    -0.237 OA
ATOM     74  O   UNL A   1      34.740  31.647  28.753  1.00  0.00    -0.744 OA
ENDBRANCH  68  71
ENDBRANCH  50  64
BRANCH  51  75
ATOM     75  C   UNL A   1      46.800  27.750  25.600  1.00  0.00     0.023 A 
ATOM     76  C   UNL A   1      46.766  28.057  24.226  1.00  0.00     0.012 A 
ATOM     77  C   UNL A   1      47.962  27.169  26.146  1.00  0.00     0.148 A 
ATOM     78  C   UNL A   1      47.860  27.775  23.408  1.00  0.00     0.002 A 
ATOM     79  C   UNL A   1      49.069  26.944  25.337  1.00  0.00     0.091 A 
ATOM     80  F   UNL A   1      47.970  26.881  27.456  1.00  0.00    -0.205 F 
ATOM     81  C   UNL A   1      49.014  27.230  23.965  1.00  0.00     0.022 A 
BRANCH  79  82
ATOM     82  S   UNL A   1      50.643  26.374  25.989  1.00  0.00     0.127 S 
ATOM     83  O   UNL A   1      50.255  25.147  26.678  1.00  0.00    -0.237 OA
ATOM     84  O   UNL A   1      51.417  26.177  24.763  1.00  0.00    -0.237 OA
ATOM     85  O   UNL A   1      51.130  27.448  26.845  1.00  0.00    -0.744 OA
ENDBRANCH  79  82
ENDBRANCH  51  75
BRANCH  63  86
ATOM     86  C   UNL A   1      44.987  33.443  29.259  1.00  0.00     0.023 A 
ATOM     87  C   UNL A   1      45.902  33.549  30.324  1.00  0.00     0.012 A 
ATOM     88  C   UNL A   1      44.800  34.540  28.393  1.00  0.00     0.148 A 
ATOM     89  C   UNL A   1      46.608  34.733  30.534  1.00  0.00     0.002 A 
ATOM     90  C   UNL A   1      45.546  35.697  28.577  1.00  0.00     0.091 A 
ATOM     91  F   UNL A   1      43.911  34.422  27.397  1.00  0.00    -0.205 F 
ATOM     92  C   UNL A   1      46.442  35.800  29.653  1.00  0.00     0.022 A 
BRANCH  90  93
ATOM     93  S   UNL A   1      45.476  37.081  27.433  1.00  0.00     0.127 S 
ATOM     94  O   UNL A   1      46.121  36.519  26.247  1.00  0.00    -0.237 OA
ATOM     95  O   UNL A   1      44.036  37.298  27.300  1.00  0.00    -0.237 OA
ATOM     96  O   UNL A   1      46.198  38.173  28.073  1.00  0.00    -0.744 OA
ENDBRANCH  90  93
ENDBRANCH  63  86
ENDBRANCH  37  38
ENDBRANCH  29  32
ENDBRANCH  27  28
ENDBRANCH  26  27
ENDBRANCH   1  26
TORSDOF 18
ENDMDL
