MODEL 1
REMARK VINA RESULT:     -11.6      0.000      0.000
REMARK SMILES CCc1cccc(C)c1Nc1ccccc1CC(=O)NCCCCNC(=O)c1ccc(-c2c3nc(c(-c4cccc(S(=O)(=O)[O-])c4F)c4ccc([nH]4)c(-c4cccc(S(=O)(=O)[O-])c4F)c4nc(c(-c5cccc(S(=O)(=O)[O-])c5F)c5ccc2[nH]5)C=C4)C=C3)cc1
REMARK SMILES IDX 22 1 21 2 20 3 18 4 19 5 17 7 16 8 11 9 12 10 13 11 15 12
REMARK SMILES IDX 14 13 10 14 9 16 3 17 4 18 5 19 7 20 6 21 8 22 2 23 1 24
REMARK SMILES IDX 23 25 24 26 25 27 26 28 27 30 28 31 29 32 90 33 30 34 89 35
REMARK SMILES IDX 31 36 32 37 33 38 83 39 34 40 88 41 82 42 84 43 35 44 87 45
REMARK SMILES IDX 81 46 80 47 36 49 68 50 48 51 67 52 49 53 52 54 66 55 85 56
REMARK SMILES IDX 50 57 51 58 65 60 86 61 53 62 37 63 38 64 46 65 39 66 41 67
REMARK SMILES IDX 47 68 40 69 42 70 43 71 44 72 45 73 69 74 70 75 78 76 71 77
REMARK SMILES IDX 73 78 79 79 72 80 74 81 75 82 76 83 77 84 54 85 55 86 63 87
REMARK SMILES IDX 56 88 58 89 64 90 57 91 59 92 60 93 61 94 62 95
REMARK H PARENT 20 6 10 15 25 29 84 48 52 59
REMARK Flexibility Score: inf
ROOT
ATOM      1  C   UNL A   1      39.621  22.626  26.817  1.00  0.00     0.023 C 
ENDROOT
BRANCH   1   2
ATOM      2  C   UNL A   1      38.386  22.481  25.919  1.00  0.00     0.116 C 
BRANCH   2   3
ATOM      3  N   UNL A   1      37.226  23.253  26.334  1.00  0.00    -0.356 N 
ATOM      4  C   UNL A   1      35.989  23.419  25.786  1.00  0.00     0.224 C 
ATOM      5  O   UNL A   1      35.112  23.898  26.512  1.00  0.00    -0.275 OA
ATOM      6  H   UNL A   1      37.360  23.752  27.171  1.00  0.00     0.163 HD
BRANCH   4   7
ATOM      7  C   UNL A   1      35.637  22.910  24.405  1.00  0.00     0.137 C 
BRANCH   7   8
ATOM      8  C   UNL A   1      34.510  21.906  24.279  1.00  0.00    -0.015 A 
ATOM      9  C   UNL A   1      33.193  22.228  23.885  1.00  0.00     0.042 A 
ATOM     10  C   UNL A   1      32.215  21.213  23.896  1.00  0.00     0.026 A 
ATOM     11  C   UNL A   1      32.525  19.901  24.249  1.00  0.00     0.002 A 
ATOM     12  C   UNL A   1      34.788  20.581  24.685  1.00  0.00     0.006 A 
ATOM     13  C   UNL A   1      33.814  19.584  24.648  1.00  0.00     0.000 A 
BRANCH   9  14
ATOM     14  N   UNL A   1      32.766  23.512  23.481  1.00  0.00    -0.355 N 
ATOM     15  H   UNL A   1      32.496  23.571  22.537  1.00  0.00     0.167 HD
BRANCH  14  16
ATOM     16  C   UNL A   1      32.657  24.729  24.195  1.00  0.00     0.045 A 
ATOM     17  C   UNL A   1      31.904  24.814  25.391  1.00  0.00    -0.024 A 
ATOM     18  C   UNL A   1      32.154  25.893  26.274  1.00  0.00     0.006 A 
ATOM     19  C   UNL A   1      33.044  26.911  25.959  1.00  0.00     0.001 A 
ATOM     20  C   UNL A   1      33.382  25.879  23.796  1.00  0.00    -0.027 A 
ATOM     21  C   UNL A   1      33.616  26.931  24.699  1.00  0.00     0.005 A 
ATOM     22  C   UNL A   1      33.803  26.081  22.366  1.00  0.00     0.046 C 
BRANCH  17  23
ATOM     23  C   UNL A   1      30.795  23.889  25.862  1.00  0.00     0.034 C 
ATOM     24  C   UNL A   1      31.004  22.964  27.051  1.00  0.00     0.009 C 
ENDBRANCH  17  23
ENDBRANCH  14  16
ENDBRANCH   9  14
ENDBRANCH   7   8
ENDBRANCH   4   7
ENDBRANCH   2   3
ENDBRANCH   1   2
BRANCH   1  25
ATOM     25  C   UNL A   1      40.970  22.587  26.108  1.00  0.00     0.023 C 
BRANCH  25  26
ATOM     26  C   UNL A   1      42.031  21.713  26.746  1.00  0.00     0.116 C 
BRANCH  26  27
ATOM     27  N   UNL A   1      42.670  20.815  25.783  1.00  0.00    -0.352 N 
ATOM     28  C   UNL A   1      43.817  21.026  25.037  1.00  0.00     0.251 C 
ATOM     29  H   UNL A   1      42.227  19.947  25.650  1.00  0.00     0.163 HD
ATOM     30  O   UNL A   1      44.185  20.199  24.208  1.00  0.00    -0.269 OA
BRANCH  28  31
ATOM     31  C   UNL A   1      44.638  22.209  25.368  1.00  0.00     0.039 A 
ATOM     32  C   UNL A   1      45.255  22.206  26.622  1.00  0.00     0.014 A 
ATOM     33  C   UNL A   1      44.425  23.395  24.669  1.00  0.00     0.014 A 
ATOM     34  C   UNL A   1      45.380  23.405  27.310  1.00  0.00     0.010 A 
ATOM     35  C   UNL A   1      44.458  24.572  25.385  1.00  0.00     0.010 A 
ATOM     36  C   UNL A   1      44.853  24.555  26.731  1.00  0.00    -0.014 A 
BRANCH  36  37
ATOM     37  C   UNL A   1      44.634  25.795  27.457  1.00  0.00     0.031 A 
ATOM     38  C   UNL A   1      43.298  26.410  27.430  1.00  0.00     0.074 A 
ATOM     39  C   UNL A   1      45.622  26.304  28.226  1.00  0.00     0.049 A 
ATOM     40  N   UNL A   1      43.039  27.620  27.788  1.00  0.00    -0.248 NA
ATOM     41  C   UNL A   1      42.143  25.691  26.914  1.00  0.00     0.031 C 
ATOM     42  C   UNL A   1      45.491  27.291  29.291  1.00  0.00     0.029 A 
ATOM     43  N   UNL A   1      47.003  26.197  28.021  1.00  0.00    -0.354 N 
ATOM     44  C   UNL A   1      41.667  27.760  27.802  1.00  0.00     0.074 A 
ATOM     45  C   UNL A   1      41.168  26.566  27.165  1.00  0.00     0.031 C 
ATOM     46  C   UNL A   1      46.674  27.900  29.459  1.00  0.00     0.029 A 
ATOM     47  C   UNL A   1      47.541  27.446  28.384  1.00  0.00     0.049 A 
ATOM     48  H   UNL A   1      47.496  25.411  27.690  1.00  0.00     0.167 HD
ATOM     49  C   UNL A   1      41.121  28.806  28.484  1.00  0.00     0.034 A 
ATOM     50  C   UNL A   1      48.233  28.258  27.533  1.00  0.00     0.034 A 
ATOM     51  C   UNL A   1      42.167  29.742  28.921  1.00  0.00     0.049 A 
ATOM     52  C   UNL A   1      47.643  29.653  27.419  1.00  0.00     0.074 A 
ATOM     53  C   UNL A   1      42.860  29.899  30.111  1.00  0.00     0.029 A 
ATOM     54  N   UNL A   1      42.841  30.498  27.971  1.00  0.00    -0.354 N 
ATOM     55  N   UNL A   1      46.478  29.997  27.894  1.00  0.00    -0.248 NA
ATOM     56  C   UNL A   1      48.301  30.760  26.726  1.00  0.00     0.031 C 
ATOM     57  C   UNL A   1      44.019  30.678  29.842  1.00  0.00     0.029 A 
ATOM     58  C   UNL A   1      44.010  31.023  28.501  1.00  0.00     0.049 A 
ATOM     59  H   UNL A   1      42.532  30.643  27.047  1.00  0.00     0.167 HD
ATOM     60  C   UNL A   1      46.163  31.266  27.482  1.00  0.00     0.074 A 
ATOM     61  C   UNL A   1      47.373  31.728  26.823  1.00  0.00     0.031 C 
ATOM     62  C   UNL A   1      44.914  31.798  27.658  1.00  0.00     0.034 A 
BRANCH  49  63
ATOM     63  C   UNL A   1      39.701  28.838  29.037  1.00  0.00     0.023 A 
ATOM     64  C   UNL A   1      38.649  28.963  28.100  1.00  0.00     0.012 A 
ATOM     65  C   UNL A   1      39.311  28.857  30.396  1.00  0.00     0.148 A 
ATOM     66  C   UNL A   1      37.323  29.203  28.480  1.00  0.00     0.002 A 
ATOM     67  C   UNL A   1      38.000  29.161  30.780  1.00  0.00     0.091 A 
ATOM     68  F   UNL A   1      40.172  28.493  31.344  1.00  0.00    -0.205 F 
ATOM     69  C   UNL A   1      37.003  29.341  29.822  1.00  0.00     0.022 A 
BRANCH  67  70
ATOM     70  S   UNL A   1      37.537  29.415  32.505  1.00  0.00     0.127 S 
ATOM     71  O   UNL A   1      36.205  30.014  32.380  1.00  0.00    -0.237 OA
ATOM     72  O   UNL A   1      37.544  28.053  33.034  1.00  0.00    -0.237 OA
ATOM     73  O   UNL A   1      38.539  30.310  33.070  1.00  0.00    -0.744 OA
ENDBRANCH  67  70
ENDBRANCH  49  63
BRANCH  50  74
ATOM     74  C   UNL A   1      48.927  27.527  26.433  1.00  0.00     0.023 A 
ATOM     75  C   UNL A   1      48.269  27.478  25.180  1.00  0.00     0.012 A 
ATOM     76  C   UNL A   1      50.305  27.258  26.486  1.00  0.00     0.148 A 
ATOM     77  C   UNL A   1      48.990  27.314  23.997  1.00  0.00     0.002 A 
ATOM     78  C   UNL A   1      51.017  27.086  25.300  1.00  0.00     0.091 A 
ATOM     79  F   UNL A   1      50.914  27.250  27.679  1.00  0.00    -0.205 F 
ATOM     80  C   UNL A   1      50.370  27.156  24.055  1.00  0.00     0.022 A 
BRANCH  78  81
ATOM     81  S   UNL A   1      52.807  26.909  25.304  1.00  0.00     0.127 S 
ATOM     82  O   UNL A   1      52.969  25.609  25.946  1.00  0.00    -0.237 OA
ATOM     83  O   UNL A   1      53.131  26.938  23.877  1.00  0.00    -0.237 OA
ATOM     84  O   UNL A   1      53.286  28.067  26.045  1.00  0.00    -0.744 OA
ENDBRANCH  78  81
ENDBRANCH  50  74
BRANCH  62  85
ATOM     85  C   UNL A   1      44.411  33.085  27.032  1.00  0.00     0.023 A 
ATOM     86  C   UNL A   1      44.211  33.219  25.645  1.00  0.00     0.012 A 
ATOM     87  C   UNL A   1      43.962  34.158  27.847  1.00  0.00     0.148 A 
ATOM     88  C   UNL A   1      43.651  34.374  25.085  1.00  0.00     0.002 A 
ATOM     89  C   UNL A   1      43.307  35.258  27.293  1.00  0.00     0.091 A 
ATOM     90  F   UNL A   1      44.180  34.129  29.170  1.00  0.00    -0.205 F 
ATOM     91  C   UNL A   1      43.177  35.384  25.910  1.00  0.00     0.022 A 
BRANCH  89  92
ATOM     92  S   UNL A   1      42.474  36.457  28.344  1.00  0.00     0.127 S 
ATOM     93  O   UNL A   1      41.881  37.364  27.364  1.00  0.00    -0.237 OA
ATOM     94  O   UNL A   1      41.507  35.630  29.069  1.00  0.00    -0.237 OA
ATOM     95  O   UNL A   1      43.527  37.013  29.185  1.00  0.00    -0.744 OA
ENDBRANCH  89  92
ENDBRANCH  62  85
ENDBRANCH  36  37
ENDBRANCH  28  31
ENDBRANCH  26  27
ENDBRANCH  25  26
ENDBRANCH   1  25
TORSDOF 18
ENDMDL
MODEL 2
REMARK VINA RESULT:     -11.1      3.592      5.068
REMARK SMILES CCc1cccc(C)c1Nc1ccccc1CC(=O)NCCCCNC(=O)c1ccc(-c2c3nc(c(-c4cccc(S(=O)(=O)[O-])c4F)c4ccc([nH]4)c(-c4cccc(S(=O)(=O)[O-])c4F)c4nc(c(-c5cccc(S(=O)(=O)[O-])c5F)c5ccc2[nH]5)C=C4)C=C3)cc1
REMARK SMILES IDX 22 1 21 2 20 3 18 4 19 5 17 7 16 8 11 9 12 10 13 11 15 12
REMARK SMILES IDX 14 13 10 14 9 16 3 17 4 18 5 19 7 20 6 21 8 22 2 23 1 24
REMARK SMILES IDX 23 25 24 26 25 27 26 28 27 30 28 31 29 32 90 33 30 34 89 35
REMARK SMILES IDX 31 36 32 37 33 38 83 39 34 40 88 41 82 42 84 43 35 44 87 45
REMARK SMILES IDX 81 46 80 47 36 49 68 50 48 51 67 52 49 53 52 54 66 55 85 56
REMARK SMILES IDX 50 57 51 58 65 60 86 61 53 62 37 63 38 64 46 65 39 66 41 67
REMARK SMILES IDX 47 68 40 69 42 70 43 71 44 72 45 73 69 74 70 75 78 76 71 77
REMARK SMILES IDX 73 78 79 79 72 80 74 81 75 82 76 83 77 84 54 85 55 86 63 87
REMARK SMILES IDX 56 88 58 89 64 90 57 91 59 92 60 93 61 94 62 95
REMARK H PARENT 20 6 10 15 25 29 84 48 52 59
REMARK Flexibility Score: inf
ROOT
ATOM      1  C   UNL A   1      37.260  20.873  24.749  1.00  0.00     0.023 C 
ENDROOT
BRANCH   1   2
ATOM      2  C   UNL A   1      35.763  21.082  25.012  1.00  0.00     0.116 C 
BRANCH   2   3
ATOM      3  N   UNL A   1      35.448  22.036  26.064  1.00  0.00    -0.356 N 
ATOM      4  C   UNL A   1      34.299  22.688  26.398  1.00  0.00     0.224 C 
ATOM      5  O   UNL A   1      34.254  23.211  27.517  1.00  0.00    -0.275 OA
ATOM      6  H   UNL A   1      36.211  22.251  26.647  1.00  0.00     0.163 HD
BRANCH   4   7
ATOM      7  C   UNL A   1      33.065  22.661  25.523  1.00  0.00     0.137 C 
BRANCH   7   8
ATOM      8  C   UNL A   1      33.120  23.370  24.186  1.00  0.00    -0.015 A 
ATOM      9  C   UNL A   1      32.958  24.762  24.012  1.00  0.00     0.042 A 
ATOM     10  C   UNL A   1      32.940  25.284  22.702  1.00  0.00     0.026 A 
ATOM     11  C   UNL A   1      33.113  24.467  21.586  1.00  0.00     0.002 A 
ATOM     12  C   UNL A   1      33.238  22.555  23.037  1.00  0.00     0.006 A 
ATOM     13  C   UNL A   1      33.258  23.098  21.754  1.00  0.00     0.000 A 
BRANCH   9  14
ATOM     14  N   UNL A   1      32.804  25.691  25.064  1.00  0.00    -0.355 N 
ATOM     15  H   UNL A   1      33.203  25.407  25.918  1.00  0.00     0.167 HD
BRANCH  14  16
ATOM     16  C   UNL A   1      32.177  26.959  25.108  1.00  0.00     0.045 A 
ATOM     17  C   UNL A   1      32.900  28.122  25.466  1.00  0.00    -0.024 A 
ATOM     18  C   UNL A   1      32.373  29.386  25.102  1.00  0.00     0.006 A 
ATOM     19  C   UNL A   1      31.134  29.519  24.491  1.00  0.00     0.001 A 
ATOM     20  C   UNL A   1      30.832  27.126  24.694  1.00  0.00    -0.027 A 
ATOM     21  C   UNL A   1      30.343  28.394  24.335  1.00  0.00     0.005 A 
ATOM     22  C   UNL A   1      29.848  25.991  24.758  1.00  0.00     0.046 C 
BRANCH  17  23
ATOM     23  C   UNL A   1      34.198  28.209  26.250  1.00  0.00     0.034 C 
ATOM     24  C   UNL A   1      34.295  29.064  27.504  1.00  0.00     0.009 C 
ENDBRANCH  17  23
ENDBRANCH  14  16
ENDBRANCH   9  14
ENDBRANCH   7   8
ENDBRANCH   4   7
ENDBRANCH   2   3
ENDBRANCH   1   2
BRANCH   1  25
ATOM     25  C   UNL A   1      38.171  22.041  25.114  1.00  0.00     0.023 C 
BRANCH  25  26
ATOM     26  C   UNL A   1      38.745  22.021  26.516  1.00  0.00     0.116 C 
BRANCH  26  27
ATOM     27  N   UNL A   1      40.193  22.235  26.531  1.00  0.00    -0.352 N 
ATOM     28  C   UNL A   1      40.887  23.433  26.557  1.00  0.00     0.251 C 
ATOM     29  H   UNL A   1      40.744  21.421  26.523  1.00  0.00     0.163 HD
ATOM     30  O   UNL A   1      42.112  23.447  26.489  1.00  0.00    -0.269 OA
BRANCH  28  31
ATOM     31  C   UNL A   1      40.112  24.666  26.801  1.00  0.00     0.039 A 
ATOM     32  C   UNL A   1      40.554  25.819  26.146  1.00  0.00     0.014 A 
ATOM     33  C   UNL A   1      39.306  24.743  27.934  1.00  0.00     0.014 A 
ATOM     34  C   UNL A   1      40.448  27.042  26.794  1.00  0.00     0.010 A 
ATOM     35  C   UNL A   1      39.285  25.936  28.623  1.00  0.00     0.010 A 
ATOM     36  C   UNL A   1      39.933  27.058  28.087  1.00  0.00    -0.014 A 
BRANCH  36  37
ATOM     37  C   UNL A   1      40.052  28.194  28.987  1.00  0.00     0.031 A 
ATOM     38  C   UNL A   1      39.175  29.357  28.784  1.00  0.00     0.074 A 
ATOM     39  C   UNL A   1      40.882  28.122  30.050  1.00  0.00     0.049 A 
ATOM     40  N   UNL A   1      39.356  30.515  29.318  1.00  0.00    -0.248 NA
ATOM     41  C   UNL A   1      38.037  29.300  27.879  1.00  0.00     0.031 C 
ATOM     42  C   UNL A   1      40.868  28.965  31.240  1.00  0.00     0.029 A 
ATOM     43  N   UNL A   1      42.081  27.405  30.149  1.00  0.00    -0.354 N 
ATOM     44  C   UNL A   1      38.235  31.273  29.047  1.00  0.00     0.074 A 
ATOM     45  C   UNL A   1      37.495  30.503  28.078  1.00  0.00     0.031 C 
ATOM     46  C   UNL A   1      42.087  28.941  31.798  1.00  0.00     0.029 A 
ATOM     47  C   UNL A   1      42.959  28.228  30.879  1.00  0.00     0.049 A 
ATOM     48  H   UNL A   1      42.271  26.511  29.783  1.00  0.00     0.167 HD
ATOM     49  C   UNL A   1      38.005  32.392  29.790  1.00  0.00     0.034 A 
ATOM     50  C   UNL A   1      44.149  28.695  30.398  1.00  0.00     0.034 A 
ATOM     51  C   UNL A   1      39.164  32.697  30.640  1.00  0.00     0.049 A 
ATOM     52  C   UNL A   1      44.265  30.209  30.446  1.00  0.00     0.074 A 
ATOM     53  C   UNL A   1      39.468  32.417  31.963  1.00  0.00     0.029 A 
ATOM     54  N   UNL A   1      40.344  33.132  30.050  1.00  0.00    -0.354 N 
ATOM     55  N   UNL A   1      43.270  31.012  30.703  1.00  0.00    -0.248 NA
ATOM     56  C   UNL A   1      45.501  30.938  30.170  1.00  0.00     0.031 C 
ATOM     57  C   UNL A   1      40.869  32.590  32.135  1.00  0.00     0.029 A 
ATOM     58  C   UNL A   1      41.407  33.009  30.931  1.00  0.00     0.049 A 
ATOM     59  H   UNL A   1      40.416  33.479  29.131  1.00  0.00     0.167 HD
ATOM     60  C   UNL A   1      43.658  32.312  30.505  1.00  0.00     0.074 A 
ATOM     61  C   UNL A   1      45.086  32.214  30.252  1.00  0.00     0.031 C 
ATOM     62  C   UNL A   1      42.760  33.345  30.499  1.00  0.00     0.034 A 
BRANCH  49  63
ATOM     63  C   UNL A   1      36.637  33.032  29.997  1.00  0.00     0.023 A 
ATOM     64  C   UNL A   1      35.997  33.567  28.855  1.00  0.00     0.012 A 
ATOM     65  C   UNL A   1      35.968  33.245  31.224  1.00  0.00     0.148 A 
ATOM     66  C   UNL A   1      34.841  34.352  28.934  1.00  0.00     0.002 A 
ATOM     67  C   UNL A   1      34.850  34.082  31.317  1.00  0.00     0.091 A 
ATOM     68  F   UNL A   1      36.339  32.574  32.313  1.00  0.00    -0.205 F 
ATOM     69  C   UNL A   1      34.287  34.643  30.172  1.00  0.00     0.022 A 
BRANCH  67  70
ATOM     70  S   UNL A   1      34.124  34.546  32.901  1.00  0.00     0.127 S 
ATOM     71  O   UNL A   1      34.110  33.269  33.619  1.00  0.00    -0.237 OA
ATOM     72  O   UNL A   1      35.084  35.521  33.412  1.00  0.00    -0.237 OA
ATOM     73  O   UNL A   1      32.797  35.074  32.603  1.00  0.00    -0.744 OA
ENDBRANCH  67  70
ENDBRANCH  49  63
BRANCH  50  74
ATOM     74  C   UNL A   1      44.763  27.819  29.358  1.00  0.00     0.023 A 
ATOM     75  C   UNL A   1      45.181  26.530  29.768  1.00  0.00     0.012 A 
ATOM     76  C   UNL A   1      44.576  28.068  27.987  1.00  0.00     0.148 A 
ATOM     77  C   UNL A   1      45.264  25.479  28.855  1.00  0.00     0.002 A 
ATOM     78  C   UNL A   1      44.669  27.013  27.080  1.00  0.00     0.091 A 
ATOM     79  F   UNL A   1      44.235  29.302  27.597  1.00  0.00    -0.205 F 
ATOM     80  C   UNL A   1      44.971  25.712  27.517  1.00  0.00     0.022 A 
BRANCH  78  81
ATOM     81  S   UNL A   1      44.273  27.241  25.341  1.00  0.00     0.127 S 
ATOM     82  O   UNL A   1      43.861  25.895  24.957  1.00  0.00    -0.237 OA
ATOM     83  O   UNL A   1      43.193  28.227  25.389  1.00  0.00    -0.237 OA
ATOM     84  O   UNL A   1      45.506  27.740  24.749  1.00  0.00    -0.744 OA
ENDBRANCH  78  81
ENDBRANCH  50  74
BRANCH  62  85
ATOM     85  C   UNL A   1      43.058  34.766  30.058  1.00  0.00     0.023 A 
ATOM     86  C   UNL A   1      42.587  35.290  28.839  1.00  0.00     0.012 A 
ATOM     87  C   UNL A   1      43.691  35.680  30.941  1.00  0.00     0.148 A 
ATOM     88  C   UNL A   1      42.779  36.631  28.484  1.00  0.00     0.002 A 
ATOM     89  C   UNL A   1      43.783  37.035  30.630  1.00  0.00     0.091 A 
ATOM     90  F   UNL A   1      44.224  35.237  32.090  1.00  0.00    -0.205 F 
ATOM     91  C   UNL A   1      43.356  37.510  29.390  1.00  0.00     0.022 A 
BRANCH  89  92
ATOM     92  S   UNL A   1      44.303  38.231  31.872  1.00  0.00     0.127 S 
ATOM     93  O   UNL A   1      43.962  39.501  31.235  1.00  0.00    -0.237 OA
ATOM     94  O   UNL A   1      43.464  37.883  33.021  1.00  0.00    -0.237 OA
ATOM     95  O   UNL A   1      45.722  37.968  32.071  1.00  0.00    -0.744 OA
ENDBRANCH  89  92
ENDBRANCH  62  85
ENDBRANCH  36  37
ENDBRANCH  28  31
ENDBRANCH  26  27
ENDBRANCH  25  26
ENDBRANCH   1  25
TORSDOF 18
ENDMDL
MODEL 3
REMARK VINA RESULT:     -11.0      1.698      2.180
REMARK SMILES CCc1cccc(C)c1Nc1ccccc1CC(=O)NCCCCNC(=O)c1ccc(-c2c3nc(c(-c4cccc(S(=O)(=O)[O-])c4F)c4ccc([nH]4)c(-c4cccc(S(=O)(=O)[O-])c4F)c4nc(c(-c5cccc(S(=O)(=O)[O-])c5F)c5ccc2[nH]5)C=C4)C=C3)cc1
REMARK SMILES IDX 22 1 21 2 20 3 18 4 19 5 17 7 16 8 11 9 12 10 13 11 15 12
REMARK SMILES IDX 14 13 10 14 9 16 3 17 4 18 5 19 7 20 6 21 8 22 2 23 1 24
REMARK SMILES IDX 23 25 24 26 25 27 26 28 27 30 28 31 29 32 90 33 30 34 89 35
REMARK SMILES IDX 31 36 32 37 33 38 83 39 34 40 88 41 82 42 84 43 35 44 87 45
REMARK SMILES IDX 81 46 80 47 36 49 68 50 48 51 67 52 49 53 52 54 66 55 85 56
REMARK SMILES IDX 50 57 51 58 65 60 86 61 53 62 37 63 38 64 46 65 39 66 41 67
REMARK SMILES IDX 47 68 40 69 42 70 43 71 44 72 45 73 69 74 70 75 78 76 71 77
REMARK SMILES IDX 73 78 79 79 72 80 74 81 75 82 76 83 77 84 54 85 55 86 63 87
REMARK SMILES IDX 56 88 58 89 64 90 57 91 59 92 60 93 61 94 62 95
REMARK H PARENT 20 6 10 15 25 29 84 48 52 59
REMARK Flexibility Score: inf
ROOT
ATOM      1  C   UNL A   1      38.101  23.655  26.102  1.00  0.00     0.023 C 
ENDROOT
BRANCH   1   2
ATOM      2  C   UNL A   1      37.550  22.330  25.561  1.00  0.00     0.116 C 
BRANCH   2   3
ATOM      3  N   UNL A   1      36.802  22.434  24.318  1.00  0.00    -0.356 N 
ATOM      4  C   UNL A   1      35.826  23.289  23.902  1.00  0.00     0.224 C 
ATOM      5  O   UNL A   1      35.585  23.320  22.691  1.00  0.00    -0.275 OA
ATOM      6  H   UNL A   1      37.048  21.756  23.649  1.00  0.00     0.163 HD
BRANCH   4   7
ATOM      7  C   UNL A   1      35.157  24.275  24.835  1.00  0.00     0.137 C 
BRANCH   7   8
ATOM      8  C   UNL A   1      33.894  23.842  25.548  1.00  0.00    -0.015 A 
ATOM      9  C   UNL A   1      32.590  24.235  25.175  1.00  0.00     0.042 A 
ATOM     10  C   UNL A   1      31.504  23.834  25.980  1.00  0.00     0.026 A 
ATOM     11  C   UNL A   1      31.684  23.035  27.108  1.00  0.00     0.002 A 
ATOM     12  C   UNL A   1      34.057  23.078  26.727  1.00  0.00     0.006 A 
ATOM     13  C   UNL A   1      32.965  22.659  27.484  1.00  0.00     0.000 A 
BRANCH   9  14
ATOM     14  N   UNL A   1      32.281  25.018  24.042  1.00  0.00    -0.355 N 
ATOM     15  H   UNL A   1      31.745  24.552  23.360  1.00  0.00     0.167 HD
BRANCH  14  16
ATOM     16  C   UNL A   1      32.604  26.356  23.712  1.00  0.00     0.045 A 
ATOM     17  C   UNL A   1      32.602  27.374  24.695  1.00  0.00    -0.024 A 
ATOM     18  C   UNL A   1      33.315  28.571  24.433  1.00  0.00     0.006 A 
ATOM     19  C   UNL A   1      33.933  28.806  23.213  1.00  0.00     0.001 A 
ATOM     20  C   UNL A   1      33.042  26.704  22.410  1.00  0.00    -0.027 A 
ATOM     21  C   UNL A   1      33.752  27.897  22.186  1.00  0.00     0.005 A 
ATOM     22  C   UNL A   1      32.647  25.891  21.209  1.00  0.00     0.046 C 
BRANCH  17  23
ATOM     23  C   UNL A   1      31.883  27.378  26.033  1.00  0.00     0.034 C 
ATOM     24  C   UNL A   1      31.774  28.652  26.856  1.00  0.00     0.009 C 
ENDBRANCH  17  23
ENDBRANCH  14  16
ENDBRANCH   9  14
ENDBRANCH   7   8
ENDBRANCH   4   7
ENDBRANCH   2   3
ENDBRANCH   1   2
BRANCH   1  25
ATOM     25  C   UNL A   1      39.586  23.668  26.451  1.00  0.00     0.023 C 
BRANCH  25  26
ATOM     26  C   UNL A   1      40.067  22.543  27.346  1.00  0.00     0.116 C 
BRANCH  26  27
ATOM     27  N   UNL A   1      40.691  21.455  26.591  1.00  0.00    -0.352 N 
ATOM     28  C   UNL A   1      42.031  21.266  26.300  1.00  0.00     0.251 C 
ATOM     29  H   UNL A   1      40.076  20.768  26.247  1.00  0.00     0.163 HD
ATOM     30  O   UNL A   1      42.390  20.335  25.584  1.00  0.00    -0.269 OA
BRANCH  28  31
ATOM     31  C   UNL A   1      43.008  22.138  26.983  1.00  0.00     0.039 A 
ATOM     32  C   UNL A   1      42.950  22.162  28.379  1.00  0.00     0.014 A 
ATOM     33  C   UNL A   1      43.605  23.172  26.266  1.00  0.00     0.014 A 
ATOM     34  C   UNL A   1      43.213  23.353  29.041  1.00  0.00     0.010 A 
ATOM     35  C   UNL A   1      43.773  24.380  26.908  1.00  0.00     0.010 A 
ATOM     36  C   UNL A   1      43.490  24.484  28.277  1.00  0.00    -0.014 A 
BRANCH  36  37
ATOM     37  C   UNL A   1      43.475  25.837  28.807  1.00  0.00     0.031 A 
ATOM     38  C   UNL A   1      42.232  26.620  28.723  1.00  0.00     0.074 A 
ATOM     39  C   UNL A   1      44.558  26.314  29.458  1.00  0.00     0.049 A 
ATOM     40  N   UNL A   1      42.155  27.894  28.895  1.00  0.00    -0.248 NA
ATOM     41  C   UNL A   1      40.967  25.999  28.360  1.00  0.00     0.031 C 
ATOM     42  C   UNL A   1      44.614  27.459  30.359  1.00  0.00     0.029 A 
ATOM     43  N   UNL A   1      45.901  25.987  29.232  1.00  0.00    -0.354 N 
ATOM     44  C   UNL A   1      40.815  28.223  28.928  1.00  0.00     0.074 A 
ATOM     45  C   UNL A   1      40.131  27.028  28.500  1.00  0.00     0.031 C 
ATOM     46  C   UNL A   1      45.874  27.916  30.396  1.00  0.00     0.029 A 
ATOM     47  C   UNL A   1      46.617  27.190  29.380  1.00  0.00     0.049 A 
ATOM     48  H   UNL A   1      46.268  25.099  29.014  1.00  0.00     0.167 HD
ATOM     49  C   UNL A   1      40.448  29.426  29.454  1.00  0.00     0.034 A 
ATOM     50  C   UNL A   1      47.368  27.760  28.392  1.00  0.00     0.034 A 
ATOM     51  C   UNL A   1      41.629  30.262  29.709  1.00  0.00     0.049 A 
ATOM     52  C   UNL A   1      46.962  29.190  28.079  1.00  0.00     0.074 A 
ATOM     53  C   UNL A   1      42.396  30.499  30.839  1.00  0.00     0.029 A 
ATOM     54  N   UNL A   1      42.349  30.767  28.633  1.00  0.00    -0.354 N 
ATOM     55  N   UNL A   1      45.878  29.759  28.529  1.00  0.00    -0.248 NA
ATOM     56  C   UNL A   1      47.726  30.078  27.203  1.00  0.00     0.031 C 
ATOM     57  C   UNL A   1      43.633  31.061  30.418  1.00  0.00     0.029 A 
ATOM     58  C   UNL A   1      43.602  31.197  29.041  1.00  0.00     0.049 A 
ATOM     59  H   UNL A   1      42.016  30.812  27.707  1.00  0.00     0.167 HD
ATOM     60  C   UNL A   1      45.714  30.983  27.933  1.00  0.00     0.074 A 
ATOM     61  C   UNL A   1      46.940  31.169  27.174  1.00  0.00     0.031 C 
ATOM     62  C   UNL A   1      44.558  31.704  28.061  1.00  0.00     0.034 A 
BRANCH  49  63
ATOM     63  C   UNL A   1      39.074  29.737  30.036  1.00  0.00     0.023 A 
ATOM     64  C   UNL A   1      37.994  28.934  29.603  1.00  0.00     0.012 A 
ATOM     65  C   UNL A   1      38.729  30.808  30.893  1.00  0.00     0.148 A 
ATOM     66  C   UNL A   1      36.660  29.234  29.901  1.00  0.00     0.002 A 
ATOM     67  C   UNL A   1      37.396  31.152  31.140  1.00  0.00     0.091 A 
ATOM     68  F   UNL A   1      39.678  31.463  31.559  1.00  0.00    -0.205 F 
ATOM     69  C   UNL A   1      36.356  30.368  30.640  1.00  0.00     0.022 A 
BRANCH  67  70
ATOM     70  S   UNL A   1      36.937  32.646  32.040  1.00  0.00     0.127 S 
ATOM     71  O   UNL A   1      35.478  32.652  31.901  1.00  0.00    -0.237 OA
ATOM     72  O   UNL A   1      37.418  32.359  33.389  1.00  0.00    -0.237 OA
ATOM     73  O   UNL A   1      37.602  33.752  31.361  1.00  0.00    -0.744 OA
ENDBRANCH  67  70
ENDBRANCH  49  63
BRANCH  50  74
ATOM     74  C   UNL A   1      47.902  26.782  27.400  1.00  0.00     0.023 A 
ATOM     75  C   UNL A   1      47.034  26.391  26.353  1.00  0.00     0.012 A 
ATOM     76  C   UNL A   1      49.283  26.569  27.252  1.00  0.00     0.148 A 
ATOM     77  C   UNL A   1      47.539  25.940  25.133  1.00  0.00     0.002 A 
ATOM     78  C   UNL A   1      49.779  26.109  26.032  1.00  0.00     0.091 A 
ATOM     79  F   UNL A   1      50.097  26.888  28.266  1.00  0.00    -0.205 F 
ATOM     80  C   UNL A   1      48.914  25.835  24.960  1.00  0.00     0.022 A 
BRANCH  78  81
ATOM     81  S   UNL A   1      51.548  25.981  25.734  1.00  0.00     0.127 S 
ATOM     82  O   UNL A   1      51.854  24.693  26.347  1.00  0.00    -0.237 OA
ATOM     83  O   UNL A   1      51.625  26.002  24.273  1.00  0.00    -0.237 OA
ATOM     84  O   UNL A   1      52.112  27.159  26.375  1.00  0.00    -0.744 OA
ENDBRANCH  78  81
ENDBRANCH  50  74
BRANCH  62  85
ATOM     85  C   UNL A   1      44.198  32.939  27.257  1.00  0.00     0.023 A 
ATOM     86  C   UNL A   1      44.122  32.926  25.851  1.00  0.00     0.012 A 
ATOM     87  C   UNL A   1      43.761  34.124  27.907  1.00  0.00     0.148 A 
ATOM     88  C   UNL A   1      43.692  34.041  25.121  1.00  0.00     0.002 A 
ATOM     89  C   UNL A   1      43.233  35.191  27.181  1.00  0.00     0.091 A 
ATOM     90  F   UNL A   1      43.869  34.232  29.239  1.00  0.00    -0.205 F 
ATOM     91  C   UNL A   1      43.224  35.166  25.787  1.00  0.00     0.022 A 
BRANCH  89  92
ATOM     92  S   UNL A   1      42.404  36.551  28.018  1.00  0.00     0.127 S 
ATOM     93  O   UNL A   1      43.423  36.995  28.965  1.00  0.00    -0.237 OA
ATOM     94  O   UNL A   1      42.142  37.488  26.923  1.00  0.00    -0.237 OA
ATOM     95  O   UNL A   1      41.202  35.959  28.592  1.00  0.00    -0.744 OA
ENDBRANCH  89  92
ENDBRANCH  62  85
ENDBRANCH  36  37
ENDBRANCH  28  31
ENDBRANCH  26  27
ENDBRANCH  25  26
ENDBRANCH   1  25
TORSDOF 18
ENDMDL
