MODEL 1
REMARK VINA RESULT:     -12.8      0.000      0.000
REMARK SMILES O=C(C[NH+]1CCC(C(=O)NCCCCNC(=O)c2ccc(-c3c4nc(c(-c5cccc(S(=O)(=O)[O-])c5F)c5ccc([nH]5)c(-c5cccc(S(=O)(=O)[O-])c5F)c5nc(c(-c6cccc(S(=O)(=O)[O-])c6F)c6ccc3[nH]6)C=C5)C=C4)cc2)CC1)Nc1ccccc1Oc1ccccc1
REMARK SMILES IDX 11 1 10 2 8 3 9 4 7 6 4 7 5 8 82 9 6 11 81 12 3 13 2 14 1 15
REMARK SMILES IDX 83 16 84 18 85 19 89 20 86 21 88 22 87 23 90 24 91 25 92 26
REMARK SMILES IDX 96 27 93 28 95 29 94 30 12 31 13 32 14 33 15 34 16 35 17 37
REMARK SMILES IDX 18 38 19 39 80 40 20 41 79 42 21 43 22 44 23 45 73 46 24 47
REMARK SMILES IDX 78 48 72 49 74 50 25 51 77 52 71 53 70 54 26 56 58 57 38 58
REMARK SMILES IDX 57 59 39 60 42 61 56 62 75 63 40 64 41 65 55 67 76 68 43 69
REMARK SMILES IDX 27 70 28 71 36 72 29 73 31 74 37 75 30 76 32 77 33 78 34 79
REMARK SMILES IDX 35 80 59 81 60 82 68 83 61 84 63 85 69 86 62 87 64 88 65 89
REMARK SMILES IDX 66 90 67 91 44 92 45 93 53 94 46 95 48 96 54 97 47 98 49 99
REMARK SMILES IDX 50 100 51 101 52 102
REMARK H PARENT 10 5 4 10 83 17 15 36 74 55 42 66
REMARK Flexibility Score: inf
ROOT
ATOM      1  C   UNL A   1      32.264  29.048  24.227  1.00  0.00     0.116 C 
ENDROOT
BRANCH   1   2
ATOM      2  N   UNL A   1      31.420  29.684  23.224  1.00  0.00    -0.356 N 
ATOM      3  C   UNL A   1      30.494  29.147  22.379  1.00  0.00     0.223 C 
ATOM      4  O   UNL A   1      29.857  29.898  21.638  1.00  0.00    -0.275 OA
ATOM      5  H   UNL A   1      31.537  30.660  23.143  1.00  0.00     0.163 HD
BRANCH   3   6
ATOM      6  C   UNL A   1      30.247  27.647  22.345  1.00  0.00     0.089 C 
ATOM      7  N   UNL A   1      31.082  25.383  23.924  1.00  0.00    -0.327 N 
ATOM      8  C   UNL A   1      31.600  25.494  22.563  1.00  0.00     0.263 C 
ATOM      9  C   UNL A   1      29.667  25.752  23.981  1.00  0.00     0.263 C 
ATOM     10  H   UNL A   1      31.642  26.057  24.445  1.00  0.00     0.348 HD
ATOM     11  C   UNL A   1      31.569  26.924  22.074  1.00  0.00     0.075 C 
ATOM     12  C   UNL A   1      29.447  27.203  23.577  1.00  0.00     0.075 C 
BRANCH   7  13
ATOM     13  C   UNL A   1      31.329  24.104  24.632  1.00  0.00     0.363 C 
BRANCH  13  14
ATOM     14  C   UNL A   1      32.782  23.809  24.995  1.00  0.00     0.279 C 
ATOM     15  O   UNL A   1      33.339  24.322  25.962  1.00  0.00    -0.268 OA
ATOM     16  N   UNL A   1      33.372  22.914  24.114  1.00  0.00    -0.318 N 
ATOM     17  H   UNL A   1      32.843  22.586  23.351  1.00  0.00     0.170 HD
BRANCH  16  18
ATOM     18  C   UNL A   1      34.685  22.457  24.262  1.00  0.00     0.084 A 
ATOM     19  C   UNL A   1      35.686  23.281  23.726  1.00  0.00     0.030 A 
ATOM     20  C   UNL A   1      35.023  21.254  24.902  1.00  0.00     0.150 A 
ATOM     21  C   UNL A   1      37.030  22.972  23.919  1.00  0.00     0.002 A 
ATOM     22  C   UNL A   1      36.381  20.959  25.086  1.00  0.00     0.049 A 
ATOM     23  C   UNL A   1      37.378  21.816  24.611  1.00  0.00     0.004 A 
BRANCH  20  24
ATOM     24  O   UNL A   1      34.174  20.278  25.387  1.00  0.00    -0.455 OA
BRANCH  24  25
ATOM     25  C   UNL A   1      33.919  19.139  24.660  1.00  0.00     0.127 A 
ATOM     26  C   UNL A   1      32.716  19.115  23.949  1.00  0.00     0.047 A 
ATOM     27  C   UNL A   1      34.778  18.038  24.614  1.00  0.00     0.047 A 
ATOM     28  C   UNL A   1      32.411  18.035  23.121  1.00  0.00     0.004 A 
ATOM     29  C   UNL A   1      34.475  16.959  23.777  1.00  0.00     0.004 A 
ATOM     30  C   UNL A   1      33.298  16.963  23.025  1.00  0.00     0.000 A 
ENDBRANCH  24  25
ENDBRANCH  20  24
ENDBRANCH  16  18
ENDBRANCH  13  14
ENDBRANCH   7  13
ENDBRANCH   3   6
ENDBRANCH   1   2
BRANCH   1  31
ATOM     31  C   UNL A   1      31.655  29.072  25.627  1.00  0.00     0.023 C 
BRANCH  31  32
ATOM     32  C   UNL A   1      32.323  28.140  26.628  1.00  0.00     0.023 C 
BRANCH  32  33
ATOM     33  C   UNL A   1      33.651  28.644  27.170  1.00  0.00     0.116 C 
BRANCH  33  34
ATOM     34  N   UNL A   1      33.650  30.079  27.418  1.00  0.00    -0.352 N 
ATOM     35  C   UNL A   1      34.612  30.844  28.027  1.00  0.00     0.251 C 
ATOM     36  H   UNL A   1      32.853  30.565  27.107  1.00  0.00     0.163 HD
ATOM     37  O   UNL A   1      34.388  32.025  28.283  1.00  0.00    -0.269 OA
BRANCH  35  38
ATOM     38  C   UNL A   1      35.902  30.229  28.400  1.00  0.00     0.039 A 
ATOM     39  C   UNL A   1      36.972  30.322  27.509  1.00  0.00     0.014 A 
ATOM     40  C   UNL A   1      36.064  29.593  29.635  1.00  0.00     0.014 A 
ATOM     41  C   UNL A   1      38.218  29.819  27.880  1.00  0.00     0.010 A 
ATOM     42  C   UNL A   1      37.329  29.183  30.040  1.00  0.00     0.010 A 
ATOM     43  C   UNL A   1      38.416  29.274  29.162  1.00  0.00    -0.014 A 
BRANCH  43  44
ATOM     44  C   UNL A   1      39.763  28.812  29.583  1.00  0.00     0.031 A 
ATOM     45  C   UNL A   1      40.503  29.511  30.690  1.00  0.00     0.074 A 
ATOM     46  C   UNL A   1      40.338  27.781  28.932  1.00  0.00     0.049 A 
ATOM     47  N   UNL A   1      41.657  29.208  31.226  1.00  0.00    -0.248 NA
ATOM     48  C   UNL A   1      39.885  30.723  31.254  1.00  0.00     0.031 C 
ATOM     49  C   UNL A   1      39.768  27.089  27.773  1.00  0.00     0.029 A 
ATOM     50  N   UNL A   1      41.533  27.142  29.144  1.00  0.00    -0.354 N 
ATOM     51  C   UNL A   1      41.916  30.200  32.163  1.00  0.00     0.074 A 
ATOM     52  C   UNL A   1      40.820  31.140  32.095  1.00  0.00     0.031 C 
ATOM     53  C   UNL A   1      40.600  26.107  27.395  1.00  0.00     0.029 A 
ATOM     54  C   UNL A   1      41.772  26.115  28.263  1.00  0.00     0.049 A 
ATOM     55  H   UNL A   1      42.159  27.396  29.860  1.00  0.00     0.167 HD
ATOM     56  C   UNL A   1      42.954  30.303  33.026  1.00  0.00     0.034 A 
ATOM     57  C   UNL A   1      42.816  25.269  28.169  1.00  0.00     0.034 A 
ATOM     58  C   UNL A   1      44.026  29.348  33.111  1.00  0.00     0.049 A 
ATOM     59  C   UNL A   1      43.925  25.366  29.180  1.00  0.00     0.074 A 
ATOM     60  C   UNL A   1      45.075  29.310  34.012  1.00  0.00     0.029 A 
ATOM     61  N   UNL A   1      44.197  28.272  32.254  1.00  0.00    -0.354 N 
ATOM     62  N   UNL A   1      44.061  26.206  30.178  1.00  0.00    -0.248 NA
ATOM     63  C   UNL A   1      45.000  24.370  29.081  1.00  0.00     0.031 C 
ATOM     64  C   UNL A   1      45.901  28.230  33.677  1.00  0.00     0.029 A 
ATOM     65  C   UNL A   1      45.341  27.570  32.595  1.00  0.00     0.049 A 
ATOM     66  H   UNL A   1      43.592  28.040  31.513  1.00  0.00     0.167 HD
ATOM     67  C   UNL A   1      45.219  25.820  30.844  1.00  0.00     0.074 A 
ATOM     68  C   UNL A   1      45.725  24.652  30.153  1.00  0.00     0.031 C 
ATOM     69  C   UNL A   1      45.817  26.388  31.921  1.00  0.00     0.034 A 
BRANCH  56  70
ATOM     70  C   UNL A   1      42.959  31.472  33.980  1.00  0.00     0.023 A 
ATOM     71  C   UNL A   1      43.575  32.683  33.602  1.00  0.00     0.012 A 
ATOM     72  C   UNL A   1      42.309  31.390  35.227  1.00  0.00     0.148 A 
ATOM     73  C   UNL A   1      43.579  33.780  34.463  1.00  0.00     0.002 A 
ATOM     74  C   UNL A   1      42.272  32.503  36.059  1.00  0.00     0.091 A 
ATOM     75  F   UNL A   1      41.748  30.225  35.580  1.00  0.00    -0.205 F 
ATOM     76  C   UNL A   1      42.917  33.694  35.684  1.00  0.00     0.022 A 
BRANCH  74  77
ATOM     77  S   UNL A   1      41.375  32.522  37.615  1.00  0.00     0.127 S 
ATOM     78  O   UNL A   1      40.057  32.041  37.202  1.00  0.00    -0.237 OA
ATOM     79  O   UNL A   1      42.145  31.575  38.423  1.00  0.00    -0.237 OA
ATOM     80  O   UNL A   1      41.417  33.898  38.088  1.00  0.00    -0.744 OA
ENDBRANCH  74  77
ENDBRANCH  56  70
BRANCH  57  81
ATOM     81  C   UNL A   1      42.826  24.214  27.117  1.00  0.00     0.023 A 
ATOM     82  C   UNL A   1      43.548  24.421  25.926  1.00  0.00     0.012 A 
ATOM     83  C   UNL A   1      42.147  22.995  27.305  1.00  0.00     0.148 A 
ATOM     84  C   UNL A   1      43.562  23.449  24.925  1.00  0.00     0.002 A 
ATOM     85  C   UNL A   1      42.214  22.007  26.331  1.00  0.00     0.091 A 
ATOM     86  F   UNL A   1      41.460  22.820  28.444  1.00  0.00    -0.205 F 
ATOM     87  C   UNL A   1      42.905  22.240  25.131  1.00  0.00     0.022 A 
BRANCH  85  88
ATOM     88  S   UNL A   1      41.515  20.371  26.570  1.00  0.00     0.127 S 
ATOM     89  O   UNL A   1      40.082  20.654  26.560  1.00  0.00    -0.237 OA
ATOM     90  O   UNL A   1      42.011  19.657  25.393  1.00  0.00    -0.237 OA
ATOM     91  O   UNL A   1      42.057  19.892  27.835  1.00  0.00    -0.744 OA
ENDBRANCH  85  88
ENDBRANCH  57  81
BRANCH  69  92
ATOM     92  C   UNL A   1      47.069  25.732  32.443  1.00  0.00     0.023 A 
ATOM     93  C   UNL A   1      48.326  26.081  31.908  1.00  0.00     0.012 A 
ATOM     94  C   UNL A   1      47.003  24.791  33.489  1.00  0.00     0.148 A 
ATOM     95  C   UNL A   1      49.488  25.463  32.366  1.00  0.00     0.002 A 
ATOM     96  C   UNL A   1      48.172  24.221  33.980  1.00  0.00     0.091 A 
ATOM     97  F   UNL A   1      45.799  24.458  33.977  1.00  0.00    -0.205 F 
ATOM     98  C   UNL A   1      49.413  24.542  33.406  1.00  0.00     0.022 A 
BRANCH  96  99
ATOM     99  S   UNL A   1      48.175  23.104  35.385  1.00  0.00     0.127 S 
ATOM    100  O   UNL A   1      49.601  22.816  35.533  1.00  0.00    -0.237 OA
ATOM    101  O   UNL A   1      47.610  23.937  36.447  1.00  0.00    -0.237 OA
ATOM    102  O   UNL A   1      47.342  21.973  35.000  1.00  0.00    -0.744 OA
ENDBRANCH  96  99
ENDBRANCH  69  92
ENDBRANCH  43  44
ENDBRANCH  35  38
ENDBRANCH  33  34
ENDBRANCH  32  33
ENDBRANCH  31  32
ENDBRANCH   1  31
TORSDOF 19
ENDMDL
MODEL 2
REMARK VINA RESULT:     -12.7      2.059      2.864
REMARK SMILES O=C(C[NH+]1CCC(C(=O)NCCCCNC(=O)c2ccc(-c3c4nc(c(-c5cccc(S(=O)(=O)[O-])c5F)c5ccc([nH]5)c(-c5cccc(S(=O)(=O)[O-])c5F)c5nc(c(-c6cccc(S(=O)(=O)[O-])c6F)c6ccc3[nH]6)C=C5)C=C4)cc2)CC1)Nc1ccccc1Oc1ccccc1
REMARK SMILES IDX 11 1 10 2 8 3 9 4 7 6 4 7 5 8 82 9 6 11 81 12 3 13 2 14 1 15
REMARK SMILES IDX 83 16 84 18 85 19 89 20 86 21 88 22 87 23 90 24 91 25 92 26
REMARK SMILES IDX 96 27 93 28 95 29 94 30 12 31 13 32 14 33 15 34 16 35 17 37
REMARK SMILES IDX 18 38 19 39 80 40 20 41 79 42 21 43 22 44 23 45 73 46 24 47
REMARK SMILES IDX 78 48 72 49 74 50 25 51 77 52 71 53 70 54 26 56 58 57 38 58
REMARK SMILES IDX 57 59 39 60 42 61 56 62 75 63 40 64 41 65 55 67 76 68 43 69
REMARK SMILES IDX 27 70 28 71 36 72 29 73 31 74 37 75 30 76 32 77 33 78 34 79
REMARK SMILES IDX 35 80 59 81 60 82 68 83 61 84 63 85 69 86 62 87 64 88 65 89
REMARK SMILES IDX 66 90 67 91 44 92 45 93 53 94 46 95 48 96 54 97 47 98 49 99
REMARK SMILES IDX 50 100 51 101 52 102
REMARK H PARENT 10 5 4 10 83 17 15 36 74 55 42 66
REMARK Flexibility Score: inf
ROOT
ATOM      1  C   UNL A   1      33.126  26.602  22.596  1.00  0.00     0.116 C 
ENDROOT
BRANCH   1   2
ATOM      2  N   UNL A   1      32.055  27.478  22.140  1.00  0.00    -0.356 N 
ATOM      3  C   UNL A   1      30.740  27.525  22.496  1.00  0.00     0.223 C 
ATOM      4  O   UNL A   1      30.020  28.397  22.006  1.00  0.00    -0.275 OA
ATOM      5  H   UNL A   1      32.325  28.145  21.466  1.00  0.00     0.163 HD
BRANCH   3   6
ATOM      6  C   UNL A   1      30.163  26.519  23.480  1.00  0.00     0.089 C 
ATOM      7  N   UNL A   1      31.239  24.710  25.450  1.00  0.00    -0.327 N 
ATOM      8  C   UNL A   1      30.633  24.134  24.253  1.00  0.00     0.263 C 
ATOM      9  C   UNL A   1      30.457  25.845  25.942  1.00  0.00     0.263 C 
ATOM     10  H   UNL A   1      32.151  25.027  25.124  1.00  0.00     0.348 HD
ATOM     11  C   UNL A   1      30.638  25.114  23.103  1.00  0.00     0.075 C 
ATOM     12  C   UNL A   1      30.405  26.976  24.925  1.00  0.00     0.075 C 
BRANCH   7  13
ATOM     13  C   UNL A   1      31.569  23.773  26.551  1.00  0.00     0.363 C 
BRANCH  13  14
ATOM     14  C   UNL A   1      33.015  23.285  26.603  1.00  0.00     0.279 C 
ATOM     15  O   UNL A   1      33.616  23.112  27.659  1.00  0.00    -0.268 OA
ATOM     16  N   UNL A   1      33.542  23.070  25.337  1.00  0.00    -0.318 N 
ATOM     17  H   UNL A   1      32.981  23.271  24.553  1.00  0.00     0.170 HD
BRANCH  16  18
ATOM     18  C   UNL A   1      34.835  22.582  25.126  1.00  0.00     0.084 A 
ATOM     19  C   UNL A   1      35.786  23.523  24.703  1.00  0.00     0.030 A 
ATOM     20  C   UNL A   1      35.201  21.240  25.317  1.00  0.00     0.150 A 
ATOM     21  C   UNL A   1      37.124  23.162  24.573  1.00  0.00     0.002 A 
ATOM     22  C   UNL A   1      36.553  20.895  25.180  1.00  0.00     0.049 A 
ATOM     23  C   UNL A   1      37.511  21.849  24.825  1.00  0.00     0.004 A 
BRANCH  20  24
ATOM     24  O   UNL A   1      34.384  20.169  25.623  1.00  0.00    -0.455 OA
BRANCH  24  25
ATOM     25  C   UNL A   1      33.815  19.408  24.629  1.00  0.00     0.127 A 
ATOM     26  C   UNL A   1      34.404  18.163  24.389  1.00  0.00     0.047 A 
ATOM     27  C   UNL A   1      32.717  19.818  23.867  1.00  0.00     0.047 A 
ATOM     28  C   UNL A   1      33.846  17.290  23.456  1.00  0.00     0.004 A 
ATOM     29  C   UNL A   1      32.153  18.938  22.938  1.00  0.00     0.004 A 
ATOM     30  C   UNL A   1      32.712  17.673  22.739  1.00  0.00     0.000 A 
ENDBRANCH  24  25
ENDBRANCH  20  24
ENDBRANCH  16  18
ENDBRANCH  13  14
ENDBRANCH   7  13
ENDBRANCH   3   6
ENDBRANCH   1   2
BRANCH   1  31
ATOM     31  C   UNL A   1      33.806  27.097  23.870  1.00  0.00     0.023 C 
BRANCH  31  32
ATOM     32  C   UNL A   1      33.622  28.582  24.154  1.00  0.00     0.023 C 
BRANCH  32  33
ATOM     33  C   UNL A   1      33.640  28.948  25.630  1.00  0.00     0.116 C 
BRANCH  33  34
ATOM     34  N   UNL A   1      33.076  30.266  25.889  1.00  0.00    -0.352 N 
ATOM     35  C   UNL A   1      33.415  31.165  26.868  1.00  0.00     0.251 C 
ATOM     36  H   UNL A   1      32.355  30.548  25.282  1.00  0.00     0.163 HD
ATOM     37  O   UNL A   1      32.738  32.178  27.035  1.00  0.00    -0.269 OA
BRANCH  35  38
ATOM     38  C   UNL A   1      34.577  30.890  27.737  1.00  0.00     0.039 A 
ATOM     39  C   UNL A   1      34.670  29.644  28.359  1.00  0.00     0.014 A 
ATOM     40  C   UNL A   1      35.584  31.844  27.911  1.00  0.00     0.014 A 
ATOM     41  C   UNL A   1      35.801  29.340  29.115  1.00  0.00     0.010 A 
ATOM     42  C   UNL A   1      36.752  31.502  28.583  1.00  0.00     0.010 A 
ATOM     43  C   UNL A   1      36.867  30.253  29.207  1.00  0.00    -0.014 A 
BRANCH  43  44
ATOM     44  C   UNL A   1      38.103  29.895  29.948  1.00  0.00     0.031 A 
ATOM     45  C   UNL A   1      38.356  30.438  31.328  1.00  0.00     0.074 A 
ATOM     46  C   UNL A   1      39.022  29.109  29.353  1.00  0.00     0.049 A 
ATOM     47  N   UNL A   1      39.348  30.184  32.142  1.00  0.00    -0.248 NA
ATOM     48  C   UNL A   1      37.386  31.412  31.857  1.00  0.00     0.031 C 
ATOM     49  C   UNL A   1      38.944  28.607  27.979  1.00  0.00     0.029 A 
ATOM     50  N   UNL A   1      40.207  28.603  29.823  1.00  0.00    -0.354 N 
ATOM     51  C   UNL A   1      39.139  30.982  33.259  1.00  0.00     0.074 A 
ATOM     52  C   UNL A   1      37.950  31.763  33.003  1.00  0.00     0.031 C 
ATOM     53  C   UNL A   1      40.019  27.844  27.727  1.00  0.00     0.029 A 
ATOM     54  C   UNL A   1      40.875  27.825  28.908  1.00  0.00     0.049 A 
ATOM     55  H   UNL A   1      40.547  28.781  30.730  1.00  0.00     0.167 HD
ATOM     56  C   UNL A   1      39.853  31.038  34.408  1.00  0.00     0.034 A 
ATOM     57  C   UNL A   1      42.044  27.163  29.010  1.00  0.00     0.034 A 
ATOM     58  C   UNL A   1      41.019  30.237  34.670  1.00  0.00     0.049 A 
ATOM     59  C   UNL A   1      42.784  27.191  30.318  1.00  0.00     0.074 A 
ATOM     60  C   UNL A   1      41.759  30.149  35.835  1.00  0.00     0.029 A 
ATOM     61  N   UNL A   1      41.625  29.397  33.748  1.00  0.00    -0.354 N 
ATOM     62  N   UNL A   1      42.472  27.814  31.430  1.00  0.00    -0.248 NA
ATOM     63  C   UNL A   1      44.011  26.389  30.402  1.00  0.00     0.031 C 
ATOM     64  C   UNL A   1      42.834  29.283  35.606  1.00  0.00     0.029 A 
ATOM     65  C   UNL A   1      42.738  28.797  34.312  1.00  0.00     0.049 A 
ATOM     66  H   UNL A   1      41.308  29.248  32.828  1.00  0.00     0.167 HD
ATOM     67  C   UNL A   1      43.447  27.453  32.354  1.00  0.00     0.074 A 
ATOM     68  C   UNL A   1      44.339  26.533  31.678  1.00  0.00     0.031 C 
ATOM     69  C   UNL A   1      43.598  27.856  33.640  1.00  0.00     0.034 A 
BRANCH  56  70
ATOM     70  C   UNL A   1      39.368  31.971  35.490  1.00  0.00     0.023 A 
ATOM     71  C   UNL A   1      38.447  31.509  36.453  1.00  0.00     0.012 A 
ATOM     72  C   UNL A   1      39.863  33.286  35.586  1.00  0.00     0.148 A 
ATOM     73  C   UNL A   1      37.996  32.350  37.470  1.00  0.00     0.002 A 
ATOM     74  C   UNL A   1      39.449  34.103  36.632  1.00  0.00     0.091 A 
ATOM     75  F   UNL A   1      40.721  33.716  34.650  1.00  0.00    -0.205 F 
ATOM     76  C   UNL A   1      38.506  33.641  37.566  1.00  0.00     0.022 A 
BRANCH  74  77
ATOM     77  S   UNL A   1      40.108  35.753  36.894  1.00  0.00     0.127 S 
ATOM     78  O   UNL A   1      39.641  36.451  35.697  1.00  0.00    -0.237 OA
ATOM     79  O   UNL A   1      39.443  36.155  38.133  1.00  0.00    -0.237 OA
ATOM     80  O   UNL A   1      41.552  35.597  37.002  1.00  0.00    -0.744 OA
ENDBRANCH  74  77
ENDBRANCH  56  70
BRANCH  57  81
ATOM     81  C   UNL A   1      42.549  26.363  27.859  1.00  0.00     0.023 A 
ATOM     82  C   UNL A   1      43.513  26.915  26.994  1.00  0.00     0.012 A 
ATOM     83  C   UNL A   1      42.100  25.047  27.637  1.00  0.00     0.148 A 
ATOM     84  C   UNL A   1      43.991  26.186  25.905  1.00  0.00     0.002 A 
ATOM     85  C   UNL A   1      42.624  24.304  26.587  1.00  0.00     0.091 A 
ATOM     86  F   UNL A   1      41.176  24.543  28.469  1.00  0.00    -0.205 F 
ATOM     87  C   UNL A   1      43.556  24.878  25.708  1.00  0.00     0.022 A 
BRANCH  85  88
ATOM     88  S   UNL A   1      42.225  22.572  26.340  1.00  0.00     0.127 S 
ATOM     89  O   UNL A   1      42.831  21.955  27.518  1.00  0.00    -0.237 OA
ATOM     90  O   UNL A   1      40.761  22.597  26.342  1.00  0.00    -0.237 OA
ATOM     91  O   UNL A   1      42.817  22.209  25.061  1.00  0.00    -0.744 OA
ENDBRANCH  85  88
ENDBRANCH  57  81
BRANCH  69  92
ATOM     92  C   UNL A   1      44.754  27.276  34.415  1.00  0.00     0.023 A 
ATOM     93  C   UNL A   1      46.004  27.928  34.414  1.00  0.00     0.012 A 
ATOM     94  C   UNL A   1      44.591  26.100  35.173  1.00  0.00     0.148 A 
ATOM     95  C   UNL A   1      47.086  27.388  35.107  1.00  0.00     0.002 A 
ATOM     96  C   UNL A   1      45.659  25.598  35.907  1.00  0.00     0.091 A 
ATOM     97  F   UNL A   1      43.400  25.483  35.151  1.00  0.00    -0.205 F 
ATOM     98  C   UNL A   1      46.912  26.231  35.861  1.00  0.00     0.022 A 
BRANCH  96  99
ATOM     99  S   UNL A   1      45.493  24.172  36.985  1.00  0.00     0.127 S 
ATOM    100  O   UNL A   1      45.062  23.138  36.046  1.00  0.00    -0.237 OA
ATOM    101  O   UNL A   1      46.856  24.004  37.492  1.00  0.00    -0.237 OA
ATOM    102  O   UNL A   1      44.517  24.547  37.999  1.00  0.00    -0.744 OA
ENDBRANCH  96  99
ENDBRANCH  69  92
ENDBRANCH  43  44
ENDBRANCH  35  38
ENDBRANCH  33  34
ENDBRANCH  32  33
ENDBRANCH  31  32
ENDBRANCH   1  31
TORSDOF 19
ENDMDL
MODEL 3
REMARK VINA RESULT:     -12.2      1.715      2.068
REMARK SMILES O=C(C[NH+]1CCC(C(=O)NCCCCNC(=O)c2ccc(-c3c4nc(c(-c5cccc(S(=O)(=O)[O-])c5F)c5ccc([nH]5)c(-c5cccc(S(=O)(=O)[O-])c5F)c5nc(c(-c6cccc(S(=O)(=O)[O-])c6F)c6ccc3[nH]6)C=C5)C=C4)cc2)CC1)Nc1ccccc1Oc1ccccc1
REMARK SMILES IDX 11 1 10 2 8 3 9 4 7 6 4 7 5 8 82 9 6 11 81 12 3 13 2 14 1 15
REMARK SMILES IDX 83 16 84 18 85 19 89 20 86 21 88 22 87 23 90 24 91 25 92 26
REMARK SMILES IDX 96 27 93 28 95 29 94 30 12 31 13 32 14 33 15 34 16 35 17 37
REMARK SMILES IDX 18 38 19 39 80 40 20 41 79 42 21 43 22 44 23 45 73 46 24 47
REMARK SMILES IDX 78 48 72 49 74 50 25 51 77 52 71 53 70 54 26 56 58 57 38 58
REMARK SMILES IDX 57 59 39 60 42 61 56 62 75 63 40 64 41 65 55 67 76 68 43 69
REMARK SMILES IDX 27 70 28 71 36 72 29 73 31 74 37 75 30 76 32 77 33 78 34 79
REMARK SMILES IDX 35 80 59 81 60 82 68 83 61 84 63 85 69 86 62 87 64 88 65 89
REMARK SMILES IDX 66 90 67 91 44 92 45 93 53 94 46 95 48 96 54 97 47 98 49 99
REMARK SMILES IDX 50 100 51 101 52 102
REMARK H PARENT 10 5 4 10 83 17 15 36 74 55 42 66
REMARK Flexibility Score: inf
ROOT
ATOM      1  C   UNL A   1      32.172  29.040  24.307  1.00  0.00     0.116 C 
ENDROOT
BRANCH   1   2
ATOM      2  N   UNL A   1      31.417  29.641  23.215  1.00  0.00    -0.356 N 
ATOM      3  C   UNL A   1      30.521  29.084  22.350  1.00  0.00     0.223 C 
ATOM      4  O   UNL A   1      29.962  29.809  21.524  1.00  0.00    -0.275 OA
ATOM      5  H   UNL A   1      31.579  30.603  23.081  1.00  0.00     0.163 HD
BRANCH   3   6
ATOM      6  C   UNL A   1      30.215  27.596  22.395  1.00  0.00     0.089 C 
ATOM      7  N   UNL A   1      31.018  25.374  24.047  1.00  0.00    -0.327 N 
ATOM      8  C   UNL A   1      31.489  25.402  22.665  1.00  0.00     0.263 C 
ATOM      9  C   UNL A   1      29.622  25.803  24.137  1.00  0.00     0.263 C 
ATOM     10  H   UNL A   1      31.623  26.047  24.516  1.00  0.00     0.348 HD
ATOM     11  C   UNL A   1      31.496  26.808  22.111  1.00  0.00     0.075 C 
ATOM     12  C   UNL A   1      29.444  27.241  23.674  1.00  0.00     0.075 C 
BRANCH   7  13
ATOM     13  C   UNL A   1      31.241  24.119  24.805  1.00  0.00     0.363 C 
BRANCH  13  14
ATOM     14  C   UNL A   1      32.684  23.828  25.210  1.00  0.00     0.279 C 
ATOM     15  O   UNL A   1      33.177  24.253  26.251  1.00  0.00    -0.268 OA
ATOM     16  N   UNL A   1      33.344  23.046  24.272  1.00  0.00    -0.318 N 
ATOM     17  H   UNL A   1      32.863  22.785  23.454  1.00  0.00     0.170 HD
BRANCH  16  18
ATOM     18  C   UNL A   1      34.663  22.612  24.440  1.00  0.00     0.084 A 
ATOM     19  C   UNL A   1      35.660  23.488  23.984  1.00  0.00     0.030 A 
ATOM     20  C   UNL A   1      35.010  21.384  25.024  1.00  0.00     0.150 A 
ATOM     21  C   UNL A   1      37.004  23.200  24.204  1.00  0.00     0.002 A 
ATOM     22  C   UNL A   1      36.369  21.111  25.238  1.00  0.00     0.049 A 
ATOM     23  C   UNL A   1      37.359  22.016  24.844  1.00  0.00     0.004 A 
BRANCH  20  24
ATOM     24  O   UNL A   1      34.170  20.364  25.427  1.00  0.00    -0.455 OA
BRANCH  24  25
ATOM     25  C   UNL A   1      33.793  19.373  24.552  1.00  0.00     0.127 A 
ATOM     26  C   UNL A   1      34.628  18.253  24.488  1.00  0.00     0.047 A 
ATOM     27  C   UNL A   1      32.655  19.441  23.743  1.00  0.00     0.047 A 
ATOM     28  C   UNL A   1      34.282  17.164  23.688  1.00  0.00     0.004 A 
ATOM     29  C   UNL A   1      32.305  18.344  22.948  1.00  0.00     0.004 A 
ATOM     30  C   UNL A   1      33.113  17.205  22.928  1.00  0.00     0.000 A 
ENDBRANCH  24  25
ENDBRANCH  20  24
ENDBRANCH  16  18
ENDBRANCH  13  14
ENDBRANCH   7  13
ENDBRANCH   3   6
ENDBRANCH   1   2
BRANCH   1  31
ATOM     31  C   UNL A   1      31.594  29.360  25.684  1.00  0.00     0.023 C 
BRANCH  31  32
ATOM     32  C   UNL A   1      32.335  28.721  26.850  1.00  0.00     0.023 C 
BRANCH  32  33
ATOM     33  C   UNL A   1      33.812  29.074  26.929  1.00  0.00     0.116 C 
BRANCH  33  34
ATOM     34  N   UNL A   1      34.045  30.511  26.981  1.00  0.00    -0.352 N 
ATOM     35  C   UNL A   1      35.094  31.189  27.547  1.00  0.00     0.251 C 
ATOM     36  H   UNL A   1      33.358  31.070  26.553  1.00  0.00     0.163 HD
ATOM     37  O   UNL A   1      35.064  32.415  27.626  1.00  0.00    -0.269 OA
BRANCH  35  38
ATOM     38  C   UNL A   1      36.242  30.432  28.088  1.00  0.00     0.039 A 
ATOM     39  C   UNL A   1      37.437  30.420  27.368  1.00  0.00     0.014 A 
ATOM     40  C   UNL A   1      36.148  29.765  29.314  1.00  0.00     0.014 A 
ATOM     41  C   UNL A   1      38.553  29.780  27.905  1.00  0.00     0.010 A 
ATOM     42  C   UNL A   1      37.287  29.215  29.889  1.00  0.00     0.010 A 
ATOM     43  C   UNL A   1      38.498  29.200  29.185  1.00  0.00    -0.014 A 
BRANCH  43  44
ATOM     44  C   UNL A   1      39.709  28.588  29.786  1.00  0.00     0.031 A 
ATOM     45  C   UNL A   1      40.340  29.182  31.016  1.00  0.00     0.074 A 
ATOM     46  C   UNL A   1      40.269  27.515  29.193  1.00  0.00     0.049 A 
ATOM     47  N   UNL A   1      41.361  28.747  31.708  1.00  0.00    -0.248 NA
ATOM     48  C   UNL A   1      39.770  30.442  31.524  1.00  0.00     0.031 C 
ATOM     49  C   UNL A   1      39.815  26.910  27.938  1.00  0.00     0.029 A 
ATOM     50  N   UNL A   1      41.345  26.747  29.559  1.00  0.00    -0.354 N 
ATOM     51  C   UNL A   1      41.573  29.687  32.709  1.00  0.00     0.074 A 
ATOM     52  C   UNL A   1      40.603  30.740  32.510  1.00  0.00     0.031 C 
ATOM     53  C   UNL A   1      40.590  25.852  27.653  1.00  0.00     0.029 A 
ATOM     54  C   UNL A   1      41.610  25.718  28.688  1.00  0.00     0.049 A 
ATOM     55  H   UNL A   1      41.877  26.919  30.370  1.00  0.00     0.167 HD
ATOM     56  C   UNL A   1      42.472  29.662  33.721  1.00  0.00     0.034 A 
ATOM     57  C   UNL A   1      42.563  24.767  28.721  1.00  0.00     0.034 A 
ATOM     58  C   UNL A   1      43.415  28.596  33.931  1.00  0.00     0.049 A 
ATOM     59  C   UNL A   1      43.508  24.726  29.890  1.00  0.00     0.074 A 
ATOM     60  C   UNL A   1      44.304  28.428  34.978  1.00  0.00     0.029 A 
ATOM     61  N   UNL A   1      43.604  27.525  33.072  1.00  0.00    -0.354 N 
ATOM     62  N   UNL A   1      43.576  25.527  30.926  1.00  0.00    -0.248 NA
ATOM     63  C   UNL A   1      44.478  23.623  29.918  1.00  0.00     0.031 C 
ATOM     64  C   UNL A   1      45.056  27.274  34.732  1.00  0.00     0.029 A 
ATOM     65  C   UNL A   1      44.604  26.699  33.555  1.00  0.00     0.049 A 
ATOM     66  H   UNL A   1      43.099  27.374  32.241  1.00  0.00     0.167 HD
ATOM     67  C   UNL A   1      44.572  25.006  31.745  1.00  0.00     0.074 A 
ATOM     68  C   UNL A   1      45.056  23.804  31.096  1.00  0.00     0.031 C 
ATOM     69  C   UNL A   1      45.053  25.486  32.919  1.00  0.00     0.034 A 
BRANCH  56  70
ATOM     70  C   UNL A   1      42.451  30.804  34.706  1.00  0.00     0.023 A 
ATOM     71  C   UNL A   1      41.667  30.708  35.874  1.00  0.00     0.012 A 
ATOM     72  C   UNL A   1      43.246  31.949  34.502  1.00  0.00     0.148 A 
ATOM     73  C   UNL A   1      41.644  31.746  36.805  1.00  0.00     0.002 A 
ATOM     74  C   UNL A   1      43.258  32.958  35.458  1.00  0.00     0.091 A 
ATOM     75  F   UNL A   1      43.967  32.034  33.375  1.00  0.00    -0.205 F 
ATOM     76  C   UNL A   1      42.448  32.864  36.603  1.00  0.00     0.022 A 
BRANCH  74  77
ATOM     77  S   UNL A   1      44.321  34.400  35.333  1.00  0.00     0.127 S 
ATOM     78  O   UNL A   1      45.649  33.789  35.340  1.00  0.00    -0.237 OA
ATOM     79  O   UNL A   1      43.917  34.968  34.047  1.00  0.00    -0.237 OA
ATOM     80  O   UNL A   1      44.011  35.231  36.488  1.00  0.00    -0.744 OA
ENDBRANCH  74  77
ENDBRANCH  56  70
BRANCH  57  81
ATOM     81  C   UNL A   1      42.626  23.738  27.646  1.00  0.00     0.023 A 
ATOM     82  C   UNL A   1      41.614  22.763  27.551  1.00  0.00     0.012 A 
ATOM     83  C   UNL A   1      43.668  23.739  26.700  1.00  0.00     0.148 A 
ATOM     84  C   UNL A   1      41.660  21.785  26.557  1.00  0.00     0.002 A 
ATOM     85  C   UNL A   1      43.677  22.801  25.676  1.00  0.00     0.091 A 
ATOM     86  F   UNL A   1      44.626  24.672  26.812  1.00  0.00    -0.205 F 
ATOM     87  C   UNL A   1      42.684  21.810  25.615  1.00  0.00     0.022 A 
BRANCH  85  88
ATOM     88  S   UNL A   1      44.878  22.842  24.343  1.00  0.00     0.127 S 
ATOM     89  O   UNL A   1      44.127  22.235  23.246  1.00  0.00    -0.237 OA
ATOM     90  O   UNL A   1      45.123  24.277  24.203  1.00  0.00    -0.237 OA
ATOM     91  O   UNL A   1      46.024  22.081  24.821  1.00  0.00    -0.744 OA
ENDBRANCH  85  88
ENDBRANCH  57  81
BRANCH  69  92
ATOM     92  C   UNL A   1      46.137  24.690  33.599  1.00  0.00     0.023 A 
ATOM     93  C   UNL A   1      47.489  25.062  33.449  1.00  0.00     0.012 A 
ATOM     94  C   UNL A   1      45.813  23.588  34.415  1.00  0.00     0.148 A 
ATOM     95  C   UNL A   1      48.501  24.319  34.053  1.00  0.00     0.002 A 
ATOM     96  C   UNL A   1      46.824  22.886  35.061  1.00  0.00     0.091 A 
ATOM     97  F   UNL A   1      44.524  23.237  34.535  1.00  0.00    -0.205 F 
ATOM     98  C   UNL A   1      48.169  23.239  34.866  1.00  0.00     0.022 A 
BRANCH  96  99
ATOM     99  S   UNL A   1      46.478  21.547  36.206  1.00  0.00     0.127 S 
ATOM    100  O   UNL A   1      47.825  21.157  36.622  1.00  0.00    -0.237 OA
ATOM    101  O   UNL A   1      45.691  22.218  37.242  1.00  0.00    -0.237 OA
ATOM    102  O   UNL A   1      45.742  20.548  35.444  1.00  0.00    -0.744 OA
ENDBRANCH  96  99
ENDBRANCH  69  92
ENDBRANCH  43  44
ENDBRANCH  35  38
ENDBRANCH  33  34
ENDBRANCH  32  33
ENDBRANCH  31  32
ENDBRANCH   1  31
TORSDOF 19
ENDMDL
