MODEL 1
REMARK VINA RESULT:     -11.1      0.000      0.000
REMARK SMILES O=C(CCc1ccc(S(=O)(=O)Nc2cccc(I)c2)cc1)NCCCCNC(=O)c1ccc(-c2c3nc(c(-c4cccc(S(=O)(=O)[O-])c4F)c4ccc([nH]4)c(-c4cccc(S(=O)(=O)[O-])c4F)c4nc(c(-c5cccc(S(=O)(=O)[O-])c5F)c5ccc2[nH]5)C=C4)C=C3)cc1
REMARK SMILES IDX 23 1 22 2 1 3 2 4 3 6 4 7 5 8 6 9 21 10 7 11 20 12 8 13 9 14
REMARK SMILES IDX 10 15 11 16 12 17 13 19 14 20 19 21 15 22 17 23 16 24 18 25
REMARK SMILES IDX 24 26 25 27 26 28 27 29 28 30 29 32 30 33 31 34 92 35 32 36
REMARK SMILES IDX 91 37 33 38 34 39 35 40 85 41 36 42 90 43 84 44 86 45 37 46
REMARK SMILES IDX 89 47 83 48 82 49 38 51 70 52 50 53 69 54 51 55 54 56 68 57
REMARK SMILES IDX 87 58 52 59 53 60 67 62 88 63 55 64 39 65 40 66 48 67 41 68
REMARK SMILES IDX 43 69 49 70 42 71 44 72 45 73 46 74 47 75 71 76 72 77 80 78
REMARK SMILES IDX 73 79 75 80 81 81 74 82 76 83 77 84 78 85 79 86 56 87 57 88
REMARK SMILES IDX 65 89 58 90 60 91 66 92 59 93 61 94 62 95 63 96 64 97
REMARK H PARENT 22 5 12 18 27 31 86 50 54 61
REMARK Flexibility Score: inf
ROOT
ATOM      1  C   UNL A   1      35.002  32.350  28.172  1.00  0.00     0.116 C 
ENDROOT
BRANCH   1   2
ATOM      2  N   UNL A   1      33.782  31.652  27.817  1.00  0.00    -0.356 N 
ATOM      3  O   UNL A   1      34.685  29.546  27.651  1.00  0.00    -0.275 OA
ATOM      4  C   UNL A   1      33.717  30.298  27.584  1.00  0.00     0.220 C 
ATOM      5  H   UNL A   1      32.954  32.178  27.737  1.00  0.00     0.163 HD
BRANCH   4   6
ATOM      6  C   UNL A   1      32.337  29.788  27.199  1.00  0.00     0.105 C 
BRANCH   6   7
ATOM      7  C   UNL A   1      32.203  28.266  27.287  1.00  0.00     0.045 C 
BRANCH   7   8
ATOM      8  C   UNL A   1      32.261  27.540  25.964  1.00  0.00    -0.047 A 
ATOM      9  C   UNL A   1      33.478  27.118  25.410  1.00  0.00     0.005 A 
ATOM     10  C   UNL A   1      31.075  27.266  25.272  1.00  0.00     0.005 A 
ATOM     11  C   UNL A   1      33.520  26.605  24.115  1.00  0.00     0.022 A 
ATOM     12  C   UNL A   1      31.109  26.663  24.016  1.00  0.00     0.022 A 
ATOM     13  C   UNL A   1      32.332  26.418  23.399  1.00  0.00     0.087 A 
BRANCH  13  14
ATOM     14  S   UNL A   1      32.431  25.771  21.754  1.00  0.00     0.261 S 
ATOM     15  O   UNL A   1      31.143  26.018  21.137  1.00  0.00    -0.201 OA
ATOM     16  O   UNL A   1      33.654  26.267  21.170  1.00  0.00    -0.201 OA
BRANCH  14  17
ATOM     17  N   UNL A   1      32.562  24.072  21.774  1.00  0.00    -0.280 N 
ATOM     18  H   UNL A   1      32.531  23.584  20.919  1.00  0.00     0.180 HD
BRANCH  17  19
ATOM     19  C   UNL A   1      32.714  23.330  22.981  1.00  0.00     0.050 A 
ATOM     20  C   UNL A   1      31.615  23.060  23.793  1.00  0.00     0.027 A 
ATOM     21  C   UNL A   1      33.985  22.880  23.341  1.00  0.00     0.041 A 
ATOM     22  C   UNL A   1      31.791  22.326  24.969  1.00  0.00     0.003 A 
ATOM     23  C   UNL A   1      34.150  22.127  24.502  1.00  0.00     0.015 A 
ATOM     24  C   UNL A   1      33.056  21.850  25.319  1.00  0.00     0.015 A 
ATOM     25  I   UNL A   1      36.031  21.394  24.992  1.00  0.00    -0.044 I 
ENDBRANCH  17  19
ENDBRANCH  14  17
ENDBRANCH  13  14
ENDBRANCH   7   8
ENDBRANCH   6   7
ENDBRANCH   4   6
ENDBRANCH   1   2
BRANCH   1  26
ATOM     26  C   UNL A   1      34.875  33.864  27.981  1.00  0.00     0.023 C 
BRANCH  26  27
ATOM     27  C   UNL A   1      33.508  34.475  28.324  1.00  0.00     0.023 C 
BRANCH  27  28
ATOM     28  C   UNL A   1      33.530  35.861  28.970  1.00  0.00     0.116 C 
BRANCH  28  29
ATOM     29  N   UNL A   1      32.819  35.917  30.241  1.00  0.00    -0.352 N 
ATOM     30  C   UNL A   1      33.079  35.261  31.427  1.00  0.00     0.251 C 
ATOM     31  H   UNL A   1      32.035  36.511  30.255  1.00  0.00     0.163 HD
ATOM     32  O   UNL A   1      32.274  35.346  32.353  1.00  0.00    -0.269 OA
BRANCH  30  33
ATOM     33  C   UNL A   1      34.310  34.454  31.598  1.00  0.00     0.039 A 
ATOM     34  C   UNL A   1      35.566  35.035  31.395  1.00  0.00     0.014 A 
ATOM     35  C   UNL A   1      34.233  33.108  31.938  1.00  0.00     0.014 A 
ATOM     36  C   UNL A   1      36.734  34.286  31.618  1.00  0.00     0.010 A 
ATOM     37  C   UNL A   1      35.396  32.391  32.225  1.00  0.00     0.010 A 
ATOM     38  C   UNL A   1      36.665  32.961  32.083  1.00  0.00    -0.014 A 
BRANCH  38  39
ATOM     39  C   UNL A   1      37.872  32.187  32.509  1.00  0.00     0.031 A 
ATOM     40  C   UNL A   1      38.625  32.518  33.780  1.00  0.00     0.074 A 
ATOM     41  C   UNL A   1      38.394  31.264  31.673  1.00  0.00     0.049 A 
ATOM     42  N   UNL A   1      39.712  31.968  34.265  1.00  0.00    -0.248 NA
ATOM     43  C   UNL A   1      38.118  33.636  34.594  1.00  0.00     0.031 C 
ATOM     44  C   UNL A   1      37.874  30.938  30.344  1.00  0.00     0.029 A 
ATOM     45  N   UNL A   1      39.497  30.452  31.800  1.00  0.00    -0.354 N 
ATOM     46  C   UNL A   1      40.040  32.692  35.407  1.00  0.00     0.074 A 
ATOM     47  C   UNL A   1      39.058  33.749  35.523  1.00  0.00     0.031 C 
ATOM     48  C   UNL A   1      38.638  29.983  29.790  1.00  0.00     0.029 A 
ATOM     49  C   UNL A   1      39.722  29.646  30.707  1.00  0.00     0.049 A 
ATOM     50  H   UNL A   1      40.073  30.448  32.599  1.00  0.00     0.167 HD
ATOM     51  C   UNL A   1      41.039  32.481  36.301  1.00  0.00     0.034 A 
ATOM     52  C   UNL A   1      40.687  28.737  30.461  1.00  0.00     0.034 A 
ATOM     53  C   UNL A   1      41.984  31.398  36.222  1.00  0.00     0.049 A 
ATOM     54  C   UNL A   1      41.735  28.464  31.506  1.00  0.00     0.074 A 
ATOM     55  C   UNL A   1      42.940  31.020  37.151  1.00  0.00     0.029 A 
ATOM     56  N   UNL A   1      42.107  30.525  35.153  1.00  0.00    -0.354 N 
ATOM     57  N   UNL A   1      41.893  29.019  32.683  1.00  0.00    -0.248 NA
ATOM     58  C   UNL A   1      42.714  27.408  31.207  1.00  0.00     0.031 C 
ATOM     59  C   UNL A   1      43.660  29.941  36.630  1.00  0.00     0.029 A 
ATOM     60  C   UNL A   1      43.129  29.621  35.392  1.00  0.00     0.049 A 
ATOM     61  H   UNL A   1      41.549  30.545  34.341  1.00  0.00     0.167 HD
ATOM     62  C   UNL A   1      42.960  28.354  33.278  1.00  0.00     0.074 A 
ATOM     63  C   UNL A   1      43.395  27.340  32.342  1.00  0.00     0.031 C 
ATOM     64  C   UNL A   1      43.530  28.575  34.487  1.00  0.00     0.034 A 
BRANCH  51  65
ATOM     65  C   UNL A   1      41.129  33.399  37.498  1.00  0.00     0.023 A 
ATOM     66  C   UNL A   1      42.042  34.474  37.479  1.00  0.00     0.012 A 
ATOM     67  C   UNL A   1      40.254  33.261  38.594  1.00  0.00     0.148 A 
ATOM     68  C   UNL A   1      42.114  35.368  38.547  1.00  0.00     0.002 A 
ATOM     69  C   UNL A   1      40.300  34.184  39.635  1.00  0.00     0.091 A 
ATOM     70  F   UNL A   1      39.397  32.230  38.604  1.00  0.00    -0.205 F 
ATOM     71  C   UNL A   1      41.237  35.229  39.617  1.00  0.00     0.022 A 
BRANCH  69  72
ATOM     72  S   UNL A   1      39.159  34.146  41.022  1.00  0.00     0.127 S 
ATOM     73  O   UNL A   1      37.866  34.096  40.337  1.00  0.00    -0.237 OA
ATOM     74  O   UNL A   1      39.536  32.905  41.698  1.00  0.00    -0.237 OA
ATOM     75  O   UNL A   1      39.413  35.358  41.787  1.00  0.00    -0.744 OA
ENDBRANCH  69  72
ENDBRANCH  51  65
BRANCH  52  76
ATOM     76  C   UNL A   1      40.658  27.943  29.198  1.00  0.00     0.023 A 
ATOM     77  C   UNL A   1      39.681  26.939  29.042  1.00  0.00     0.012 A 
ATOM     78  C   UNL A   1      41.569  28.182  28.152  1.00  0.00     0.148 A 
ATOM     79  C   UNL A   1      39.639  26.159  27.887  1.00  0.00     0.002 A 
ATOM     80  C   UNL A   1      41.485  27.440  26.979  1.00  0.00     0.091 A 
ATOM     81  F   UNL A   1      42.494  29.138  28.321  1.00  0.00    -0.205 F 
ATOM     82  C   UNL A   1      40.534  26.415  26.853  1.00  0.00     0.022 A 
BRANCH  80  83
ATOM     83  S   UNL A   1      42.511  27.780  25.544  1.00  0.00     0.127 S 
ATOM     84  O   UNL A   1      41.887  28.987  25.009  1.00  0.00    -0.237 OA
ATOM     85  O   UNL A   1      43.824  27.985  26.156  1.00  0.00    -0.237 OA
ATOM     86  O   UNL A   1      42.419  26.595  24.702  1.00  0.00    -0.744 OA
ENDBRANCH  80  83
ENDBRANCH  52  76
BRANCH  64  87
ATOM     87  C   UNL A   1      44.666  27.675  34.907  1.00  0.00     0.023 A 
ATOM     88  C   UNL A   1      45.999  28.053  34.652  1.00  0.00     0.012 A 
ATOM     89  C   UNL A   1      44.412  26.485  35.619  1.00  0.00     0.148 A 
ATOM     90  C   UNL A   1      47.059  27.244  35.065  1.00  0.00     0.002 A 
ATOM     91  C   UNL A   1      45.473  25.710  36.074  1.00  0.00     0.091 A 
ATOM     92  F   UNL A   1      43.137  26.131  35.838  1.00  0.00    -0.205 F 
ATOM     93  C   UNL A   1      46.796  26.081  35.786  1.00  0.00     0.022 A 
BRANCH  91  94
ATOM     94  S   UNL A   1      45.236  24.249  37.092  1.00  0.00     0.127 S 
ATOM     95  O   UNL A   1      44.613  23.324  36.147  1.00  0.00    -0.237 OA
ATOM     96  O   UNL A   1      46.610  23.907  37.464  1.00  0.00    -0.237 OA
ATOM     97  O   UNL A   1      44.394  24.665  38.205  1.00  0.00    -0.744 OA
ENDBRANCH  91  94
ENDBRANCH  64  87
ENDBRANCH  38  39
ENDBRANCH  30  33
ENDBRANCH  28  29
ENDBRANCH  27  28
ENDBRANCH  26  27
ENDBRANCH   1  26
TORSDOF 19
ENDMDL
MODEL 2
REMARK VINA RESULT:     -11.0      3.342      5.490
REMARK SMILES O=C(CCc1ccc(S(=O)(=O)Nc2cccc(I)c2)cc1)NCCCCNC(=O)c1ccc(-c2c3nc(c(-c4cccc(S(=O)(=O)[O-])c4F)c4ccc([nH]4)c(-c4cccc(S(=O)(=O)[O-])c4F)c4nc(c(-c5cccc(S(=O)(=O)[O-])c5F)c5ccc2[nH]5)C=C4)C=C3)cc1
REMARK SMILES IDX 23 1 22 2 1 3 2 4 3 6 4 7 5 8 6 9 21 10 7 11 20 12 8 13 9 14
REMARK SMILES IDX 10 15 11 16 12 17 13 19 14 20 19 21 15 22 17 23 16 24 18 25
REMARK SMILES IDX 24 26 25 27 26 28 27 29 28 30 29 32 30 33 31 34 92 35 32 36
REMARK SMILES IDX 91 37 33 38 34 39 35 40 85 41 36 42 90 43 84 44 86 45 37 46
REMARK SMILES IDX 89 47 83 48 82 49 38 51 70 52 50 53 69 54 51 55 54 56 68 57
REMARK SMILES IDX 87 58 52 59 53 60 67 62 88 63 55 64 39 65 40 66 48 67 41 68
REMARK SMILES IDX 43 69 49 70 42 71 44 72 45 73 46 74 47 75 71 76 72 77 80 78
REMARK SMILES IDX 73 79 75 80 81 81 74 82 76 83 77 84 78 85 79 86 56 87 57 88
REMARK SMILES IDX 65 89 58 90 60 91 66 92 59 93 61 94 62 95 63 96 64 97
REMARK H PARENT 22 5 12 18 27 31 86 50 54 61
REMARK Flexibility Score: inf
ROOT
ATOM      1  C   UNL A   1      31.937  26.184  24.215  1.00  0.00     0.116 C 
ENDROOT
BRANCH   1   2
ATOM      2  N   UNL A   1      33.023  25.428  23.625  1.00  0.00    -0.356 N 
ATOM      3  O   UNL A   1      32.713  23.488  24.817  1.00  0.00    -0.275 OA
ATOM      4  C   UNL A   1      33.328  24.131  23.972  1.00  0.00     0.220 C 
ATOM      5  H   UNL A   1      33.574  25.867  22.937  1.00  0.00     0.163 HD
BRANCH   4   6
ATOM      6  C   UNL A   1      34.526  23.547  23.241  1.00  0.00     0.105 C 
BRANCH   6   7
ATOM      7  C   UNL A   1      35.024  22.230  23.842  1.00  0.00     0.045 C 
BRANCH   7   8
ATOM      8  C   UNL A   1      36.268  22.344  24.692  1.00  0.00    -0.047 A 
ATOM      9  C   UNL A   1      36.578  23.522  25.385  1.00  0.00     0.005 A 
ATOM     10  C   UNL A   1      37.131  21.247  24.806  1.00  0.00     0.005 A 
ATOM     11  C   UNL A   1      37.811  23.658  26.022  1.00  0.00     0.022 A 
ATOM     12  C   UNL A   1      38.320  21.352  25.526  1.00  0.00     0.022 A 
ATOM     13  C   UNL A   1      38.703  22.581  26.053  1.00  0.00     0.087 A 
BRANCH  13  14
ATOM     14  S   UNL A   1      40.261  22.799  26.866  1.00  0.00     0.261 S 
ATOM     15  O   UNL A   1      40.390  24.217  27.136  1.00  0.00    -0.201 OA
ATOM     16  O   UNL A   1      40.334  21.820  27.924  1.00  0.00    -0.201 OA
BRANCH  14  17
ATOM     17  N   UNL A   1      41.553  22.460  25.807  1.00  0.00    -0.280 N 
ATOM     18  H   UNL A   1      41.846  23.159  25.178  1.00  0.00     0.180 HD
BRANCH  17  19
ATOM     19  C   UNL A   1      42.227  21.205  25.799  1.00  0.00     0.050 A 
ATOM     20  C   UNL A   1      41.551  20.032  26.129  1.00  0.00     0.027 A 
ATOM     21  C   UNL A   1      43.579  21.166  25.457  1.00  0.00     0.041 A 
ATOM     22  C   UNL A   1      42.232  18.814  26.108  1.00  0.00     0.003 A 
ATOM     23  C   UNL A   1      44.248  19.944  25.414  1.00  0.00     0.015 A 
ATOM     24  C   UNL A   1      43.579  18.766  25.740  1.00  0.00     0.015 A 
ATOM     25  I   UNL A   1      46.241  19.884  24.830  1.00  0.00    -0.044 I 
ENDBRANCH  17  19
ENDBRANCH  14  17
ENDBRANCH  13  14
ENDBRANCH   7   8
ENDBRANCH   6   7
ENDBRANCH   4   6
ENDBRANCH   1   2
BRANCH   1  26
ATOM     26  C   UNL A   1      32.404  27.032  25.402  1.00  0.00     0.023 C 
BRANCH  26  27
ATOM     27  C   UNL A   1      32.769  28.490  25.087  1.00  0.00     0.023 C 
BRANCH  27  28
ATOM     28  C   UNL A   1      33.824  29.132  25.988  1.00  0.00     0.116 C 
BRANCH  28  29
ATOM     29  N   UNL A   1      33.470  30.476  26.427  1.00  0.00    -0.352 N 
ATOM     30  C   UNL A   1      34.044  31.266  27.401  1.00  0.00     0.251 C 
ATOM     31  H   UNL A   1      32.705  30.880  25.957  1.00  0.00     0.163 HD
ATOM     32  O   UNL A   1      33.508  32.329  27.710  1.00  0.00    -0.269 OA
BRANCH  30  33
ATOM     33  C   UNL A   1      35.293  30.850  28.082  1.00  0.00     0.039 A 
ATOM     34  C   UNL A   1      36.424  31.671  28.038  1.00  0.00     0.014 A 
ATOM     35  C   UNL A   1      35.364  29.633  28.751  1.00  0.00     0.014 A 
ATOM     36  C   UNL A   1      37.588  31.306  28.736  1.00  0.00     0.010 A 
ATOM     37  C   UNL A   1      36.498  29.310  29.499  1.00  0.00     0.010 A 
ATOM     38  C   UNL A   1      37.625  30.138  29.518  1.00  0.00    -0.014 A 
BRANCH  38  39
ATOM     39  C   UNL A   1      38.769  29.802  30.421  1.00  0.00     0.031 A 
ATOM     40  C   UNL A   1      38.925  30.443  31.783  1.00  0.00     0.074 A 
ATOM     41  C   UNL A   1      39.768  29.019  29.960  1.00  0.00     0.049 A 
ATOM     42  N   UNL A   1      39.883  30.288  32.667  1.00  0.00    -0.248 NA
ATOM     43  C   UNL A   1      37.897  31.414  32.196  1.00  0.00     0.031 C 
ATOM     44  C   UNL A   1      39.840  28.448  28.613  1.00  0.00     0.029 A 
ATOM     45  N   UNL A   1      40.931  28.592  30.558  1.00  0.00    -0.354 N 
ATOM     46  C   UNL A   1      39.598  31.164  33.709  1.00  0.00     0.074 A 
ATOM     47  C   UNL A   1      38.397  31.879  33.333  1.00  0.00     0.031 C 
ATOM     48  C   UNL A   1      40.968  27.730  28.496  1.00  0.00     0.029 A 
ATOM     49  C   UNL A   1      41.720  27.810  29.744  1.00  0.00     0.049 A 
ATOM     50  H   UNL A   1      41.177  28.825  31.483  1.00  0.00     0.167 HD
ATOM     51  C   UNL A   1      40.247  31.336  34.888  1.00  0.00     0.034 A 
ATOM     52  C   UNL A   1      42.911  27.221  29.968  1.00  0.00     0.034 A 
ATOM     53  C   UNL A   1      41.409  30.588  35.293  1.00  0.00     0.049 A 
ATOM     54  C   UNL A   1      43.568  27.360  31.315  1.00  0.00     0.074 A 
ATOM     55  C   UNL A   1      42.050  30.591  36.521  1.00  0.00     0.029 A 
ATOM     56  N   UNL A   1      42.114  29.713  34.482  1.00  0.00    -0.354 N 
ATOM     57  N   UNL A   1      43.162  28.027  32.368  1.00  0.00    -0.248 NA
ATOM     58  C   UNL A   1      44.829  26.631  31.518  1.00  0.00     0.031 C 
ATOM     59  C   UNL A   1      43.160  29.745  36.442  1.00  0.00     0.029 A 
ATOM     60  C   UNL A   1      43.189  29.183  35.177  1.00  0.00     0.049 A 
ATOM     61  H   UNL A   1      41.884  29.500  33.548  1.00  0.00     0.167 HD
ATOM     62  C   UNL A   1      44.093  27.765  33.367  1.00  0.00     0.074 A 
ATOM     63  C   UNL A   1      45.072  26.861  32.802  1.00  0.00     0.031 C 
ATOM     64  C   UNL A   1      44.134  28.241  34.635  1.00  0.00     0.034 A 
BRANCH  51  65
ATOM     65  C   UNL A   1      39.677  32.328  35.876  1.00  0.00     0.023 A 
ATOM     66  C   UNL A   1      38.714  31.898  36.813  1.00  0.00     0.012 A 
ATOM     67  C   UNL A   1      40.156  33.652  35.943  1.00  0.00     0.148 A 
ATOM     68  C   UNL A   1      38.206  32.777  37.769  1.00  0.00     0.002 A 
ATOM     69  C   UNL A   1      39.679  34.510  36.929  1.00  0.00     0.091 A 
ATOM     70  F   UNL A   1      41.065  34.051  35.042  1.00  0.00    -0.205 F 
ATOM     71  C   UNL A   1      38.696  34.077  37.833  1.00  0.00     0.022 A 
BRANCH  69  72
ATOM     72  S   UNL A   1      40.303  36.180  37.153  1.00  0.00     0.127 S 
ATOM     73  O   UNL A   1      39.830  36.835  35.933  1.00  0.00    -0.237 OA
ATOM     74  O   UNL A   1      39.619  36.604  38.375  1.00  0.00    -0.237 OA
ATOM     75  O   UNL A   1      41.748  36.057  37.276  1.00  0.00    -0.744 OA
ENDBRANCH  69  72
ENDBRANCH  51  65
BRANCH  52  76
ATOM     76  C   UNL A   1      43.526  26.360  28.915  1.00  0.00     0.023 A 
ATOM     77  C   UNL A   1      43.274  24.973  28.931  1.00  0.00     0.012 A 
ATOM     78  C   UNL A   1      44.336  26.898  27.898  1.00  0.00     0.148 A 
ATOM     79  C   UNL A   1      43.851  24.133  27.980  1.00  0.00     0.002 A 
ATOM     80  C   UNL A   1      44.861  26.064  26.918  1.00  0.00     0.091 A 
ATOM     81  F   UNL A   1      44.567  28.219  27.903  1.00  0.00    -0.205 F 
ATOM     82  C   UNL A   1      44.637  24.679  26.969  1.00  0.00     0.022 A 
BRANCH  80  83
ATOM     83  S   UNL A   1      45.780  26.688  25.507  1.00  0.00     0.127 S 
ATOM     84  O   UNL A   1      46.993  27.197  26.140  1.00  0.00    -0.237 OA
ATOM     85  O   UNL A   1      45.964  25.475  24.709  1.00  0.00    -0.237 OA
ATOM     86  O   UNL A   1      44.922  27.690  24.888  1.00  0.00    -0.744 OA
ENDBRANCH  80  83
ENDBRANCH  52  76
BRANCH  64  87
ATOM     87  C   UNL A   1      45.249  27.764  35.533  1.00  0.00     0.023 A 
ATOM     88  C   UNL A   1      46.413  28.543  35.690  1.00  0.00     0.012 A 
ATOM     89  C   UNL A   1      45.111  26.574  36.276  1.00  0.00     0.148 A 
ATOM     90  C   UNL A   1      47.436  28.127  36.543  1.00  0.00     0.002 A 
ATOM     91  C   UNL A   1      46.110  26.193  37.164  1.00  0.00     0.091 A 
ATOM     92  F   UNL A   1      44.004  25.836  36.101  1.00  0.00    -0.205 F 
ATOM     93  C   UNL A   1      47.279  26.960  37.288  1.00  0.00     0.022 A 
BRANCH  91  94
ATOM     94  S   UNL A   1      45.955  24.759  38.236  1.00  0.00     0.127 S 
ATOM     95  O   UNL A   1      44.760  25.092  39.010  1.00  0.00    -0.237 OA
ATOM     96  O   UNL A   1      45.774  23.672  37.272  1.00  0.00    -0.237 OA
ATOM     97  O   UNL A   1      47.194  24.690  38.999  1.00  0.00    -0.744 OA
ENDBRANCH  91  94
ENDBRANCH  64  87
ENDBRANCH  38  39
ENDBRANCH  30  33
ENDBRANCH  28  29
ENDBRANCH  27  28
ENDBRANCH  26  27
ENDBRANCH   1  26
TORSDOF 19
ENDMDL
MODEL 3
REMARK VINA RESULT:     -10.8      2.545      3.188
REMARK SMILES O=C(CCc1ccc(S(=O)(=O)Nc2cccc(I)c2)cc1)NCCCCNC(=O)c1ccc(-c2c3nc(c(-c4cccc(S(=O)(=O)[O-])c4F)c4ccc([nH]4)c(-c4cccc(S(=O)(=O)[O-])c4F)c4nc(c(-c5cccc(S(=O)(=O)[O-])c5F)c5ccc2[nH]5)C=C4)C=C3)cc1
REMARK SMILES IDX 23 1 22 2 1 3 2 4 3 6 4 7 5 8 6 9 21 10 7 11 20 12 8 13 9 14
REMARK SMILES IDX 10 15 11 16 12 17 13 19 14 20 19 21 15 22 17 23 16 24 18 25
REMARK SMILES IDX 24 26 25 27 26 28 27 29 28 30 29 32 30 33 31 34 92 35 32 36
REMARK SMILES IDX 91 37 33 38 34 39 35 40 85 41 36 42 90 43 84 44 86 45 37 46
REMARK SMILES IDX 89 47 83 48 82 49 38 51 70 52 50 53 69 54 51 55 54 56 68 57
REMARK SMILES IDX 87 58 52 59 53 60 67 62 88 63 55 64 39 65 40 66 48 67 41 68
REMARK SMILES IDX 43 69 49 70 42 71 44 72 45 73 46 74 47 75 71 76 72 77 80 78
REMARK SMILES IDX 73 79 75 80 81 81 74 82 76 83 77 84 78 85 79 86 56 87 57 88
REMARK SMILES IDX 65 89 58 90 60 91 66 92 59 93 61 94 62 95 63 96 64 97
REMARK H PARENT 22 5 12 18 27 31 86 50 54 61
REMARK Flexibility Score: inf
ROOT
ATOM      1  C   UNL A   1      34.905  34.134  28.844  1.00  0.00     0.116 C 
ENDROOT
BRANCH   1   2
ATOM      2  N   UNL A   1      34.160  32.978  28.389  1.00  0.00    -0.356 N 
ATOM      3  O   UNL A   1      35.958  31.716  27.713  1.00  0.00    -0.275 OA
ATOM      4  C   UNL A   1      34.746  31.852  27.858  1.00  0.00     0.220 C 
ATOM      5  H   UNL A   1      33.179  32.999  28.465  1.00  0.00     0.163 HD
BRANCH   4   6
ATOM      6  C   UNL A   1      33.766  30.774  27.423  1.00  0.00     0.105 C 
BRANCH   6   7
ATOM      7  C   UNL A   1      34.424  29.413  27.182  1.00  0.00     0.045 C 
BRANCH   7   8
ATOM      8  C   UNL A   1      33.466  28.277  26.909  1.00  0.00    -0.047 A 
ATOM      9  C   UNL A   1      33.879  27.111  26.249  1.00  0.00     0.005 A 
ATOM     10  C   UNL A   1      32.135  28.377  27.332  1.00  0.00     0.005 A 
ATOM     11  C   UNL A   1      32.942  26.156  25.860  1.00  0.00     0.022 A 
ATOM     12  C   UNL A   1      31.216  27.375  27.027  1.00  0.00     0.022 A 
ATOM     13  C   UNL A   1      31.597  26.312  26.213  1.00  0.00     0.087 A 
BRANCH  13  14
ATOM     14  S   UNL A   1      30.438  25.079  25.692  1.00  0.00     0.261 S 
ATOM     15  O   UNL A   1      31.217  23.923  25.297  1.00  0.00    -0.201 OA
ATOM     16  O   UNL A   1      29.419  24.990  26.711  1.00  0.00    -0.201 OA
BRANCH  14  17
ATOM     17  N   UNL A   1      29.646  25.553  24.260  1.00  0.00    -0.280 N 
ATOM     18  H   UNL A   1      28.950  24.966  23.887  1.00  0.00     0.180 HD
BRANCH  17  19
ATOM     19  C   UNL A   1      29.952  26.769  23.582  1.00  0.00     0.050 A 
ATOM     20  C   UNL A   1      31.161  26.921  22.905  1.00  0.00     0.027 A 
ATOM     21  C   UNL A   1      29.024  27.810  23.609  1.00  0.00     0.041 A 
ATOM     22  C   UNL A   1      31.435  28.120  22.245  1.00  0.00     0.003 A 
ATOM     23  C   UNL A   1      29.292  28.995  22.928  1.00  0.00     0.015 A 
ATOM     24  C   UNL A   1      30.497  29.155  22.246  1.00  0.00     0.015 A 
ATOM     25  I   UNL A   1      27.874  30.513  22.908  1.00  0.00    -0.044 I 
ENDBRANCH  17  19
ENDBRANCH  14  17
ENDBRANCH  13  14
ENDBRANCH   7   8
ENDBRANCH   6   7
ENDBRANCH   4   6
ENDBRANCH   1   2
BRANCH   1  26
ATOM     26  C   UNL A   1      34.412  35.429  28.193  1.00  0.00     0.023 C 
BRANCH  26  27
ATOM     27  C   UNL A   1      33.155  36.059  28.812  1.00  0.00     0.023 C 
BRANCH  27  28
ATOM     28  C   UNL A   1      33.358  36.830  30.116  1.00  0.00     0.116 C 
BRANCH  28  29
ATOM     29  N   UNL A   1      32.477  36.391  31.191  1.00  0.00    -0.352 N 
ATOM     30  C   UNL A   1      32.663  35.404  32.136  1.00  0.00     0.251 C 
ATOM     31  H   UNL A   1      31.620  36.870  31.250  1.00  0.00     0.163 HD
ATOM     32  O   UNL A   1      31.734  35.098  32.881  1.00  0.00    -0.269 OA
BRANCH  30  33
ATOM     33  C   UNL A   1      33.964  34.705  32.263  1.00  0.00     0.039 A 
ATOM     34  C   UNL A   1      35.152  35.439  32.340  1.00  0.00     0.014 A 
ATOM     35  C   UNL A   1      34.023  33.316  32.283  1.00  0.00     0.014 A 
ATOM     36  C   UNL A   1      36.379  34.778  32.522  1.00  0.00     0.010 A 
ATOM     37  C   UNL A   1      35.236  32.670  32.535  1.00  0.00     0.010 A 
ATOM     38  C   UNL A   1      36.432  33.381  32.670  1.00  0.00    -0.014 A 
BRANCH  38  39
ATOM     39  C   UNL A   1      37.683  32.652  33.048  1.00  0.00     0.031 A 
ATOM     40  C   UNL A   1      38.382  32.900  34.367  1.00  0.00     0.074 A 
ATOM     41  C   UNL A   1      38.288  31.861  32.136  1.00  0.00     0.049 A 
ATOM     42  N   UNL A   1      39.496  32.378  34.825  1.00  0.00    -0.248 NA
ATOM     43  C   UNL A   1      37.778  33.887  35.278  1.00  0.00     0.031 C 
ATOM     44  C   UNL A   1      37.821  31.642  30.766  1.00  0.00     0.029 A 
ATOM     45  N   UNL A   1      39.444  31.119  32.210  1.00  0.00    -0.354 N 
ATOM     46  C   UNL A   1      39.746  32.999  36.044  1.00  0.00     0.074 A 
ATOM     47  C   UNL A   1      38.688  33.967  36.241  1.00  0.00     0.031 C 
ATOM     48  C   UNL A   1      38.664  30.806  30.139  1.00  0.00     0.029 A 
ATOM     49  C   UNL A   1      39.750  30.451  31.046  1.00  0.00     0.049 A 
ATOM     50  H   UNL A   1      40.002  31.071  33.020  1.00  0.00     0.167 HD
ATOM     51  C   UNL A   1      40.738  32.764  36.939  1.00  0.00     0.034 A 
ATOM     52  C   UNL A   1      40.783  29.642  30.735  1.00  0.00     0.034 A 
ATOM     53  C   UNL A   1      41.760  31.764  36.777  1.00  0.00     0.049 A 
ATOM     54  C   UNL A   1      41.825  29.334  31.777  1.00  0.00     0.074 A 
ATOM     55  C   UNL A   1      42.721  31.358  37.689  1.00  0.00     0.029 A 
ATOM     56  N   UNL A   1      41.969  31.020  35.627  1.00  0.00    -0.354 N 
ATOM     57  N   UNL A   1      41.917  29.772  33.009  1.00  0.00    -0.248 NA
ATOM     58  C   UNL A   1      42.884  28.386  31.397  1.00  0.00     0.031 C 
ATOM     59  C   UNL A   1      43.528  30.393  37.079  1.00  0.00     0.029 A 
ATOM     60  C   UNL A   1      43.048  30.169  35.800  1.00  0.00     0.049 A 
ATOM     61  H   UNL A   1      41.428  31.086  34.805  1.00  0.00     0.167 HD
ATOM     62  C   UNL A   1      43.016  29.123  33.562  1.00  0.00     0.074 A 
ATOM     63  C   UNL A   1      43.545  28.246  32.539  1.00  0.00     0.031 C 
ATOM     64  C   UNL A   1      43.543  29.254  34.804  1.00  0.00     0.034 A 
BRANCH  51  65
ATOM     65  C   UNL A   1      40.735  33.555  38.227  1.00  0.00     0.023 A 
ATOM     66  C   UNL A   1      39.998  33.079  39.332  1.00  0.00     0.012 A 
ATOM     67  C   UNL A   1      41.528  34.711  38.379  1.00  0.00     0.148 A 
ATOM     68  C   UNL A   1      40.015  33.759  40.549  1.00  0.00     0.002 A 
ATOM     69  C   UNL A   1      41.577  35.358  39.610  1.00  0.00     0.091 A 
ATOM     70  F   UNL A   1      42.218  35.159  37.320  1.00  0.00    -0.205 F 
ATOM     71  C   UNL A   1      40.812  34.890  40.690  1.00  0.00     0.022 A 
BRANCH  69  72
ATOM     72  S   UNL A   1      42.635  36.776  39.924  1.00  0.00     0.127 S 
ATOM     73  O   UNL A   1      42.060  37.776  39.023  1.00  0.00    -0.237 OA
ATOM     74  O   UNL A   1      42.398  37.030  41.344  1.00  0.00    -0.237 OA
ATOM     75  O   UNL A   1      43.989  36.349  39.599  1.00  0.00    -0.744 OA
ENDBRANCH  69  72
ENDBRANCH  51  65
BRANCH  52  76
ATOM     76  C   UNL A   1      40.839  28.986  29.396  1.00  0.00     0.023 A 
ATOM     77  C   UNL A   1      41.363  29.704  28.302  1.00  0.00     0.012 A 
ATOM     78  C   UNL A   1      40.398  27.663  29.201  1.00  0.00     0.148 A 
ATOM     79  C   UNL A   1      41.407  29.133  27.031  1.00  0.00     0.002 A 
ATOM     80  C   UNL A   1      40.500  27.080  27.943  1.00  0.00     0.091 A 
ATOM     81  F   UNL A   1      39.899  26.998  30.253  1.00  0.00    -0.205 F 
ATOM     82  C   UNL A   1      40.984  27.819  26.853  1.00  0.00     0.022 A 
BRANCH  80  83
ATOM     83  S   UNL A   1      40.099  25.355  27.642  1.00  0.00     0.127 S 
ATOM     84  O   UNL A   1      41.094  24.669  28.463  1.00  0.00    -0.237 OA
ATOM     85  O   UNL A   1      38.727  25.274  28.144  1.00  0.00    -0.237 OA
ATOM     86  O   UNL A   1      40.225  25.164  26.204  1.00  0.00    -0.744 OA
ENDBRANCH  80  83
ENDBRANCH  52  76
BRANCH  64  87
ATOM     87  C   UNL A   1      44.732  28.397  35.161  1.00  0.00     0.023 A 
ATOM     88  C   UNL A   1      46.039  28.910  35.033  1.00  0.00     0.012 A 
ATOM     89  C   UNL A   1      44.549  27.103  35.691  1.00  0.00     0.148 A 
ATOM     90  C   UNL A   1      47.144  28.137  35.391  1.00  0.00     0.002 A 
ATOM     91  C   UNL A   1      45.651  26.359  36.095  1.00  0.00     0.091 A 
ATOM     92  F   UNL A   1      43.300  26.624  35.790  1.00  0.00    -0.205 F 
ATOM     93  C   UNL A   1      46.949  26.868  35.933  1.00  0.00     0.022 A 
BRANCH  91  94
ATOM     94  S   UNL A   1      45.495  24.757  36.893  1.00  0.00     0.127 S 
ATOM     95  O   UNL A   1      46.888  24.437  37.199  1.00  0.00    -0.237 OA
ATOM     96  O   UNL A   1      44.671  25.073  38.061  1.00  0.00    -0.237 OA
ATOM     97  O   UNL A   1      44.854  23.882  35.919  1.00  0.00    -0.744 OA
ENDBRANCH  91  94
ENDBRANCH  64  87
ENDBRANCH  38  39
ENDBRANCH  30  33
ENDBRANCH  28  29
ENDBRANCH  27  28
ENDBRANCH  26  27
ENDBRANCH   1  26
TORSDOF 19
ENDMDL
