MODEL 1
REMARK VINA RESULT:     -12.1      0.000      0.000
REMARK SMILES O=C(CSc1cc(-c2ccccc2)nc(-c2ccccc2F)n1)NCCCCNC(=O)c1ccc(-c2c3nc(c(-c4cccc(S(=O)(=O)[O-])c4F)c4ccc([nH]4)c(-c4cccc(S(=O)(=O)[O-])c4F)c4nc(c(-c5cccc(S(=O)(=O)[O-])c5F)c5ccc2[nH]5)C=C4)C=C3)cc1
REMARK SMILES IDX 26 1 25 2 24 3 1 4 2 5 3 7 4 8 5 9 6 10 23 11 7 12 15 13
REMARK SMILES IDX 14 14 8 15 9 16 13 17 10 18 12 19 11 20 16 21 17 22 21 23
REMARK SMILES IDX 18 24 20 25 22 26 19 27 27 28 28 29 29 30 30 31 31 33 32 34
REMARK SMILES IDX 33 35 94 36 34 37 93 38 35 39 36 40 37 41 87 42 38 43 92 44
REMARK SMILES IDX 86 45 88 46 39 47 91 48 85 49 84 50 40 52 72 53 52 54 71 55
REMARK SMILES IDX 53 56 56 57 70 58 89 59 54 60 55 61 69 63 90 64 57 65 41 66
REMARK SMILES IDX 42 67 50 68 43 69 45 70 51 71 44 72 46 73 47 74 48 75 49 76
REMARK SMILES IDX 73 77 74 78 82 79 75 80 77 81 83 82 76 83 78 84 79 85 80 86
REMARK SMILES IDX 81 87 58 88 59 89 67 90 60 91 62 92 68 93 61 94 63 95 64 96
REMARK SMILES IDX 65 97 66 98
REMARK H PARENT 24 6 29 32 88 51 56 62
REMARK Flexibility Score: inf
ROOT
ATOM      1  C   UNL A   1      33.728  28.730  24.653  1.00  0.00     0.023 C 
ENDROOT
BRANCH   1   2
ATOM      2  C   UNL A   1      32.409  28.148  24.146  1.00  0.00     0.116 C 
BRANCH   2   3
ATOM      3  N   UNL A   1      32.598  26.940  23.368  1.00  0.00    -0.355 N 
ATOM      4  O   UNL A   1      32.126  25.476  25.075  1.00  0.00    -0.274 OA
ATOM      5  C   UNL A   1      32.414  25.676  23.897  1.00  0.00     0.230 C 
ATOM      6  H   UNL A   1      32.868  27.022  22.425  1.00  0.00     0.163 HD
BRANCH   5   7
ATOM      7  C   UNL A   1      32.670  24.532  22.929  1.00  0.00     0.176 C 
BRANCH   7   8
ATOM      8  S   UNL A   1      31.605  23.101  23.278  1.00  0.00    -0.096 SA
BRANCH   8   9
ATOM      9  C   UNL A   1      32.801  22.015  24.034  1.00  0.00     0.101 A 
ATOM     10  C   UNL A   1      32.546  20.665  24.041  1.00  0.00     0.064 A 
ATOM     11  N   UNL A   1      33.939  22.555  24.496  1.00  0.00    -0.222 NA
ATOM     12  C   UNL A   1      33.528  19.856  24.574  1.00  0.00     0.075 A 
ATOM     13  C   UNL A   1      34.857  21.685  24.957  1.00  0.00     0.163 A 
ATOM     14  N   UNL A   1      34.687  20.354  25.049  1.00  0.00    -0.228 NA
BRANCH  12  15
ATOM     15  C   UNL A   1      33.365  18.398  24.625  1.00  0.00     0.000 A 
ATOM     16  C   UNL A   1      33.902  17.572  23.624  1.00  0.00     0.010 A 
ATOM     17  C   UNL A   1      32.695  17.785  25.699  1.00  0.00     0.010 A 
ATOM     18  C   UNL A   1      33.796  16.180  23.708  1.00  0.00     0.001 A 
ATOM     19  C   UNL A   1      32.582  16.396  25.781  1.00  0.00     0.001 A 
ATOM     20  C   UNL A   1      33.140  15.595  24.789  1.00  0.00     0.000 A 
ENDBRANCH  12  15
BRANCH  13  21
ATOM     21  C   UNL A   1      36.156  22.230  25.347  1.00  0.00     0.055 A 
ATOM     22  C   UNL A   1      37.334  21.470  25.236  1.00  0.00     0.015 A 
ATOM     23  C   UNL A   1      36.267  23.522  25.879  1.00  0.00     0.134 A 
ATOM     24  C   UNL A   1      38.571  21.991  25.636  1.00  0.00     0.001 A 
ATOM     25  C   UNL A   1      37.496  24.045  26.287  1.00  0.00     0.040 A 
ATOM     26  F   UNL A   1      35.178  24.288  26.046  1.00  0.00    -0.206 F 
ATOM     27  C   UNL A   1      38.651  23.278  26.165  1.00  0.00     0.003 A 
ENDBRANCH  13  21
ENDBRANCH   8   9
ENDBRANCH   7   8
ENDBRANCH   5   7
ENDBRANCH   2   3
ENDBRANCH   1   2
BRANCH   1  28
ATOM     28  C   UNL A   1      34.164  28.247  26.040  1.00  0.00     0.023 C 
BRANCH  28  29
ATOM     29  C   UNL A   1      33.358  28.793  27.215  1.00  0.00     0.116 C 
BRANCH  29  30
ATOM     30  N   UNL A   1      33.492  30.232  27.382  1.00  0.00    -0.352 N 
ATOM     31  C   UNL A   1      34.527  30.954  27.930  1.00  0.00     0.251 C 
ATOM     32  H   UNL A   1      32.733  30.766  27.055  1.00  0.00     0.163 HD
ATOM     33  O   UNL A   1      34.398  32.166  28.101  1.00  0.00    -0.269 OA
BRANCH  31  34
ATOM     34  C   UNL A   1      35.780  30.281  28.342  1.00  0.00     0.039 A 
ATOM     35  C   UNL A   1      36.879  30.313  27.478  1.00  0.00     0.014 A 
ATOM     36  C   UNL A   1      35.880  29.621  29.570  1.00  0.00     0.014 A 
ATOM     37  C   UNL A   1      38.095  29.750  27.876  1.00  0.00     0.010 A 
ATOM     38  C   UNL A   1      37.112  29.129  29.996  1.00  0.00     0.010 A 
ATOM     39  C   UNL A   1      38.235  29.187  29.156  1.00  0.00    -0.014 A 
BRANCH  39  40
ATOM     40  C   UNL A   1      39.548  28.681  29.639  1.00  0.00     0.031 A 
ATOM     41  C   UNL A   1      40.289  29.399  30.737  1.00  0.00     0.074 A 
ATOM     42  C   UNL A   1      40.121  27.622  29.029  1.00  0.00     0.049 A 
ATOM     43  N   UNL A   1      41.465  29.137  31.246  1.00  0.00    -0.248 NA
ATOM     44  C   UNL A   1      39.634  30.581  31.322  1.00  0.00     0.031 C 
ATOM     45  C   UNL A   1      39.545  26.881  27.905  1.00  0.00     0.029 A 
ATOM     46  N   UNL A   1      41.326  27.002  29.251  1.00  0.00    -0.354 N 
ATOM     47  C   UNL A   1      41.709  30.137  32.180  1.00  0.00     0.074 A 
ATOM     48  C   UNL A   1      40.570  31.030  32.146  1.00  0.00     0.031 C 
ATOM     49  C   UNL A   1      40.391  25.904  27.542  1.00  0.00     0.029 A 
ATOM     50  C   UNL A   1      41.584  25.969  28.379  1.00  0.00     0.049 A 
ATOM     51  H   UNL A   1      41.947  27.270  29.966  1.00  0.00     0.167 HD
ATOM     52  C   UNL A   1      42.770  30.289  33.008  1.00  0.00     0.034 A 
ATOM     53  C   UNL A   1      42.663  25.170  28.258  1.00  0.00     0.034 A 
ATOM     54  C   UNL A   1      43.884  29.379  33.069  1.00  0.00     0.049 A 
ATOM     55  C   UNL A   1      43.817  25.344  29.208  1.00  0.00     0.074 A 
ATOM     56  C   UNL A   1      44.960  29.396  33.939  1.00  0.00     0.029 A 
ATOM     57  N   UNL A   1      44.076  28.302  32.218  1.00  0.00    -0.354 N 
ATOM     58  N   UNL A   1      43.955  26.199  30.192  1.00  0.00    -0.248 NA
ATOM     59  C   UNL A   1      44.950  24.420  29.055  1.00  0.00     0.031 C 
ATOM     60  C   UNL A   1      45.821  28.350  33.591  1.00  0.00     0.029 A 
ATOM     61  C   UNL A   1      45.261  27.657  32.531  1.00  0.00     0.049 A 
ATOM     62  H   UNL A   1      43.461  28.035  31.498  1.00  0.00     0.167 HD
ATOM     63  C   UNL A   1      45.168  25.892  30.798  1.00  0.00     0.074 A 
ATOM     64  C   UNL A   1      45.716  24.758  30.083  1.00  0.00     0.031 C 
ATOM     65  C   UNL A   1      45.776  26.499  31.846  1.00  0.00     0.034 A 
BRANCH  52  66
ATOM     66  C   UNL A   1      42.766  31.467  33.950  1.00  0.00     0.023 A 
ATOM     67  C   UNL A   1      43.261  32.713  33.514  1.00  0.00     0.012 A 
ATOM     68  C   UNL A   1      42.213  31.357  35.241  1.00  0.00     0.148 A 
ATOM     69  C   UNL A   1      43.240  33.821  34.360  1.00  0.00     0.002 A 
ATOM     70  C   UNL A   1      42.151  32.477  36.060  1.00  0.00     0.091 A 
ATOM     71  F   UNL A   1      41.764  30.160  35.645  1.00  0.00    -0.205 F 
ATOM     72  C   UNL A   1      42.676  33.706  35.627  1.00  0.00     0.022 A 
BRANCH  70  73
ATOM     73  S   UNL A   1      41.370  32.454  37.678  1.00  0.00     0.127 S 
ATOM     74  O   UNL A   1      41.421  33.868  38.049  1.00  0.00    -0.237 OA
ATOM     75  O   UNL A   1      40.033  31.952  37.366  1.00  0.00    -0.237 OA
ATOM     76  O   UNL A   1      42.178  31.564  38.502  1.00  0.00    -0.744 OA
ENDBRANCH  70  73
ENDBRANCH  52  66
BRANCH  53  77
ATOM     77  C   UNL A   1      42.682  24.090  27.230  1.00  0.00     0.023 A 
ATOM     78  C   UNL A   1      43.240  24.350  25.963  1.00  0.00     0.012 A 
ATOM     79  C   UNL A   1      42.168  22.808  27.503  1.00  0.00     0.148 A 
ATOM     80  C   UNL A   1      43.253  23.365  24.974  1.00  0.00     0.002 A 
ATOM     81  C   UNL A   1      42.236  21.814  26.534  1.00  0.00     0.091 A 
ATOM     82  F   UNL A   1      41.632  22.583  28.711  1.00  0.00    -0.205 F 
ATOM     83  C   UNL A   1      42.760  22.096  25.263  1.00  0.00     0.022 A 
BRANCH  81  84
ATOM     84  S   UNL A   1      41.745  20.117  26.857  1.00  0.00     0.127 S 
ATOM     85  O   UNL A   1      42.778  19.678  27.791  1.00  0.00    -0.237 OA
ATOM     86  O   UNL A   1      40.416  20.296  27.445  1.00  0.00    -0.237 OA
ATOM     87  O   UNL A   1      41.742  19.454  25.560  1.00  0.00    -0.744 OA
ENDBRANCH  81  84
ENDBRANCH  53  77
BRANCH  65  88
ATOM     88  C   UNL A   1      47.087  25.930  32.324  1.00  0.00     0.023 A 
ATOM     89  C   UNL A   1      47.115  25.037  33.414  1.00  0.00     0.012 A 
ATOM     90  C   UNL A   1      48.285  26.227  31.644  1.00  0.00     0.148 A 
ATOM     91  C   UNL A   1      48.320  24.477  33.840  1.00  0.00     0.002 A 
ATOM     92  C   UNL A   1      49.472  25.624  32.041  1.00  0.00     0.091 A 
ATOM     93  F   UNL A   1      48.242  27.093  30.620  1.00  0.00    -0.205 F 
ATOM     94  C   UNL A   1      49.494  24.760  33.147  1.00  0.00     0.022 A 
BRANCH  92  95
ATOM     95  S   UNL A   1      51.015  25.850  31.148  1.00  0.00     0.127 S 
ATOM     96  O   UNL A   1      50.648  25.409  29.804  1.00  0.00    -0.237 OA
ATOM     97  O   UNL A   1      51.238  27.291  31.279  1.00  0.00    -0.237 OA
ATOM     98  O   UNL A   1      52.000  25.021  31.830  1.00  0.00    -0.744 OA
ENDBRANCH  92  95
ENDBRANCH  65  88
ENDBRANCH  39  40
ENDBRANCH  31  34
ENDBRANCH  29  30
ENDBRANCH  28  29
ENDBRANCH   1  28
TORSDOF 18
ENDMDL
MODEL 2
REMARK VINA RESULT:     -11.9      2.581      3.270
REMARK SMILES O=C(CSc1cc(-c2ccccc2)nc(-c2ccccc2F)n1)NCCCCNC(=O)c1ccc(-c2c3nc(c(-c4cccc(S(=O)(=O)[O-])c4F)c4ccc([nH]4)c(-c4cccc(S(=O)(=O)[O-])c4F)c4nc(c(-c5cccc(S(=O)(=O)[O-])c5F)c5ccc2[nH]5)C=C4)C=C3)cc1
REMARK SMILES IDX 26 1 25 2 24 3 1 4 2 5 3 7 4 8 5 9 6 10 23 11 7 12 15 13
REMARK SMILES IDX 14 14 8 15 9 16 13 17 10 18 12 19 11 20 16 21 17 22 21 23
REMARK SMILES IDX 18 24 20 25 22 26 19 27 27 28 28 29 29 30 30 31 31 33 32 34
REMARK SMILES IDX 33 35 94 36 34 37 93 38 35 39 36 40 37 41 87 42 38 43 92 44
REMARK SMILES IDX 86 45 88 46 39 47 91 48 85 49 84 50 40 52 72 53 52 54 71 55
REMARK SMILES IDX 53 56 56 57 70 58 89 59 54 60 55 61 69 63 90 64 57 65 41 66
REMARK SMILES IDX 42 67 50 68 43 69 45 70 51 71 44 72 46 73 47 74 48 75 49 76
REMARK SMILES IDX 73 77 74 78 82 79 75 80 77 81 83 82 76 83 78 84 79 85 80 86
REMARK SMILES IDX 81 87 58 88 59 89 67 90 60 91 62 92 68 93 61 94 63 95 64 96
REMARK SMILES IDX 65 97 66 98
REMARK H PARENT 24 6 29 32 88 51 56 62
REMARK Flexibility Score: inf
ROOT
ATOM      1  C   UNL A   1      31.556  28.425  23.998  1.00  0.00     0.023 C 
ENDROOT
BRANCH   1   2
ATOM      2  C   UNL A   1      30.921  27.445  24.984  1.00  0.00     0.116 C 
BRANCH   2   3
ATOM      3  N   UNL A   1      30.737  26.126  24.414  1.00  0.00    -0.355 N 
ATOM      4  O   UNL A   1      32.401  25.103  25.624  1.00  0.00    -0.274 OA
ATOM      5  C   UNL A   1      31.488  25.033  24.803  1.00  0.00     0.230 C 
ATOM      6  H   UNL A   1      30.048  26.002  23.721  1.00  0.00     0.163 HD
BRANCH   5   7
ATOM      7  C   UNL A   1      31.156  23.736  24.084  1.00  0.00     0.176 C 
BRANCH   7   8
ATOM      8  S   UNL A   1      32.401  23.321  22.826  1.00  0.00    -0.096 SA
BRANCH   8   9
ATOM      9  C   UNL A   1      33.431  22.218  23.776  1.00  0.00     0.101 A 
ATOM     10  C   UNL A   1      33.082  20.890  23.839  1.00  0.00     0.064 A 
ATOM     11  N   UNL A   1      34.549  22.716  24.326  1.00  0.00    -0.222 NA
ATOM     12  C   UNL A   1      33.943  20.060  24.526  1.00  0.00     0.075 A 
ATOM     13  C   UNL A   1      35.349  21.824  24.940  1.00  0.00     0.163 A 
ATOM     14  N   UNL A   1      35.077  20.516  25.094  1.00  0.00    -0.228 NA
BRANCH  12  15
ATOM     15  C   UNL A   1      33.674  18.623  24.649  1.00  0.00     0.000 A 
ATOM     16  C   UNL A   1      32.790  18.130  25.623  1.00  0.00     0.010 A 
ATOM     17  C   UNL A   1      34.270  17.700  23.770  1.00  0.00     0.010 A 
ATOM     18  C   UNL A   1      32.491  16.766  25.698  1.00  0.00     0.001 A 
ATOM     19  C   UNL A   1      33.978  16.337  23.848  1.00  0.00     0.001 A 
ATOM     20  C   UNL A   1      33.083  15.872  24.807  1.00  0.00     0.000 A 
ENDBRANCH  12  15
BRANCH  13  21
ATOM     21  C   UNL A   1      36.634  22.312  25.436  1.00  0.00     0.055 A 
ATOM     22  C   UNL A   1      37.762  21.474  25.502  1.00  0.00     0.015 A 
ATOM     23  C   UNL A   1      36.778  23.627  25.898  1.00  0.00     0.134 A 
ATOM     24  C   UNL A   1      38.983  21.943  26.003  1.00  0.00     0.001 A 
ATOM     25  C   UNL A   1      37.989  24.099  26.407  1.00  0.00     0.040 A 
ATOM     26  F   UNL A   1      35.732  24.469  25.898  1.00  0.00    -0.206 F 
ATOM     27  C   UNL A   1      39.095  23.255  26.459  1.00  0.00     0.003 A 
ENDBRANCH  13  21
ENDBRANCH   8   9
ENDBRANCH   7   8
ENDBRANCH   5   7
ENDBRANCH   2   3
ENDBRANCH   1   2
BRANCH   1  28
ATOM     28  C   UNL A   1      32.680  29.293  24.573  1.00  0.00     0.023 C 
BRANCH  28  29
ATOM     29  C   UNL A   1      32.606  29.563  26.073  1.00  0.00     0.116 C 
BRANCH  29  30
ATOM     30  N   UNL A   1      32.443  30.972  26.394  1.00  0.00    -0.352 N 
ATOM     31  C   UNL A   1      33.213  31.781  27.197  1.00  0.00     0.251 C 
ATOM     32  H   UNL A   1      31.669  31.412  25.974  1.00  0.00     0.163 HD
ATOM     33  O   UNL A   1      32.836  32.924  27.449  1.00  0.00    -0.269 OA
BRANCH  31  34
ATOM     34  C   UNL A   1      34.476  31.274  27.784  1.00  0.00     0.039 A 
ATOM     35  C   UNL A   1      35.538  32.164  27.968  1.00  0.00     0.014 A 
ATOM     36  C   UNL A   1      34.619  29.935  28.155  1.00  0.00     0.014 A 
ATOM     37  C   UNL A   1      36.713  31.728  28.589  1.00  0.00     0.010 A 
ATOM     38  C   UNL A   1      35.758  29.522  28.842  1.00  0.00     0.010 A 
ATOM     39  C   UNL A   1      36.819  30.412  29.068  1.00  0.00    -0.014 A 
BRANCH  39  40
ATOM     40  C   UNL A   1      38.016  29.960  29.828  1.00  0.00     0.031 A 
ATOM     41  C   UNL A   1      38.270  30.457  31.227  1.00  0.00     0.074 A 
ATOM     42  C   UNL A   1      38.927  29.167  29.226  1.00  0.00     0.049 A 
ATOM     43  N   UNL A   1      39.283  30.216  32.016  1.00  0.00    -0.248 NA
ATOM     44  C   UNL A   1      37.265  31.364  31.805  1.00  0.00     0.031 C 
ATOM     45  C   UNL A   1      38.841  28.673  27.850  1.00  0.00     0.029 A 
ATOM     46  N   UNL A   1      40.118  28.657  29.685  1.00  0.00    -0.354 N 
ATOM     47  C   UNL A   1      39.062  30.967  33.165  1.00  0.00     0.074 A 
ATOM     48  C   UNL A   1      37.829  31.697  32.957  1.00  0.00     0.031 C 
ATOM     49  C   UNL A   1      39.925  27.928  27.580  1.00  0.00     0.029 A 
ATOM     50  C   UNL A   1      40.801  27.919  28.747  1.00  0.00     0.049 A 
ATOM     51  H   UNL A   1      40.451  28.807  30.599  1.00  0.00     0.167 HD
ATOM     52  C   UNL A   1      39.800  31.028  34.299  1.00  0.00     0.034 A 
ATOM     53  C   UNL A   1      42.003  27.311  28.811  1.00  0.00     0.034 A 
ATOM     54  C   UNL A   1      41.004  30.272  34.520  1.00  0.00     0.049 A 
ATOM     55  C   UNL A   1      42.790  27.374  30.093  1.00  0.00     0.074 A 
ATOM     56  C   UNL A   1      41.770  30.195  35.670  1.00  0.00     0.029 A 
ATOM     57  N   UNL A   1      41.628  29.478  33.572  1.00  0.00    -0.354 N 
ATOM     58  N   UNL A   1      42.481  27.960  31.223  1.00  0.00    -0.248 NA
ATOM     59  C   UNL A   1      44.075  26.660  30.119  1.00  0.00     0.031 C 
ATOM     60  C   UNL A   1      42.877  29.381  35.406  1.00  0.00     0.029 A 
ATOM     61  C   UNL A   1      42.778  28.919  34.104  1.00  0.00     0.049 A 
ATOM     62  H   UNL A   1      41.302  29.331  32.654  1.00  0.00     0.167 HD
ATOM     63  C   UNL A   1      43.512  27.655  32.106  1.00  0.00     0.074 A 
ATOM     64  C   UNL A   1      44.444  26.814  31.384  1.00  0.00     0.031 C 
ATOM     65  C   UNL A   1      43.675  28.043  33.394  1.00  0.00     0.034 A 
BRANCH  52  66
ATOM     66  C   UNL A   1      39.308  31.918  35.412  1.00  0.00     0.023 A 
ATOM     67  C   UNL A   1      38.420  31.404  36.379  1.00  0.00     0.012 A 
ATOM     68  C   UNL A   1      39.774  33.242  35.537  1.00  0.00     0.148 A 
ATOM     69  C   UNL A   1      37.975  32.203  37.431  1.00  0.00     0.002 A 
ATOM     70  C   UNL A   1      39.363  34.017  36.615  1.00  0.00     0.091 A 
ATOM     71  F   UNL A   1      40.602  33.720  34.598  1.00  0.00    -0.205 F 
ATOM     72  C   UNL A   1      38.455  33.504  37.555  1.00  0.00     0.022 A 
BRANCH  70  73
ATOM     73  S   UNL A   1      39.987  35.675  36.911  1.00  0.00     0.127 S 
ATOM     74  O   UNL A   1      39.318  36.022  38.165  1.00  0.00    -0.237 OA
ATOM     75  O   UNL A   1      41.427  35.445  37.031  1.00  0.00    -0.237 OA
ATOM     76  O   UNL A   1      39.591  36.466  35.754  1.00  0.00    -0.744 OA
ENDBRANCH  70  73
ENDBRANCH  52  66
BRANCH  53  77
ATOM     77  C   UNL A   1      42.514  26.538  27.643  1.00  0.00     0.023 A 
ATOM     78  C   UNL A   1      43.115  27.224  26.570  1.00  0.00     0.012 A 
ATOM     79  C   UNL A   1      42.423  25.135  27.596  1.00  0.00     0.148 A 
ATOM     80  C   UNL A   1      43.584  26.529  25.453  1.00  0.00     0.002 A 
ATOM     81  C   UNL A   1      42.944  24.443  26.508  1.00  0.00     0.091 A 
ATOM     82  F   UNL A   1      41.839  24.501  28.623  1.00  0.00    -0.205 F 
ATOM     83  C   UNL A   1      43.507  25.139  25.428  1.00  0.00     0.022 A 
BRANCH  81  84
ATOM     84  S   UNL A   1      43.006  22.649  26.445  1.00  0.00     0.127 S 
ATOM     85  O   UNL A   1      42.428  22.375  25.133  1.00  0.00    -0.237 OA
ATOM     86  O   UNL A   1      44.444  22.395  26.552  1.00  0.00    -0.237 OA
ATOM     87  O   UNL A   1      42.229  22.188  27.588  1.00  0.00    -0.744 OA
ENDBRANCH  81  84
ENDBRANCH  53  77
BRANCH  65  88
ATOM     88  C   UNL A   1      44.884  27.531  34.134  1.00  0.00     0.023 A 
ATOM     89  C   UNL A   1      46.071  28.290  34.159  1.00  0.00     0.012 A 
ATOM     90  C   UNL A   1      44.818  26.329  34.865  1.00  0.00     0.148 A 
ATOM     91  C   UNL A   1      47.184  27.842  34.872  1.00  0.00     0.002 A 
ATOM     92  C   UNL A   1      45.912  25.916  35.616  1.00  0.00     0.091 A 
ATOM     93  F   UNL A   1      43.686  25.611  34.815  1.00  0.00    -0.205 F 
ATOM     94  C   UNL A   1      47.100  26.663  35.609  1.00  0.00     0.022 A 
BRANCH  92  95
ATOM     95  S   UNL A   1      45.863  24.465  36.675  1.00  0.00     0.127 S 
ATOM     96  O   UNL A   1      46.021  23.383  35.705  1.00  0.00    -0.237 OA
ATOM     97  O   UNL A   1      47.020  24.679  37.546  1.00  0.00    -0.237 OA
ATOM     98  O   UNL A   1      44.576  24.508  37.357  1.00  0.00    -0.744 OA
ENDBRANCH  92  95
ENDBRANCH  65  88
ENDBRANCH  39  40
ENDBRANCH  31  34
ENDBRANCH  29  30
ENDBRANCH  28  29
ENDBRANCH   1  28
TORSDOF 18
ENDMDL
MODEL 3
REMARK VINA RESULT:     -11.8      3.790     10.132
REMARK SMILES O=C(CSc1cc(-c2ccccc2)nc(-c2ccccc2F)n1)NCCCCNC(=O)c1ccc(-c2c3nc(c(-c4cccc(S(=O)(=O)[O-])c4F)c4ccc([nH]4)c(-c4cccc(S(=O)(=O)[O-])c4F)c4nc(c(-c5cccc(S(=O)(=O)[O-])c5F)c5ccc2[nH]5)C=C4)C=C3)cc1
REMARK SMILES IDX 26 1 25 2 24 3 1 4 2 5 3 7 4 8 5 9 6 10 23 11 7 12 15 13
REMARK SMILES IDX 14 14 8 15 9 16 13 17 10 18 12 19 11 20 16 21 17 22 21 23
REMARK SMILES IDX 18 24 20 25 22 26 19 27 27 28 28 29 29 30 30 31 31 33 32 34
REMARK SMILES IDX 33 35 94 36 34 37 93 38 35 39 36 40 37 41 87 42 38 43 92 44
REMARK SMILES IDX 86 45 88 46 39 47 91 48 85 49 84 50 40 52 72 53 52 54 71 55
REMARK SMILES IDX 53 56 56 57 70 58 89 59 54 60 55 61 69 63 90 64 57 65 41 66
REMARK SMILES IDX 42 67 50 68 43 69 45 70 51 71 44 72 46 73 47 74 48 75 49 76
REMARK SMILES IDX 73 77 74 78 82 79 75 80 77 81 83 82 76 83 78 84 79 85 80 86
REMARK SMILES IDX 81 87 58 88 59 89 67 90 60 91 62 92 68 93 61 94 63 95 64 96
REMARK SMILES IDX 65 97 66 98
REMARK H PARENT 24 6 29 32 88 51 56 62
REMARK Flexibility Score: inf
ROOT
ATOM      1  C   UNL A   1      35.092  23.390  23.788  1.00  0.00     0.023 C 
ENDROOT
BRANCH   1   2
ATOM      2  C   UNL A   1      33.907  22.608  23.224  1.00  0.00     0.116 C 
BRANCH   2   3
ATOM      3  N   UNL A   1      32.847  23.474  22.749  1.00  0.00    -0.355 N 
ATOM      4  O   UNL A   1      31.985  23.961  24.823  1.00  0.00    -0.274 OA
ATOM      5  C   UNL A   1      31.968  24.114  23.603  1.00  0.00     0.230 C 
ATOM      6  H   UNL A   1      32.748  23.613  21.780  1.00  0.00     0.163 HD
BRANCH   5   7
ATOM      7  C   UNL A   1      30.917  24.972  22.918  1.00  0.00     0.176 C 
BRANCH   7   8
ATOM      8  S   UNL A   1      29.715  25.645  24.103  1.00  0.00    -0.096 SA
BRANCH   8   9
ATOM      9  C   UNL A   1      30.228  27.353  24.113  1.00  0.00     0.101 A 
ATOM     10  C   UNL A   1      29.503  28.258  23.375  1.00  0.00     0.064 A 
ATOM     11  N   UNL A   1      31.255  27.698  24.905  1.00  0.00    -0.222 NA
ATOM     12  C   UNL A   1      29.892  29.578  23.466  1.00  0.00     0.075 A 
ATOM     13  C   UNL A   1      31.535  29.014  24.963  1.00  0.00     0.163 A 
ATOM     14  N   UNL A   1      30.917  29.971  24.248  1.00  0.00    -0.228 NA
BRANCH  12  15
ATOM     15  C   UNL A   1      29.184  30.630  22.727  1.00  0.00     0.000 A 
ATOM     16  C   UNL A   1      29.034  31.919  23.264  1.00  0.00     0.010 A 
ATOM     17  C   UNL A   1      28.665  30.384  21.443  1.00  0.00     0.010 A 
ATOM     18  C   UNL A   1      28.412  32.935  22.531  1.00  0.00     0.001 A 
ATOM     19  C   UNL A   1      28.036  31.395  20.713  1.00  0.00     0.001 A 
ATOM     20  C   UNL A   1      27.917  32.671  21.255  1.00  0.00     0.000 A 
ENDBRANCH  12  15
BRANCH  13  21
ATOM     21  C   UNL A   1      32.562  29.435  25.914  1.00  0.00     0.055 A 
ATOM     22  C   UNL A   1      32.385  30.565  26.733  1.00  0.00     0.015 A 
ATOM     23  C   UNL A   1      33.778  28.745  26.016  1.00  0.00     0.134 A 
ATOM     24  C   UNL A   1      33.386  30.976  27.622  1.00  0.00     0.001 A 
ATOM     25  C   UNL A   1      34.783  29.155  26.894  1.00  0.00     0.040 A 
ATOM     26  F   UNL A   1      34.027  27.681  25.238  1.00  0.00    -0.206 F 
ATOM     27  C   UNL A   1      34.586  30.273  27.700  1.00  0.00     0.003 A 
ENDBRANCH  13  21
ENDBRANCH   8   9
ENDBRANCH   7   8
ENDBRANCH   5   7
ENDBRANCH   2   3
ENDBRANCH   1   2
BRANCH   1  28
ATOM     28  C   UNL A   1      36.258  22.534  24.293  1.00  0.00     0.023 C 
BRANCH  28  29
ATOM     29  C   UNL A   1      37.124  23.170  25.378  1.00  0.00     0.116 C 
BRANCH  29  30
ATOM     30  N   UNL A   1      38.185  22.293  25.850  1.00  0.00    -0.352 N 
ATOM     31  C   UNL A   1      39.355  22.609  26.500  1.00  0.00     0.251 C 
ATOM     32  H   UNL A   1      38.044  21.333  25.681  1.00  0.00     0.163 HD
ATOM     33  O   UNL A   1      40.193  21.732  26.705  1.00  0.00    -0.269 OA
BRANCH  31  34
ATOM     34  C   UNL A   1      39.627  24.002  26.926  1.00  0.00     0.039 A 
ATOM     35  C   UNL A   1      39.334  24.374  28.241  1.00  0.00     0.014 A 
ATOM     36  C   UNL A   1      40.167  24.940  26.042  1.00  0.00     0.014 A 
ATOM     37  C   UNL A   1      39.651  25.661  28.688  1.00  0.00     0.010 A 
ATOM     38  C   UNL A   1      40.552  26.195  26.509  1.00  0.00     0.010 A 
ATOM     39  C   UNL A   1      40.300  26.571  27.838  1.00  0.00    -0.014 A 
BRANCH  39  40
ATOM     40  C   UNL A   1      40.743  27.905  28.326  1.00  0.00     0.031 A 
ATOM     41  C   UNL A   1      42.208  28.207  28.506  1.00  0.00     0.074 A 
ATOM     42  C   UNL A   1      39.823  28.820  28.694  1.00  0.00     0.049 A 
ATOM     43  N   UNL A   1      42.775  29.290  28.971  1.00  0.00    -0.248 NA
ATOM     44  C   UNL A   1      43.159  27.145  28.139  1.00  0.00     0.031 C 
ATOM     45  C   UNL A   1      38.372  28.629  28.640  1.00  0.00     0.029 A 
ATOM     46  N   UNL A   1      39.970  30.085  29.210  1.00  0.00    -0.354 N 
ATOM     47  C   UNL A   1      44.140  29.029  28.990  1.00  0.00     0.074 A 
ATOM     48  C   UNL A   1      44.315  27.672  28.517  1.00  0.00     0.031 C 
ATOM     49  C   UNL A   1      37.764  29.736  29.096  1.00  0.00     0.029 A 
ATOM     50  C   UNL A   1      38.777  30.702  29.509  1.00  0.00     0.049 A 
ATOM     51  H   UNL A   1      40.846  30.510  29.353  1.00  0.00     0.167 HD
ATOM     52  C   UNL A   1      45.159  29.848  29.345  1.00  0.00     0.034 A 
ATOM     53  C   UNL A   1      38.523  31.904  30.063  1.00  0.00     0.034 A 
ATOM     54  C   UNL A   1      44.988  31.209  29.778  1.00  0.00     0.049 A 
ATOM     55  C   UNL A   1      39.675  32.804  30.424  1.00  0.00     0.074 A 
ATOM     56  C   UNL A   1      45.964  32.146  30.069  1.00  0.00     0.029 A 
ATOM     57  N   UNL A   1      43.766  31.823  30.000  1.00  0.00    -0.354 N 
ATOM     58  N   UNL A   1      40.961  32.596  30.282  1.00  0.00    -0.248 NA
ATOM     59  C   UNL A   1      39.339  34.120  30.988  1.00  0.00     0.031 C 
ATOM     60  C   UNL A   1      45.331  33.317  30.501  1.00  0.00     0.029 A 
ATOM     61  C   UNL A   1      43.962  33.122  30.440  1.00  0.00     0.049 A 
ATOM     62  H   UNL A   1      42.888  31.400  29.865  1.00  0.00     0.167 HD
ATOM     63  C   UNL A   1      41.585  33.766  30.702  1.00  0.00     0.074 A 
ATOM     64  C   UNL A   1      40.535  34.686  31.084  1.00  0.00     0.031 C 
ATOM     65  C   UNL A   1      42.909  34.048  30.772  1.00  0.00     0.034 A 
BRANCH  52  66
ATOM     66  C   UNL A   1      46.564  29.307  29.245  1.00  0.00     0.023 A 
ATOM     67  C   UNL A   1      47.162  28.703  30.369  1.00  0.00     0.012 A 
ATOM     68  C   UNL A   1      47.265  29.339  28.024  1.00  0.00     0.148 A 
ATOM     69  C   UNL A   1      48.449  28.173  30.290  1.00  0.00     0.002 A 
ATOM     70  C   UNL A   1      48.528  28.766  27.940  1.00  0.00     0.091 A 
ATOM     71  F   UNL A   1      46.687  29.934  26.970  1.00  0.00    -0.205 F 
ATOM     72  C   UNL A   1      49.127  28.194  29.074  1.00  0.00     0.022 A 
BRANCH  70  73
ATOM     73  S   UNL A   1      49.448  28.668  26.400  1.00  0.00     0.127 S 
ATOM     74  O   UNL A   1      50.384  27.580  26.685  1.00  0.00    -0.237 OA
ATOM     75  O   UNL A   1      48.400  28.335  25.436  1.00  0.00    -0.237 OA
ATOM     76  O   UNL A   1      50.055  29.978  26.211  1.00  0.00    -0.744 OA
ENDBRANCH  70  73
ENDBRANCH  52  66
BRANCH  53  77
ATOM     77  C   UNL A   1      37.116  32.356  30.260  1.00  0.00     0.023 A 
ATOM     78  C   UNL A   1      36.450  32.043  31.460  1.00  0.00     0.012 A 
ATOM     79  C   UNL A   1      36.442  33.104  29.277  1.00  0.00     0.148 A 
ATOM     80  C   UNL A   1      35.126  32.434  31.664  1.00  0.00     0.002 A 
ATOM     81  C   UNL A   1      35.143  33.541  29.509  1.00  0.00     0.091 A 
ATOM     82  F   UNL A   1      37.089  33.384  28.136  1.00  0.00    -0.205 F 
ATOM     83  C   UNL A   1      34.477  33.190  30.693  1.00  0.00     0.022 A 
BRANCH  81  84
ATOM     84  S   UNL A   1      34.273  34.627  28.373  1.00  0.00     0.127 S 
ATOM     85  O   UNL A   1      32.881  34.406  28.753  1.00  0.00    -0.237 OA
ATOM     86  O   UNL A   1      34.813  35.938  28.739  1.00  0.00    -0.237 OA
ATOM     87  O   UNL A   1      34.643  34.178  27.037  1.00  0.00    -0.744 OA
ENDBRANCH  81  84
ENDBRANCH  53  77
BRANCH  65  88
ATOM     88  C   UNL A   1      43.310  35.424  31.238  1.00  0.00     0.023 A 
ATOM     89  C   UNL A   1      43.610  36.429  30.297  1.00  0.00     0.012 A 
ATOM     90  C   UNL A   1      43.320  35.739  32.612  1.00  0.00     0.148 A 
ATOM     91  C   UNL A   1      43.948  37.716  30.719  1.00  0.00     0.002 A 
ATOM     92  C   UNL A   1      43.604  37.036  33.021  1.00  0.00     0.091 A 
ATOM     93  F   UNL A   1      43.049  34.764  33.493  1.00  0.00    -0.205 F 
ATOM     94  C   UNL A   1      43.932  38.022  32.077  1.00  0.00     0.022 A 
BRANCH  92  95
ATOM     95  S   UNL A   1      43.511  37.547  34.741  1.00  0.00     0.127 S 
ATOM     96  O   UNL A   1      44.597  36.773  35.340  1.00  0.00    -0.237 OA
ATOM     97  O   UNL A   1      43.764  38.985  34.650  1.00  0.00    -0.237 OA
ATOM     98  O   UNL A   1      42.172  37.195  35.193  1.00  0.00    -0.744 OA
ENDBRANCH  92  95
ENDBRANCH  65  88
ENDBRANCH  39  40
ENDBRANCH  31  34
ENDBRANCH  29  30
ENDBRANCH  28  29
ENDBRANCH   1  28
TORSDOF 18
ENDMDL
