MODEL 1
REMARK VINA RESULT:     -11.8      0.000      0.000
REMARK SMILES C[C@H](C(=O)NCCCCNC(=O)c1ccc(-c2c3nc(c(-c4cccc(S(=O)(=O)[O-])c4F)c4ccc([nH]4)c(-c4cccc(S(=O)(=O)[O-])c4F)c4nc(c(-c5cccc(S(=O)(=O)[O-])c5F)c5ccc2[nH]5)C=C4)C=C3)cc1)[C@@H](C)Nc1cc(F)cc(F)c1F
REMARK SMILES IDX 7 1 6 2 5 3 3 4 4 5 2 7 1 8 76 9 77 10 78 11 79 13 80 14
REMARK SMILES IDX 86 15 81 16 84 17 87 18 82 19 83 20 85 21 8 22 9 23 10 24
REMARK SMILES IDX 11 25 12 27 13 28 14 29 75 30 15 31 74 32 16 33 17 34 18 35
REMARK SMILES IDX 68 36 19 37 73 38 67 39 69 40 20 41 72 42 66 43 65 44 21 46
REMARK SMILES IDX 53 47 33 48 52 49 34 50 37 51 51 52 70 53 35 54 36 55 50 57
REMARK SMILES IDX 71 58 38 59 22 60 23 61 31 62 24 63 26 64 32 65 25 66 27 67
REMARK SMILES IDX 28 68 29 69 30 70 54 71 55 72 63 73 56 74 58 75 64 76 57 77
REMARK SMILES IDX 59 78 60 79 61 80 62 81 39 82 40 83 48 84 41 85 43 86 49 87
REMARK SMILES IDX 42 88 44 89 45 90 46 91 47 92
REMARK H PARENT 5 6 78 12 10 26 69 45 37 56
REMARK Flexibility Score: inf
ROOT
ATOM      1  C   UNL A   1      31.777  28.684  27.445  1.00  0.00     0.023 C 
ENDROOT
BRANCH   1   2
ATOM      2  C   UNL A   1      32.391  27.417  26.860  1.00  0.00     0.116 C 
BRANCH   2   3
ATOM      3  N   UNL A   1      31.461  26.306  26.771  1.00  0.00    -0.356 N 
ATOM      4  C   UNL A   1      31.560  24.987  26.477  1.00  0.00     0.224 C 
ATOM      5  O   UNL A   1      30.572  24.314  26.815  1.00  0.00    -0.275 OA
ATOM      6  H   UNL A   1      30.537  26.575  26.975  1.00  0.00     0.163 HD
BRANCH   4   7
ATOM      7  C   UNL A   1      32.720  24.257  25.764  1.00  0.00     0.097 C 
ATOM      8  C   UNL A   1      33.039  23.039  26.658  1.00  0.00     0.020 C 
BRANCH   7   9
ATOM      9  C   UNL A   1      32.543  23.881  24.282  1.00  0.00     0.088 C 
ATOM     10  C   UNL A   1      31.959  22.462  24.155  1.00  0.00     0.031 C 
BRANCH   9  11
ATOM     11  N   UNL A   1      31.603  24.763  23.584  1.00  0.00    -0.379 N 
ATOM     12  H   UNL A   1      30.716  24.394  23.366  1.00  0.00     0.160 HD
BRANCH  11  13
ATOM     13  C   UNL A   1      31.859  26.072  23.205  1.00  0.00     0.077 A 
ATOM     14  C   UNL A   1      30.833  27.012  23.395  1.00  0.00     0.068 A 
ATOM     15  C   UNL A   1      33.083  26.560  22.710  1.00  0.00     0.182 A 
ATOM     16  C   UNL A   1      31.031  28.365  23.118  1.00  0.00     0.128 A 
ATOM     17  C   UNL A   1      33.267  27.919  22.443  1.00  0.00     0.163 A 
ATOM     18  F   UNL A   1      34.103  25.730  22.444  1.00  0.00    -0.201 F 
ATOM     19  F   UNL A   1      30.026  29.228  23.319  1.00  0.00    -0.207 F 
ATOM     20  C   UNL A   1      32.246  28.833  22.650  1.00  0.00     0.081 A 
ATOM     21  F   UNL A   1      34.445  28.355  21.977  1.00  0.00    -0.204 F 
ENDBRANCH  11  13
ENDBRANCH   9  11
ENDBRANCH   7   9
ENDBRANCH   4   7
ENDBRANCH   2   3
ENDBRANCH   1   2
BRANCH   1  22
ATOM     22  C   UNL A   1      31.419  29.765  26.429  1.00  0.00     0.023 C 
BRANCH  22  23
ATOM     23  C   UNL A   1      32.489  30.826  26.176  1.00  0.00     0.116 C 
BRANCH  23  24
ATOM     24  N   UNL A   1      32.248  32.099  26.852  1.00  0.00    -0.352 N 
ATOM     25  C   UNL A   1      33.109  32.824  27.645  1.00  0.00     0.251 C 
ATOM     26  H   UNL A   1      31.353  32.488  26.723  1.00  0.00     0.163 HD
ATOM     27  O   UNL A   1      32.749  33.872  28.174  1.00  0.00    -0.269 OA
BRANCH  25  28
ATOM     28  C   UNL A   1      34.459  32.285  27.893  1.00  0.00     0.039 A 
ATOM     29  C   UNL A   1      35.536  33.172  27.959  1.00  0.00     0.014 A 
ATOM     30  C   UNL A   1      34.624  30.934  28.203  1.00  0.00     0.014 A 
ATOM     31  C   UNL A   1      36.760  32.726  28.458  1.00  0.00     0.010 A 
ATOM     32  C   UNL A   1      35.822  30.509  28.766  1.00  0.00     0.010 A 
ATOM     33  C   UNL A   1      36.890  31.408  28.929  1.00  0.00    -0.014 A 
BRANCH  33  34
ATOM     34  C   UNL A   1      38.090  30.965  29.684  1.00  0.00     0.031 A 
ATOM     35  C   UNL A   1      39.014  29.936  29.098  1.00  0.00     0.074 A 
ATOM     36  C   UNL A   1      38.252  31.371  30.961  1.00  0.00     0.049 A 
ATOM     37  N   UNL A   1      40.023  29.324  29.659  1.00  0.00    -0.248 NA
ATOM     38  C   UNL A   1      38.749  29.512  27.713  1.00  0.00     0.031 C 
ATOM     39  C   UNL A   1      37.363  32.289  31.679  1.00  0.00     0.029 A 
ATOM     40  N   UNL A   1      39.193  31.025  31.900  1.00  0.00    -0.354 N 
ATOM     41  C   UNL A   1      40.478  28.407  28.721  1.00  0.00     0.074 A 
ATOM     42  C   UNL A   1      39.630  28.533  27.557  1.00  0.00     0.031 C 
ATOM     43  C   UNL A   1      37.790  32.419  32.945  1.00  0.00     0.029 A 
ATOM     44  C   UNL A   1      38.962  31.574  33.142  1.00  0.00     0.049 A 
ATOM     45  H   UNL A   1      39.960  30.441  31.704  1.00  0.00     0.167 HD
ATOM     46  C   UNL A   1      41.525  27.555  28.814  1.00  0.00     0.034 A 
ATOM     47  C   UNL A   1      39.606  31.400  34.313  1.00  0.00     0.034 A 
ATOM     48  C   UNL A   1      42.415  27.488  29.940  1.00  0.00     0.049 A 
ATOM     49  C   UNL A   1      40.806  30.495  34.361  1.00  0.00     0.074 A 
ATOM     50  C   UNL A   1      43.595  26.777  30.060  1.00  0.00     0.029 A 
ATOM     51  N   UNL A   1      42.218  28.147  31.142  1.00  0.00    -0.354 N 
ATOM     52  N   UNL A   1      41.353  29.799  33.394  1.00  0.00    -0.248 NA
ATOM     53  C   UNL A   1      41.498  30.369  35.654  1.00  0.00     0.031 C 
ATOM     54  C   UNL A   1      44.105  26.991  31.344  1.00  0.00     0.029 A 
ATOM     55  C   UNL A   1      43.244  27.841  32.019  1.00  0.00     0.049 A 
ATOM     56  H   UNL A   1      41.461  28.744  31.344  1.00  0.00     0.167 HD
ATOM     57  C   UNL A   1      42.461  29.175  33.953  1.00  0.00     0.074 A 
ATOM     58  C   UNL A   1      42.527  29.595  35.337  1.00  0.00     0.031 C 
ATOM     59  C   UNL A   1      43.332  28.310  33.377  1.00  0.00     0.034 A 
BRANCH  46  60
ATOM     60  C   UNL A   1      41.818  26.664  27.638  1.00  0.00     0.023 A 
ATOM     61  C   UNL A   1      42.551  27.177  26.549  1.00  0.00     0.012 A 
ATOM     62  C   UNL A   1      41.452  25.305  27.651  1.00  0.00     0.148 A 
ATOM     63  C   UNL A   1      42.901  26.354  25.481  1.00  0.00     0.002 A 
ATOM     64  C   UNL A   1      41.835  24.481  26.600  1.00  0.00     0.091 A 
ATOM     65  F   UNL A   1      40.736  24.846  28.688  1.00  0.00    -0.205 F 
ATOM     66  C   UNL A   1      42.554  25.005  25.512  1.00  0.00     0.022 A 
BRANCH  64  67
ATOM     67  S   UNL A   1      41.499  22.717  26.575  1.00  0.00     0.127 S 
ATOM     68  O   UNL A   1      42.125  22.281  27.823  1.00  0.00    -0.237 OA
ATOM     69  O   UNL A   1      40.036  22.682  26.583  1.00  0.00    -0.237 OA
ATOM     70  O   UNL A   1      42.113  22.207  25.358  1.00  0.00    -0.744 OA
ENDBRANCH  64  67
ENDBRANCH  46  60
BRANCH  47  71
ATOM     71  C   UNL A   1      39.159  32.136  35.531  1.00  0.00     0.023 A 
ATOM     72  C   UNL A   1      39.442  33.511  35.648  1.00  0.00     0.012 A 
ATOM     73  C   UNL A   1      38.445  31.494  36.560  1.00  0.00     0.148 A 
ATOM     74  C   UNL A   1      39.052  34.225  36.782  1.00  0.00     0.002 A 
ATOM     75  C   UNL A   1      38.013  32.223  37.663  1.00  0.00     0.091 A 
ATOM     76  F   UNL A   1      38.201  30.180  36.446  1.00  0.00    -0.205 F 
ATOM     77  C   UNL A   1      38.329  33.584  37.785  1.00  0.00     0.022 A 
BRANCH  75  78
ATOM     78  S   UNL A   1      36.959  31.490  38.921  1.00  0.00     0.127 S 
ATOM     79  O   UNL A   1      36.759  30.143  38.398  1.00  0.00    -0.237 OA
ATOM     80  O   UNL A   1      37.799  31.569  40.117  1.00  0.00    -0.237 OA
ATOM     81  O   UNL A   1      35.781  32.346  38.969  1.00  0.00    -0.744 OA
ENDBRANCH  75  78
ENDBRANCH  47  71
BRANCH  59  82
ATOM     82  C   UNL A   1      44.443  27.762  34.230  1.00  0.00     0.023 A 
ATOM     83  C   UNL A   1      45.616  28.522  34.407  1.00  0.00     0.012 A 
ATOM     84  C   UNL A   1      44.290  26.548  34.929  1.00  0.00     0.148 A 
ATOM     85  C   UNL A   1      46.628  28.072  35.252  1.00  0.00     0.002 A 
ATOM     86  C   UNL A   1      45.285  26.128  35.803  1.00  0.00     0.091 A 
ATOM     87  F   UNL A   1      43.173  25.833  34.731  1.00  0.00    -0.205 F 
ATOM     88  C   UNL A   1      46.459  26.884  35.960  1.00  0.00     0.022 A 
BRANCH  86  89
ATOM     89  S   UNL A   1      45.111  24.660  36.824  1.00  0.00     0.127 S 
ATOM     90  O   UNL A   1      46.431  24.573  37.447  1.00  0.00    -0.237 OA
ATOM     91  O   UNL A   1      44.031  25.040  37.736  1.00  0.00    -0.237 OA
ATOM     92  O   UNL A   1      44.777  23.575  35.913  1.00  0.00    -0.744 OA
ENDBRANCH  86  89
ENDBRANCH  59  82
ENDBRANCH  33  34
ENDBRANCH  25  28
ENDBRANCH  23  24
ENDBRANCH  22  23
ENDBRANCH   1  22
TORSDOF 17
ENDMDL
MODEL 2
REMARK VINA RESULT:     -11.8      5.346     10.316
REMARK SMILES C[C@H](C(=O)NCCCCNC(=O)c1ccc(-c2c3nc(c(-c4cccc(S(=O)(=O)[O-])c4F)c4ccc([nH]4)c(-c4cccc(S(=O)(=O)[O-])c4F)c4nc(c(-c5cccc(S(=O)(=O)[O-])c5F)c5ccc2[nH]5)C=C4)C=C3)cc1)[C@@H](C)Nc1cc(F)cc(F)c1F
REMARK SMILES IDX 7 1 6 2 5 3 3 4 4 5 2 7 1 8 76 9 77 10 78 11 79 13 80 14
REMARK SMILES IDX 86 15 81 16 84 17 87 18 82 19 83 20 85 21 8 22 9 23 10 24
REMARK SMILES IDX 11 25 12 27 13 28 14 29 75 30 15 31 74 32 16 33 17 34 18 35
REMARK SMILES IDX 68 36 19 37 73 38 67 39 69 40 20 41 72 42 66 43 65 44 21 46
REMARK SMILES IDX 53 47 33 48 52 49 34 50 37 51 51 52 70 53 35 54 36 55 50 57
REMARK SMILES IDX 71 58 38 59 22 60 23 61 31 62 24 63 26 64 32 65 25 66 27 67
REMARK SMILES IDX 28 68 29 69 30 70 54 71 55 72 63 73 56 74 58 75 64 76 57 77
REMARK SMILES IDX 59 78 60 79 61 80 62 81 39 82 40 83 48 84 41 85 43 86 49 87
REMARK SMILES IDX 42 88 44 89 45 90 46 91 47 92
REMARK H PARENT 5 6 78 12 10 26 69 45 37 56
REMARK Flexibility Score: inf
ROOT
ATOM      1  C   UNL A   1      35.679  23.031  26.187  1.00  0.00     0.023 C 
ENDROOT
BRANCH   1   2
ATOM      2  C   UNL A   1      34.538  23.601  25.352  1.00  0.00     0.116 C 
BRANCH   2   3
ATOM      3  N   UNL A   1      33.445  24.135  26.144  1.00  0.00    -0.356 N 
ATOM      4  C   UNL A   1      32.232  24.674  25.874  1.00  0.00     0.224 C 
ATOM      5  O   UNL A   1      31.467  24.723  26.852  1.00  0.00    -0.275 OA
ATOM      6  H   UNL A   1      33.630  24.095  27.110  1.00  0.00     0.163 HD
BRANCH   4   7
ATOM      7  C   UNL A   1      31.723  25.243  24.531  1.00  0.00     0.097 C 
ATOM      8  C   UNL A   1      30.671  24.226  24.036  1.00  0.00     0.020 C 
BRANCH   7   9
ATOM      9  C   UNL A   1      31.212  26.695  24.500  1.00  0.00     0.088 C 
ATOM     10  C   UNL A   1      32.354  27.673  24.834  1.00  0.00     0.031 C 
BRANCH   9  11
ATOM     11  N   UNL A   1      30.722  27.093  23.177  1.00  0.00    -0.379 N 
ATOM     12  H   UNL A   1      31.131  26.656  22.394  1.00  0.00     0.160 HD
BRANCH  11  13
ATOM     13  C   UNL A   1      29.732  28.033  22.936  1.00  0.00     0.077 A 
ATOM     14  C   UNL A   1      28.427  27.717  23.350  1.00  0.00     0.068 A 
ATOM     15  C   UNL A   1      29.928  29.308  22.375  1.00  0.00     0.182 A 
ATOM     16  C   UNL A   1      27.385  28.637  23.222  1.00  0.00     0.128 A 
ATOM     17  C   UNL A   1      28.876  30.219  22.259  1.00  0.00     0.163 A 
ATOM     18  F   UNL A   1      31.128  29.680  21.900  1.00  0.00    -0.201 F 
ATOM     19  F   UNL A   1      26.157  28.295  23.635  1.00  0.00    -0.207 F 
ATOM     20  C   UNL A   1      27.598  29.894  22.686  1.00  0.00     0.081 A 
ATOM     21  F   UNL A   1      29.094  31.429  21.725  1.00  0.00    -0.204 F 
ENDBRANCH  11  13
ENDBRANCH   9  11
ENDBRANCH   7   9
ENDBRANCH   4   7
ENDBRANCH   2   3
ENDBRANCH   1   2
BRANCH   1  22
ATOM     22  C   UNL A   1      36.185  21.659  25.750  1.00  0.00     0.023 C 
BRANCH  22  23
ATOM     23  C   UNL A   1      37.412  21.656  24.840  1.00  0.00     0.116 C 
BRANCH  23  24
ATOM     24  N   UNL A   1      38.368  20.587  25.121  1.00  0.00    -0.352 N 
ATOM     25  C   UNL A   1      39.464  20.615  25.954  1.00  0.00     0.251 C 
ATOM     26  H   UNL A   1      38.207  19.736  24.653  1.00  0.00     0.163 HD
ATOM     27  O   UNL A   1      40.198  19.637  26.065  1.00  0.00    -0.269 OA
BRANCH  25  28
ATOM     28  C   UNL A   1      39.771  21.868  26.670  1.00  0.00     0.039 A 
ATOM     29  C   UNL A   1      40.700  21.836  27.712  1.00  0.00     0.014 A 
ATOM     30  C   UNL A   1      39.251  23.079  26.210  1.00  0.00     0.014 A 
ATOM     31  C   UNL A   1      41.205  23.035  28.215  1.00  0.00     0.010 A 
ATOM     32  C   UNL A   1      39.807  24.270  26.662  1.00  0.00     0.010 A 
ATOM     33  C   UNL A   1      40.813  24.258  27.645  1.00  0.00    -0.014 A 
BRANCH  33  34
ATOM     34  C   UNL A   1      41.499  25.532  27.980  1.00  0.00     0.031 A 
ATOM     35  C   UNL A   1      40.747  26.639  28.662  1.00  0.00     0.074 A 
ATOM     36  C   UNL A   1      42.751  25.745  27.524  1.00  0.00     0.049 A 
ATOM     37  N   UNL A   1      41.131  27.864  28.906  1.00  0.00    -0.248 NA
ATOM     38  C   UNL A   1      39.371  26.343  29.095  1.00  0.00     0.031 C 
ATOM     39  C   UNL A   1      43.550  24.786  26.757  1.00  0.00     0.029 A 
ATOM     40  N   UNL A   1      43.554  26.858  27.594  1.00  0.00    -0.354 N 
ATOM     41  C   UNL A   1      40.033  28.500  29.468  1.00  0.00     0.074 A 
ATOM     42  C   UNL A   1      38.961  27.531  29.520  1.00  0.00     0.031 C 
ATOM     43  C   UNL A   1      44.717  25.354  26.415  1.00  0.00     0.029 A 
ATOM     44  C   UNL A   1      44.742  26.727  26.907  1.00  0.00     0.049 A 
ATOM     45  H   UNL A   1      43.305  27.672  28.088  1.00  0.00     0.167 HD
ATOM     46  C   UNL A   1      39.935  29.771  29.922  1.00  0.00     0.034 A 
ATOM     47  C   UNL A   1      45.728  27.617  26.680  1.00  0.00     0.034 A 
ATOM     48  C   UNL A   1      41.025  30.708  29.942  1.00  0.00     0.049 A 
ATOM     49  C   UNL A   1      45.613  29.001  27.257  1.00  0.00     0.074 A 
ATOM     50  C   UNL A   1      41.069  31.959  30.530  1.00  0.00     0.029 A 
ATOM     51  N   UNL A   1      42.255  30.500  29.341  1.00  0.00    -0.354 N 
ATOM     52  N   UNL A   1      44.647  29.514  27.979  1.00  0.00    -0.248 NA
ATOM     53  C   UNL A   1      46.734  29.922  27.014  1.00  0.00     0.031 C 
ATOM     54  C   UNL A   1      42.323  32.519  30.268  1.00  0.00     0.029 A 
ATOM     55  C   UNL A   1      43.060  31.612  29.523  1.00  0.00     0.049 A 
ATOM     56  H   UNL A   1      42.518  29.685  28.856  1.00  0.00     0.167 HD
ATOM     57  C   UNL A   1      45.053  30.805  28.295  1.00  0.00     0.074 A 
ATOM     58  C   UNL A   1      46.365  30.988  27.711  1.00  0.00     0.031 C 
ATOM     59  C   UNL A   1      44.387  31.762  28.986  1.00  0.00     0.034 A 
BRANCH  46  60
ATOM     60  C   UNL A   1      38.621  30.215  30.503  1.00  0.00     0.023 A 
ATOM     61  C   UNL A   1      38.372  30.019  31.877  1.00  0.00     0.012 A 
ATOM     62  C   UNL A   1      37.678  30.904  29.717  1.00  0.00     0.148 A 
ATOM     63  C   UNL A   1      37.195  30.488  32.457  1.00  0.00     0.002 A 
ATOM     64  C   UNL A   1      36.523  31.401  30.310  1.00  0.00     0.091 A 
ATOM     65  F   UNL A   1      37.928  31.059  28.409  1.00  0.00    -0.205 F 
ATOM     66  C   UNL A   1      36.278  31.189  31.677  1.00  0.00     0.022 A 
BRANCH  64  67
ATOM     67  S   UNL A   1      35.311  32.375  29.410  1.00  0.00     0.127 S 
ATOM     68  O   UNL A   1      34.386  32.751  30.479  1.00  0.00    -0.237 OA
ATOM     69  O   UNL A   1      36.124  33.475  28.892  1.00  0.00    -0.237 OA
ATOM     70  O   UNL A   1      34.761  31.492  28.392  1.00  0.00    -0.744 OA
ENDBRANCH  64  67
ENDBRANCH  46  60
BRANCH  47  71
ATOM     71  C   UNL A   1      46.937  27.212  25.907  1.00  0.00     0.023 A 
ATOM     72  C   UNL A   1      47.903  26.390  26.518  1.00  0.00     0.012 A 
ATOM     73  C   UNL A   1      47.130  27.620  24.573  1.00  0.00     0.148 A 
ATOM     74  C   UNL A   1      49.054  26.008  25.828  1.00  0.00     0.002 A 
ATOM     75  C   UNL A   1      48.253  27.192  23.873  1.00  0.00     0.091 A 
ATOM     76  F   UNL A   1      46.214  28.422  24.011  1.00  0.00    -0.205 F 
ATOM     77  C   UNL A   1      49.225  26.400  24.503  1.00  0.00     0.022 A 
BRANCH  75  78
ATOM     78  S   UNL A   1      48.463  27.547  22.124  1.00  0.00     0.127 S 
ATOM     79  O   UNL A   1      48.685  26.215  21.571  1.00  0.00    -0.237 OA
ATOM     80  O   UNL A   1      47.178  28.154  21.773  1.00  0.00    -0.237 OA
ATOM     81  O   UNL A   1      49.589  28.469  22.060  1.00  0.00    -0.744 OA
ENDBRANCH  75  78
ENDBRANCH  47  71
BRANCH  59  82
ATOM     82  C   UNL A   1      45.060  33.095  29.165  1.00  0.00     0.023 A 
ATOM     83  C   UNL A   1      45.842  33.325  30.315  1.00  0.00     0.012 A 
ATOM     84  C   UNL A   1      44.999  34.079  28.159  1.00  0.00     0.148 A 
ATOM     85  C   UNL A   1      46.538  34.522  30.469  1.00  0.00     0.002 A 
ATOM     86  C   UNL A   1      45.731  35.253  28.300  1.00  0.00     0.091 A 
ATOM     87  F   UNL A   1      44.235  33.848  27.082  1.00  0.00    -0.205 F 
ATOM     88  C   UNL A   1      46.493  35.480  29.458  1.00  0.00     0.022 A 
BRANCH  86  89
ATOM     89  S   UNL A   1      45.806  36.500  27.009  1.00  0.00     0.127 S 
ATOM     90  O   UNL A   1      44.434  37.003  27.000  1.00  0.00    -0.237 OA
ATOM     91  O   UNL A   1      46.796  37.439  27.540  1.00  0.00    -0.237 OA
ATOM     92  O   UNL A   1      46.224  35.802  25.802  1.00  0.00    -0.744 OA
ENDBRANCH  86  89
ENDBRANCH  59  82
ENDBRANCH  33  34
ENDBRANCH  25  28
ENDBRANCH  23  24
ENDBRANCH  22  23
ENDBRANCH   1  22
TORSDOF 17
ENDMDL
MODEL 3
REMARK VINA RESULT:     -11.7      1.933      7.907
REMARK SMILES C[C@H](C(=O)NCCCCNC(=O)c1ccc(-c2c3nc(c(-c4cccc(S(=O)(=O)[O-])c4F)c4ccc([nH]4)c(-c4cccc(S(=O)(=O)[O-])c4F)c4nc(c(-c5cccc(S(=O)(=O)[O-])c5F)c5ccc2[nH]5)C=C4)C=C3)cc1)[C@@H](C)Nc1cc(F)cc(F)c1F
REMARK SMILES IDX 7 1 6 2 5 3 3 4 4 5 2 7 1 8 76 9 77 10 78 11 79 13 80 14
REMARK SMILES IDX 86 15 81 16 84 17 87 18 82 19 83 20 85 21 8 22 9 23 10 24
REMARK SMILES IDX 11 25 12 27 13 28 14 29 75 30 15 31 74 32 16 33 17 34 18 35
REMARK SMILES IDX 68 36 19 37 73 38 67 39 69 40 20 41 72 42 66 43 65 44 21 46
REMARK SMILES IDX 53 47 33 48 52 49 34 50 37 51 51 52 70 53 35 54 36 55 50 57
REMARK SMILES IDX 71 58 38 59 22 60 23 61 31 62 24 63 26 64 32 65 25 66 27 67
REMARK SMILES IDX 28 68 29 69 30 70 54 71 55 72 63 73 56 74 58 75 64 76 57 77
REMARK SMILES IDX 59 78 60 79 61 80 62 81 39 82 40 83 48 84 41 85 43 86 49 87
REMARK SMILES IDX 42 88 44 89 45 90 46 91 47 92
REMARK H PARENT 5 6 78 12 10 26 69 45 37 56
REMARK Flexibility Score: inf
ROOT
ATOM      1  C   UNL A   1      32.349  27.637  26.808  1.00  0.00     0.023 C 
ENDROOT
BRANCH   1   2
ATOM      2  C   UNL A   1      33.451  27.315  25.805  1.00  0.00     0.116 C 
BRANCH   2   3
ATOM      3  N   UNL A   1      33.550  25.905  25.478  1.00  0.00    -0.356 N 
ATOM      4  C   UNL A   1      33.423  25.164  24.351  1.00  0.00     0.224 C 
ATOM      5  O   UNL A   1      33.890  24.017  24.439  1.00  0.00    -0.275 OA
ATOM      6  H   UNL A   1      33.760  25.353  26.266  1.00  0.00     0.163 HD
BRANCH   4   7
ATOM      7  C   UNL A   1      32.756  25.571  23.018  1.00  0.00     0.097 C 
ATOM      8  C   UNL A   1      33.403  24.661  21.950  1.00  0.00     0.020 C 
BRANCH   7   9
ATOM      9  C   UNL A   1      31.218  25.579  22.944  1.00  0.00     0.088 C 
ATOM     10  C   UNL A   1      30.653  24.220  23.397  1.00  0.00     0.031 C 
BRANCH   9  11
ATOM     11  N   UNL A   1      30.616  26.576  23.834  1.00  0.00    -0.379 N 
ATOM     12  H   UNL A   1      30.871  26.546  24.785  1.00  0.00     0.160 HD
BRANCH  11  13
ATOM     13  C   UNL A   1      29.716  27.559  23.447  1.00  0.00     0.077 A 
ATOM     14  C   UNL A   1      30.233  28.679  22.775  1.00  0.00     0.068 A 
ATOM     15  C   UNL A   1      28.319  27.502  23.604  1.00  0.00     0.182 A 
ATOM     16  C   UNL A   1      29.392  29.676  22.278  1.00  0.00     0.128 A 
ATOM     17  C   UNL A   1      27.491  28.506  23.096  1.00  0.00     0.163 A 
ATOM     18  F   UNL A   1      27.738  26.499  24.280  1.00  0.00    -0.201 F 
ATOM     19  F   UNL A   1      29.928  30.726  21.640  1.00  0.00    -0.207 F 
ATOM     20  C   UNL A   1      28.019  29.597  22.425  1.00  0.00     0.081 A 
ATOM     21  F   UNL A   1      26.163  28.422  23.258  1.00  0.00    -0.204 F 
ENDBRANCH  11  13
ENDBRANCH   9  11
ENDBRANCH   7   9
ENDBRANCH   4   7
ENDBRANCH   2   3
ENDBRANCH   1   2
BRANCH   1  22
ATOM     22  C   UNL A   1      31.745  29.034  26.690  1.00  0.00     0.023 C 
BRANCH  22  23
ATOM     23  C   UNL A   1      32.648  30.104  26.079  1.00  0.00     0.116 C 
BRANCH  23  24
ATOM     24  N   UNL A   1      32.482  31.435  26.658  1.00  0.00    -0.352 N 
ATOM     25  C   UNL A   1      33.362  32.142  27.447  1.00  0.00     0.251 C 
ATOM     26  H   UNL A   1      31.630  31.885  26.457  1.00  0.00     0.163 HD
ATOM     27  O   UNL A   1      33.066  33.249  27.887  1.00  0.00    -0.269 OA
BRANCH  25  28
ATOM     28  C   UNL A   1      34.649  31.514  27.800  1.00  0.00     0.039 A 
ATOM     29  C   UNL A   1      35.751  32.336  28.050  1.00  0.00     0.014 A 
ATOM     30  C   UNL A   1      34.715  30.138  28.025  1.00  0.00     0.014 A 
ATOM     31  C   UNL A   1      36.889  31.790  28.645  1.00  0.00     0.010 A 
ATOM     32  C   UNL A   1      35.822  29.612  28.682  1.00  0.00     0.010 A 
ATOM     33  C   UNL A   1      36.904  30.438  29.028  1.00  0.00    -0.014 A 
BRANCH  33  34
ATOM     34  C   UNL A   1      37.989  29.879  29.875  1.00  0.00     0.031 A 
ATOM     35  C   UNL A   1      38.191  30.384  31.275  1.00  0.00     0.074 A 
ATOM     36  C   UNL A   1      38.886  29.035  29.324  1.00  0.00     0.049 A 
ATOM     37  N   UNL A   1      39.162  30.124  32.111  1.00  0.00    -0.248 NA
ATOM     38  C   UNL A   1      37.192  31.334  31.793  1.00  0.00     0.031 C 
ATOM     39  C   UNL A   1      38.858  28.552  27.941  1.00  0.00     0.029 A 
ATOM     40  N   UNL A   1      40.028  28.474  29.844  1.00  0.00    -0.354 N 
ATOM     41  C   UNL A   1      38.924  30.915  33.226  1.00  0.00     0.074 A 
ATOM     42  C   UNL A   1      37.722  31.674  32.960  1.00  0.00     0.031 C 
ATOM     43  C   UNL A   1      39.937  27.784  27.719  1.00  0.00     0.029 A 
ATOM     44  C   UNL A   1      40.751  27.742  28.928  1.00  0.00     0.049 A 
ATOM     45  H   UNL A   1      40.303  28.585  30.783  1.00  0.00     0.167 HD
ATOM     46  C   UNL A   1      39.630  30.982  34.378  1.00  0.00     0.034 A 
ATOM     47  C   UNL A   1      41.944  27.127  29.041  1.00  0.00     0.034 A 
ATOM     48  C   UNL A   1      40.777  30.168  34.672  1.00  0.00     0.049 A 
ATOM     49  C   UNL A   1      42.669  27.169  30.359  1.00  0.00     0.074 A 
ATOM     50  C   UNL A   1      41.459  30.046  35.869  1.00  0.00     0.029 A 
ATOM     51  N   UNL A   1      41.416  29.347  33.758  1.00  0.00    -0.354 N 
ATOM     52  N   UNL A   1      42.310  27.751  31.477  1.00  0.00    -0.248 NA
ATOM     53  C   UNL A   1      43.948  26.448  30.442  1.00  0.00     0.031 C 
ATOM     54  C   UNL A   1      42.526  29.164  35.675  1.00  0.00     0.029 A 
ATOM     55  C   UNL A   1      42.502  28.732  34.359  1.00  0.00     0.049 A 
ATOM     56  H   UNL A   1      41.142  29.220  32.821  1.00  0.00     0.167 HD
ATOM     57  C   UNL A   1      43.304  27.448  32.399  1.00  0.00     0.074 A 
ATOM     58  C   UNL A   1      44.267  26.607  31.719  1.00  0.00     0.031 C 
ATOM     59  C   UNL A   1      43.421  27.851  33.688  1.00  0.00     0.034 A 
BRANCH  46  60
ATOM     60  C   UNL A   1      39.148  31.922  35.449  1.00  0.00     0.023 A 
ATOM     61  C   UNL A   1      38.214  31.464  36.401  1.00  0.00     0.012 A 
ATOM     62  C   UNL A   1      39.683  33.219  35.568  1.00  0.00     0.148 A 
ATOM     63  C   UNL A   1      37.808  32.290  37.447  1.00  0.00     0.002 A 
ATOM     64  C   UNL A   1      39.300  34.023  36.634  1.00  0.00     0.091 A 
ATOM     65  F   UNL A   1      40.552  33.639  34.638  1.00  0.00    -0.205 F 
ATOM     66  C   UNL A   1      38.360  33.563  37.571  1.00  0.00     0.022 A 
BRANCH  64  67
ATOM     67  S   UNL A   1      40.001  35.652  36.923  1.00  0.00     0.127 S 
ATOM     68  O   UNL A   1      39.339  36.039  38.169  1.00  0.00    -0.237 OA
ATOM     69  O   UNL A   1      41.427  35.354  37.059  1.00  0.00    -0.237 OA
ATOM     70  O   UNL A   1      39.654  36.452  35.758  1.00  0.00    -0.744 OA
ENDBRANCH  64  67
ENDBRANCH  46  60
BRANCH  47  71
ATOM     71  C   UNL A   1      42.511  26.374  27.885  1.00  0.00     0.023 A 
ATOM     72  C   UNL A   1      43.473  26.993  27.064  1.00  0.00     0.012 A 
ATOM     73  C   UNL A   1      42.118  25.051  27.603  1.00  0.00     0.148 A 
ATOM     74  C   UNL A   1      44.009  26.321  25.965  1.00  0.00     0.002 A 
ATOM     75  C   UNL A   1      42.697  24.369  26.538  1.00  0.00     0.091 A 
ATOM     76  F   UNL A   1      41.185  24.482  28.380  1.00  0.00    -0.205 F 
ATOM     77  C   UNL A   1      43.630  25.007  25.707  1.00  0.00     0.022 A 
BRANCH  75  78
ATOM     78  S   UNL A   1      42.354  22.630  26.237  1.00  0.00     0.127 S 
ATOM     79  O   UNL A   1      42.931  22.001  27.421  1.00  0.00    -0.237 OA
ATOM     80  O   UNL A   1      40.892  22.606  26.176  1.00  0.00    -0.237 OA
ATOM     81  O   UNL A   1      43.004  22.334  24.967  1.00  0.00    -0.744 OA
ENDBRANCH  75  78
ENDBRANCH  47  71
BRANCH  59  82
ATOM     82  C   UNL A   1      44.625  27.386  34.462  1.00  0.00     0.023 A 
ATOM     83  C   UNL A   1      45.768  28.208  34.520  1.00  0.00     0.012 A 
ATOM     84  C   UNL A   1      44.592  26.190  35.205  1.00  0.00     0.148 A 
ATOM     85  C   UNL A   1      46.867  27.837  35.291  1.00  0.00     0.002 A 
ATOM     86  C   UNL A   1      45.675  25.848  36.005  1.00  0.00     0.091 A 
ATOM     87  F   UNL A   1      43.502  25.414  35.120  1.00  0.00    -0.205 F 
ATOM     88  C   UNL A   1      46.817  26.665  36.043  1.00  0.00     0.022 A 
BRANCH  86  89
ATOM     89  S   UNL A   1      45.661  24.407  37.078  1.00  0.00     0.127 S 
ATOM     90  O   UNL A   1      47.056  24.344  37.511  1.00  0.00    -0.237 OA
ATOM     91  O   UNL A   1      44.716  24.804  38.122  1.00  0.00    -0.237 OA
ATOM     92  O   UNL A   1      45.213  23.295  36.250  1.00  0.00    -0.744 OA
ENDBRANCH  86  89
ENDBRANCH  59  82
ENDBRANCH  33  34
ENDBRANCH  25  28
ENDBRANCH  23  24
ENDBRANCH  22  23
ENDBRANCH   1  22
TORSDOF 17
ENDMDL
