MODEL 1
REMARK VINA RESULT:     -11.4      0.000      0.000
REMARK SMILES C[C@@H](CCC(=O)NCCCCNC(=O)c1ccc(-c2c3nc(c(-c4cccc(S(=O)(=O)[O-])c4F)c4ccc([nH]4)c(-c4cccc(S(=O)(=O)[O-])c4F)c4nc(c(-c5cccc(S(=O)(=O)[O-])c5F)c5ccc2[nH]5)C=C4)C=C3)cc1)[C@H]1CC[C@H]2[C@@H]3[C@H](O)C[C@H]4C[C@@H](O)CC[C@@]4(C)[C@H]3CC[C@]12C
REMARK SMILES IDX 9 1 8 2 7 3 5 4 6 5 4 7 3 8 2 9 1 10 78 11 79 12 97 13 80 14
REMARK SMILES IDX 81 15 96 16 98 17 82 18 95 19 83 20 94 21 85 22 92 23 86 24
REMARK SMILES IDX 91 25 93 26 87 27 90 28 88 29 84 30 89 32 10 34 11 35 12 36
REMARK SMILES IDX 13 37 14 39 15 40 16 41 77 42 17 43 76 44 18 45 19 46 20 47
REMARK SMILES IDX 70 48 21 49 75 50 69 51 71 52 22 53 74 54 68 55 67 56 23 58
REMARK SMILES IDX 55 59 35 60 54 61 36 62 39 63 53 64 72 65 37 66 38 67 52 69
REMARK SMILES IDX 73 70 40 71 24 72 25 73 33 74 26 75 28 76 34 77 27 78 29 79
REMARK SMILES IDX 30 80 31 81 32 82 56 83 57 84 65 85 58 86 60 87 66 88 59 89
REMARK SMILES IDX 61 90 62 91 63 92 64 93 41 94 42 95 50 96 43 97 45 98 51 99
REMARK SMILES IDX 44 100 46 101 47 102 48 103 49 104
REMARK H PARENT 7 6 84 31 89 33 12 38 71 57 39 68
REMARK Flexibility Score: inf
ROOT
ATOM      1  C   UNL A   1      37.825  34.114  31.611  1.00  0.00     0.023 C 
ENDROOT
BRANCH   1   2
ATOM      2  C   UNL A   1      37.958  34.192  29.870  1.00  0.00     0.116 C 
BRANCH   2   3
ATOM      3  N   UNL A   1      37.051  33.765  28.756  1.00  0.00    -0.356 N 
ATOM      4  C   UNL A   1      36.233  32.730  28.391  1.00  0.00     0.220 C 
ATOM      5  O   UNL A   1      35.451  32.875  27.447  1.00  0.00    -0.275 OA
ATOM      6  H   UNL A   1      37.041  34.456  28.055  1.00  0.00     0.163 HD
BRANCH   4   7
ATOM      7  C   UNL A   1      36.373  31.387  28.997  1.00  0.00     0.100 C 
BRANCH   7   8
ATOM      8  C   UNL A   1      36.977  30.517  27.908  1.00  0.00     0.013 C 
BRANCH   8   9
ATOM      9  C   UNL A   1      37.498  29.144  28.429  1.00  0.00    -0.010 C 
ATOM     10  C   UNL A   1      36.788  29.037  29.845  1.00  0.00     0.008 C 
BRANCH   9  11
ATOM     11  C   UNL A   1      39.081  28.492  27.919  1.00  0.00    -0.002 C 
ATOM     12  C   UNL A   1      39.968  29.672  27.427  1.00  0.00     0.005 C 
ATOM     13  C   UNL A   1      40.396  27.404  28.344  1.00  0.00    -0.026 C 
ATOM     14  C   UNL A   1      41.334  29.082  26.907  1.00  0.00     0.005 C 
ATOM     15  C   UNL A   1      41.238  27.539  27.011  1.00  0.00     0.001 C 
ATOM     16  C   UNL A   1      40.191  25.884  28.551  1.00  0.00     0.007 C 
ATOM     17  C   UNL A   1      41.379  27.872  29.476  1.00  0.00     0.012 C 
ATOM     18  C   UNL A   1      42.491  26.488  26.871  1.00  0.00     0.025 C 
ATOM     19  C   UNL A   1      41.420  24.988  28.571  1.00  0.00     0.005 C 
ATOM     20  C   UNL A   1      43.270  26.541  25.539  1.00  0.00     0.118 C 
ATOM     21  C   UNL A   1      42.003  25.019  27.183  1.00  0.00     0.001 C 
ATOM     22  C   UNL A   1      43.744  25.194  24.918  1.00  0.00     0.036 C 
ATOM     23  C   UNL A   1      42.851  23.756  26.782  1.00  0.00    -0.026 C 
ATOM     24  C   UNL A   1      42.933  23.911  25.255  1.00  0.00     0.000 C 
ATOM     25  C   UNL A   1      44.281  23.611  27.343  1.00  0.00     0.010 C 
ATOM     26  C   UNL A   1      42.094  22.450  27.201  1.00  0.00     0.012 C 
ATOM     27  C   UNL A   1      43.462  22.632  24.607  1.00  0.00     0.036 C 
ATOM     28  C   UNL A   1      45.247  22.721  26.497  1.00  0.00     0.032 C 
ATOM     29  C   UNL A   1      44.879  22.325  25.046  1.00  0.00     0.114 C 
BRANCH  20  30
ATOM     30  O   UNL A   1      42.532  27.275  24.579  1.00  0.00    -0.393 OA
ATOM     31  H   UNL A   1      41.789  26.738  24.262  1.00  0.00     0.210 HD
ENDBRANCH  20  30
BRANCH  29  32
ATOM     32  O   UNL A   1      45.767  22.989  24.144  1.00  0.00    -0.393 OA
ATOM     33  H   UNL A   1      45.608  23.946  24.181  1.00  0.00     0.210 HD
ENDBRANCH  29  32
ENDBRANCH   9  11
ENDBRANCH   8   9
ENDBRANCH   7   8
ENDBRANCH   4   7
ENDBRANCH   2   3
ENDBRANCH   1   2
BRANCH   1  34
ATOM     34  C   UNL A   1      37.219  33.193  32.887  1.00  0.00     0.023 C 
BRANCH  34  35
ATOM     35  C   UNL A   1      36.501  31.721  32.949  1.00  0.00     0.116 C 
BRANCH  35  36
ATOM     36  N   UNL A   1      37.299  30.542  33.337  1.00  0.00    -0.352 N 
ATOM     37  C   UNL A   1      38.594  30.069  33.068  1.00  0.00     0.251 C 
ATOM     38  H   UNL A   1      36.800  29.936  33.932  1.00  0.00     0.163 HD
ATOM     39  O   UNL A   1      38.856  28.966  33.568  1.00  0.00    -0.269 OA
BRANCH  37  40
ATOM     40  C   UNL A   1      39.724  30.728  32.290  1.00  0.00     0.039 A 
ATOM     41  C   UNL A   1      39.602  30.927  30.892  1.00  0.00     0.014 A 
ATOM     42  C   UNL A   1      40.965  31.033  32.820  1.00  0.00     0.014 A 
ATOM     43  C   UNL A   1      40.680  31.390  30.077  1.00  0.00     0.010 A 
ATOM     44  C   UNL A   1      42.051  31.473  32.006  1.00  0.00     0.010 A 
ATOM     45  C   UNL A   1      41.943  31.648  30.625  1.00  0.00    -0.014 A 
BRANCH  45  46
ATOM     46  C   UNL A   1      43.051  32.327  29.862  1.00  0.00     0.031 A 
ATOM     47  C   UNL A   1      43.037  33.779  29.420  1.00  0.00     0.074 A 
ATOM     48  C   UNL A   1      44.053  31.547  29.409  1.00  0.00     0.049 A 
ATOM     49  N   UNL A   1      43.997  34.489  28.868  1.00  0.00    -0.248 NA
ATOM     50  C   UNL A   1      41.784  34.523  29.587  1.00  0.00     0.031 C 
ATOM     51  C   UNL A   1      44.111  30.096  29.587  1.00  0.00     0.029 A 
ATOM     52  N   UNL A   1      45.180  31.839  28.681  1.00  0.00    -0.354 N 
ATOM     53  C   UNL A   1      43.473  35.762  28.634  1.00  0.00     0.074 A 
ATOM     54  C   UNL A   1      42.092  35.713  29.076  1.00  0.00     0.031 C 
ATOM     55  C   UNL A   1      45.210  29.623  28.983  1.00  0.00     0.029 A 
ATOM     56  C   UNL A   1      45.945  30.734  28.387  1.00  0.00     0.049 A 
ATOM     57  H   UNL A   1      45.418  32.751  28.396  1.00  0.00     0.167 HD
ATOM     58  C   UNL A   1      44.083  36.866  28.118  1.00  0.00     0.034 A 
ATOM     59  C   UNL A   1      47.116  30.616  27.732  1.00  0.00     0.034 A 
ATOM     60  C   UNL A   1      45.446  36.886  27.633  1.00  0.00     0.049 A 
ATOM     61  C   UNL A   1      47.818  31.854  27.252  1.00  0.00     0.074 A 
ATOM     62  C   UNL A   1      46.202  37.969  27.207  1.00  0.00     0.029 A 
ATOM     63  N   UNL A   1      46.244  35.763  27.464  1.00  0.00    -0.354 N 
ATOM     64  N   UNL A   1      47.419  33.101  27.306  1.00  0.00    -0.248 NA
ATOM     65  C   UNL A   1      49.159  31.676  26.675  1.00  0.00     0.031 C 
ATOM     66  C   UNL A   1      47.435  37.494  26.744  1.00  0.00     0.029 A 
ATOM     67  C   UNL A   1      47.469  36.121  26.923  1.00  0.00     0.049 A 
ATOM     68  H   UNL A   1      45.977  34.844  27.695  1.00  0.00     0.167 HD
ATOM     69  C   UNL A   1      48.468  33.860  26.801  1.00  0.00     0.074 A 
ATOM     70  C   UNL A   1      49.531  32.933  26.471  1.00  0.00     0.031 C 
ATOM     71  C   UNL A   1      48.539  35.202  26.621  1.00  0.00     0.034 A 
BRANCH  58  72
ATOM     72  C   UNL A   1      43.324  38.181  28.110  1.00  0.00     0.023 A 
ATOM     73  C   UNL A   1      42.525  38.500  26.991  1.00  0.00     0.012 A 
ATOM     74  C   UNL A   1      43.286  39.036  29.234  1.00  0.00     0.148 A 
ATOM     75  C   UNL A   1      41.742  39.655  26.969  1.00  0.00     0.002 A 
ATOM     76  C   UNL A   1      42.471  40.169  29.221  1.00  0.00     0.091 A 
ATOM     77  F   UNL A   1      44.036  38.726  30.300  1.00  0.00    -0.205 F 
ATOM     78  C   UNL A   1      41.710  40.485  28.084  1.00  0.00     0.022 A 
BRANCH  76  79
ATOM     79  S   UNL A   1      42.286  41.267  30.635  1.00  0.00     0.127 S 
ATOM     80  O   UNL A   1      43.294  42.286  30.355  1.00  0.00    -0.237 OA
ATOM     81  O   UNL A   1      40.904  41.725  30.493  1.00  0.00    -0.237 OA
ATOM     82  O   UNL A   1      42.537  40.450  31.815  1.00  0.00    -0.744 OA
ENDBRANCH  76  79
ENDBRANCH  58  72
BRANCH  59  83
ATOM     83  C   UNL A   1      47.746  29.272  27.605  1.00  0.00     0.023 A 
ATOM     84  C   UNL A   1      48.383  28.696  28.720  1.00  0.00     0.012 A 
ATOM     85  C   UNL A   1      47.648  28.536  26.409  1.00  0.00     0.148 A 
ATOM     86  C   UNL A   1      48.943  27.421  28.637  1.00  0.00     0.002 A 
ATOM     87  C   UNL A   1      48.155  27.243  26.351  1.00  0.00     0.091 A 
ATOM     88  F   UNL A   1      47.035  29.104  25.361  1.00  0.00    -0.205 F 
ATOM     89  C   UNL A   1      48.819  26.691  27.458  1.00  0.00     0.022 A 
BRANCH  87  90
ATOM     90  S   UNL A   1      47.914  26.178  24.926  1.00  0.00     0.127 S 
ATOM     91  O   UNL A   1      49.149  26.392  24.179  1.00  0.00    -0.237 OA
ATOM     92  O   UNL A   1      47.792  24.861  25.552  1.00  0.00    -0.237 OA
ATOM     93  O   UNL A   1      46.694  26.651  24.282  1.00  0.00    -0.744 OA
ENDBRANCH  87  90
ENDBRANCH  59  83
BRANCH  71  94
ATOM     94  C   UNL A   1      49.820  35.763  26.058  1.00  0.00     0.023 A 
ATOM     95  C   UNL A   1      49.998  35.860  24.663  1.00  0.00     0.012 A 
ATOM     96  C   UNL A   1      50.834  36.237  26.915  1.00  0.00     0.148 A 
ATOM     97  C   UNL A   1      51.176  36.384  24.131  1.00  0.00     0.002 A 
ATOM     98  C   UNL A   1      51.983  36.806  26.377  1.00  0.00     0.091 A 
ATOM     99  F   UNL A   1      50.660  36.117  28.239  1.00  0.00    -0.205 F 
ATOM    100  C   UNL A   1      52.162  36.866  24.987  1.00  0.00     0.022 A 
BRANCH  98 101
ATOM    101  S   UNL A   1      53.260  37.539  27.408  1.00  0.00     0.127 S 
ATOM    102  O   UNL A   1      52.495  38.558  28.143  1.00  0.00    -0.237 OA
ATOM    103  O   UNL A   1      53.678  36.396  28.233  1.00  0.00    -0.237 OA
ATOM    104  O   UNL A   1      54.270  38.045  26.513  1.00  0.00    -0.744 OA
ENDBRANCH  98 101
ENDBRANCH  71  94
ENDBRANCH  45  46
ENDBRANCH  37  40
ENDBRANCH  35  36
ENDBRANCH  34  35
ENDBRANCH   1  34
TORSDOF 19
ENDMDL
MODEL 2
REMARK VINA RESULT:     -11.2      7.565     11.819
REMARK SMILES C[C@@H](CCC(=O)NCCCCNC(=O)c1ccc(-c2c3nc(c(-c4cccc(S(=O)(=O)[O-])c4F)c4ccc([nH]4)c(-c4cccc(S(=O)(=O)[O-])c4F)c4nc(c(-c5cccc(S(=O)(=O)[O-])c5F)c5ccc2[nH]5)C=C4)C=C3)cc1)[C@H]1CC[C@H]2[C@@H]3[C@H](O)C[C@H]4C[C@@H](O)CC[C@@]4(C)[C@H]3CC[C@]12C
REMARK SMILES IDX 9 1 8 2 7 3 5 4 6 5 4 7 3 8 2 9 1 10 78 11 79 12 97 13 80 14
REMARK SMILES IDX 81 15 96 16 98 17 82 18 95 19 83 20 94 21 85 22 92 23 86 24
REMARK SMILES IDX 91 25 93 26 87 27 90 28 88 29 84 30 89 32 10 34 11 35 12 36
REMARK SMILES IDX 13 37 14 39 15 40 16 41 77 42 17 43 76 44 18 45 19 46 20 47
REMARK SMILES IDX 70 48 21 49 75 50 69 51 71 52 22 53 74 54 68 55 67 56 23 58
REMARK SMILES IDX 55 59 35 60 54 61 36 62 39 63 53 64 72 65 37 66 38 67 52 69
REMARK SMILES IDX 73 70 40 71 24 72 25 73 33 74 26 75 28 76 34 77 27 78 29 79
REMARK SMILES IDX 30 80 31 81 32 82 56 83 57 84 65 85 58 86 60 87 66 88 59 89
REMARK SMILES IDX 61 90 62 91 63 92 64 93 41 94 42 95 50 96 43 97 45 98 51 99
REMARK SMILES IDX 44 100 46 101 47 102 48 103 49 104
REMARK H PARENT 7 6 84 31 89 33 12 38 71 57 39 68
REMARK Flexibility Score: inf
ROOT
ATOM      1  C   UNL A   1      35.206  34.607  28.405  1.00  0.00     0.023 C 
ENDROOT
BRANCH   1   2
ATOM      2  C   UNL A   1      36.683  33.800  28.877  1.00  0.00     0.116 C 
BRANCH   2   3
ATOM      3  N   UNL A   1      37.164  32.387  28.740  1.00  0.00    -0.356 N 
ATOM      4  C   UNL A   1      36.730  31.152  28.340  1.00  0.00     0.220 C 
ATOM      5  O   UNL A   1      37.549  30.245  28.166  1.00  0.00    -0.275 OA
ATOM      6  H   UNL A   1      38.101  32.327  29.037  1.00  0.00     0.163 HD
BRANCH   4   7
ATOM      7  C   UNL A   1      35.288  30.831  28.265  1.00  0.00     0.100 C 
BRANCH   7   8
ATOM      8  C   UNL A   1      35.120  30.041  26.978  1.00  0.00     0.013 C 
BRANCH   8   9
ATOM      9  C   UNL A   1      33.632  29.857  26.552  1.00  0.00    -0.010 C 
ATOM     10  C   UNL A   1      32.940  31.121  27.218  1.00  0.00     0.008 C 
BRANCH   9  11
ATOM     11  C   UNL A   1      32.943  28.240  26.240  1.00  0.00    -0.002 C 
ATOM     12  C   UNL A   1      31.516  28.181  26.858  1.00  0.00     0.005 C 
ATOM     13  C   UNL A   1      32.700  26.986  25.031  1.00  0.00    -0.026 C 
ATOM     14  C   UNL A   1      30.943  26.729  26.645  1.00  0.00     0.005 C 
ATOM     15  C   UNL A   1      32.058  25.888  25.972  1.00  0.00     0.001 C 
ATOM     16  C   UNL A   1      33.873  26.277  24.313  1.00  0.00     0.007 C 
ATOM     17  C   UNL A   1      31.608  27.247  23.934  1.00  0.00     0.012 C 
ATOM     18  C   UNL A   1      31.862  24.410  25.285  1.00  0.00     0.025 C 
ATOM     19  C   UNL A   1      33.582  24.990  23.556  1.00  0.00     0.005 C 
ATOM     20  C   UNL A   1      31.322  23.301  26.213  1.00  0.00     0.118 C 
ATOM     21  C   UNL A   1      33.202  23.958  24.585  1.00  0.00     0.001 C 
ATOM     22  C   UNL A   1      31.920  21.871  26.067  1.00  0.00     0.036 C 
ATOM     23  C   UNL A   1      33.460  22.464  24.164  1.00  0.00    -0.026 C 
ATOM     24  C   UNL A   1      33.370  21.743  25.518  1.00  0.00     0.000 C 
ATOM     25  C   UNL A   1      32.485  21.790  23.176  1.00  0.00     0.010 C 
ATOM     26  C   UNL A   1      34.882  22.329  23.520  1.00  0.00     0.012 C 
ATOM     27  C   UNL A   1      33.884  20.308  25.405  1.00  0.00     0.036 C 
ATOM     28  C   UNL A   1      32.426  20.230  23.252  1.00  0.00     0.032 C 
ATOM     29  C   UNL A   1      33.035  19.480  24.462  1.00  0.00     0.114 C 
BRANCH  20  30
ATOM     30  O   UNL A   1      31.409  23.718  27.564  1.00  0.00    -0.393 OA
ATOM     31  H   UNL A   1      30.789  24.449  27.717  1.00  0.00     0.210 HD
ENDBRANCH  20  30
BRANCH  29  32
ATOM     32  O   UNL A   1      31.978  18.898  25.227  1.00  0.00    -0.393 OA
ATOM     33  H   UNL A   1      31.939  19.321  26.099  1.00  0.00     0.210 HD
ENDBRANCH  29  32
ENDBRANCH   9  11
ENDBRANCH   8   9
ENDBRANCH   7   8
ENDBRANCH   4   7
ENDBRANCH   2   3
ENDBRANCH   1   2
BRANCH   1  34
ATOM     34  C   UNL A   1      33.616  34.912  28.876  1.00  0.00     0.023 C 
BRANCH  34  35
ATOM     35  C   UNL A   1      32.853  36.267  29.391  1.00  0.00     0.116 C 
BRANCH  35  36
ATOM     36  N   UNL A   1      32.303  36.313  30.760  1.00  0.00    -0.352 N 
ATOM     37  C   UNL A   1      32.676  35.799  32.013  1.00  0.00     0.251 C 
ATOM     38  H   UNL A   1      31.469  36.835  30.808  1.00  0.00     0.163 HD
ATOM     39  O   UNL A   1      31.874  36.036  32.928  1.00  0.00    -0.269 OA
BRANCH  37  40
ATOM     40  C   UNL A   1      33.928  35.031  32.412  1.00  0.00     0.039 A 
ATOM     41  C   UNL A   1      33.816  33.812  33.127  1.00  0.00     0.014 A 
ATOM     42  C   UNL A   1      35.219  35.505  32.259  1.00  0.00     0.014 A 
ATOM     43  C   UNL A   1      34.944  33.124  33.669  1.00  0.00     0.010 A 
ATOM     44  C   UNL A   1      36.345  34.834  32.819  1.00  0.00     0.010 A 
ATOM     45  C   UNL A   1      36.239  33.645  33.545  1.00  0.00    -0.014 A 
BRANCH  45  46
ATOM     46  C   UNL A   1      37.479  32.872  33.912  1.00  0.00     0.031 A 
ATOM     47  C   UNL A   1      38.031  31.694  33.131  1.00  0.00     0.074 A 
ATOM     48  C   UNL A   1      38.047  33.153  35.103  1.00  0.00     0.049 A 
ATOM     49  N   UNL A   1      39.161  31.042  33.298  1.00  0.00    -0.248 NA
ATOM     50  C   UNL A   1      37.202  31.155  32.047  1.00  0.00     0.031 C 
ATOM     51  C   UNL A   1      37.520  34.128  36.057  1.00  0.00     0.029 A 
ATOM     52  N   UNL A   1      39.149  32.630  35.734  1.00  0.00    -0.354 N 
ATOM     53  C   UNL A   1      39.188  30.029  32.337  1.00  0.00     0.074 A 
ATOM     54  C   UNL A   1      37.936  30.134  31.611  1.00  0.00     0.031 C 
ATOM     55  C   UNL A   1      38.292  34.133  37.152  1.00  0.00     0.029 A 
ATOM     56  C   UNL A   1      39.378  33.174  36.976  1.00  0.00     0.049 A 
ATOM     57  H   UNL A   1      39.719  31.934  35.337  1.00  0.00     0.167 HD
ATOM     58  C   UNL A   1      40.162  29.114  32.074  1.00  0.00     0.034 A 
ATOM     59  C   UNL A   1      40.358  32.952  37.874  1.00  0.00     0.034 A 
ATOM     60  C   UNL A   1      41.383  28.987  32.840  1.00  0.00     0.049 A 
ATOM     61  C   UNL A   1      41.473  32.007  37.526  1.00  0.00     0.074 A 
ATOM     62  C   UNL A   1      42.487  28.185  32.590  1.00  0.00     0.029 A 
ATOM     63  N   UNL A   1      41.643  29.648  34.032  1.00  0.00    -0.354 N 
ATOM     64  N   UNL A   1      41.620  31.264  36.457  1.00  0.00    -0.248 NA
ATOM     65  C   UNL A   1      42.587  31.915  38.481  1.00  0.00     0.031 C 
ATOM     66  C   UNL A   1      43.390  28.330  33.651  1.00  0.00     0.029 A 
ATOM     67  C   UNL A   1      42.872  29.258  34.540  1.00  0.00     0.049 A 
ATOM     68  H   UNL A   1      41.039  30.300  34.456  1.00  0.00     0.167 HD
ATOM     69  C   UNL A   1      42.854  30.641  36.593  1.00  0.00     0.074 A 
ATOM     70  C   UNL A   1      43.426  31.115  37.837  1.00  0.00     0.031 C 
ATOM     71  C   UNL A   1      43.454  29.750  35.764  1.00  0.00     0.034 A 
BRANCH  58  72
ATOM     72  C   UNL A   1      40.005  28.211  30.863  1.00  0.00     0.023 A 
ATOM     73  C   UNL A   1      39.128  27.108  30.945  1.00  0.00     0.012 A 
ATOM     74  C   UNL A   1      40.605  28.507  29.619  1.00  0.00     0.148 A 
ATOM     75  C   UNL A   1      38.884  26.296  29.836  1.00  0.00     0.002 A 
ATOM     76  C   UNL A   1      40.327  27.715  28.505  1.00  0.00     0.091 A 
ATOM     77  F   UNL A   1      41.429  29.561  29.540  1.00  0.00    -0.205 F 
ATOM     78  C   UNL A   1      39.478  26.603  28.616  1.00  0.00     0.022 A 
BRANCH  76  79
ATOM     79  S   UNL A   1      40.969  28.065  26.860  1.00  0.00     0.127 S 
ATOM     80  O   UNL A   1      40.122  29.179  26.440  1.00  0.00    -0.237 OA
ATOM     81  O   UNL A   1      42.358  28.429  27.140  1.00  0.00    -0.237 OA
ATOM     82  O   UNL A   1      40.806  26.836  26.094  1.00  0.00    -0.744 OA
ENDBRANCH  76  79
ENDBRANCH  58  72
BRANCH  59  83
ATOM     83  C   UNL A   1      40.376  33.737  39.139  1.00  0.00     0.023 A 
ATOM     84  C   UNL A   1      39.886  33.156  40.324  1.00  0.00     0.012 A 
ATOM     85  C   UNL A   1      40.944  35.024  39.187  1.00  0.00     0.148 A 
ATOM     86  C   UNL A   1      39.931  33.856  41.529  1.00  0.00     0.002 A 
ATOM     87  C   UNL A   1      41.040  35.693  40.401  1.00  0.00     0.091 A 
ATOM     88  F   UNL A   1      41.406  35.557  38.046  1.00  0.00    -0.205 F 
ATOM     89  C   UNL A   1      40.518  35.118  41.570  1.00  0.00     0.022 A 
BRANCH  87  90
ATOM     90  S   UNL A   1      41.908  37.255  40.574  1.00  0.00     0.127 S 
ATOM     91  O   UNL A   1      43.241  36.912  40.093  1.00  0.00    -0.237 OA
ATOM     92  O   UNL A   1      41.137  38.128  39.688  1.00  0.00    -0.237 OA
ATOM     93  O   UNL A   1      41.815  37.603  41.988  1.00  0.00    -0.744 OA
ENDBRANCH  87  90
ENDBRANCH  59  83
BRANCH  71  94
ATOM     94  C   UNL A   1      44.817  29.239  36.160  1.00  0.00     0.023 A 
ATOM     95  C   UNL A   1      45.975  29.950  35.784  1.00  0.00     0.012 A 
ATOM     96  C   UNL A   1      44.948  28.076  36.945  1.00  0.00     0.148 A 
ATOM     97  C   UNL A   1      47.241  29.491  36.150  1.00  0.00     0.002 A 
ATOM     98  C   UNL A   1      46.209  27.655  37.350  1.00  0.00     0.091 A 
ATOM     99  F   UNL A   1      43.838  27.400  37.275  1.00  0.00    -0.205 F 
ATOM    100  C   UNL A   1      47.356  28.351  36.942  1.00  0.00     0.022 A 
BRANCH  98 101
ATOM    101  S   UNL A   1      46.442  26.252  38.450  1.00  0.00     0.127 S 
ATOM    102  O   UNL A   1      47.867  25.953  38.247  1.00  0.00    -0.237 OA
ATOM    103  O   UNL A   1      46.136  26.841  39.762  1.00  0.00    -0.237 OA
ATOM    104  O   UNL A   1      45.524  25.232  38.013  1.00  0.00    -0.744 OA
ENDBRANCH  98 101
ENDBRANCH  71  94
ENDBRANCH  45  46
ENDBRANCH  37  40
ENDBRANCH  35  36
ENDBRANCH  34  35
ENDBRANCH   1  34
TORSDOF 19
ENDMDL
MODEL 3
REMARK VINA RESULT:     -11.2      7.225     10.053
REMARK SMILES C[C@@H](CCC(=O)NCCCCNC(=O)c1ccc(-c2c3nc(c(-c4cccc(S(=O)(=O)[O-])c4F)c4ccc([nH]4)c(-c4cccc(S(=O)(=O)[O-])c4F)c4nc(c(-c5cccc(S(=O)(=O)[O-])c5F)c5ccc2[nH]5)C=C4)C=C3)cc1)[C@H]1CC[C@H]2[C@@H]3[C@H](O)C[C@H]4C[C@@H](O)CC[C@@]4(C)[C@H]3CC[C@]12C
REMARK SMILES IDX 9 1 8 2 7 3 5 4 6 5 4 7 3 8 2 9 1 10 78 11 79 12 97 13 80 14
REMARK SMILES IDX 81 15 96 16 98 17 82 18 95 19 83 20 94 21 85 22 92 23 86 24
REMARK SMILES IDX 91 25 93 26 87 27 90 28 88 29 84 30 89 32 10 34 11 35 12 36
REMARK SMILES IDX 13 37 14 39 15 40 16 41 77 42 17 43 76 44 18 45 19 46 20 47
REMARK SMILES IDX 70 48 21 49 75 50 69 51 71 52 22 53 74 54 68 55 67 56 23 58
REMARK SMILES IDX 55 59 35 60 54 61 36 62 39 63 53 64 72 65 37 66 38 67 52 69
REMARK SMILES IDX 73 70 40 71 24 72 25 73 33 74 26 75 28 76 34 77 27 78 29 79
REMARK SMILES IDX 30 80 31 81 32 82 56 83 57 84 65 85 58 86 60 87 66 88 59 89
REMARK SMILES IDX 61 90 62 91 63 92 64 93 41 94 42 95 50 96 43 97 45 98 51 99
REMARK SMILES IDX 44 100 46 101 47 102 48 103 49 104
REMARK H PARENT 7 6 84 31 89 33 12 38 71 57 39 68
REMARK Flexibility Score: inf
ROOT
ATOM      1  C   UNL A   1      35.246  32.322  28.038  1.00  0.00     0.023 C 
ENDROOT
BRANCH   1   2
ATOM      2  C   UNL A   1      34.759  30.660  27.800  1.00  0.00     0.116 C 
BRANCH   2   3
ATOM      3  N   UNL A   1      33.483  30.025  27.334  1.00  0.00    -0.356 N 
ATOM      4  C   UNL A   1      33.029  28.913  26.678  1.00  0.00     0.220 C 
ATOM      5  O   UNL A   1      31.824  28.646  26.694  1.00  0.00    -0.275 OA
ATOM      6  H   UNL A   1      32.721  30.597  27.581  1.00  0.00     0.163 HD
BRANCH   4   7
ATOM      7  C   UNL A   1      33.924  28.110  25.815  1.00  0.00     0.100 C 
BRANCH   7   8
ATOM      8  C   UNL A   1      33.017  27.496  24.761  1.00  0.00     0.013 C 
BRANCH   8   9
ATOM      9  C   UNL A   1      33.736  26.445  23.862  1.00  0.00    -0.010 C 
ATOM     10  C   UNL A   1      33.319  26.916  22.405  1.00  0.00     0.008 C 
BRANCH   9  11
ATOM     11  C   UNL A   1      34.079  24.794  24.449  1.00  0.00    -0.002 C 
ATOM     12  C   UNL A   1      35.325  24.847  25.379  1.00  0.00     0.005 C 
ATOM     13  C   UNL A   1      33.376  23.329  25.123  1.00  0.00    -0.026 C 
ATOM     14  C   UNL A   1      35.668  23.377  25.833  1.00  0.00     0.005 C 
ATOM     15  C   UNL A   1      34.677  22.429  25.110  1.00  0.00     0.001 C 
ATOM     16  C   UNL A   1      32.295  22.503  24.385  1.00  0.00     0.007 C 
ATOM     17  C   UNL A   1      32.943  23.368  26.632  1.00  0.00     0.012 C 
ATOM     18  C   UNL A   1      34.431  20.846  25.466  1.00  0.00     0.025 C 
ATOM     19  C   UNL A   1      32.007  21.093  24.878  1.00  0.00     0.005 C 
ATOM     20  C   UNL A   1      35.673  19.932  25.369  1.00  0.00     0.118 C 
ATOM     21  C   UNL A   1      33.241  20.275  24.601  1.00  0.00     0.001 C 
ATOM     22  C   UNL A   1      35.484  18.505  24.778  1.00  0.00     0.036 C 
ATOM     23  C   UNL A   1      32.999  18.730  24.432  1.00  0.00    -0.026 C 
ATOM     24  C   UNL A   1      34.315  18.282  23.776  1.00  0.00     0.000 C 
ATOM     25  C   UNL A   1      32.755  17.872  25.691  1.00  0.00     0.010 C 
ATOM     26  C   UNL A   1      31.764  18.482  23.500  1.00  0.00     0.012 C 
ATOM     27  C   UNL A   1      34.197  16.855  23.241  1.00  0.00     0.036 C 
ATOM     28  C   UNL A   1      33.104  16.356  25.548  1.00  0.00     0.032 C 
ATOM     29  C   UNL A   1      33.953  15.856  24.354  1.00  0.00     0.114 C 
BRANCH  20  30
ATOM     30  O   UNL A   1      36.711  20.602  24.677  1.00  0.00    -0.393 OA
ATOM     31  H   UNL A   1      37.406  20.856  25.304  1.00  0.00     0.210 HD
ENDBRANCH  20  30
BRANCH  29  32
ATOM     32  O   UNL A   1      35.227  15.426  24.838  1.00  0.00    -0.393 OA
ATOM     33  H   UNL A   1      35.929  15.844  24.316  1.00  0.00     0.210 HD
ENDBRANCH  29  32
ENDBRANCH   9  11
ENDBRANCH   8   9
ENDBRANCH   7   8
ENDBRANCH   4   7
ENDBRANCH   2   3
ENDBRANCH   1   2
BRANCH   1  34
ATOM     34  C   UNL A   1      34.664  33.893  28.228  1.00  0.00     0.023 C 
BRANCH  34  35
ATOM     35  C   UNL A   1      33.167  34.494  28.518  1.00  0.00     0.116 C 
BRANCH  35  36
ATOM     36  N   UNL A   1      32.829  34.974  29.872  1.00  0.00    -0.352 N 
ATOM     37  C   UNL A   1      33.368  34.817  31.160  1.00  0.00     0.251 C 
ATOM     38  H   UNL A   1      32.028  35.548  29.873  1.00  0.00     0.163 HD
ATOM     39  O   UNL A   1      32.719  35.367  32.062  1.00  0.00    -0.269 OA
BRANCH  37  40
ATOM     40  C   UNL A   1      34.641  34.108  31.599  1.00  0.00     0.039 A 
ATOM     41  C   UNL A   1      35.904  34.584  31.166  1.00  0.00     0.014 A 
ATOM     42  C   UNL A   1      34.670  32.911  32.292  1.00  0.00     0.014 A 
ATOM     43  C   UNL A   1      37.123  33.879  31.407  1.00  0.00     0.010 A 
ATOM     44  C   UNL A   1      35.882  32.192  32.514  1.00  0.00     0.010 A 
ATOM     45  C   UNL A   1      37.127  32.644  32.069  1.00  0.00    -0.014 A 
BRANCH  45  46
ATOM     46  C   UNL A   1      38.387  31.958  32.529  1.00  0.00     0.031 A 
ATOM     47  C   UNL A   1      39.212  32.374  33.733  1.00  0.00     0.074 A 
ATOM     48  C   UNL A   1      38.896  31.005  31.723  1.00  0.00     0.049 A 
ATOM     49  N   UNL A   1      40.244  31.771  34.282  1.00  0.00    -0.248 NA
ATOM     50  C   UNL A   1      38.861  33.640  34.386  1.00  0.00     0.031 C 
ATOM     51  C   UNL A   1      38.322  30.624  30.433  1.00  0.00     0.029 A 
ATOM     52  N   UNL A   1      40.016  30.217  31.835  1.00  0.00    -0.354 N 
ATOM     53  C   UNL A   1      40.656  32.571  35.351  1.00  0.00     0.074 A 
ATOM     54  C   UNL A   1      39.779  33.726  35.347  1.00  0.00     0.031 C 
ATOM     55  C   UNL A   1      39.091  29.683  29.870  1.00  0.00     0.029 A 
ATOM     56  C   UNL A   1      40.205  29.379  30.761  1.00  0.00     0.049 A 
ATOM     57  H   UNL A   1      40.625  30.250  32.608  1.00  0.00     0.167 HD
ATOM     58  C   UNL A   1      41.655  32.359  36.253  1.00  0.00     0.034 A 
ATOM     59  C   UNL A   1      41.152  28.451  30.519  1.00  0.00     0.034 A 
ATOM     60  C   UNL A   1      42.556  31.227  36.213  1.00  0.00     0.049 A 
ATOM     61  C   UNL A   1      42.190  28.167  31.566  1.00  0.00     0.074 A 
ATOM     62  C   UNL A   1      43.517  30.848  37.139  1.00  0.00     0.029 A 
ATOM     63  N   UNL A   1      42.640  30.318  35.169  1.00  0.00    -0.354 N 
ATOM     64  N   UNL A   1      42.381  28.761  32.719  1.00  0.00    -0.248 NA
ATOM     65  C   UNL A   1      43.106  27.047  31.308  1.00  0.00     0.031 C 
ATOM     66  C   UNL A   1      44.206  29.738  36.633  1.00  0.00     0.029 A 
ATOM     67  C   UNL A   1      43.646  29.395  35.414  1.00  0.00     0.049 A 
ATOM     68  H   UNL A   1      42.068  30.327  34.368  1.00  0.00     0.167 HD
ATOM     69  C   UNL A   1      43.415  28.069  33.338  1.00  0.00     0.074 A 
ATOM     70  C   UNL A   1      43.792  26.994  32.442  1.00  0.00     0.031 C 
ATOM     71  C   UNL A   1      44.003  28.309  34.536  1.00  0.00     0.034 A 
BRANCH  58  72
ATOM     72  C   UNL A   1      41.799  33.321  37.419  1.00  0.00     0.023 A 
ATOM     73  C   UNL A   1      42.805  34.308  37.367  1.00  0.00     0.012 A 
ATOM     74  C   UNL A   1      40.882  33.344  38.494  1.00  0.00     0.148 A 
ATOM     75  C   UNL A   1      42.927  35.269  38.373  1.00  0.00     0.002 A 
ATOM     76  C   UNL A   1      40.985  34.330  39.475  1.00  0.00     0.091 A 
ATOM     77  F   UNL A   1      39.920  32.413  38.536  1.00  0.00    -0.205 F 
ATOM     78  C   UNL A   1      42.014  35.284  39.422  1.00  0.00     0.022 A 
BRANCH  76  79
ATOM     79  S   UNL A   1      39.813  34.499  40.831  1.00  0.00     0.127 S 
ATOM     80  O   UNL A   1      39.890  33.181  41.457  1.00  0.00    -0.237 OA
ATOM     81  O   UNL A   1      40.403  35.582  41.619  1.00  0.00    -0.237 OA
ATOM     82  O   UNL A   1      38.531  34.824  40.218  1.00  0.00    -0.744 OA
ENDBRANCH  76  79
ENDBRANCH  58  72
BRANCH  59  83
ATOM     83  C   UNL A   1      41.075  27.645  29.268  1.00  0.00     0.023 A 
ATOM     84  C   UNL A   1      40.095  26.642  29.147  1.00  0.00     0.012 A 
ATOM     85  C   UNL A   1      41.919  27.919  28.175  1.00  0.00     0.148 A 
ATOM     86  C   UNL A   1      39.977  25.903  27.971  1.00  0.00     0.002 A 
ATOM     87  C   UNL A   1      41.757  27.221  26.985  1.00  0.00     0.091 A 
ATOM     88  F   UNL A   1      42.844  28.880  28.313  1.00  0.00    -0.205 F 
ATOM     89  C   UNL A   1      40.799  26.200  26.887  1.00  0.00     0.022 A 
BRANCH  87  90
ATOM     90  S   UNL A   1      42.670  27.633  25.495  1.00  0.00     0.127 S 
ATOM     91  O   UNL A   1      44.037  27.721  25.996  1.00  0.00    -0.237 OA
ATOM     92  O   UNL A   1      42.397  26.474  24.644  1.00  0.00    -0.237 OA
ATOM     93  O   UNL A   1      42.091  28.881  25.010  1.00  0.00    -0.744 OA
ENDBRANCH  87  90
ENDBRANCH  59  83
BRANCH  71  94
ATOM     94  C   UNL A   1      45.108  27.378  34.968  1.00  0.00     0.023 A 
ATOM     95  C   UNL A   1      46.451  27.687  34.668  1.00  0.00     0.012 A 
ATOM     96  C   UNL A   1      44.819  26.218  35.715  1.00  0.00     0.148 A 
ATOM     97  C   UNL A   1      47.482  26.838  35.069  1.00  0.00     0.002 A 
ATOM     98  C   UNL A   1      45.857  25.405  36.156  1.00  0.00     0.091 A 
ATOM     99  F   UNL A   1      43.536  25.927  35.973  1.00  0.00    -0.205 F 
ATOM    100  C   UNL A   1      47.186  25.704  35.822  1.00  0.00     0.022 A 
BRANCH  98 101
ATOM    101  S   UNL A   1      45.571  23.978  37.211  1.00  0.00     0.127 S 
ATOM    102  O   UNL A   1      44.890  23.060  36.286  1.00  0.00    -0.237 OA
ATOM    103  O   UNL A   1      46.943  23.572  37.552  1.00  0.00    -0.237 OA
ATOM    104  O   UNL A   1      44.780  24.441  38.323  1.00  0.00    -0.744 OA
ENDBRANCH  98 101
ENDBRANCH  71  94
ENDBRANCH  45  46
ENDBRANCH  37  40
ENDBRANCH  35  36
ENDBRANCH  34  35
ENDBRANCH   1  34
TORSDOF 19
ENDMDL
