MODEL 1
REMARK VINA RESULT:     -10.6      0.000      0.000
REMARK SMILES C/C(=C(\C#N)C(=O)NCCCCNC(=O)c1ccc(-c2c3nc(c(-c4cccc(S(=O)(=O)[O-])c4F)c4ccc([nH]4)c(-c4cccc(S(=O)(=O)[O-])c4F)c4nc(c(-c5cccc(S(=O)(=O)[O-])c5F)c5ccc2[nH]5)C=C4)C=C3)cc1)c1cccc2ccccc12
REMARK SMILES IDX 11 1 10 2 9 3 8 4 6 5 7 6 3 8 1 9 2 10 79 11 80 12 88 13
REMARK SMILES IDX 81 14 83 15 87 16 82 17 84 18 86 19 85 20 4 21 5 22 12 23
REMARK SMILES IDX 13 24 14 25 15 27 16 28 17 29 78 30 18 31 77 32 19 33 20 34
REMARK SMILES IDX 21 35 71 36 22 37 76 38 70 39 72 40 23 41 75 42 69 43 68 44
REMARK SMILES IDX 24 46 56 47 36 48 55 49 37 50 40 51 54 52 73 53 38 54 39 55
REMARK SMILES IDX 53 57 74 58 41 59 25 60 26 61 34 62 27 63 29 64 35 65 28 66
REMARK SMILES IDX 30 67 31 68 32 69 33 70 57 71 58 72 66 73 59 74 61 75 67 76
REMARK SMILES IDX 60 77 62 78 63 79 64 80 65 81 42 82 43 83 51 84 44 85 46 86
REMARK SMILES IDX 52 87 45 88 47 89 48 90 49 91 50 92
REMARK H PARENT 8 7 13 26 72 45 40 56
REMARK Flexibility Score: inf
ROOT
ATOM      1  C   UNL A   1      33.426  34.089  28.270  1.00  0.00     0.023 C 
ENDROOT
BRANCH   1   2
ATOM      2  C   UNL A   1      33.949  35.308  29.034  1.00  0.00     0.023 C 
BRANCH   2   3
ATOM      3  C   UNL A   1      33.096  35.749  30.219  1.00  0.00     0.116 C 
BRANCH   3   4
ATOM      4  N   UNL A   1      33.875  36.137  31.384  1.00  0.00    -0.351 N 
ATOM      5  C   UNL A   1      34.736  35.501  32.231  1.00  0.00     0.262 C 
ATOM      6  O   UNL A   1      35.471  36.266  32.862  1.00  0.00    -0.268 OA
ATOM      7  H   UNL A   1      33.752  37.086  31.618  1.00  0.00     0.163 HD
BRANCH   5   8
ATOM      8  C   UNL A   1      34.829  33.996  32.409  1.00  0.00     0.120 C 
ATOM      9  C   UNL A   1      35.850  31.718  32.062  1.00  0.00     0.046 C 
ATOM     10  C   UNL A   1      35.869  33.228  31.944  1.00  0.00    -0.020 C 
BRANCH  10  11
ATOM     11  C   UNL A   1      37.106  33.801  31.300  1.00  0.00    -0.013 A 
ATOM     12  C   UNL A   1      37.073  33.914  29.897  1.00  0.00     0.009 A 
ATOM     13  C   UNL A   1      38.324  34.160  31.975  1.00  0.00    -0.011 A 
ATOM     14  C   UNL A   1      38.242  34.060  29.161  1.00  0.00     0.001 A 
ATOM     15  C   UNL A   1      39.519  34.163  31.209  1.00  0.00    -0.018 A 
ATOM     16  C   UNL A   1      38.471  34.580  33.327  1.00  0.00     0.009 A 
ATOM     17  C   UNL A   1      39.465  34.073  29.817  1.00  0.00     0.009 A 
ATOM     18  C   UNL A   1      40.771  34.332  31.816  1.00  0.00     0.009 A 
ATOM     19  C   UNL A   1      39.706  34.975  33.858  1.00  0.00     0.001 A 
ATOM     20  C   UNL A   1      40.865  34.793  33.122  1.00  0.00     0.001 A 
ENDBRANCH  10  11
BRANCH   8  21
ATOM     21  C   UNL A   1      33.745  33.330  33.059  1.00  0.00     0.105 C 
ATOM     22  N   UNL A   1      32.827  32.813  33.540  1.00  0.00    -0.192 NA
ENDBRANCH   8  21
ENDBRANCH   5   8
ENDBRANCH   3   4
ENDBRANCH   2   3
ENDBRANCH   1   2
BRANCH   1  23
ATOM     23  C   UNL A   1      34.173  32.782  28.518  1.00  0.00     0.116 C 
BRANCH  23  24
ATOM     24  N   UNL A   1      33.727  31.690  27.662  1.00  0.00    -0.352 N 
ATOM     25  C   UNL A   1      34.371  30.515  27.353  1.00  0.00     0.251 C 
ATOM     26  H   UNL A   1      32.841  31.811  27.248  1.00  0.00     0.163 HD
ATOM     27  O   UNL A   1      33.904  29.760  26.505  1.00  0.00    -0.269 OA
BRANCH  25  28
ATOM     28  C   UNL A   1      35.645  30.182  28.025  1.00  0.00     0.039 A 
ATOM     29  C   UNL A   1      35.611  29.493  29.239  1.00  0.00     0.014 A 
ATOM     30  C   UNL A   1      36.867  30.516  27.437  1.00  0.00     0.014 A 
ATOM     31  C   UNL A   1      36.806  29.074  29.826  1.00  0.00     0.010 A 
ATOM     32  C   UNL A   1      38.049  30.020  27.977  1.00  0.00     0.010 A 
ATOM     33  C   UNL A   1      38.033  29.296  29.178  1.00  0.00    -0.014 A 
BRANCH  33  34
ATOM     34  C   UNL A   1      39.304  28.762  29.735  1.00  0.00     0.031 A 
ATOM     35  C   UNL A   1      39.934  29.406  30.940  1.00  0.00     0.074 A 
ATOM     36  C   UNL A   1      39.931  27.746  29.109  1.00  0.00     0.049 A 
ATOM     37  N   UNL A   1      41.061  29.110  31.536  1.00  0.00    -0.248 NA
ATOM     38  C   UNL A   1      39.220  30.543  31.542  1.00  0.00     0.031 C 
ATOM     39  C   UNL A   1      39.461  27.082  27.892  1.00  0.00     0.029 A 
ATOM     40  N   UNL A   1      41.114  27.109  29.396  1.00  0.00    -0.354 N 
ATOM     41  C   UNL A   1      41.208  30.042  32.557  1.00  0.00     0.074 A 
ATOM     42  C   UNL A   1      40.073  30.935  32.477  1.00  0.00     0.031 C 
ATOM     43  C   UNL A   1      40.335  26.124  27.545  1.00  0.00     0.029 A 
ATOM     44  C   UNL A   1      41.453  26.137  28.482  1.00  0.00     0.049 A 
ATOM     45  H   UNL A   1      41.667  27.326  30.180  1.00  0.00     0.167 HD
ATOM     46  C   UNL A   1      42.184  30.134  33.490  1.00  0.00     0.034 A 
ATOM     47  C   UNL A   1      42.549  25.358  28.394  1.00  0.00     0.034 A 
ATOM     48  C   UNL A   1      43.303  29.234  33.575  1.00  0.00     0.049 A 
ATOM     49  C   UNL A   1      43.621  25.481  29.443  1.00  0.00     0.074 A 
ATOM     50  C   UNL A   1      44.303  29.196  34.530  1.00  0.00     0.029 A 
ATOM     51  N   UNL A   1      43.585  28.231  32.661  1.00  0.00    -0.354 N 
ATOM     52  N   UNL A   1      43.668  26.274  30.485  1.00  0.00    -0.248 NA
ATOM     53  C   UNL A   1      44.776  24.579  29.322  1.00  0.00     0.031 C 
ATOM     54  C   UNL A   1      45.221  28.209  34.163  1.00  0.00     0.029 A 
ATOM     55  C   UNL A   1      44.757  27.585  33.016  1.00  0.00     0.049 A 
ATOM     56  H   UNL A   1      43.034  28.011  31.875  1.00  0.00     0.167 HD
ATOM     57  C   UNL A   1      44.834  25.942  31.165  1.00  0.00     0.074 A 
ATOM     58  C   UNL A   1      45.454  24.861  30.426  1.00  0.00     0.031 C 
ATOM     59  C   UNL A   1      45.346  26.485  32.297  1.00  0.00     0.034 A 
BRANCH  46  60
ATOM     60  C   UNL A   1      42.080  31.239  34.508  1.00  0.00     0.023 A 
ATOM     61  C   UNL A   1      43.011  32.298  34.500  1.00  0.00     0.012 A 
ATOM     62  C   UNL A   1      41.023  31.258  35.440  1.00  0.00     0.148 A 
ATOM     63  C   UNL A   1      42.917  33.336  35.427  1.00  0.00     0.002 A 
ATOM     64  C   UNL A   1      40.906  32.322  36.327  1.00  0.00     0.091 A 
ATOM     65  F   UNL A   1      40.157  30.234  35.446  1.00  0.00    -0.205 F 
ATOM     66  C   UNL A   1      41.860  33.352  36.332  1.00  0.00     0.022 A 
BRANCH  64  67
ATOM     67  S   UNL A   1      39.533  32.480  37.474  1.00  0.00     0.127 S 
ATOM     68  O   UNL A   1      38.963  33.765  37.073  1.00  0.00    -0.237 OA
ATOM     69  O   UNL A   1      38.716  31.317  37.135  1.00  0.00    -0.237 OA
ATOM     70  O   UNL A   1      40.117  32.449  38.809  1.00  0.00    -0.744 OA
ENDBRANCH  64  67
ENDBRANCH  46  60
BRANCH  47  71
ATOM     71  C   UNL A   1      42.679  24.371  27.285  1.00  0.00     0.023 A 
ATOM     72  C   UNL A   1      43.379  24.720  26.114  1.00  0.00     0.012 A 
ATOM     73  C   UNL A   1      42.116  23.084  27.390  1.00  0.00     0.148 A 
ATOM     74  C   UNL A   1      43.483  23.821  25.052  1.00  0.00     0.002 A 
ATOM     75  C   UNL A   1      42.275  22.172  26.353  1.00  0.00     0.091 A 
ATOM     76  F   UNL A   1      41.449  22.773  28.510  1.00  0.00    -0.205 F 
ATOM     77  C   UNL A   1      42.939  22.545  25.174  1.00  0.00     0.022 A 
BRANCH  75  78
ATOM     78  S   UNL A   1      41.716  20.469  26.473  1.00  0.00     0.127 S 
ATOM     79  O   UNL A   1      40.271  20.619  26.333  1.00  0.00    -0.237 OA
ATOM     80  O   UNL A   1      42.388  19.855  25.327  1.00  0.00    -0.237 OA
ATOM     81  O   UNL A   1      42.178  19.991  27.769  1.00  0.00    -0.744 OA
ENDBRANCH  75  78
ENDBRANCH  47  71
BRANCH  59  82
ATOM     82  C   UNL A   1      46.615  25.889  32.850  1.00  0.00     0.023 A 
ATOM     83  C   UNL A   1      47.868  26.441  32.519  1.00  0.00     0.012 A 
ATOM     84  C   UNL A   1      46.553  24.817  33.763  1.00  0.00     0.148 A 
ATOM     85  C   UNL A   1      49.040  25.912  33.058  1.00  0.00     0.002 A 
ATOM     86  C   UNL A   1      47.719  24.333  34.340  1.00  0.00     0.091 A 
ATOM     87  F   UNL A   1      45.352  24.295  34.054  1.00  0.00    -0.205 F 
ATOM     88  C   UNL A   1      48.965  24.868  33.977  1.00  0.00     0.022 A 
BRANCH  86  89
ATOM     89  S   UNL A   1      47.713  23.059  35.607  1.00  0.00     0.127 S 
ATOM     90  O   UNL A   1      46.945  23.703  36.671  1.00  0.00    -0.237 OA
ATOM     91  O   UNL A   1      47.019  21.961  34.934  1.00  0.00    -0.237 OA
ATOM     92  O   UNL A   1      49.110  22.793  35.923  1.00  0.00    -0.744 OA
ENDBRANCH  86  89
ENDBRANCH  59  82
ENDBRANCH  33  34
ENDBRANCH  25  28
ENDBRANCH  23  24
ENDBRANCH   1  23
TORSDOF 16
ENDMDL
MODEL 2
REMARK VINA RESULT:     -10.5      3.833      6.822
REMARK SMILES C/C(=C(\C#N)C(=O)NCCCCNC(=O)c1ccc(-c2c3nc(c(-c4cccc(S(=O)(=O)[O-])c4F)c4ccc([nH]4)c(-c4cccc(S(=O)(=O)[O-])c4F)c4nc(c(-c5cccc(S(=O)(=O)[O-])c5F)c5ccc2[nH]5)C=C4)C=C3)cc1)c1cccc2ccccc12
REMARK SMILES IDX 11 1 10 2 9 3 8 4 6 5 7 6 3 8 1 9 2 10 79 11 80 12 88 13
REMARK SMILES IDX 81 14 83 15 87 16 82 17 84 18 86 19 85 20 4 21 5 22 12 23
REMARK SMILES IDX 13 24 14 25 15 27 16 28 17 29 78 30 18 31 77 32 19 33 20 34
REMARK SMILES IDX 21 35 71 36 22 37 76 38 70 39 72 40 23 41 75 42 69 43 68 44
REMARK SMILES IDX 24 46 56 47 36 48 55 49 37 50 40 51 54 52 73 53 38 54 39 55
REMARK SMILES IDX 53 57 74 58 41 59 25 60 26 61 34 62 27 63 29 64 35 65 28 66
REMARK SMILES IDX 30 67 31 68 32 69 33 70 57 71 58 72 66 73 59 74 61 75 67 76
REMARK SMILES IDX 60 77 62 78 63 79 64 80 65 81 42 82 43 83 51 84 44 85 46 86
REMARK SMILES IDX 52 87 45 88 47 89 48 90 49 91 50 92
REMARK H PARENT 8 7 13 26 72 45 40 56
REMARK Flexibility Score: inf
ROOT
ATOM      1  C   UNL A   1      32.530  29.324  25.125  1.00  0.00     0.023 C 
ENDROOT
BRANCH   1   2
ATOM      2  C   UNL A   1      33.491  28.140  25.004  1.00  0.00     0.023 C 
BRANCH   2   3
ATOM      3  C   UNL A   1      33.237  26.992  25.977  1.00  0.00     0.116 C 
BRANCH   3   4
ATOM      4  N   UNL A   1      34.236  25.938  25.905  1.00  0.00    -0.351 N 
ATOM      5  C   UNL A   1      34.204  24.580  25.766  1.00  0.00     0.262 C 
ATOM      6  O   UNL A   1      35.270  24.095  25.376  1.00  0.00    -0.268 OA
ATOM      7  H   UNL A   1      35.154  26.286  25.974  1.00  0.00     0.163 HD
BRANCH   5   8
ATOM      8  C   UNL A   1      32.995  23.705  26.040  1.00  0.00     0.120 C 
ATOM      9  C   UNL A   1      30.683  22.805  25.592  1.00  0.00     0.046 C 
ATOM     10  C   UNL A   1      31.904  23.616  25.209  1.00  0.00    -0.020 C 
BRANCH  10  11
ATOM     11  C   UNL A   1      31.824  24.289  23.862  1.00  0.00    -0.013 A 
ATOM     12  C   UNL A   1      32.600  23.710  22.839  1.00  0.00     0.009 A 
ATOM     13  C   UNL A   1      31.102  25.495  23.558  1.00  0.00    -0.011 A 
ATOM     14  C   UNL A   1      32.915  24.422  21.688  1.00  0.00     0.001 A 
ATOM     15  C   UNL A   1      31.548  26.262  22.450  1.00  0.00    -0.018 A 
ATOM     16  C   UNL A   1      29.936  25.990  24.206  1.00  0.00     0.009 A 
ATOM     17  C   UNL A   1      32.477  25.732  21.554  1.00  0.00     0.009 A 
ATOM     18  C   UNL A   1      31.017  27.531  22.184  1.00  0.00     0.009 A 
ATOM     19  C   UNL A   1      29.274  27.148  23.775  1.00  0.00     0.001 A 
ATOM     20  C   UNL A   1      29.847  27.951  22.803  1.00  0.00     0.001 A 
ENDBRANCH  10  11
BRANCH   8  21
ATOM     21  C   UNL A   1      32.967  22.964  27.261  1.00  0.00     0.105 C 
ATOM     22  N   UNL A   1      33.009  22.368  28.254  1.00  0.00    -0.192 NA
ENDBRANCH   8  21
ENDBRANCH   5   8
ENDBRANCH   3   4
ENDBRANCH   2   3
ENDBRANCH   1   2
BRANCH   1  23
ATOM     23  C   UNL A   1      32.236  29.795  26.547  1.00  0.00     0.116 C 
BRANCH  23  24
ATOM     24  N   UNL A   1      32.196  31.246  26.679  1.00  0.00    -0.352 N 
ATOM     25  C   UNL A   1      33.098  32.084  27.294  1.00  0.00     0.251 C 
ATOM     26  H   UNL A   1      31.416  31.687  26.271  1.00  0.00     0.163 HD
ATOM     27  O   UNL A   1      32.839  33.276  27.427  1.00  0.00    -0.269 OA
BRANCH  25  28
ATOM     28  C   UNL A   1      34.363  31.532  27.822  1.00  0.00     0.039 A 
ATOM     29  C   UNL A   1      35.450  32.388  28.009  1.00  0.00     0.014 A 
ATOM     30  C   UNL A   1      34.461  30.182  28.167  1.00  0.00     0.014 A 
ATOM     31  C   UNL A   1      36.612  31.904  28.612  1.00  0.00     0.010 A 
ATOM     32  C   UNL A   1      35.585  29.726  28.849  1.00  0.00     0.010 A 
ATOM     33  C   UNL A   1      36.674  30.580  29.076  1.00  0.00    -0.014 A 
BRANCH  33  34
ATOM     34  C   UNL A   1      37.862  30.079  29.817  1.00  0.00     0.031 A 
ATOM     35  C   UNL A   1      38.137  30.549  31.219  1.00  0.00     0.074 A 
ATOM     36  C   UNL A   1      38.735  29.258  29.198  1.00  0.00     0.049 A 
ATOM     37  N   UNL A   1      39.145  30.260  32.001  1.00  0.00    -0.248 NA
ATOM     38  C   UNL A   1      37.167  31.484  31.813  1.00  0.00     0.031 C 
ATOM     39  C   UNL A   1      38.620  28.784  27.818  1.00  0.00     0.029 A 
ATOM     40  N   UNL A   1      39.907  28.696  29.643  1.00  0.00    -0.354 N 
ATOM     41  C   UNL A   1      38.950  31.001  33.162  1.00  0.00     0.074 A 
ATOM     42  C   UNL A   1      37.748  31.780  32.968  1.00  0.00     0.031 C 
ATOM     43  C   UNL A   1      39.667  27.995  27.533  1.00  0.00     0.029 A 
ATOM     44  C   UNL A   1      40.555  27.944  28.690  1.00  0.00     0.049 A 
ATOM     45  H   UNL A   1      40.251  28.819  30.557  1.00  0.00     0.167 HD
ATOM     46  C   UNL A   1      39.692  31.014  34.295  1.00  0.00     0.034 A 
ATOM     47  C   UNL A   1      41.739  27.303  28.732  1.00  0.00     0.034 A 
ATOM     48  C   UNL A   1      40.878  30.225  34.490  1.00  0.00     0.049 A 
ATOM     49  C   UNL A   1      42.545  27.335  30.003  1.00  0.00     0.074 A 
ATOM     50  C   UNL A   1      41.654  30.111  35.629  1.00  0.00     0.029 A 
ATOM     51  N   UNL A   1      41.475  29.437  33.518  1.00  0.00    -0.354 N 
ATOM     52  N   UNL A   1      42.268  27.927  31.139  1.00  0.00    -0.248 NA
ATOM     53  C   UNL A   1      43.809  26.586  30.008  1.00  0.00     0.031 C 
ATOM     54  C   UNL A   1      42.752  29.299  35.330  1.00  0.00     0.029 A 
ATOM     55  C   UNL A   1      42.624  28.853  34.025  1.00  0.00     0.049 A 
ATOM     56  H   UNL A   1      41.133  29.312  32.604  1.00  0.00     0.167 HD
ATOM     57  C   UNL A   1      43.301  27.589  32.006  1.00  0.00     0.074 A 
ATOM     58  C   UNL A   1      44.200  26.726  31.267  1.00  0.00     0.031 C 
ATOM     59  C   UNL A   1      43.491  27.964  33.295  1.00  0.00     0.034 A 
BRANCH  46  60
ATOM     60  C   UNL A   1      39.231  31.900  35.423  1.00  0.00     0.023 A 
ATOM     61  C   UNL A   1      38.348  31.397  36.401  1.00  0.00     0.012 A 
ATOM     62  C   UNL A   1      39.720  33.216  35.546  1.00  0.00     0.148 A 
ATOM     63  C   UNL A   1      37.927  32.202  37.460  1.00  0.00     0.002 A 
ATOM     64  C   UNL A   1      39.336  33.994  36.632  1.00  0.00     0.091 A 
ATOM     65  F   UNL A   1      40.544  33.683  34.598  1.00  0.00    -0.205 F 
ATOM     66  C   UNL A   1      38.428  33.495  37.580  1.00  0.00     0.022 A 
BRANCH  64  67
ATOM     67  S   UNL A   1      39.991  35.640  36.925  1.00  0.00     0.127 S 
ATOM     68  O   UNL A   1      39.340  35.996  38.185  1.00  0.00    -0.237 OA
ATOM     69  O   UNL A   1      41.426  35.383  37.030  1.00  0.00    -0.237 OA
ATOM     70  O   UNL A   1      39.598  36.443  35.774  1.00  0.00    -0.744 OA
ENDBRANCH  64  67
ENDBRANCH  46  60
BRANCH  47  71
ATOM     71  C   UNL A   1      42.227  26.551  27.541  1.00  0.00     0.023 A 
ATOM     72  C   UNL A   1      42.956  27.222  26.540  1.00  0.00     0.012 A 
ATOM     73  C   UNL A   1      41.977  25.173  27.401  1.00  0.00     0.148 A 
ATOM     74  C   UNL A   1      43.393  26.542  25.401  1.00  0.00     0.002 A 
ATOM     75  C   UNL A   1      42.465  24.489  26.294  1.00  0.00     0.091 A 
ATOM     76  F   UNL A   1      41.276  24.555  28.362  1.00  0.00    -0.205 F 
ATOM     77  C   UNL A   1      43.155  25.175  25.283  1.00  0.00     0.022 A 
BRANCH  75  78
ATOM     78  S   UNL A   1      42.316  22.708  26.118  1.00  0.00     0.127 S 
ATOM     79  O   UNL A   1      40.869  22.521  26.190  1.00  0.00    -0.237 OA
ATOM     80  O   UNL A   1      42.903  22.489  24.796  1.00  0.00    -0.237 OA
ATOM     81  O   UNL A   1      43.079  22.134  27.218  1.00  0.00    -0.744 OA
ENDBRANCH  75  78
ENDBRANCH  47  71
BRANCH  59  82
ATOM     82  C   UNL A   1      44.686  27.402  34.022  1.00  0.00     0.023 A 
ATOM     83  C   UNL A   1      45.923  28.074  33.989  1.00  0.00     0.012 A 
ATOM     84  C   UNL A   1      44.554  26.235  34.801  1.00  0.00     0.148 A 
ATOM     85  C   UNL A   1      47.019  27.573  34.690  1.00  0.00     0.002 A 
ATOM     86  C   UNL A   1      45.634  25.774  35.542  1.00  0.00     0.091 A 
ATOM     87  F   UNL A   1      43.372  25.602  34.807  1.00  0.00    -0.205 F 
ATOM     88  C   UNL A   1      46.872  26.432  35.475  1.00  0.00     0.022 A 
BRANCH  86  89
ATOM     89  S   UNL A   1      45.510  24.373  36.659  1.00  0.00     0.127 S 
ATOM     90  O   UNL A   1      46.841  24.356  37.263  1.00  0.00    -0.237 OA
ATOM     91  O   UNL A   1      44.436  24.792  37.559  1.00  0.00    -0.237 OA
ATOM     92  O   UNL A   1      45.191  23.219  35.829  1.00  0.00    -0.744 OA
ENDBRANCH  86  89
ENDBRANCH  59  82
ENDBRANCH  33  34
ENDBRANCH  25  28
ENDBRANCH  23  24
ENDBRANCH   1  23
TORSDOF 16
ENDMDL
MODEL 3
REMARK VINA RESULT:     -10.2      4.147     10.449
REMARK SMILES C/C(=C(\C#N)C(=O)NCCCCNC(=O)c1ccc(-c2c3nc(c(-c4cccc(S(=O)(=O)[O-])c4F)c4ccc([nH]4)c(-c4cccc(S(=O)(=O)[O-])c4F)c4nc(c(-c5cccc(S(=O)(=O)[O-])c5F)c5ccc2[nH]5)C=C4)C=C3)cc1)c1cccc2ccccc12
REMARK SMILES IDX 11 1 10 2 9 3 8 4 6 5 7 6 3 8 1 9 2 10 79 11 80 12 88 13
REMARK SMILES IDX 81 14 83 15 87 16 82 17 84 18 86 19 85 20 4 21 5 22 12 23
REMARK SMILES IDX 13 24 14 25 15 27 16 28 17 29 78 30 18 31 77 32 19 33 20 34
REMARK SMILES IDX 21 35 71 36 22 37 76 38 70 39 72 40 23 41 75 42 69 43 68 44
REMARK SMILES IDX 24 46 56 47 36 48 55 49 37 50 40 51 54 52 73 53 38 54 39 55
REMARK SMILES IDX 53 57 74 58 41 59 25 60 26 61 34 62 27 63 29 64 35 65 28 66
REMARK SMILES IDX 30 67 31 68 32 69 33 70 57 71 58 72 66 73 59 74 61 75 67 76
REMARK SMILES IDX 60 77 62 78 63 79 64 80 65 81 42 82 43 83 51 84 44 85 46 86
REMARK SMILES IDX 52 87 45 88 47 89 48 90 49 91 50 92
REMARK H PARENT 8 7 13 26 72 45 40 56
REMARK Flexibility Score: inf
ROOT
ATOM      1  C   UNL A   1      31.841  31.199  26.902  1.00  0.00     0.023 C 
ENDROOT
BRANCH   1   2
ATOM      2  C   UNL A   1      32.183  29.888  26.191  1.00  0.00     0.023 C 
BRANCH   2   3
ATOM      3  C   UNL A   1      32.487  28.709  27.110  1.00  0.00     0.116 C 
BRANCH   3   4
ATOM      4  N   UNL A   1      31.508  27.637  27.025  1.00  0.00    -0.351 N 
ATOM      5  C   UNL A   1      31.236  26.641  26.132  1.00  0.00     0.262 C 
ATOM      6  O   UNL A   1      30.567  25.718  26.605  1.00  0.00    -0.268 OA
ATOM      7  H   UNL A   1      30.895  27.628  27.795  1.00  0.00     0.163 HD
BRANCH   5   8
ATOM      8  C   UNL A   1      31.697  26.618  24.686  1.00  0.00     0.120 C 
ATOM      9  C   UNL A   1      31.396  26.833  22.193  1.00  0.00     0.046 C 
ATOM     10  C   UNL A   1      30.909  26.980  23.620  1.00  0.00    -0.020 C 
BRANCH  10  11
ATOM     11  C   UNL A   1      29.525  27.559  23.765  1.00  0.00    -0.013 A 
ATOM     12  C   UNL A   1      28.496  26.634  24.027  1.00  0.00     0.009 A 
ATOM     13  C   UNL A   1      29.160  28.938  23.584  1.00  0.00    -0.011 A 
ATOM     14  C   UNL A   1      27.164  26.964  23.810  1.00  0.00     0.001 A 
ATOM     15  C   UNL A   1      27.814  29.217  23.229  1.00  0.00    -0.018 A 
ATOM     16  C   UNL A   1      29.983  30.083  23.780  1.00  0.00     0.009 A 
ATOM     17  C   UNL A   1      26.843  28.217  23.308  1.00  0.00     0.009 A 
ATOM     18  C   UNL A   1      27.410  30.509  22.865  1.00  0.00     0.009 A 
ATOM     19  C   UNL A   1      29.495  31.389  23.639  1.00  0.00     0.001 A 
ATOM     20  C   UNL A   1      28.227  31.602  23.123  1.00  0.00     0.001 A 
ENDBRANCH  10  11
BRANCH   8  21
ATOM     21  C   UNL A   1      33.016  26.143  24.412  1.00  0.00     0.105 C 
ATOM     22  N   UNL A   1      34.069  25.701  24.213  1.00  0.00    -0.192 NA
ENDBRANCH   8  21
ENDBRANCH   5   8
ENDBRANCH   3   4
ENDBRANCH   2   3
ENDBRANCH   1   2
BRANCH   1  23
ATOM     23  C   UNL A   1      33.029  32.089  27.257  1.00  0.00     0.116 C 
BRANCH  23  24
ATOM     24  N   UNL A   1      32.659  33.478  27.497  1.00  0.00    -0.352 N 
ATOM     25  C   UNL A   1      33.173  34.364  28.416  1.00  0.00     0.251 C 
ATOM     26  H   UNL A   1      31.942  33.831  26.921  1.00  0.00     0.163 HD
ATOM     27  O   UNL A   1      32.650  35.463  28.571  1.00  0.00    -0.269 OA
BRANCH  25  28
ATOM     28  C   UNL A   1      34.337  33.970  29.236  1.00  0.00     0.039 A 
ATOM     29  C   UNL A   1      34.122  33.279  30.431  1.00  0.00     0.014 A 
ATOM     30  C   UNL A   1      35.637  34.247  28.806  1.00  0.00     0.014 A 
ATOM     31  C   UNL A   1      35.215  32.802  31.156  1.00  0.00     0.010 A 
ATOM     32  C   UNL A   1      36.719  33.693  29.482  1.00  0.00     0.010 A 
ATOM     33  C   UNL A   1      36.522  32.967  30.666  1.00  0.00    -0.014 A 
BRANCH  33  34
ATOM     34  C   UNL A   1      37.688  32.373  31.370  1.00  0.00     0.031 A 
ATOM     35  C   UNL A   1      38.446  31.230  30.752  1.00  0.00     0.074 A 
ATOM     36  C   UNL A   1      38.019  32.813  32.601  1.00  0.00     0.049 A 
ATOM     37  N   UNL A   1      39.456  30.554  31.237  1.00  0.00    -0.248 NA
ATOM     38  C   UNL A   1      37.998  30.768  29.428  1.00  0.00     0.031 C 
ATOM     39  C   UNL A   1      37.321  33.867  33.339  1.00  0.00     0.029 A 
ATOM     40  N   UNL A   1      39.012  32.411  33.461  1.00  0.00    -0.354 N 
ATOM     41  C   UNL A   1      39.742  29.570  30.298  1.00  0.00     0.074 A 
ATOM     42  C   UNL A   1      38.776  29.713  29.231  1.00  0.00     0.031 C 
ATOM     43  C   UNL A   1      37.913  34.038  34.531  1.00  0.00     0.029 A 
ATOM     44  C   UNL A   1      39.001  33.074  34.666  1.00  0.00     0.049 A 
ATOM     45  H   UNL A   1      39.670  31.714  33.236  1.00  0.00     0.167 HD
ATOM     46  C   UNL A   1      40.732  28.646  30.309  1.00  0.00     0.034 A 
ATOM     47  C   UNL A   1      39.764  32.914  35.765  1.00  0.00     0.034 A 
ATOM     48  C   UNL A   1      41.700  28.518  31.364  1.00  0.00     0.049 A 
ATOM     49  C   UNL A   1      40.856  31.878  35.753  1.00  0.00     0.074 A 
ATOM     50  C   UNL A   1      42.787  27.665  31.431  1.00  0.00     0.029 A 
ATOM     51  N   UNL A   1      41.686  29.242  32.546  1.00  0.00    -0.354 N 
ATOM     52  N   UNL A   1      41.200  31.054  34.793  1.00  0.00    -0.248 NA
ATOM     53  C   UNL A   1      41.686  31.772  36.962  1.00  0.00     0.031 C 
ATOM     54  C   UNL A   1      43.398  27.833  32.677  1.00  0.00     0.029 A 
ATOM     55  C   UNL A   1      42.731  28.838  33.360  1.00  0.00     0.049 A 
ATOM     56  H   UNL A   1      41.030  29.940  32.773  1.00  0.00     0.167 HD
ATOM     57  C   UNL A   1      42.309  30.361  35.266  1.00  0.00     0.074 A 
ATOM     58  C   UNL A   1      42.589  30.875  36.591  1.00  0.00     0.031 C 
ATOM     59  C   UNL A   1      43.026  29.383  34.660  1.00  0.00     0.034 A 
BRANCH  46  60
ATOM     60  C   UNL A   1      40.829  27.707  29.135  1.00  0.00     0.023 A 
ATOM     61  C   UNL A   1      40.012  26.559  29.079  1.00  0.00     0.012 A 
ATOM     62  C   UNL A   1      41.690  27.994  28.057  1.00  0.00     0.148 A 
ATOM     63  C   UNL A   1      40.081  25.690  27.990  1.00  0.00     0.002 A 
ATOM     64  C   UNL A   1      41.715  27.151  26.952  1.00  0.00     0.091 A 
ATOM     65  F   UNL A   1      42.472  29.080  28.135  1.00  0.00    -0.205 F 
ATOM     66  C   UNL A   1      40.923  25.991  26.924  1.00  0.00     0.022 A 
BRANCH  64  67
ATOM     67  S   UNL A   1      42.701  27.496  25.492  1.00  0.00     0.127 S 
ATOM     68  O   UNL A   1      44.051  27.536  26.052  1.00  0.00    -0.237 OA
ATOM     69  O   UNL A   1      42.422  26.331  24.654  1.00  0.00    -0.237 OA
ATOM     70  O   UNL A   1      42.210  28.761  24.962  1.00  0.00    -0.744 OA
ENDBRANCH  64  67
ENDBRANCH  46  60
BRANCH  47  71
ATOM     71  C   UNL A   1      39.542  33.771  36.963  1.00  0.00     0.023 A 
ATOM     72  C   UNL A   1      39.965  35.115  36.951  1.00  0.00     0.012 A 
ATOM     73  C   UNL A   1      38.906  33.262  38.112  1.00  0.00     0.148 A 
ATOM     74  C   UNL A   1      39.795  35.924  38.076  1.00  0.00     0.002 A 
ATOM     75  C   UNL A   1      38.687  34.090  39.206  1.00  0.00     0.091 A 
ATOM     76  F   UNL A   1      38.516  31.980  38.105  1.00  0.00    -0.205 F 
ATOM     77  C   UNL A   1      39.150  35.415  39.199  1.00  0.00     0.022 A 
BRANCH  75  78
ATOM     78  S   UNL A   1      37.754  33.558  40.646  1.00  0.00     0.127 S 
ATOM     79  O   UNL A   1      38.634  32.539  41.212  1.00  0.00    -0.237 OA
ATOM     80  O   UNL A   1      37.667  34.797  41.419  1.00  0.00    -0.237 OA
ATOM     81  O   UNL A   1      36.478  33.075  40.136  1.00  0.00    -0.744 OA
ENDBRANCH  75  78
ENDBRANCH  47  71
BRANCH  59  82
ATOM     82  C   UNL A   1      44.226  28.835  35.391  1.00  0.00     0.023 A 
ATOM     83  C   UNL A   1      45.500  29.403  35.197  1.00  0.00     0.012 A 
ATOM     84  C   UNL A   1      44.067  27.796  36.329  1.00  0.00     0.148 A 
ATOM     85  C   UNL A   1      46.604  28.920  35.899  1.00  0.00     0.002 A 
ATOM     86  C   UNL A   1      45.160  27.359  37.066  1.00  0.00     0.091 A 
ATOM     87  F   UNL A   1      42.849  27.259  36.487  1.00  0.00    -0.205 F 
ATOM     88  C   UNL A   1      46.432  27.909  36.841  1.00  0.00     0.022 A 
BRANCH  86  89
ATOM     89  S   UNL A   1      45.017  26.132  38.370  1.00  0.00     0.127 S 
ATOM     90  O   UNL A   1      44.598  24.950  37.620  1.00  0.00    -0.237 OA
ATOM     91  O   UNL A   1      46.384  26.074  38.888  1.00  0.00    -0.237 OA
ATOM     92  O   UNL A   1      44.033  26.652  39.310  1.00  0.00    -0.744 OA
ENDBRANCH  86  89
ENDBRANCH  59  82
ENDBRANCH  33  34
ENDBRANCH  25  28
ENDBRANCH  23  24
ENDBRANCH   1  23
TORSDOF 16
ENDMDL
