MODEL 1
REMARK VINA RESULT:     -12.0      0.000      0.000
REMARK SMILES CC(C)(C)OC(=O)N1CC[N@H+](Cc2ccc(Cl)nc2)[C@H](C(=O)NCCCCNC(=O)c2ccc(-c3c4nc(c(-c5cccc(S(=O)(=O)[O-])c5F)c5ccc([nH]5)c(-c5cccc(S(=O)(=O)[O-])c5F)c5nc(c(-c6cccc(S(=O)(=O)[O-])c6F)c6ccc3[nH]6)C=C5)C=C4)cc2)C1
REMARK SMILES IDX 25 1 24 2 23 3 21 4 22 5 20 7 8 8 9 9 94 10 10 11 11 12 6 14
REMARK SMILES IDX 7 15 5 16 2 17 1 18 3 19 4 20 12 21 13 22 14 23 19 24 15 25
REMARK SMILES IDX 18 26 16 27 17 28 26 29 27 30 28 31 29 32 30 34 31 35 32 36
REMARK SMILES IDX 93 37 33 38 92 39 34 40 35 41 36 42 86 43 37 44 91 45 85 46
REMARK SMILES IDX 87 47 38 48 90 49 84 50 83 51 39 53 71 54 51 55 70 56 52 57
REMARK SMILES IDX 55 58 69 59 88 60 53 61 54 62 68 64 89 65 56 66 40 67 41 68
REMARK SMILES IDX 49 69 42 70 44 71 50 72 43 73 45 74 46 75 47 76 48 77 72 78
REMARK SMILES IDX 73 79 81 80 74 81 76 82 82 83 75 84 77 85 78 86 79 87 80 88
REMARK SMILES IDX 57 89 58 90 66 91 59 92 61 93 67 94 60 95 62 96 63 97 64 98
REMARK SMILES IDX 65 99
REMARK H PARENT 23 6 11 13 28 33 87 52 55 63
REMARK Flexibility Score: inf
ROOT
ATOM      1  C   UNL A   1      31.150  30.731  25.426  1.00  0.00     0.023 C 
ENDROOT
BRANCH   1   2
ATOM      2  C   UNL A   1      32.198  29.801  26.033  1.00  0.00     0.116 C 
BRANCH   2   3
ATOM      3  N   UNL A   1      33.066  29.231  25.019  1.00  0.00    -0.351 N 
ATOM      4  C   UNL A   1      33.266  27.928  24.657  1.00  0.00     0.280 C 
ATOM      5  O   UNL A   1      34.118  27.722  23.792  1.00  0.00    -0.268 OA
ATOM      6  H   UNL A   1      33.594  29.887  24.511  1.00  0.00     0.163 HD
BRANCH   4   7
ATOM      7  C   UNL A   1      32.474  26.809  25.358  1.00  0.00     0.294 C 
ATOM      8  N   UNL A   1      32.552  24.388  26.001  1.00  0.00    -0.296 N 
ATOM      9  C   UNL A   1      31.106  24.314  25.855  1.00  0.00     0.184 C 
ATOM     10  C   UNL A   1      33.257  25.484  25.325  1.00  0.00     0.198 C 
ATOM     11  C   UNL A   1      30.390  25.675  25.786  1.00  0.00     0.285 C 
ATOM     12  N   UNL A   1      31.038  26.714  24.970  1.00  0.00    -0.318 N 
ATOM     13  H   UNL A   1      30.661  27.637  25.186  1.00  0.00     0.349 HD
BRANCH   8  14
ATOM     14  C   UNL A   1      33.195  23.231  26.406  1.00  0.00     0.410 C 
ATOM     15  O   UNL A   1      34.124  23.235  27.204  1.00  0.00    -0.224 OA
BRANCH  14  16
ATOM     16  O   UNL A   1      32.738  22.129  25.759  1.00  0.00    -0.444 OA
BRANCH  16  17
ATOM     17  C   UNL A   1      33.474  21.581  24.630  1.00  0.00     0.106 C 
ATOM     18  C   UNL A   1      32.642  21.960  23.395  1.00  0.00     0.056 C 
ATOM     19  C   UNL A   1      33.541  20.057  24.748  1.00  0.00     0.056 C 
ATOM     20  C   UNL A   1      34.874  22.194  24.455  1.00  0.00     0.056 C 
ENDBRANCH  16  17
ENDBRANCH  14  16
ENDBRANCH   8  14
BRANCH  12  21
ATOM     21  C   UNL A   1      30.648  26.725  23.553  1.00  0.00     0.301 C 
BRANCH  21  22
ATOM     22  C   UNL A   1      29.913  27.927  23.019  1.00  0.00     0.025 A 
ATOM     23  C   UNL A   1      28.556  28.136  23.290  1.00  0.00     0.014 A 
ATOM     24  C   UNL A   1      30.552  28.884  22.235  1.00  0.00     0.122 A 
ATOM     25  C   UNL A   1      27.880  29.193  22.687  1.00  0.00     0.041 A 
ATOM     26  N   UNL A   1      29.927  29.931  21.649  1.00  0.00    -0.244 NA
ATOM     27  C   UNL A   1      28.605  30.041  21.873  1.00  0.00     0.129 A 
ATOM     28  Cl  UNL A   1      27.840  31.335  21.048  1.00  0.00    -0.062 Cl
ENDBRANCH  21  22
ENDBRANCH  12  21
ENDBRANCH   4   7
ENDBRANCH   2   3
ENDBRANCH   1   2
BRANCH   1  29
ATOM     29  C   UNL A   1      31.061  32.120  26.063  1.00  0.00     0.023 C 
BRANCH  29  30
ATOM     30  C   UNL A   1      32.028  32.388  27.214  1.00  0.00     0.116 C 
BRANCH  30  31
ATOM     31  N   UNL A   1      32.259  33.805  27.447  1.00  0.00    -0.352 N 
ATOM     32  C   UNL A   1      33.280  34.427  28.127  1.00  0.00     0.251 C 
ATOM     33  H   UNL A   1      31.584  34.409  27.062  1.00  0.00     0.163 HD
ATOM     34  O   UNL A   1      33.231  35.641  28.309  1.00  0.00    -0.269 OA
BRANCH  32  35
ATOM     35  C   UNL A   1      34.413  33.643  28.667  1.00  0.00     0.039 A 
ATOM     36  C   UNL A   1      35.700  34.180  28.576  1.00  0.00     0.014 A 
ATOM     37  C   UNL A   1      34.221  32.389  29.256  1.00  0.00     0.014 A 
ATOM     38  C   UNL A   1      36.782  33.495  29.134  1.00  0.00     0.010 A 
ATOM     39  C   UNL A   1      35.291  31.738  29.870  1.00  0.00     0.010 A 
ATOM     40  C   UNL A   1      36.581  32.284  29.820  1.00  0.00    -0.014 A 
BRANCH  40  41
ATOM     41  C   UNL A   1      37.706  31.613  30.523  1.00  0.00     0.031 A 
ATOM     42  C   UNL A   1      38.519  30.546  29.841  1.00  0.00     0.074 A 
ATOM     43  C   UNL A   1      37.951  31.919  31.813  1.00  0.00     0.049 A 
ATOM     44  N   UNL A   1      39.534  29.864  30.306  1.00  0.00    -0.248 NA
ATOM     45  C   UNL A   1      38.129  30.179  28.471  1.00  0.00     0.031 C 
ATOM     46  C   UNL A   1      37.174  32.865  32.619  1.00  0.00     0.029 A 
ATOM     47  N   UNL A   1      38.906  31.453  32.681  1.00  0.00    -0.354 N 
ATOM     48  C   UNL A   1      39.889  28.972  29.301  1.00  0.00     0.074 A 
ATOM     49  C   UNL A   1      38.958  29.175  28.212  1.00  0.00     0.031 C 
ATOM     50  C   UNL A   1      37.690  32.917  33.857  1.00  0.00     0.029 A 
ATOM     51  C   UNL A   1      38.820  31.996  33.942  1.00  0.00     0.049 A 
ATOM     52  H   UNL A   1      39.589  30.792  32.426  1.00  0.00     0.167 HD
ATOM     53  C   UNL A   1      40.914  28.088  29.271  1.00  0.00     0.034 A 
ATOM     54  C   UNL A   1      39.568  31.785  35.042  1.00  0.00     0.034 A 
ATOM     55  C   UNL A   1      41.868  27.918  30.336  1.00  0.00     0.049 A 
ATOM     56  C   UNL A   1      40.738  30.843  34.960  1.00  0.00     0.074 A 
ATOM     57  C   UNL A   1      42.995  27.115  30.362  1.00  0.00     0.029 A 
ATOM     58  N   UNL A   1      41.804  28.553  31.566  1.00  0.00    -0.354 N 
ATOM     59  N   UNL A   1      41.166  30.144  33.936  1.00  0.00    -0.248 NA
ATOM     60  C   UNL A   1      41.555  30.691  36.173  1.00  0.00     0.031 C 
ATOM     61  C   UNL A   1      43.606  27.257  31.613  1.00  0.00     0.029 A 
ATOM     62  C   UNL A   1      42.868  28.159  32.361  1.00  0.00     0.049 A 
ATOM     63  H   UNL A   1      41.106  29.193  31.835  1.00  0.00     0.167 HD
ATOM     64  C   UNL A   1      42.314  29.494  34.372  1.00  0.00     0.074 A 
ATOM     65  C   UNL A   1      42.533  29.908  35.743  1.00  0.00     0.031 C 
ATOM     66  C   UNL A   1      43.103  28.614  33.706  1.00  0.00     0.034 A 
BRANCH  53  67
ATOM     67  C   UNL A   1      41.108  27.283  28.013  1.00  0.00     0.023 A 
ATOM     68  C   UNL A   1      41.682  27.901  26.882  1.00  0.00     0.012 A 
ATOM     69  C   UNL A   1      40.794  25.910  27.964  1.00  0.00     0.148 A 
ATOM     70  C   UNL A   1      41.913  27.175  25.714  1.00  0.00     0.002 A 
ATOM     71  C   UNL A   1      41.064  25.183  26.810  1.00  0.00     0.091 A 
ATOM     72  F   UNL A   1      40.231  25.345  29.041  1.00  0.00    -0.205 F 
ATOM     73  C   UNL A   1      41.615  25.816  25.682  1.00  0.00     0.022 A 
BRANCH  71  74
ATOM     74  S   UNL A   1      40.785  23.413  26.690  1.00  0.00     0.127 S 
ATOM     75  O   UNL A   1      41.172  22.963  28.026  1.00  0.00    -0.237 OA
ATOM     76  O   UNL A   1      39.349  23.344  26.417  1.00  0.00    -0.237 OA
ATOM     77  O   UNL A   1      41.633  22.946  25.602  1.00  0.00    -0.744 OA
ENDBRANCH  71  74
ENDBRANCH  53  67
BRANCH  54  78
ATOM     78  C   UNL A   1      39.285  32.544  36.292  1.00  0.00     0.023 A 
ATOM     79  C   UNL A   1      39.901  33.795  36.493  1.00  0.00     0.012 A 
ATOM     80  C   UNL A   1      38.395  32.052  37.266  1.00  0.00     0.148 A 
ATOM     81  C   UNL A   1      39.661  34.528  37.656  1.00  0.00     0.002 A 
ATOM     82  C   UNL A   1      38.118  32.813  38.397  1.00  0.00     0.091 A 
ATOM     83  F   UNL A   1      37.832  30.853  37.066  1.00  0.00    -0.205 F 
ATOM     84  C   UNL A   1      38.763  34.043  38.601  1.00  0.00     0.022 A 
BRANCH  82  85
ATOM     85  S   UNL A   1      36.872  32.323  39.593  1.00  0.00     0.127 S 
ATOM     86  O   UNL A   1      37.084  33.294  40.663  1.00  0.00    -0.237 OA
ATOM     87  O   UNL A   1      35.632  32.502  38.835  1.00  0.00    -0.237 OA
ATOM     88  O   UNL A   1      37.174  30.936  39.919  1.00  0.00    -0.744 OA
ENDBRANCH  82  85
ENDBRANCH  54  78
BRANCH  66  89
ATOM     89  C   UNL A   1      44.288  28.050  34.446  1.00  0.00     0.023 A 
ATOM     90  C   UNL A   1      45.532  28.706  34.368  1.00  0.00     0.012 A 
ATOM     91  C   UNL A   1      44.162  26.903  35.254  1.00  0.00     0.148 A 
ATOM     92  C   UNL A   1      46.642  28.210  35.051  1.00  0.00     0.002 A 
ATOM     93  C   UNL A   1      45.261  26.439  35.969  1.00  0.00     0.091 A 
ATOM     94  F   UNL A   1      42.977  26.277  35.300  1.00  0.00    -0.205 F 
ATOM     95  C   UNL A   1      46.504  27.083  35.859  1.00  0.00     0.022 A 
BRANCH  93  96
ATOM     96  S   UNL A   1      45.145  25.049  37.101  1.00  0.00     0.127 S 
ATOM     97  O   UNL A   1      44.890  23.938  36.186  1.00  0.00    -0.237 OA
ATOM     98  O   UNL A   1      46.470  25.035  37.722  1.00  0.00    -0.237 OA
ATOM     99  O   UNL A   1      44.059  25.376  38.015  1.00  0.00    -0.744 OA
ENDBRANCH  93  96
ENDBRANCH  66  89
ENDBRANCH  40  41
ENDBRANCH  32  35
ENDBRANCH  30  31
ENDBRANCH  29  30
ENDBRANCH   1  29
TORSDOF 19
ENDMDL
MODEL 2
REMARK VINA RESULT:     -11.6      5.834      9.796
REMARK SMILES CC(C)(C)OC(=O)N1CC[N@H+](Cc2ccc(Cl)nc2)[C@H](C(=O)NCCCCNC(=O)c2ccc(-c3c4nc(c(-c5cccc(S(=O)(=O)[O-])c5F)c5ccc([nH]5)c(-c5cccc(S(=O)(=O)[O-])c5F)c5nc(c(-c6cccc(S(=O)(=O)[O-])c6F)c6ccc3[nH]6)C=C5)C=C4)cc2)C1
REMARK SMILES IDX 25 1 24 2 23 3 21 4 22 5 20 7 8 8 9 9 94 10 10 11 11 12 6 14
REMARK SMILES IDX 7 15 5 16 2 17 1 18 3 19 4 20 12 21 13 22 14 23 19 24 15 25
REMARK SMILES IDX 18 26 16 27 17 28 26 29 27 30 28 31 29 32 30 34 31 35 32 36
REMARK SMILES IDX 93 37 33 38 92 39 34 40 35 41 36 42 86 43 37 44 91 45 85 46
REMARK SMILES IDX 87 47 38 48 90 49 84 50 83 51 39 53 71 54 51 55 70 56 52 57
REMARK SMILES IDX 55 58 69 59 88 60 53 61 54 62 68 64 89 65 56 66 40 67 41 68
REMARK SMILES IDX 49 69 42 70 44 71 50 72 43 73 45 74 46 75 47 76 48 77 72 78
REMARK SMILES IDX 73 79 81 80 74 81 76 82 82 83 75 84 77 85 78 86 79 87 80 88
REMARK SMILES IDX 57 89 58 90 66 91 59 92 61 93 67 94 60 95 62 96 63 97 64 98
REMARK SMILES IDX 65 99
REMARK H PARENT 23 6 11 13 28 33 87 52 55 63
REMARK Flexibility Score: inf
ROOT
ATOM      1  C   UNL A   1      38.695  21.938  25.804  1.00  0.00     0.023 C 
ENDROOT
BRANCH   1   2
ATOM      2  C   UNL A   1      37.382  22.396  25.174  1.00  0.00     0.116 C 
BRANCH   2   3
ATOM      3  N   UNL A   1      36.341  22.576  26.169  1.00  0.00    -0.351 N 
ATOM      4  C   UNL A   1      35.161  23.263  26.101  1.00  0.00     0.280 C 
ATOM      5  O   UNL A   1      34.485  23.300  27.129  1.00  0.00    -0.268 OA
ATOM      6  H   UNL A   1      36.511  22.131  27.031  1.00  0.00     0.163 HD
BRANCH   4   7
ATOM      7  C   UNL A   1      34.767  23.977  24.794  1.00  0.00     0.294 C 
ATOM      8  N   UNL A   1      33.702  26.052  23.877  1.00  0.00    -0.296 N 
ATOM      9  C   UNL A   1      33.204  25.283  22.746  1.00  0.00     0.184 C 
ATOM     10  C   UNL A   1      34.079  25.321  25.094  1.00  0.00     0.198 C 
ATOM     11  C   UNL A   1      33.857  23.901  22.563  1.00  0.00     0.285 C 
ATOM     12  N   UNL A   1      34.081  23.117  23.788  1.00  0.00    -0.318 N 
ATOM     13  H   UNL A   1      34.742  22.358  23.620  1.00  0.00     0.349 HD
BRANCH   8  14
ATOM     14  C   UNL A   1      33.407  27.404  23.887  1.00  0.00     0.410 C 
ATOM     15  O   UNL A   1      33.430  28.093  22.874  1.00  0.00    -0.224 OA
BRANCH  14  16
ATOM     16  O   UNL A   1      33.181  27.878  25.137  1.00  0.00    -0.444 OA
BRANCH  16  17
ATOM     17  C   UNL A   1      31.826  28.171  25.579  1.00  0.00     0.106 C 
ATOM     18  C   UNL A   1      31.719  29.703  25.538  1.00  0.00     0.056 C 
ATOM     19  C   UNL A   1      31.636  27.687  27.018  1.00  0.00     0.056 C 
ATOM     20  C   UNL A   1      30.742  27.603  24.647  1.00  0.00     0.056 C 
ENDBRANCH  16  17
ENDBRANCH  14  16
ENDBRANCH   8  14
BRANCH  12  21
ATOM     21  C   UNL A   1      32.962  22.252  24.188  1.00  0.00     0.301 C 
BRANCH  21  22
ATOM     22  C   UNL A   1      33.103  20.763  24.005  1.00  0.00     0.025 A 
ATOM     23  C   UNL A   1      32.252  20.045  23.156  1.00  0.00     0.014 A 
ATOM     24  C   UNL A   1      34.088  20.037  24.669  1.00  0.00     0.122 A 
ATOM     25  C   UNL A   1      32.335  18.657  23.099  1.00  0.00     0.041 A 
ATOM     26  N   UNL A   1      34.206  18.690  24.620  1.00  0.00    -0.244 NA
ATOM     27  C   UNL A   1      33.311  18.038  23.856  1.00  0.00     0.129 A 
ATOM     28  Cl  UNL A   1      33.448  16.329  23.886  1.00  0.00    -0.062 Cl
ENDBRANCH  21  22
ENDBRANCH  12  21
ENDBRANCH   4   7
ENDBRANCH   2   3
ENDBRANCH   1   2
BRANCH   1  29
ATOM     29  C   UNL A   1      39.164  20.539  25.394  1.00  0.00     0.023 C 
BRANCH  29  30
ATOM     30  C   UNL A   1      39.880  19.733  26.475  1.00  0.00     0.116 C 
BRANCH  30  31
ATOM     31  N   UNL A   1      41.197  19.272  26.065  1.00  0.00    -0.352 N 
ATOM     32  C   UNL A   1      42.378  19.969  25.964  1.00  0.00     0.251 C 
ATOM     33  H   UNL A   1      41.252  18.319  25.824  1.00  0.00     0.163 HD
ATOM     34  O   UNL A   1      43.365  19.415  25.486  1.00  0.00    -0.269 OA
BRANCH  32  35
ATOM     35  C   UNL A   1      42.458  21.383  26.393  1.00  0.00     0.039 A 
ATOM     36  C   UNL A   1      42.569  21.661  27.759  1.00  0.00     0.014 A 
ATOM     37  C   UNL A   1      42.421  22.432  25.469  1.00  0.00     0.014 A 
ATOM     38  C   UNL A   1      42.713  22.982  28.190  1.00  0.00     0.010 A 
ATOM     39  C   UNL A   1      42.630  23.743  25.896  1.00  0.00     0.010 A 
ATOM     40  C   UNL A   1      42.782  24.033  27.260  1.00  0.00    -0.014 A 
BRANCH  40  41
ATOM     41  C   UNL A   1      43.059  25.424  27.704  1.00  0.00     0.031 A 
ATOM     42  C   UNL A   1      44.463  25.964  27.725  1.00  0.00     0.074 A 
ATOM     43  C   UNL A   1      42.043  26.183  28.161  1.00  0.00     0.049 A 
ATOM     44  N   UNL A   1      44.880  27.153  28.078  1.00  0.00    -0.248 NA
ATOM     45  C   UNL A   1      45.540  25.048  27.320  1.00  0.00     0.031 C 
ATOM     46  C   UNL A   1      40.650  25.744  28.284  1.00  0.00     0.029 A 
ATOM     47  N   UNL A   1      42.024  27.474  28.625  1.00  0.00    -0.354 N 
ATOM     48  C   UNL A   1      46.265  27.122  27.964  1.00  0.00     0.074 A 
ATOM     49  C   UNL A   1      46.622  25.785  27.542  1.00  0.00     0.031 C 
ATOM     50  C   UNL A   1      39.913  26.751  28.780  1.00  0.00     0.029 A 
ATOM     51  C   UNL A   1      40.780  27.898  29.029  1.00  0.00     0.049 A 
ATOM     52  H   UNL A   1      42.826  28.043  28.667  1.00  0.00     0.167 HD
ATOM     53  C   UNL A   1      47.157  28.123  28.160  1.00  0.00     0.034 A 
ATOM     54  C   UNL A   1      40.377  29.080  29.536  1.00  0.00     0.034 A 
ATOM     55  C   UNL A   1      46.799  29.465  28.537  1.00  0.00     0.049 A 
ATOM     56  C   UNL A   1      41.380  30.191  29.685  1.00  0.00     0.074 A 
ATOM     57  C   UNL A   1      47.622  30.570  28.669  1.00  0.00     0.029 A 
ATOM     58  N   UNL A   1      45.515  29.885  28.848  1.00  0.00    -0.354 N 
ATOM     59  N   UNL A   1      42.659  30.194  29.396  1.00  0.00    -0.248 NA
ATOM     60  C   UNL A   1      40.876  31.477  30.190  1.00  0.00     0.031 C 
ATOM     61  C   UNL A   1      46.836  31.656  29.072  1.00  0.00     0.029 A 
ATOM     62  C   UNL A   1      45.522  31.230  29.177  1.00  0.00     0.049 A 
ATOM     63  H   UNL A   1      44.715  29.311  28.836  1.00  0.00     0.167 HD
ATOM     64  C   UNL A   1      43.106  31.484  29.657  1.00  0.00     0.074 A 
ATOM     65  C   UNL A   1      41.953  32.244  30.096  1.00  0.00     0.031 C 
ATOM     66  C   UNL A   1      44.361  31.988  29.566  1.00  0.00     0.034 A 
BRANCH  53  67
ATOM     67  C   UNL A   1      48.611  27.825  27.899  1.00  0.00     0.023 A 
ATOM     68  C   UNL A   1      49.403  27.295  28.939  1.00  0.00     0.012 A 
ATOM     69  C   UNL A   1      49.177  28.000  26.621  1.00  0.00     0.148 A 
ATOM     70  C   UNL A   1      50.740  26.970  28.721  1.00  0.00     0.002 A 
ATOM     71  C   UNL A   1      50.501  27.637  26.400  1.00  0.00     0.091 A 
ATOM     72  F   UNL A   1      48.416  28.524  25.651  1.00  0.00    -0.205 F 
ATOM     73  C   UNL A   1      51.286  27.131  27.450  1.00  0.00     0.022 A 
BRANCH  71  74
ATOM     74  S   UNL A   1      51.278  27.735  24.783  1.00  0.00     0.127 S 
ATOM     75  O   UNL A   1      50.389  26.898  23.978  1.00  0.00    -0.237 OA
ATOM     76  O   UNL A   1      51.198  29.167  24.489  1.00  0.00    -0.237 OA
ATOM     77  O   UNL A   1      52.631  27.226  24.956  1.00  0.00    -0.744 OA
ENDBRANCH  71  74
ENDBRANCH  53  67
BRANCH  54  78
ATOM     78  C   UNL A   1      38.939  29.300  29.860  1.00  0.00     0.023 A 
ATOM     79  C   UNL A   1      38.470  28.989  31.152  1.00  0.00     0.012 A 
ATOM     80  C   UNL A   1      38.044  29.834  28.914  1.00  0.00     0.148 A 
ATOM     81  C   UNL A   1      37.128  29.178  31.486  1.00  0.00     0.002 A 
ATOM     82  C   UNL A   1      36.721  30.071  29.270  1.00  0.00     0.091 A 
ATOM     83  F   UNL A   1      38.505  30.106  27.685  1.00  0.00    -0.205 F 
ATOM     84  C   UNL A   1      36.257  29.728  30.550  1.00  0.00     0.022 A 
BRANCH  82  85
ATOM     85  S   UNL A   1      35.572  30.902  28.169  1.00  0.00     0.127 S 
ATOM     86  O   UNL A   1      36.365  32.038  27.709  1.00  0.00    -0.237 OA
ATOM     87  O   UNL A   1      35.320  29.875  27.156  1.00  0.00    -0.237 OA
ATOM     88  O   UNL A   1      34.413  31.222  28.991  1.00  0.00    -0.744 OA
ENDBRANCH  82  85
ENDBRANCH  54  78
BRANCH  66  89
ATOM     89  C   UNL A   1      44.554  33.437  29.933  1.00  0.00     0.023 A 
ATOM     90  C   UNL A   1      44.922  33.775  31.250  1.00  0.00     0.012 A 
ATOM     91  C   UNL A   1      44.419  34.456  28.970  1.00  0.00     0.148 A 
ATOM     92  C   UNL A   1      45.115  35.108  31.614  1.00  0.00     0.002 A 
ATOM     93  C   UNL A   1      44.658  35.779  29.328  1.00  0.00     0.091 A 
ATOM     94  F   UNL A   1      44.046  34.119  27.727  1.00  0.00    -0.205 F 
ATOM     95  C   UNL A   1      44.993  36.108  30.651  1.00  0.00     0.022 A 
BRANCH  93  96
ATOM     96  S   UNL A   1      44.610  37.114  28.128  1.00  0.00     0.127 S 
ATOM     97  O   UNL A   1      45.590  36.665  27.141  1.00  0.00    -0.237 OA
ATOM     98  O   UNL A   1      43.221  37.076  27.668  1.00  0.00    -0.237 OA
ATOM     99  O   UNL A   1      44.963  38.319  28.866  1.00  0.00    -0.744 OA
ENDBRANCH  93  96
ENDBRANCH  66  89
ENDBRANCH  40  41
ENDBRANCH  32  35
ENDBRANCH  30  31
ENDBRANCH  29  30
ENDBRANCH   1  29
TORSDOF 19
ENDMDL
MODEL 3
REMARK VINA RESULT:     -11.5      1.087      7.430
REMARK SMILES CC(C)(C)OC(=O)N1CC[N@H+](Cc2ccc(Cl)nc2)[C@H](C(=O)NCCCCNC(=O)c2ccc(-c3c4nc(c(-c5cccc(S(=O)(=O)[O-])c5F)c5ccc([nH]5)c(-c5cccc(S(=O)(=O)[O-])c5F)c5nc(c(-c6cccc(S(=O)(=O)[O-])c6F)c6ccc3[nH]6)C=C5)C=C4)cc2)C1
REMARK SMILES IDX 25 1 24 2 23 3 21 4 22 5 20 7 8 8 9 9 94 10 10 11 11 12 6 14
REMARK SMILES IDX 7 15 5 16 2 17 1 18 3 19 4 20 12 21 13 22 14 23 19 24 15 25
REMARK SMILES IDX 18 26 16 27 17 28 26 29 27 30 28 31 29 32 30 34 31 35 32 36
REMARK SMILES IDX 93 37 33 38 92 39 34 40 35 41 36 42 86 43 37 44 91 45 85 46
REMARK SMILES IDX 87 47 38 48 90 49 84 50 83 51 39 53 71 54 51 55 70 56 52 57
REMARK SMILES IDX 55 58 69 59 88 60 53 61 54 62 68 64 89 65 56 66 40 67 41 68
REMARK SMILES IDX 49 69 42 70 44 71 50 72 43 73 45 74 46 75 47 76 48 77 72 78
REMARK SMILES IDX 73 79 81 80 74 81 76 82 82 83 75 84 77 85 78 86 79 87 80 88
REMARK SMILES IDX 57 89 58 90 66 91 59 92 61 93 67 94 60 95 62 96 63 97 64 98
REMARK SMILES IDX 65 99
REMARK H PARENT 23 6 11 13 28 33 87 52 55 63
REMARK Flexibility Score: inf
ROOT
ATOM      1  C   UNL A   1      31.830  30.110  25.587  1.00  0.00     0.023 C 
ENDROOT
BRANCH   1   2
ATOM      2  C   UNL A   1      33.145  29.346  25.461  1.00  0.00     0.116 C 
BRANCH   2   3
ATOM      3  N   UNL A   1      33.576  29.236  24.080  1.00  0.00    -0.351 N 
ATOM      4  C   UNL A   1      33.648  28.145  23.259  1.00  0.00     0.280 C 
ATOM      5  O   UNL A   1      34.113  28.332  22.135  1.00  0.00    -0.268 OA
ATOM      6  H   UNL A   1      33.861  30.084  23.667  1.00  0.00     0.163 HD
BRANCH   4   7
ATOM      7  C   UNL A   1      33.200  26.767  23.780  1.00  0.00     0.294 C 
ATOM      8  N   UNL A   1      33.655  24.308  23.612  1.00  0.00    -0.296 N 
ATOM      9  C   UNL A   1      32.246  24.042  23.857  1.00  0.00     0.184 C 
ATOM     10  C   UNL A   1      34.030  25.644  23.131  1.00  0.00     0.198 C 
ATOM     11  C   UNL A   1      31.445  25.237  24.405  1.00  0.00     0.285 C 
ATOM     12  N   UNL A   1      31.726  26.547  23.795  1.00  0.00    -0.318 N 
ATOM     13  H   UNL A   1      31.369  27.305  24.377  1.00  0.00     0.349 HD
BRANCH   8  14
ATOM     14  C   UNL A   1      34.477  23.205  23.451  1.00  0.00     0.410 C 
ATOM     15  O   UNL A   1      35.446  23.207  22.703  1.00  0.00    -0.224 OA
BRANCH  14  16
ATOM     16  O   UNL A   1      34.036  22.124  24.141  1.00  0.00    -0.444 OA
BRANCH  16  17
ATOM     17  C   UNL A   1      34.720  21.694  25.351  1.00  0.00     0.106 C 
ATOM     18  C   UNL A   1      35.500  22.930  25.825  1.00  0.00     0.056 C 
ATOM     19  C   UNL A   1      35.704  20.570  25.016  1.00  0.00     0.056 C 
ATOM     20  C   UNL A   1      33.763  21.284  26.483  1.00  0.00     0.056 C 
ENDBRANCH  16  17
ENDBRANCH  14  16
ENDBRANCH   8  14
BRANCH  12  21
ATOM     21  C   UNL A   1      30.913  26.871  22.615  1.00  0.00     0.301 C 
BRANCH  21  22
ATOM     22  C   UNL A   1      29.997  28.065  22.679  1.00  0.00     0.025 A 
ATOM     23  C   UNL A   1      28.678  27.954  23.136  1.00  0.00     0.014 A 
ATOM     24  C   UNL A   1      30.422  29.333  22.291  1.00  0.00     0.122 A 
ATOM     25  C   UNL A   1      27.824  29.051  23.074  1.00  0.00     0.041 A 
ATOM     26  N   UNL A   1      29.622  30.422  22.236  1.00  0.00    -0.244 NA
ATOM     27  C   UNL A   1      28.341  30.244  22.606  1.00  0.00     0.129 A 
ATOM     28  Cl  UNL A   1      27.345  31.630  22.446  1.00  0.00    -0.062 Cl
ENDBRANCH  21  22
ENDBRANCH  12  21
ENDBRANCH   4   7
ENDBRANCH   2   3
ENDBRANCH   1   2
BRANCH   1  29
ATOM     29  C   UNL A   1      31.774  31.133  26.725  1.00  0.00     0.023 C 
BRANCH  29  30
ATOM     30  C   UNL A   1      32.987  32.051  26.855  1.00  0.00     0.116 C 
BRANCH  30  31
ATOM     31  N   UNL A   1      32.647  33.384  27.328  1.00  0.00    -0.352 N 
ATOM     32  C   UNL A   1      33.195  34.116  28.355  1.00  0.00     0.251 C 
ATOM     33  H   UNL A   1      31.916  33.828  26.840  1.00  0.00     0.163 HD
ATOM     34  O   UNL A   1      32.684  35.188  28.669  1.00  0.00    -0.269 OA
BRANCH  32  35
ATOM     35  C   UNL A   1      34.367  33.607  29.101  1.00  0.00     0.039 A 
ATOM     36  C   UNL A   1      34.187  32.532  29.976  1.00  0.00     0.014 A 
ATOM     37  C   UNL A   1      35.634  34.179  28.952  1.00  0.00     0.014 A 
ATOM     38  C   UNL A   1      35.285  31.987  30.645  1.00  0.00     0.010 A 
ATOM     39  C   UNL A   1      36.739  33.594  29.569  1.00  0.00     0.010 A 
ATOM     40  C   UNL A   1      36.578  32.490  30.419  1.00  0.00    -0.014 A 
BRANCH  40  41
ATOM     41  C   UNL A   1      37.765  31.836  31.031  1.00  0.00     0.031 A 
ATOM     42  C   UNL A   1      38.165  32.131  32.451  1.00  0.00     0.074 A 
ATOM     43  C   UNL A   1      38.532  31.025  30.274  1.00  0.00     0.049 A 
ATOM     44  N   UNL A   1      39.167  31.647  33.140  1.00  0.00    -0.248 NA
ATOM     45  C   UNL A   1      37.352  33.112  33.187  1.00  0.00     0.031 C 
ATOM     46  C   UNL A   1      38.308  30.734  28.855  1.00  0.00     0.029 A 
ATOM     47  N   UNL A   1      39.663  30.313  30.584  1.00  0.00    -0.354 N 
ATOM     48  C   UNL A   1      39.122  32.280  34.377  1.00  0.00     0.074 A 
ATOM     49  C   UNL A   1      38.014  33.209  34.333  1.00  0.00     0.031 C 
ATOM     50  C   UNL A   1      39.265  29.898  28.422  1.00  0.00     0.029 A 
ATOM     51  C   UNL A   1      40.179  29.607  29.522  1.00  0.00     0.049 A 
ATOM     52  H   UNL A   1      40.068  30.308  31.481  1.00  0.00     0.167 HD
ATOM     53  C   UNL A   1      39.909  32.082  35.461  1.00  0.00     0.034 A 
ATOM     54  C   UNL A   1      41.263  28.810  29.442  1.00  0.00     0.034 A 
ATOM     55  C   UNL A   1      40.983  31.126  35.520  1.00  0.00     0.049 A 
ATOM     56  C   UNL A   1      42.082  28.563  30.679  1.00  0.00     0.074 A 
ATOM     57  C   UNL A   1      41.776  30.788  36.603  1.00  0.00     0.029 A 
ATOM     58  N   UNL A   1      41.420  30.359  34.451  1.00  0.00    -0.354 N 
ATOM     59  N   UNL A   1      41.910  29.033  31.891  1.00  0.00    -0.248 NA
ATOM     60  C   UNL A   1      43.220  27.640  30.549  1.00  0.00     0.031 C 
ATOM     61  C   UNL A   1      42.701  29.824  36.185  1.00  0.00     0.029 A 
ATOM     62  C   UNL A   1      42.475  29.552  34.846  1.00  0.00     0.049 A 
ATOM     63  H   UNL A   1      41.037  30.383  33.545  1.00  0.00     0.167 HD
ATOM     64  C   UNL A   1      42.898  28.444  32.672  1.00  0.00     0.074 A 
ATOM     65  C   UNL A   1      43.644  27.557  31.802  1.00  0.00     0.031 C 
ATOM     66  C   UNL A   1      43.178  28.638  33.984  1.00  0.00     0.034 A 
BRANCH  53  67
ATOM     67  C   UNL A   1      39.592  32.867  36.708  1.00  0.00     0.023 A 
ATOM     68  C   UNL A   1      40.211  34.119  36.909  1.00  0.00     0.012 A 
ATOM     69  C   UNL A   1      38.640  32.410  37.640  1.00  0.00     0.148 A 
ATOM     70  C   UNL A   1      39.910  34.889  38.031  1.00  0.00     0.002 A 
ATOM     71  C   UNL A   1      38.315  33.203  38.736  1.00  0.00     0.091 A 
ATOM     72  F   UNL A   1      38.078  31.210  37.443  1.00  0.00    -0.205 F 
ATOM     73  C   UNL A   1      38.955  34.437  38.937  1.00  0.00     0.022 A 
BRANCH  71  74
ATOM     74  S   UNL A   1      37.047  32.745  39.923  1.00  0.00     0.127 S 
ATOM     75  O   UNL A   1      37.564  31.476  40.432  1.00  0.00    -0.237 OA
ATOM     76  O   UNL A   1      37.102  33.852  40.878  1.00  0.00    -0.237 OA
ATOM     77  O   UNL A   1      35.804  32.657  39.168  1.00  0.00    -0.744 OA
ENDBRANCH  71  74
ENDBRANCH  53  67
BRANCH  54  78
ATOM     78  C   UNL A   1      41.586  28.120  28.161  1.00  0.00     0.023 A 
ATOM     79  C   UNL A   1      42.214  28.845  27.129  1.00  0.00     0.012 A 
ATOM     80  C   UNL A   1      41.302  26.755  27.968  1.00  0.00     0.148 A 
ATOM     81  C   UNL A   1      42.525  28.230  25.915  1.00  0.00     0.002 A 
ATOM     82  C   UNL A   1      41.664  26.135  26.777  1.00  0.00     0.091 A 
ATOM     83  F   UNL A   1      40.689  26.087  28.955  1.00  0.00    -0.205 F 
ATOM     84  C   UNL A   1      42.260  26.874  25.743  1.00  0.00     0.022 A 
BRANCH  82  85
ATOM     85  S   UNL A   1      41.483  24.366  26.530  1.00  0.00     0.127 S 
ATOM     86  O   UNL A   1      40.032  24.221  26.445  1.00  0.00    -0.237 OA
ATOM     87  O   UNL A   1      42.199  24.157  25.271  1.00  0.00    -0.237 OA
ATOM     88  O   UNL A   1      42.120  23.748  27.686  1.00  0.00    -0.744 OA
ENDBRANCH  82  85
ENDBRANCH  54  78
BRANCH  66  89
ATOM     89  C   UNL A   1      44.333  27.865  34.566  1.00  0.00     0.023 A 
ATOM     90  C   UNL A   1      45.612  28.455  34.610  1.00  0.00     0.012 A 
ATOM     91  C   UNL A   1      44.147  26.580  35.112  1.00  0.00     0.148 A 
ATOM     92  C   UNL A   1      46.696  27.765  35.152  1.00  0.00     0.002 A 
ATOM     93  C   UNL A   1      45.223  25.915  35.693  1.00  0.00     0.091 A 
ATOM     94  F   UNL A   1      42.929  26.023  35.043  1.00  0.00    -0.205 F 
ATOM     95  C   UNL A   1      46.499  26.500  35.702  1.00  0.00     0.022 A 
BRANCH  93  96
ATOM     96  S   UNL A   1      45.034  24.323  36.503  1.00  0.00     0.127 S 
ATOM     97  O   UNL A   1      44.260  24.681  37.691  1.00  0.00    -0.237 OA
ATOM     98  O   UNL A   1      44.295  23.547  35.506  1.00  0.00    -0.237 OA
ATOM     99  O   UNL A   1      46.387  23.845  36.751  1.00  0.00    -0.744 OA
ENDBRANCH  93  96
ENDBRANCH  66  89
ENDBRANCH  40  41
ENDBRANCH  32  35
ENDBRANCH  30  31
ENDBRANCH  29  30
ENDBRANCH   1  29
TORSDOF 19
ENDMDL
