MODEL 1
REMARK VINA RESULT:     -12.1      0.000      0.000
REMARK SMILES Cc1cccc(C(=O)N2CCC[C@H]2c2nnc(SCC(=O)Nc3ccc(C(=O)NCCCCNC(=O)c4ccc(-c5c6nc(c(-c7cccc(S(=O)(=O)[O-])c7F)c7ccc([nH]7)c(-c7cccc(S(=O)(=O)[O-])c7F)c7nc(c(-c8cccc(S(=O)(=O)[O-])c8F)c8ccc5[nH]8)C=C7)C=C6)cc4)cc3)n2C)c1
REMARK SMILES IDX 27 1 28 2 29 3 26 5 23 6 24 7 101 8 25 9 100 10 22 11 20 12
REMARK SMILES IDX 21 13 19 15 18 16 17 17 14 18 15 19 102 20 16 21 103 22
REMARK SMILES IDX 13 23 9 24 10 25 11 26 12 27 7 28 8 29 6 30 1 31 2 32 3 33
REMARK SMILES IDX 104 34 4 35 5 36 30 37 31 38 32 39 33 40 34 41 35 42 36 44
REMARK SMILES IDX 37 45 38 46 99 47 39 48 98 49 40 50 41 51 42 52 92 53 43 54
REMARK SMILES IDX 97 55 91 56 93 57 44 58 96 59 90 60 89 61 45 63 77 64 57 65
REMARK SMILES IDX 76 66 58 67 61 68 75 69 94 70 59 71 60 72 74 74 95 75 62 76
REMARK SMILES IDX 46 77 47 78 55 79 48 80 50 81 56 82 49 83 51 84 52 85 53 86
REMARK SMILES IDX 54 87 78 88 79 89 87 90 80 91 82 92 88 93 81 94 83 95 84 96
REMARK SMILES IDX 85 97 86 98 63 99 64 100 72 101 65 102 67 103 73 104 66 105
REMARK SMILES IDX 68 106 69 107 70 108 71 109
REMARK H PARENT 29 4 22 14 34 43 93 62 61 73
REMARK Flexibility Score: inf
ROOT
ATOM      1  C   UNL A   1      44.220  26.211  25.405  1.00  0.00     0.251 C 
ATOM      2  O   UNL A   1      45.376  26.360  25.004  1.00  0.00    -0.269 OA
ATOM      3  N   UNL A   1      43.306  27.185  25.088  1.00  0.00    -0.352 N 
ATOM      4  H   UNL A   1      43.688  27.931  24.571  1.00  0.00     0.163 HD
ENDROOT
BRANCH   1   5
ATOM      5  C   UNL A   1      43.882  24.966  26.155  1.00  0.00     0.039 A 
ATOM      6  C   UNL A   1      43.052  22.539  27.298  1.00  0.00     0.041 A 
ATOM      7  C   UNL A   1      42.845  23.738  27.964  1.00  0.00     0.027 A 
ATOM      8  C   UNL A   1      43.823  22.521  26.143  1.00  0.00     0.027 A 
ATOM      9  C   UNL A   1      43.273  24.937  27.406  1.00  0.00     0.016 A 
ATOM     10  C   UNL A   1      44.208  23.735  25.558  1.00  0.00     0.016 A 
BRANCH   6  11
ATOM     11  N   UNL A   1      42.506  21.357  27.798  1.00  0.00    -0.325 N 
ATOM     12  C   UNL A   1      41.275  20.827  27.497  1.00  0.00     0.234 C 
ATOM     13  O   UNL A   1      40.865  19.866  28.158  1.00  0.00    -0.274 OA
ATOM     14  H   UNL A   1      43.063  20.848  28.432  1.00  0.00     0.169 HD
BRANCH  12  15
ATOM     15  C   UNL A   1      40.571  21.240  26.211  1.00  0.00     0.178 C 
BRANCH  15  16
ATOM     16  S   UNL A   1      39.318  22.529  26.223  1.00  0.00    -0.076 SA
BRANCH  16  17
ATOM     17  C   UNL A   1      37.837  21.853  25.670  1.00  0.00     0.191 A 
ATOM     18  C   UNL A   1      35.713  21.480  25.328  1.00  0.00     0.156 A 
ATOM     19  N   UNL A   1      36.372  20.379  25.023  1.00  0.00    -0.132 NA
ATOM     20  N   UNL A   1      36.606  22.420  25.793  1.00  0.00    -0.307 N 
ATOM     21  N   UNL A   1      37.709  20.616  25.243  1.00  0.00    -0.123 NA
ATOM     22  C   UNL A   1      36.244  23.701  26.338  1.00  0.00     0.154 C 
BRANCH  18  23
ATOM     23  C   UNL A   1      34.254  21.739  25.205  1.00  0.00     0.154 C 
ATOM     24  N   UNL A   1      33.825  21.989  23.836  1.00  0.00    -0.328 N 
ATOM     25  C   UNL A   1      32.778  21.054  23.450  1.00  0.00     0.120 C 
ATOM     26  C   UNL A   1      32.161  20.660  24.785  1.00  0.00     0.024 C 
ATOM     27  C   UNL A   1      33.387  20.573  25.690  1.00  0.00     0.035 C 
BRANCH  24  28
ATOM     28  C   UNL A   1      34.236  23.155  23.215  1.00  0.00     0.254 C 
ATOM     29  O   UNL A   1      35.292  23.244  22.591  1.00  0.00    -0.269 OA
BRANCH  28  30
ATOM     30  C   UNL A   1      33.513  24.422  23.480  1.00  0.00     0.040 A 
ATOM     31  C   UNL A   1      29.912  25.590  23.862  1.00  0.00     0.044 C 
ATOM     32  C   UNL A   1      31.409  25.572  23.901  1.00  0.00    -0.050 A 
ATOM     33  C   UNL A   1      32.123  26.646  24.444  1.00  0.00     0.003 A 
ATOM     34  C   UNL A   1      32.114  24.454  23.445  1.00  0.00     0.017 A 
ATOM     35  C   UNL A   1      33.519  26.611  24.508  1.00  0.00     0.001 A 
ATOM     36  C   UNL A   1      34.215  25.502  24.025  1.00  0.00     0.014 A 
ENDBRANCH  28  30
ENDBRANCH  24  28
ENDBRANCH  18  23
ENDBRANCH  16  17
ENDBRANCH  15  16
ENDBRANCH  12  15
ENDBRANCH   6  11
ENDBRANCH   1   5
BRANCH   3  37
ATOM     37  C   UNL A   1      41.887  27.334  25.364  1.00  0.00     0.116 C 
BRANCH  37  38
ATOM     38  C   UNL A   1      41.611  28.560  26.254  1.00  0.00     0.023 C 
BRANCH  38  39
ATOM     39  C   UNL A   1      41.434  28.254  27.745  1.00  0.00     0.023 C 
BRANCH  39  40
ATOM     40  C   UNL A   1      40.564  29.277  28.449  1.00  0.00     0.116 C 
BRANCH  40  41
ATOM     41  N   UNL A   1      39.161  29.207  28.105  1.00  0.00    -0.352 N 
ATOM     42  C   UNL A   1      38.034  29.619  28.807  1.00  0.00     0.251 C 
ATOM     43  H   UNL A   1      38.973  28.801  27.227  1.00  0.00     0.163 HD
ATOM     44  O   UNL A   1      36.962  29.195  28.441  1.00  0.00    -0.269 OA
BRANCH  42  45
ATOM     45  C   UNL A   1      38.120  30.693  29.846  1.00  0.00     0.039 A 
ATOM     46  C   UNL A   1      38.068  32.025  29.403  1.00  0.00     0.014 A 
ATOM     47  C   UNL A   1      38.565  30.435  31.132  1.00  0.00     0.014 A 
ATOM     48  C   UNL A   1      38.729  33.018  30.121  1.00  0.00     0.010 A 
ATOM     49  C   UNL A   1      39.375  31.352  31.743  1.00  0.00     0.010 A 
ATOM     50  C   UNL A   1      39.493  32.634  31.206  1.00  0.00    -0.014 A 
BRANCH  50  51
ATOM     51  C   UNL A   1      40.367  33.481  31.987  1.00  0.00     0.031 A 
ATOM     52  C   UNL A   1      39.766  34.147  33.155  1.00  0.00     0.074 A 
ATOM     53  C   UNL A   1      41.690  33.238  31.875  1.00  0.00     0.049 A 
ATOM     54  N   UNL A   1      40.439  34.767  34.051  1.00  0.00    -0.248 NA
ATOM     55  C   UNL A   1      38.326  34.147  33.410  1.00  0.00     0.031 C 
ATOM     56  C   UNL A   1      42.728  33.373  32.890  1.00  0.00     0.029 A 
ATOM     57  N   UNL A   1      42.397  32.995  30.699  1.00  0.00    -0.354 N 
ATOM     58  C   UNL A   1      39.591  35.034  35.103  1.00  0.00     0.074 A 
ATOM     59  C   UNL A   1      38.276  34.697  34.626  1.00  0.00     0.031 C 
ATOM     60  C   UNL A   1      43.924  33.459  32.284  1.00  0.00     0.029 A 
ATOM     61  C   UNL A   1      43.661  33.592  30.862  1.00  0.00     0.049 A 
ATOM     62  H   UNL A   1      42.075  32.502  29.910  1.00  0.00     0.167 HD
ATOM     63  C   UNL A   1      40.158  35.410  36.281  1.00  0.00     0.034 A 
ATOM     64  C   UNL A   1      43.976  34.702  30.123  1.00  0.00     0.034 A 
ATOM     65  C   UNL A   1      41.579  35.714  36.061  1.00  0.00     0.049 A 
ATOM     66  C   UNL A   1      44.195  35.946  30.968  1.00  0.00     0.074 A 
ATOM     67  C   UNL A   1      42.749  34.996  36.242  1.00  0.00     0.029 A 
ATOM     68  N   UNL A   1      41.900  36.798  35.253  1.00  0.00    -0.354 N 
ATOM     69  N   UNL A   1      43.804  36.075  32.209  1.00  0.00    -0.248 NA
ATOM     70  C   UNL A   1      44.925  37.119  30.503  1.00  0.00     0.031 C 
ATOM     71  C   UNL A   1      43.757  35.608  35.442  1.00  0.00     0.029 A 
ATOM     72  C   UNL A   1      43.210  36.717  34.817  1.00  0.00     0.049 A 
ATOM     73  H   UNL A   1      41.277  37.525  35.020  1.00  0.00     0.167 HD
ATOM     74  C   UNL A   1      44.141  37.315  32.689  1.00  0.00     0.074 A 
ATOM     75  C   UNL A   1      44.891  37.907  31.593  1.00  0.00     0.031 C 
ATOM     76  C   UNL A   1      43.748  37.747  33.932  1.00  0.00     0.034 A 
BRANCH  63  77
ATOM     77  C   UNL A   1      39.536  35.370  37.663  1.00  0.00     0.023 A 
ATOM     78  C   UNL A   1      39.659  36.549  38.437  1.00  0.00     0.012 A 
ATOM     79  C   UNL A   1      38.930  34.268  38.313  1.00  0.00     0.148 A 
ATOM     80  C   UNL A   1      39.251  36.624  39.772  1.00  0.00     0.002 A 
ATOM     81  C   UNL A   1      38.489  34.350  39.639  1.00  0.00     0.091 A 
ATOM     82  F   UNL A   1      38.806  33.100  37.684  1.00  0.00    -0.205 F 
ATOM     83  C   UNL A   1      38.662  35.525  40.376  1.00  0.00     0.022 A 
BRANCH  81  84
ATOM     84  S   UNL A   1      37.697  32.974  40.495  1.00  0.00     0.127 S 
ATOM     85  O   UNL A   1      37.226  33.610  41.725  1.00  0.00    -0.237 OA
ATOM     86  O   UNL A   1      36.634  32.594  39.564  1.00  0.00    -0.237 OA
ATOM     87  O   UNL A   1      38.724  31.958  40.687  1.00  0.00    -0.744 OA
ENDBRANCH  81  84
ENDBRANCH  63  77
BRANCH  64  88
ATOM     88  C   UNL A   1      43.364  34.641  28.752  1.00  0.00     0.023 A 
ATOM     89  C   UNL A   1      42.400  35.643  28.463  1.00  0.00     0.012 A 
ATOM     90  C   UNL A   1      44.017  34.005  27.679  1.00  0.00     0.148 A 
ATOM     91  C   UNL A   1      42.256  36.148  27.169  1.00  0.00     0.002 A 
ATOM     92  C   UNL A   1      43.833  34.488  26.380  1.00  0.00     0.091 A 
ATOM     93  F   UNL A   1      44.848  32.989  27.943  1.00  0.00    -0.205 F 
ATOM     94  C   UNL A   1      43.007  35.599  26.137  1.00  0.00     0.022 A 
BRANCH  92  95
ATOM     95  S   UNL A   1      44.717  33.794  24.974  1.00  0.00     0.127 S 
ATOM     96  O   UNL A   1      43.862  34.201  23.861  1.00  0.00    -0.237 OA
ATOM     97  O   UNL A   1      46.009  34.478  25.029  1.00  0.00    -0.237 OA
ATOM     98  O   UNL A   1      44.790  32.366  25.240  1.00  0.00    -0.744 OA
ENDBRANCH  92  95
ENDBRANCH  64  88
BRANCH  76  99
ATOM     99  C   UNL A   1      43.811  39.182  34.449  1.00  0.00     0.023 A 
ATOM    100  C   UNL A   1      44.416  39.523  35.672  1.00  0.00     0.012 A 
ATOM    101  C   UNL A   1      43.396  40.272  33.633  1.00  0.00     0.148 A 
ATOM    102  C   UNL A   1      44.562  40.853  36.089  1.00  0.00     0.002 A 
ATOM    103  C   UNL A   1      43.661  41.592  33.991  1.00  0.00     0.091 A 
ATOM    104  F   UNL A   1      42.711  40.049  32.502  1.00  0.00    -0.205 F 
ATOM    105  C   UNL A   1      44.213  41.888  35.235  1.00  0.00     0.022 A 
BRANCH 103 106
ATOM    106  S   UNL A   1      43.469  42.935  32.808  1.00  0.00     0.127 S 
ATOM    107  O   UNL A   1      42.060  42.818  32.444  1.00  0.00    -0.237 OA
ATOM    108  O   UNL A   1      43.795  44.111  33.618  1.00  0.00    -0.237 OA
ATOM    109  O   UNL A   1      44.433  42.654  31.753  1.00  0.00    -0.744 OA
ENDBRANCH 103 106
ENDBRANCH  76  99
ENDBRANCH  50  51
ENDBRANCH  42  45
ENDBRANCH  40  41
ENDBRANCH  39  40
ENDBRANCH  38  39
ENDBRANCH  37  38
ENDBRANCH   3  37
TORSDOF 21
ENDMDL
MODEL 2
REMARK VINA RESULT:     -11.9      1.344      2.684
REMARK SMILES Cc1cccc(C(=O)N2CCC[C@H]2c2nnc(SCC(=O)Nc3ccc(C(=O)NCCCCNC(=O)c4ccc(-c5c6nc(c(-c7cccc(S(=O)(=O)[O-])c7F)c7ccc([nH]7)c(-c7cccc(S(=O)(=O)[O-])c7F)c7nc(c(-c8cccc(S(=O)(=O)[O-])c8F)c8ccc5[nH]8)C=C7)C=C6)cc4)cc3)n2C)c1
REMARK SMILES IDX 27 1 28 2 29 3 26 5 23 6 24 7 101 8 25 9 100 10 22 11 20 12
REMARK SMILES IDX 21 13 19 15 18 16 17 17 14 18 15 19 102 20 16 21 103 22
REMARK SMILES IDX 13 23 9 24 10 25 11 26 12 27 7 28 8 29 6 30 1 31 2 32 3 33
REMARK SMILES IDX 104 34 4 35 5 36 30 37 31 38 32 39 33 40 34 41 35 42 36 44
REMARK SMILES IDX 37 45 38 46 99 47 39 48 98 49 40 50 41 51 42 52 92 53 43 54
REMARK SMILES IDX 97 55 91 56 93 57 44 58 96 59 90 60 89 61 45 63 77 64 57 65
REMARK SMILES IDX 76 66 58 67 61 68 75 69 94 70 59 71 60 72 74 74 95 75 62 76
REMARK SMILES IDX 46 77 47 78 55 79 48 80 50 81 56 82 49 83 51 84 52 85 53 86
REMARK SMILES IDX 54 87 78 88 79 89 87 90 80 91 82 92 88 93 81 94 83 95 84 96
REMARK SMILES IDX 85 97 86 98 63 99 64 100 72 101 65 102 67 103 73 104 66 105
REMARK SMILES IDX 68 106 69 107 70 108 71 109
REMARK H PARENT 29 4 22 14 34 43 93 62 61 73
REMARK Flexibility Score: inf
ROOT
ATOM      1  C   UNL A   1      44.357  26.387  25.245  1.00  0.00     0.251 C 
ATOM      2  O   UNL A   1      45.576  26.349  25.066  1.00  0.00    -0.269 OA
ATOM      3  N   UNL A   1      43.730  27.598  25.097  1.00  0.00    -0.352 N 
ATOM      4  H   UNL A   1      44.343  28.336  24.874  1.00  0.00     0.163 HD
ENDROOT
BRANCH   1   5
ATOM      5  C   UNL A   1      43.643  25.113  25.554  1.00  0.00     0.039 A 
ATOM      6  C   UNL A   1      42.514  22.684  26.398  1.00  0.00     0.041 A 
ATOM      7  C   UNL A   1      42.999  22.824  25.106  1.00  0.00     0.027 A 
ATOM      8  C   UNL A   1      42.431  23.799  27.223  1.00  0.00     0.027 A 
ATOM      9  C   UNL A   1      43.540  24.032  24.683  1.00  0.00     0.016 A 
ATOM     10  C   UNL A   1      43.023  25.000  26.812  1.00  0.00     0.016 A 
BRANCH   6  11
ATOM     11  N   UNL A   1      42.093  21.436  26.857  1.00  0.00    -0.325 N 
ATOM     12  C   UNL A   1      40.796  20.999  26.979  1.00  0.00     0.234 C 
ATOM     13  O   UNL A   1      40.583  19.934  27.568  1.00  0.00    -0.274 OA
ATOM     14  H   UNL A   1      42.799  20.803  27.120  1.00  0.00     0.169 HD
BRANCH  12  15
ATOM     15  C   UNL A   1      39.695  21.671  26.169  1.00  0.00     0.178 C 
BRANCH  15  16
ATOM     16  S   UNL A   1      38.880  23.152  26.779  1.00  0.00    -0.076 SA
BRANCH  16  17
ATOM     17  C   UNL A   1      37.354  23.292  26.002  1.00  0.00     0.191 A 
ATOM     18  C   UNL A   1      35.677  23.013  24.630  1.00  0.00     0.156 A 
ATOM     19  N   UNL A   1      35.515  24.173  25.237  1.00  0.00    -0.132 NA
ATOM     20  N   UNL A   1      36.862  22.450  25.051  1.00  0.00    -0.307 N 
ATOM     21  N   UNL A   1      36.575  24.347  26.097  1.00  0.00    -0.123 NA
ATOM     22  C   UNL A   1      37.436  21.244  24.518  1.00  0.00     0.154 C 
BRANCH  18  23
ATOM     23  C   UNL A   1      34.770  22.356  23.653  1.00  0.00     0.154 C 
ATOM     24  N   UNL A   1      33.604  21.740  24.270  1.00  0.00    -0.328 N 
ATOM     25  C   UNL A   1      32.378  22.269  23.687  1.00  0.00     0.120 C 
ATOM     26  C   UNL A   1      32.828  22.735  22.309  1.00  0.00     0.024 C 
ATOM     27  C   UNL A   1      34.207  23.319  22.603  1.00  0.00     0.035 C 
BRANCH  24  28
ATOM     28  C   UNL A   1      33.788  20.629  25.073  1.00  0.00     0.254 C 
ATOM     29  O   UNL A   1      34.080  20.706  26.266  1.00  0.00    -0.269 OA
BRANCH  28  30
ATOM     30  C   UNL A   1      33.866  19.283  24.458  1.00  0.00     0.040 A 
ATOM     31  C   UNL A   1      35.452  15.912  25.233  1.00  0.00     0.044 C 
ATOM     32  C   UNL A   1      34.590  16.963  24.604  1.00  0.00    -0.050 A 
ATOM     33  C   UNL A   1      33.655  16.626  23.619  1.00  0.00     0.003 A 
ATOM     34  C   UNL A   1      34.669  18.291  25.034  1.00  0.00     0.017 A 
ATOM     35  C   UNL A   1      32.831  17.604  23.058  1.00  0.00     0.001 A 
ATOM     36  C   UNL A   1      32.936  18.932  23.474  1.00  0.00     0.014 A 
ENDBRANCH  28  30
ENDBRANCH  24  28
ENDBRANCH  18  23
ENDBRANCH  16  17
ENDBRANCH  15  16
ENDBRANCH  12  15
ENDBRANCH   6  11
ENDBRANCH   1   5
BRANCH   3  37
ATOM     37  C   UNL A   1      42.340  28.010  25.206  1.00  0.00     0.116 C 
BRANCH  37  38
ATOM     38  C   UNL A   1      42.050  28.658  26.573  1.00  0.00     0.023 C 
BRANCH  38  39
ATOM     39  C   UNL A   1      40.742  28.215  27.237  1.00  0.00     0.023 C 
BRANCH  39  40
ATOM     40  C   UNL A   1      39.985  29.371  27.861  1.00  0.00     0.116 C 
BRANCH  40  41
ATOM     41  N   UNL A   1      38.576  29.406  27.538  1.00  0.00    -0.352 N 
ATOM     42  C   UNL A   1      37.483  29.812  28.296  1.00  0.00     0.251 C 
ATOM     43  H   UNL A   1      38.353  29.091  26.632  1.00  0.00     0.163 HD
ATOM     44  O   UNL A   1      36.384  29.479  27.914  1.00  0.00    -0.269 OA
BRANCH  42  45
ATOM     45  C   UNL A   1      37.642  30.784  29.423  1.00  0.00     0.039 A 
ATOM     46  C   UNL A   1      37.755  32.143  29.093  1.00  0.00     0.014 A 
ATOM     47  C   UNL A   1      38.000  30.374  30.698  1.00  0.00     0.014 A 
ATOM     48  C   UNL A   1      38.489  32.995  29.914  1.00  0.00     0.010 A 
ATOM     49  C   UNL A   1      38.878  31.142  31.411  1.00  0.00     0.010 A 
ATOM     50  C   UNL A   1      39.159  32.441  30.988  1.00  0.00    -0.014 A 
BRANCH  50  51
ATOM     51  C   UNL A   1      40.086  33.119  31.868  1.00  0.00     0.031 A 
ATOM     52  C   UNL A   1      39.513  33.749  33.069  1.00  0.00     0.074 A 
ATOM     53  C   UNL A   1      41.379  32.741  31.777  1.00  0.00     0.049 A 
ATOM     54  N   UNL A   1      40.211  34.214  34.036  1.00  0.00    -0.248 NA
ATOM     55  C   UNL A   1      38.072  33.887  33.276  1.00  0.00     0.031 C 
ATOM     56  C   UNL A   1      42.382  32.676  32.833  1.00  0.00     0.029 A 
ATOM     57  N   UNL A   1      42.103  32.518  30.608  1.00  0.00    -0.354 N 
ATOM     58  C   UNL A   1      39.354  34.487  35.080  1.00  0.00     0.074 A 
ATOM     59  C   UNL A   1      38.031  34.338  34.533  1.00  0.00     0.031 C 
ATOM     60  C   UNL A   1      43.605  32.678  32.276  1.00  0.00     0.029 A 
ATOM     61  C   UNL A   1      43.416  32.956  30.862  1.00  0.00     0.049 A 
ATOM     62  H   UNL A   1      41.763  32.131  29.770  1.00  0.00     0.167 HD
ATOM     63  C   UNL A   1      39.909  34.699  36.303  1.00  0.00     0.034 A 
ATOM     64  C   UNL A   1      43.880  34.082  30.233  1.00  0.00     0.034 A 
ATOM     65  C   UNL A   1      41.363  34.860  36.156  1.00  0.00     0.049 A 
ATOM     66  C   UNL A   1      44.197  35.219  31.189  1.00  0.00     0.074 A 
ATOM     67  C   UNL A   1      42.440  34.005  36.312  1.00  0.00     0.029 A 
ATOM     68  N   UNL A   1      41.831  35.965  35.455  1.00  0.00    -0.354 N 
ATOM     69  N   UNL A   1      43.771  35.289  32.423  1.00  0.00    -0.248 NA
ATOM     70  C   UNL A   1      45.067  36.339  30.850  1.00  0.00     0.031 C 
ATOM     71  C   UNL A   1      43.540  34.565  35.600  1.00  0.00     0.029 A 
ATOM     72  C   UNL A   1      43.142  35.775  35.056  1.00  0.00     0.049 A 
ATOM     73  H   UNL A   1      41.301  36.773  35.266  1.00  0.00     0.167 HD
ATOM     74  C   UNL A   1      44.219  36.439  33.019  1.00  0.00     0.074 A 
ATOM     75  C   UNL A   1      45.073  37.033  32.003  1.00  0.00     0.031 C 
ATOM     76  C   UNL A   1      43.825  36.809  34.281  1.00  0.00     0.034 A 
BRANCH  63  77
ATOM     77  C   UNL A   1      39.229  34.615  37.656  1.00  0.00     0.023 A 
ATOM     78  C   UNL A   1      39.495  35.676  38.554  1.00  0.00     0.012 A 
ATOM     79  C   UNL A   1      38.439  33.558  38.168  1.00  0.00     0.148 A 
ATOM     80  C   UNL A   1      39.045  35.677  39.878  1.00  0.00     0.002 A 
ATOM     81  C   UNL A   1      37.959  33.572  39.484  1.00  0.00     0.091 A 
ATOM     82  F   UNL A   1      38.170  32.492  37.415  1.00  0.00    -0.205 F 
ATOM     83  C   UNL A   1      38.274  34.625  40.345  1.00  0.00     0.022 A 
BRANCH  81  84
ATOM     84  S   UNL A   1      36.935  32.252  40.166  1.00  0.00     0.127 S 
ATOM     85  O   UNL A   1      36.514  32.824  41.445  1.00  0.00    -0.237 OA
ATOM     86  O   UNL A   1      35.867  32.137  39.172  1.00  0.00    -0.237 OA
ATOM     87  O   UNL A   1      37.789  31.077  40.274  1.00  0.00    -0.744 OA
ENDBRANCH  81  84
ENDBRANCH  63  77
BRANCH  64  88
ATOM     88  C   UNL A   1      43.322  34.202  28.842  1.00  0.00     0.023 A 
ATOM     89  C   UNL A   1      42.358  35.228  28.652  1.00  0.00     0.012 A 
ATOM     90  C   UNL A   1      44.023  33.721  27.720  1.00  0.00     0.148 A 
ATOM     91  C   UNL A   1      42.258  35.901  27.434  1.00  0.00     0.002 A 
ATOM     92  C   UNL A   1      43.884  34.374  26.492  1.00  0.00     0.091 A 
ATOM     93  F   UNL A   1      44.856  32.684  27.879  1.00  0.00    -0.205 F 
ATOM     94  C   UNL A   1      43.055  35.502  26.368  1.00  0.00     0.022 A 
BRANCH  92  95
ATOM     95  S   UNL A   1      44.829  33.881  25.042  1.00  0.00     0.127 S 
ATOM     96  O   UNL A   1      44.656  32.431  25.057  1.00  0.00    -0.237 OA
ATOM     97  O   UNL A   1      44.134  34.565  23.951  1.00  0.00    -0.237 OA
ATOM     98  O   UNL A   1      46.178  34.371  25.284  1.00  0.00    -0.744 OA
ENDBRANCH  92  95
ENDBRANCH  64  88
BRANCH  76  99
ATOM     99  C   UNL A   1      44.020  38.180  34.922  1.00  0.00     0.023 A 
ATOM    100  C   UNL A   1      44.747  38.366  36.111  1.00  0.00     0.012 A 
ATOM    101  C   UNL A   1      43.605  39.367  34.252  1.00  0.00     0.148 A 
ATOM    102  C   UNL A   1      45.010  39.639  36.635  1.00  0.00     0.002 A 
ATOM    103  C   UNL A   1      43.982  40.628  34.707  1.00  0.00     0.091 A 
ATOM    104  F   UNL A   1      42.814  39.292  33.172  1.00  0.00    -0.205 F 
ATOM    105  C   UNL A   1      44.655  40.771  35.917  1.00  0.00     0.022 A 
BRANCH 103 106
ATOM    106  S   UNL A   1      43.773  42.090  33.676  1.00  0.00     0.127 S 
ATOM    107  O   UNL A   1      44.431  43.119  34.476  1.00  0.00    -0.237 OA
ATOM    108  O   UNL A   1      44.490  41.714  32.455  1.00  0.00    -0.237 OA
ATOM    109  O   UNL A   1      42.334  42.231  33.502  1.00  0.00    -0.744 OA
ENDBRANCH 103 106
ENDBRANCH  76  99
ENDBRANCH  50  51
ENDBRANCH  42  45
ENDBRANCH  40  41
ENDBRANCH  39  40
ENDBRANCH  38  39
ENDBRANCH  37  38
ENDBRANCH   3  37
TORSDOF 21
ENDMDL
MODEL 3
REMARK VINA RESULT:     -11.7      6.161      9.818
REMARK SMILES Cc1cccc(C(=O)N2CCC[C@H]2c2nnc(SCC(=O)Nc3ccc(C(=O)NCCCCNC(=O)c4ccc(-c5c6nc(c(-c7cccc(S(=O)(=O)[O-])c7F)c7ccc([nH]7)c(-c7cccc(S(=O)(=O)[O-])c7F)c7nc(c(-c8cccc(S(=O)(=O)[O-])c8F)c8ccc5[nH]8)C=C7)C=C6)cc4)cc3)n2C)c1
REMARK SMILES IDX 27 1 28 2 29 3 26 5 23 6 24 7 101 8 25 9 100 10 22 11 20 12
REMARK SMILES IDX 21 13 19 15 18 16 17 17 14 18 15 19 102 20 16 21 103 22
REMARK SMILES IDX 13 23 9 24 10 25 11 26 12 27 7 28 8 29 6 30 1 31 2 32 3 33
REMARK SMILES IDX 104 34 4 35 5 36 30 37 31 38 32 39 33 40 34 41 35 42 36 44
REMARK SMILES IDX 37 45 38 46 99 47 39 48 98 49 40 50 41 51 42 52 92 53 43 54
REMARK SMILES IDX 97 55 91 56 93 57 44 58 96 59 90 60 89 61 45 63 77 64 57 65
REMARK SMILES IDX 76 66 58 67 61 68 75 69 94 70 59 71 60 72 74 74 95 75 62 76
REMARK SMILES IDX 46 77 47 78 55 79 48 80 50 81 56 82 49 83 51 84 52 85 53 86
REMARK SMILES IDX 54 87 78 88 79 89 87 90 80 91 82 92 88 93 81 94 83 95 84 96
REMARK SMILES IDX 85 97 86 98 63 99 64 100 72 101 65 102 67 103 73 104 66 105
REMARK SMILES IDX 68 106 69 107 70 108 71 109
REMARK H PARENT 29 4 22 14 34 43 93 62 61 73
REMARK Flexibility Score: inf
ROOT
ATOM      1  C   UNL A   1      40.635  21.795  26.485  1.00  0.00     0.251 C 
ATOM      2  O   UNL A   1      41.310  20.857  26.057  1.00  0.00    -0.269 OA
ATOM      3  N   UNL A   1      41.258  22.707  27.300  1.00  0.00    -0.352 N 
ATOM      4  H   UNL A   1      42.204  22.498  27.475  1.00  0.00     0.163 HD
ENDROOT
BRANCH   1   5
ATOM      5  C   UNL A   1      39.212  21.906  26.050  1.00  0.00     0.039 A 
ATOM      6  C   UNL A   1      36.647  22.042  24.915  1.00  0.00     0.041 A 
ATOM      7  C   UNL A   1      37.164  23.120  25.618  1.00  0.00     0.027 A 
ATOM      8  C   UNL A   1      37.329  20.831  24.917  1.00  0.00     0.027 A 
ATOM      9  C   UNL A   1      38.426  23.045  26.195  1.00  0.00     0.016 A 
ATOM     10  C   UNL A   1      38.621  20.775  25.455  1.00  0.00     0.016 A 
BRANCH   6  11
ATOM     11  N   UNL A   1      35.439  22.168  24.228  1.00  0.00    -0.325 N 
ATOM     12  C   UNL A   1      34.266  21.504  24.499  1.00  0.00     0.234 C 
ATOM     13  O   UNL A   1      33.336  21.592  23.689  1.00  0.00    -0.274 OA
ATOM     14  H   UNL A   1      35.425  22.799  23.473  1.00  0.00     0.169 HD
BRANCH  12  15
ATOM     15  C   UNL A   1      34.036  20.913  25.883  1.00  0.00     0.178 C 
BRANCH  15  16
ATOM     16  S   UNL A   1      33.607  21.969  27.273  1.00  0.00    -0.076 SA
BRANCH  16  17
ATOM     17  C   UNL A   1      33.221  23.532  26.670  1.00  0.00     0.191 A 
ATOM     18  C   UNL A   1      32.134  25.257  25.887  1.00  0.00     0.156 A 
ATOM     19  N   UNL A   1      33.414  25.428  25.617  1.00  0.00    -0.132 NA
ATOM     20  N   UNL A   1      31.968  24.038  26.509  1.00  0.00    -0.307 N 
ATOM     21  N   UNL A   1      34.095  24.337  26.107  1.00  0.00    -0.123 NA
ATOM     22  C   UNL A   1      30.698  23.451  26.843  1.00  0.00     0.154 C 
BRANCH  18  23
ATOM     23  C   UNL A   1      31.007  26.185  25.610  1.00  0.00     0.154 C 
ATOM     24  N   UNL A   1      31.387  27.590  25.664  1.00  0.00    -0.328 N 
ATOM     25  C   UNL A   1      31.062  28.255  24.410  1.00  0.00     0.120 C 
ATOM     26  C   UNL A   1      29.934  27.399  23.851  1.00  0.00     0.024 C 
ATOM     27  C   UNL A   1      30.387  25.990  24.222  1.00  0.00     0.035 C 
BRANCH  24  28
ATOM     28  C   UNL A   1      31.732  28.136  26.887  1.00  0.00     0.254 C 
ATOM     29  O   UNL A   1      31.023  28.041  27.887  1.00  0.00    -0.269 OA
BRANCH  28  30
ATOM     30  C   UNL A   1      32.883  29.066  26.976  1.00  0.00     0.040 A 
ATOM     31  C   UNL A   1      33.508  32.703  27.907  1.00  0.00     0.044 C 
ATOM     32  C   UNL A   1      33.747  31.260  27.582  1.00  0.00    -0.050 A 
ATOM     33  C   UNL A   1      35.037  30.722  27.629  1.00  0.00     0.003 A 
ATOM     34  C   UNL A   1      32.673  30.418  27.278  1.00  0.00     0.017 A 
ATOM     35  C   UNL A   1      35.252  29.368  27.355  1.00  0.00     0.001 A 
ATOM     36  C   UNL A   1      34.178  28.541  27.027  1.00  0.00     0.014 A 
ENDBRANCH  28  30
ENDBRANCH  24  28
ENDBRANCH  18  23
ENDBRANCH  16  17
ENDBRANCH  15  16
ENDBRANCH  12  15
ENDBRANCH   6  11
ENDBRANCH   1   5
BRANCH   3  37
ATOM     37  C   UNL A   1      40.798  23.919  27.957  1.00  0.00     0.116 C 
BRANCH  37  38
ATOM     38  C   UNL A   1      41.195  25.177  27.162  1.00  0.00     0.023 C 
BRANCH  38  39
ATOM     39  C   UNL A   1      42.177  26.113  27.874  1.00  0.00     0.023 C 
BRANCH  39  40
ATOM     40  C   UNL A   1      43.470  26.296  27.103  1.00  0.00     0.116 C 
BRANCH  40  41
ATOM     41  N   UNL A   1      43.980  25.086  26.496  1.00  0.00    -0.352 N 
ATOM     42  C   UNL A   1      44.907  24.161  26.962  1.00  0.00     0.251 C 
ATOM     43  H   UNL A   1      43.609  24.885  25.606  1.00  0.00     0.163 HD
ATOM     44  O   UNL A   1      45.382  23.392  26.157  1.00  0.00    -0.269 OA
BRANCH  42  45
ATOM     45  C   UNL A   1      45.161  23.991  28.427  1.00  0.00     0.039 A 
ATOM     46  C   UNL A   1      44.220  23.254  29.164  1.00  0.00     0.014 A 
ATOM     47  C   UNL A   1      46.073  24.780  29.109  1.00  0.00     0.014 A 
ATOM     48  C   UNL A   1      44.013  23.546  30.510  1.00  0.00     0.010 A 
ATOM     49  C   UNL A   1      45.755  25.212  30.367  1.00  0.00     0.010 A 
ATOM     50  C   UNL A   1      44.690  24.623  31.050  1.00  0.00    -0.014 A 
BRANCH  50  51
ATOM     51  C   UNL A   1      44.507  25.179  32.372  1.00  0.00     0.031 A 
ATOM     52  C   UNL A   1      43.737  26.432  32.459  1.00  0.00     0.074 A 
ATOM     53  C   UNL A   1      44.638  24.320  33.404  1.00  0.00     0.049 A 
ATOM     54  N   UNL A   1      43.324  26.944  33.557  1.00  0.00    -0.248 NA
ATOM     55  C   UNL A   1      43.354  27.205  31.278  1.00  0.00     0.031 C 
ATOM     56  C   UNL A   1      43.931  24.318  34.680  1.00  0.00     0.029 A 
ATOM     57  N   UNL A   1      45.627  23.353  33.565  1.00  0.00    -0.354 N 
ATOM     58  C   UNL A   1      42.438  27.951  33.243  1.00  0.00     0.074 A 
ATOM     59  C   UNL A   1      42.547  28.123  31.818  1.00  0.00     0.031 C 
ATOM     60  C   UNL A   1      44.634  23.596  35.569  1.00  0.00     0.029 A 
ATOM     61  C   UNL A   1      45.910  23.294  34.942  1.00  0.00     0.049 A 
ATOM     62  H   UNL A   1      46.046  22.815  32.854  1.00  0.00     0.167 HD
ATOM     63  C   UNL A   1      41.651  28.424  34.246  1.00  0.00     0.034 A 
ATOM     64  C   UNL A   1      47.117  23.756  35.398  1.00  0.00     0.034 A 
ATOM     65  C   UNL A   1      42.145  27.915  35.533  1.00  0.00     0.049 A 
ATOM     66  C   UNL A   1      46.993  24.962  36.314  1.00  0.00     0.074 A 
ATOM     67  C   UNL A   1      41.777  26.858  36.347  1.00  0.00     0.029 A 
ATOM     68  N   UNL A   1      43.401  28.327  35.962  1.00  0.00    -0.354 N 
ATOM     69  N   UNL A   1      45.928  25.714  36.408  1.00  0.00    -0.248 NA
ATOM     70  C   UNL A   1      48.038  25.381  37.241  1.00  0.00     0.031 C 
ATOM     71  C   UNL A   1      42.878  26.572  37.205  1.00  0.00     0.029 A 
ATOM     72  C   UNL A   1      43.889  27.481  36.942  1.00  0.00     0.049 A 
ATOM     73  H   UNL A   1      43.880  29.114  35.614  1.00  0.00     0.167 HD
ATOM     74  C   UNL A   1      46.135  26.725  37.312  1.00  0.00     0.074 A 
ATOM     75  C   UNL A   1      47.456  26.434  37.844  1.00  0.00     0.031 C 
ATOM     76  C   UNL A   1      45.211  27.719  37.517  1.00  0.00     0.034 A 
BRANCH  63  77
ATOM     77  C   UNL A   1      40.356  29.203  34.119  1.00  0.00     0.023 A 
ATOM     78  C   UNL A   1      39.607  28.980  32.940  1.00  0.00     0.012 A 
ATOM     79  C   UNL A   1      39.851  30.199  34.990  1.00  0.00     0.148 A 
ATOM     80  C   UNL A   1      38.460  29.714  32.620  1.00  0.00     0.002 A 
ATOM     81  C   UNL A   1      38.685  30.914  34.688  1.00  0.00     0.091 A 
ATOM     82  F   UNL A   1      40.508  30.515  36.105  1.00  0.00    -0.205 F 
ATOM     83  C   UNL A   1      37.996  30.682  33.496  1.00  0.00     0.022 A 
BRANCH  81  84
ATOM     84  S   UNL A   1      38.002  32.177  35.781  1.00  0.00     0.127 S 
ATOM     85  O   UNL A   1      36.830  32.628  35.030  1.00  0.00    -0.237 OA
ATOM     86  O   UNL A   1      37.691  31.413  36.989  1.00  0.00    -0.237 OA
ATOM     87  O   UNL A   1      39.042  33.184  35.953  1.00  0.00    -0.744 OA
ENDBRANCH  81  84
ENDBRANCH  63  77
BRANCH  64  88
ATOM     88  C   UNL A   1      48.217  23.483  34.411  1.00  0.00     0.023 A 
ATOM     89  C   UNL A   1      48.709  24.615  33.710  1.00  0.00     0.012 A 
ATOM     90  C   UNL A   1      49.041  22.347  34.518  1.00  0.00     0.148 A 
ATOM     91  C   UNL A   1      50.049  24.694  33.325  1.00  0.00     0.002 A 
ATOM     92  C   UNL A   1      50.370  22.420  34.091  1.00  0.00     0.091 A 
ATOM     93  F   UNL A   1      48.542  21.242  35.088  1.00  0.00    -0.205 F 
ATOM     94  C   UNL A   1      50.889  23.612  33.558  1.00  0.00     0.022 A 
BRANCH  92  95
ATOM     95  S   UNL A   1      51.511  21.042  34.295  1.00  0.00     0.127 S 
ATOM     96  O   UNL A   1      51.930  21.212  35.684  1.00  0.00    -0.237 OA
ATOM     97  O   UNL A   1      50.661  19.876  34.054  1.00  0.00    -0.237 OA
ATOM     98  O   UNL A   1      52.537  21.246  33.284  1.00  0.00    -0.744 OA
ENDBRANCH  92  95
ENDBRANCH  64  88
BRANCH  76  99
ATOM     99  C   UNL A   1      45.447  29.029  38.265  1.00  0.00     0.023 A 
ATOM    100  C   UNL A   1      45.640  30.257  37.605  1.00  0.00     0.012 A 
ATOM    101  C   UNL A   1      45.323  29.095  39.682  1.00  0.00     0.148 A 
ATOM    102  C   UNL A   1      45.751  31.469  38.299  1.00  0.00     0.002 A 
ATOM    103  C   UNL A   1      45.303  30.314  40.354  1.00  0.00     0.091 A 
ATOM    104  F   UNL A   1      45.248  27.970  40.407  1.00  0.00    -0.205 F 
ATOM    105  C   UNL A   1      45.551  31.502  39.671  1.00  0.00     0.022 A 
BRANCH 103 106
ATOM    106  S   UNL A   1      44.786  30.420  42.076  1.00  0.00     0.127 S 
ATOM    107  O   UNL A   1      46.052  30.249  42.782  1.00  0.00    -0.237 OA
ATOM    108  O   UNL A   1      44.223  31.770  42.149  1.00  0.00    -0.237 OA
ATOM    109  O   UNL A   1      43.804  29.357  42.245  1.00  0.00    -0.744 OA
ENDBRANCH 103 106
ENDBRANCH  76  99
ENDBRANCH  50  51
ENDBRANCH  42  45
ENDBRANCH  40  41
ENDBRANCH  39  40
ENDBRANCH  38  39
ENDBRANCH  37  38
ENDBRANCH   3  37
TORSDOF 21
ENDMDL
