MODEL 1
REMARK VINA RESULT:     -12.1      0.000      0.000
REMARK SMILES O=C(CCN1C(=O)c2ccc(NC(=O)c3cc4ccccc4o3)cc2C1=O)NCCCCNC(=O)c1ccc(-c2c3nc(c(-c4cccc(S(=O)(=O)[O-])c4F)c4ccc([nH]4)c(-c4cccc(S(=O)(=O)[O-])c4F)c4nc(c(-c5cccc(S(=O)(=O)[O-])c5F)c5ccc2[nH]5)C=C4)C=C3)cc1
REMARK SMILES IDX 30 1 29 2 28 3 1 4 2 5 3 7 4 8 5 9 6 10 26 11 7 12 8 13
REMARK SMILES IDX 25 14 27 15 9 16 24 17 10 18 11 19 12 20 13 21 14 23 15 24
REMARK SMILES IDX 16 25 23 26 17 27 22 28 18 29 21 30 19 31 20 32 31 33 32 34
REMARK SMILES IDX 33 35 34 36 35 38 36 39 37 40 98 41 38 42 97 43 39 44 40 45
REMARK SMILES IDX 41 46 91 47 42 48 96 49 90 50 92 51 43 52 95 53 89 54 88 55
REMARK SMILES IDX 44 57 76 58 56 59 75 60 57 61 60 62 74 63 93 64 58 65 59 66
REMARK SMILES IDX 73 68 94 69 61 70 45 71 46 72 54 73 47 74 49 75 55 76 48 77
REMARK SMILES IDX 50 78 51 79 52 80 53 81 77 82 78 83 86 84 79 85 81 86 87 87
REMARK SMILES IDX 80 88 82 89 83 90 84 91 85 92 62 93 63 94 71 95 64 96 66 97
REMARK SMILES IDX 72 98 65 99 67 100 68 101 69 102 70 103
REMARK H PARENT 28 6 12 22 33 37 92 56 60 67
REMARK Flexibility Score: inf
ROOT
ATOM      1  C   UNL A   1      49.225  38.076  27.589  1.00  0.00     0.023 C 
ENDROOT
BRANCH   1   2
ATOM      2  C   UNL A   1      48.436  38.306  26.299  1.00  0.00     0.116 C 
BRANCH   2   3
ATOM      3  N   UNL A   1      47.599  39.482  26.373  1.00  0.00    -0.356 N 
ATOM      4  O   UNL A   1      46.812  39.412  24.219  1.00  0.00    -0.275 OA
ATOM      5  C   UNL A   1      46.818  39.925  25.334  1.00  0.00     0.221 C 
ATOM      6  H   UNL A   1      47.588  39.993  27.214  1.00  0.00     0.163 HD
BRANCH   5   7
ATOM      7  C   UNL A   1      45.930  41.100  25.683  1.00  0.00     0.122 C 
BRANCH   7   8
ATOM      8  C   UNL A   1      46.301  42.342  24.882  1.00  0.00     0.139 C 
BRANCH   8   9
ATOM      9  N   UNL A   1      45.432  42.747  23.780  1.00  0.00    -0.274 N 
ATOM     10  C   UNL A   1      44.131  43.165  23.820  1.00  0.00     0.261 C 
ATOM     11  C   UNL A   1      45.905  42.758  22.494  1.00  0.00     0.261 C 
ATOM     12  O   UNL A   1      43.401  43.320  24.782  1.00  0.00    -0.269 OA
ATOM     13  C   UNL A   1      43.684  43.330  22.438  1.00  0.00     0.053 A 
ATOM     14  C   UNL A   1      44.776  43.107  21.639  1.00  0.00     0.055 A 
ATOM     15  O   UNL A   1      47.025  42.500  22.097  1.00  0.00    -0.269 OA
ATOM     16  C   UNL A   1      42.442  43.565  21.886  1.00  0.00     0.017 A 
ATOM     17  C   UNL A   1      44.698  43.125  20.264  1.00  0.00     0.040 A 
ATOM     18  C   UNL A   1      42.340  43.549  20.482  1.00  0.00     0.027 A 
ATOM     19  C   UNL A   1      43.464  43.321  19.651  1.00  0.00     0.042 A 
BRANCH  19  20
ATOM     20  N   UNL A   1      43.234  43.238  18.261  1.00  0.00    -0.319 N 
ATOM     21  C   UNL A   1      43.555  44.042  17.173  1.00  0.00     0.291 C 
ATOM     22  H   UNL A   1      42.735  42.431  18.003  1.00  0.00     0.170 HD
ATOM     23  O   UNL A   1      43.312  43.583  16.057  1.00  0.00    -0.265 OA
BRANCH  21  24
ATOM     24  C   UNL A   1      44.051  45.379  17.376  1.00  0.00     0.193 A 
ATOM     25  C   UNL A   1      45.248  45.958  16.998  1.00  0.00     0.065 A 
ATOM     26  O   UNL A   1      43.241  46.324  17.951  1.00  0.00    -0.451 OA
ATOM     27  C   UNL A   1      45.061  47.361  17.105  1.00  0.00     0.021 A 
ATOM     28  C   UNL A   1      43.817  47.535  17.698  1.00  0.00     0.135 A 
ATOM     29  C   UNL A   1      45.771  48.500  16.686  1.00  0.00     0.012 A 
ATOM     30  C   UNL A   1      43.197  48.769  17.872  1.00  0.00     0.048 A 
ATOM     31  C   UNL A   1      45.153  49.755  16.807  1.00  0.00     0.001 A 
ATOM     32  C   UNL A   1      43.884  49.882  17.379  1.00  0.00     0.004 A 
ENDBRANCH  21  24
ENDBRANCH  19  20
ENDBRANCH   8   9
ENDBRANCH   7   8
ENDBRANCH   5   7
ENDBRANCH   2   3
ENDBRANCH   1   2
BRANCH   1  33
ATOM     33  C   UNL A   1      49.235  36.636  28.120  1.00  0.00     0.023 C 
BRANCH  33  34
ATOM     34  C   UNL A   1      48.669  36.436  29.526  1.00  0.00     0.116 C 
BRANCH  34  35
ATOM     35  N   UNL A   1      47.516  37.283  29.778  1.00  0.00    -0.352 N 
ATOM     36  C   UNL A   1      46.178  37.025  29.599  1.00  0.00     0.251 C 
ATOM     37  H   UNL A   1      47.726  38.178  30.131  1.00  0.00     0.163 HD
ATOM     38  O   UNL A   1      45.372  37.948  29.680  1.00  0.00    -0.269 OA
BRANCH  36  39
ATOM     39  C   UNL A   1      45.695  35.655  29.293  1.00  0.00     0.039 A 
ATOM     40  C   UNL A   1      45.883  34.646  30.243  1.00  0.00     0.014 A 
ATOM     41  C   UNL A   1      45.116  35.339  28.064  1.00  0.00     0.014 A 
ATOM     42  C   UNL A   1      45.436  33.343  29.986  1.00  0.00     0.010 A 
ATOM     43  C   UNL A   1      44.627  34.048  27.832  1.00  0.00     0.010 A 
ATOM     44  C   UNL A   1      44.762  33.032  28.792  1.00  0.00    -0.014 A 
BRANCH  44  45
ATOM     45  C   UNL A   1      44.174  31.674  28.566  1.00  0.00     0.031 A 
ATOM     46  C   UNL A   1      42.849  31.273  29.172  1.00  0.00     0.074 A 
ATOM     47  C   UNL A   1      44.866  30.748  27.865  1.00  0.00     0.049 A 
ATOM     48  N   UNL A   1      42.224  30.124  29.100  1.00  0.00    -0.248 NA
ATOM     49  C   UNL A   1      42.156  32.279  29.991  1.00  0.00     0.031 C 
ATOM     50  C   UNL A   1      46.197  30.945  27.285  1.00  0.00     0.029 A 
ATOM     51  N   UNL A   1      44.557  29.447  27.539  1.00  0.00    -0.354 N 
ATOM     52  C   UNL A   1      41.088  30.253  29.893  1.00  0.00     0.074 A 
ATOM     53  C   UNL A   1      41.136  31.581  30.469  1.00  0.00     0.031 C 
ATOM     54  C   UNL A   1      46.579  29.819  26.662  1.00  0.00     0.029 A 
ATOM     55  C   UNL A   1      45.543  28.802  26.826  1.00  0.00     0.049 A 
ATOM     56  H   UNL A   1      43.709  29.017  27.792  1.00  0.00     0.167 HD
ATOM     57  C   UNL A   1      40.076  29.374  30.101  1.00  0.00     0.034 A 
ATOM     58  C   UNL A   1      45.620  27.539  26.358  1.00  0.00     0.034 A 
ATOM     59  C   UNL A   1      39.991  28.068  29.501  1.00  0.00     0.049 A 
ATOM     60  C   UNL A   1      44.472  26.590  26.569  1.00  0.00     0.074 A 
ATOM     61  C   UNL A   1      38.955  27.152  29.580  1.00  0.00     0.029 A 
ATOM     62  N   UNL A   1      40.978  27.483  28.725  1.00  0.00    -0.354 N 
ATOM     63  N   UNL A   1      43.333  26.799  27.181  1.00  0.00    -0.248 NA
ATOM     64  C   UNL A   1      44.604  25.241  25.996  1.00  0.00     0.031 C 
ATOM     65  C   UNL A   1      39.329  26.001  28.877  1.00  0.00     0.029 A 
ATOM     66  C   UNL A   1      40.581  26.215  28.328  1.00  0.00     0.049 A 
ATOM     67  H   UNL A   1      41.835  27.906  28.489  1.00  0.00     0.167 HD
ATOM     68  C   UNL A   1      42.600  25.624  27.034  1.00  0.00     0.074 A 
ATOM     69  C   UNL A   1      43.415  24.716  26.257  1.00  0.00     0.031 C 
ATOM     70  C   UNL A   1      41.367  25.326  27.513  1.00  0.00     0.034 A 
BRANCH  57  71
ATOM     71  C   UNL A   1      38.930  29.819  30.979  1.00  0.00     0.023 A 
ATOM     72  C   UNL A   1      38.918  29.451  32.341  1.00  0.00     0.012 A 
ATOM     73  C   UNL A   1      37.908  30.654  30.483  1.00  0.00     0.148 A 
ATOM     74  C   UNL A   1      37.885  29.861  33.182  1.00  0.00     0.002 A 
ATOM     75  C   UNL A   1      36.908  31.100  31.340  1.00  0.00     0.091 A 
ATOM     76  F   UNL A   1      37.935  30.999  29.188  1.00  0.00    -0.205 F 
ATOM     77  C   UNL A   1      36.886  30.691  32.684  1.00  0.00     0.022 A 
BRANCH  75  78
ATOM     78  S   UNL A   1      35.628  32.253  30.827  1.00  0.00     0.127 S 
ATOM     79  O   UNL A   1      36.404  33.467  30.578  1.00  0.00    -0.237 OA
ATOM     80  O   UNL A   1      35.102  31.611  29.622  1.00  0.00    -0.237 OA
ATOM     81  O   UNL A   1      34.684  32.329  31.934  1.00  0.00    -0.744 OA
ENDBRANCH  75  78
ENDBRANCH  57  71
BRANCH  58  82
ATOM     82  C   UNL A   1      46.826  27.101  25.595  1.00  0.00     0.023 A 
ATOM     83  C   UNL A   1      47.730  26.192  26.180  1.00  0.00     0.012 A 
ATOM     84  C   UNL A   1      47.073  27.572  24.292  1.00  0.00     0.148 A 
ATOM     85  C   UNL A   1      48.878  25.791  25.495  1.00  0.00     0.002 A 
ATOM     86  C   UNL A   1      48.186  27.123  23.593  1.00  0.00     0.091 A 
ATOM     87  F   UNL A   1      46.206  28.444  23.759  1.00  0.00    -0.205 F 
ATOM     88  C   UNL A   1      49.102  26.248  24.199  1.00  0.00     0.022 A 
BRANCH  86  89
ATOM     89  S   UNL A   1      48.479  27.553  21.874  1.00  0.00     0.127 S 
ATOM     90  O   UNL A   1      48.851  26.262  21.302  1.00  0.00    -0.237 OA
ATOM     91  O   UNL A   1      47.168  28.058  21.464  1.00  0.00    -0.237 OA
ATOM     92  O   UNL A   1      49.531  28.561  21.894  1.00  0.00    -0.744 OA
ENDBRANCH  86  89
ENDBRANCH  58  82
BRANCH  70  93
ATOM     93  C   UNL A   1      40.786  23.975  27.178  1.00  0.00     0.023 A 
ATOM     94  C   UNL A   1      41.406  22.801  27.651  1.00  0.00     0.012 A 
ATOM     95  C   UNL A   1      39.580  23.872  26.456  1.00  0.00     0.148 A 
ATOM     96  C   UNL A   1      40.856  21.547  27.381  1.00  0.00     0.002 A 
ATOM     97  C   UNL A   1      39.010  22.624  26.234  1.00  0.00     0.091 A 
ATOM     98  F   UNL A   1      39.012  24.997  25.997  1.00  0.00    -0.205 F 
ATOM     99  C   UNL A   1      39.653  21.460  26.685  1.00  0.00     0.022 A 
BRANCH  97 100
ATOM    100  S   UNL A   1      37.417  22.418  25.430  1.00  0.00     0.127 S 
ATOM    101  O   UNL A   1      37.267  20.963  25.435  1.00  0.00    -0.237 OA
ATOM    102  O   UNL A   1      36.516  23.126  26.341  1.00  0.00    -0.237 OA
ATOM    103  O   UNL A   1      37.548  23.026  24.113  1.00  0.00    -0.744 OA
ENDBRANCH  97 100
ENDBRANCH  70  93
ENDBRANCH  44  45
ENDBRANCH  36  39
ENDBRANCH  34  35
ENDBRANCH  33  34
ENDBRANCH   1  33
TORSDOF 18
ENDMDL
MODEL 2
REMARK VINA RESULT:     -12.1      7.462     16.866
REMARK SMILES O=C(CCN1C(=O)c2ccc(NC(=O)c3cc4ccccc4o3)cc2C1=O)NCCCCNC(=O)c1ccc(-c2c3nc(c(-c4cccc(S(=O)(=O)[O-])c4F)c4ccc([nH]4)c(-c4cccc(S(=O)(=O)[O-])c4F)c4nc(c(-c5cccc(S(=O)(=O)[O-])c5F)c5ccc2[nH]5)C=C4)C=C3)cc1
REMARK SMILES IDX 30 1 29 2 28 3 1 4 2 5 3 7 4 8 5 9 6 10 26 11 7 12 8 13
REMARK SMILES IDX 25 14 27 15 9 16 24 17 10 18 11 19 12 20 13 21 14 23 15 24
REMARK SMILES IDX 16 25 23 26 17 27 22 28 18 29 21 30 19 31 20 32 31 33 32 34
REMARK SMILES IDX 33 35 34 36 35 38 36 39 37 40 98 41 38 42 97 43 39 44 40 45
REMARK SMILES IDX 41 46 91 47 42 48 96 49 90 50 92 51 43 52 95 53 89 54 88 55
REMARK SMILES IDX 44 57 76 58 56 59 75 60 57 61 60 62 74 63 93 64 58 65 59 66
REMARK SMILES IDX 73 68 94 69 61 70 45 71 46 72 54 73 47 74 49 75 55 76 48 77
REMARK SMILES IDX 50 78 51 79 52 80 53 81 77 82 78 83 86 84 79 85 81 86 87 87
REMARK SMILES IDX 80 88 82 89 83 90 84 91 85 92 62 93 63 94 71 95 64 96 66 97
REMARK SMILES IDX 72 98 65 99 67 100 68 101 69 102 70 103
REMARK H PARENT 28 6 12 22 33 37 92 56 60 67
REMARK Flexibility Score: inf
ROOT
ATOM      1  C   UNL A   1      44.646  22.777  23.832  1.00  0.00     0.023 C 
ENDROOT
BRANCH   1   2
ATOM      2  C   UNL A   1      46.026  22.556  24.452  1.00  0.00     0.116 C 
BRANCH   2   3
ATOM      3  N   UNL A   1      46.385  23.610  25.374  1.00  0.00    -0.356 N 
ATOM      4  O   UNL A   1      47.505  24.936  23.874  1.00  0.00    -0.275 OA
ATOM      5  C   UNL A   1      47.067  24.742  25.004  1.00  0.00     0.221 C 
ATOM      6  H   UNL A   1      46.126  23.511  26.319  1.00  0.00     0.163 HD
BRANCH   5   7
ATOM      7  C   UNL A   1      47.218  25.765  26.111  1.00  0.00     0.122 C 
BRANCH   7   8
ATOM      8  C   UNL A   1      47.875  25.162  27.346  1.00  0.00     0.139 C 
BRANCH   8   9
ATOM      9  N   UNL A   1      47.100  25.085  28.581  1.00  0.00    -0.274 N 
ATOM     10  C   UNL A   1      45.857  24.555  28.785  1.00  0.00     0.261 C 
ATOM     11  C   UNL A   1      47.617  25.571  29.754  1.00  0.00     0.261 C 
ATOM     12  O   UNL A   1      45.116  24.002  27.992  1.00  0.00    -0.269 OA
ATOM     13  C   UNL A   1      45.482  24.841  30.169  1.00  0.00     0.053 A 
ATOM     14  C   UNL A   1      46.568  25.434  30.758  1.00  0.00     0.055 A 
ATOM     15  O   UNL A   1      48.712  26.060  29.953  1.00  0.00    -0.269 OA
ATOM     16  C   UNL A   1      44.296  24.693  30.859  1.00  0.00     0.017 A 
ATOM     17  C   UNL A   1      46.542  25.891  32.058  1.00  0.00     0.040 A 
ATOM     18  C   UNL A   1      44.244  25.190  32.176  1.00  0.00     0.027 A 
ATOM     19  C   UNL A   1      45.363  25.803  32.791  1.00  0.00     0.042 A 
BRANCH  19  20
ATOM     20  N   UNL A   1      45.175  26.344  34.081  1.00  0.00    -0.319 N 
ATOM     21  C   UNL A   1      45.307  25.847  35.373  1.00  0.00     0.291 C 
ATOM     22  H   UNL A   1      44.887  27.285  34.063  1.00  0.00     0.170 HD
ATOM     23  O   UNL A   1      45.193  26.658  36.291  1.00  0.00    -0.265 OA
BRANCH  21  24
ATOM     24  C   UNL A   1      45.464  24.432  35.596  1.00  0.00     0.193 A 
ATOM     25  C   UNL A   1      44.589  23.387  35.369  1.00  0.00     0.065 A 
ATOM     26  O   UNL A   1      46.673  23.942  36.018  1.00  0.00    -0.451 OA
ATOM     27  C   UNL A   1      45.370  22.202  35.398  1.00  0.00     0.021 A 
ATOM     28  C   UNL A   1      46.639  22.594  35.805  1.00  0.00     0.135 A 
ATOM     29  C   UNL A   1      45.164  20.858  35.042  1.00  0.00     0.012 A 
ATOM     30  C   UNL A   1      47.746  21.749  35.846  1.00  0.00     0.048 A 
ATOM     31  C   UNL A   1      46.269  19.992  35.031  1.00  0.00     0.001 A 
ATOM     32  C   UNL A   1      47.538  20.435  35.414  1.00  0.00     0.004 A 
ENDBRANCH  21  24
ENDBRANCH  19  20
ENDBRANCH   8   9
ENDBRANCH   7   8
ENDBRANCH   5   7
ENDBRANCH   2   3
ENDBRANCH   1   2
BRANCH   1  33
ATOM     33  C   UNL A   1      43.558  23.294  24.783  1.00  0.00     0.023 C 
BRANCH  33  34
ATOM     34  C   UNL A   1      43.092  22.318  25.863  1.00  0.00     0.116 C 
BRANCH  34  35
ATOM     35  N   UNL A   1      41.668  22.047  25.780  1.00  0.00    -0.352 N 
ATOM     36  C   UNL A   1      40.605  22.757  26.287  1.00  0.00     0.251 C 
ATOM     37  H   UNL A   1      41.426  21.231  25.285  1.00  0.00     0.163 HD
ATOM     38  O   UNL A   1      39.486  22.251  26.282  1.00  0.00    -0.269 OA
BRANCH  36  39
ATOM     39  C   UNL A   1      40.792  24.116  26.855  1.00  0.00     0.039 A 
ATOM     40  C   UNL A   1      41.214  24.241  28.183  1.00  0.00     0.014 A 
ATOM     41  C   UNL A   1      40.498  25.265  26.119  1.00  0.00     0.014 A 
ATOM     42  C   UNL A   1      41.402  25.510  28.746  1.00  0.00     0.010 A 
ATOM     43  C   UNL A   1      40.734  26.530  26.671  1.00  0.00     0.010 A 
ATOM     44  C   UNL A   1      41.205  26.676  27.986  1.00  0.00    -0.014 A 
BRANCH  44  45
ATOM     45  C   UNL A   1      41.523  28.028  28.544  1.00  0.00     0.031 A 
ATOM     46  C   UNL A   1      42.949  28.488  28.745  1.00  0.00     0.074 A 
ATOM     47  C   UNL A   1      40.523  28.841  28.952  1.00  0.00     0.049 A 
ATOM     48  N   UNL A   1      43.388  29.614  29.252  1.00  0.00    -0.248 NA
ATOM     49  C   UNL A   1      44.015  27.550  28.361  1.00  0.00     0.031 C 
ATOM     50  C   UNL A   1      39.095  28.515  28.908  1.00  0.00     0.029 A 
ATOM     51  N   UNL A   1      40.553  30.101  29.506  1.00  0.00    -0.354 N 
ATOM     52  C   UNL A   1      44.775  29.506  29.284  1.00  0.00     0.074 A 
ATOM     53  C   UNL A   1      45.098  28.186  28.784  1.00  0.00     0.031 C 
ATOM     54  C   UNL A   1      38.390  29.550  29.392  1.00  0.00     0.029 A 
ATOM     55  C   UNL A   1      39.309  30.602  29.819  1.00  0.00     0.049 A 
ATOM     56  H   UNL A   1      41.387  30.598  29.663  1.00  0.00     0.167 HD
ATOM     57  C   UNL A   1      45.703  30.423  29.656  1.00  0.00     0.034 A 
ATOM     58  C   UNL A   1      38.937  31.766  30.390  1.00  0.00     0.034 A 
ATOM     59  C   UNL A   1      45.401  31.755  30.112  1.00  0.00     0.049 A 
ATOM     60  C   UNL A   1      39.981  32.784  30.763  1.00  0.00     0.074 A 
ATOM     61  C   UNL A   1      46.282  32.779  30.416  1.00  0.00     0.029 A 
ATOM     62  N   UNL A   1      44.127  32.245  30.345  1.00  0.00    -0.354 N 
ATOM     63  N   UNL A   1      41.282  32.720  30.623  1.00  0.00    -0.248 NA
ATOM     64  C   UNL A   1      39.504  34.051  31.342  1.00  0.00     0.031 C 
ATOM     65  C   UNL A   1      45.541  33.879  30.862  1.00  0.00     0.029 A 
ATOM     66  C   UNL A   1      44.197  33.553  30.799  1.00  0.00     0.049 A 
ATOM     67  H   UNL A   1      43.293  31.740  30.207  1.00  0.00     0.167 HD
ATOM     68  C   UNL A   1      41.773  33.947  31.059  1.00  0.00     0.074 A 
ATOM     69  C   UNL A   1      40.629  34.743  31.448  1.00  0.00     0.031 C 
ATOM     70  C   UNL A   1      43.060  34.367  31.140  1.00  0.00     0.034 A 
BRANCH  57  71
ATOM     71  C   UNL A   1      47.159  30.038  29.528  1.00  0.00     0.023 A 
ATOM     72  C   UNL A   1      47.847  29.551  30.659  1.00  0.00     0.012 A 
ATOM     73  C   UNL A   1      47.823  30.088  28.286  1.00  0.00     0.148 A 
ATOM     74  C   UNL A   1      49.185  29.171  30.570  1.00  0.00     0.002 A 
ATOM     75  C   UNL A   1      49.143  29.659  28.194  1.00  0.00     0.091 A 
ATOM     76  F   UNL A   1      47.154  30.549  27.220  1.00  0.00    -0.205 F 
ATOM     77  C   UNL A   1      49.829  29.217  29.338  1.00  0.00     0.022 A 
BRANCH  75  78
ATOM     78  S   UNL A   1      50.037  29.582  26.637  1.00  0.00     0.127 S 
ATOM     79  O   UNL A   1      50.097  30.993  26.258  1.00  0.00    -0.237 OA
ATOM     80  O   UNL A   1      51.319  29.009  27.048  1.00  0.00    -0.237 OA
ATOM     81  O   UNL A   1      49.247  28.730  25.758  1.00  0.00    -0.744 OA
ENDBRANCH  75  78
ENDBRANCH  57  71
BRANCH  58  82
ATOM     82  C   UNL A   1      37.491  32.060  30.609  1.00  0.00     0.023 A 
ATOM     83  C   UNL A   1      36.884  31.709  31.832  1.00  0.00     0.012 A 
ATOM     84  C   UNL A   1      36.718  32.691  29.616  1.00  0.00     0.148 A 
ATOM     85  C   UNL A   1      35.526  31.948  32.047  1.00  0.00     0.002 A 
ATOM     86  C   UNL A   1      35.381  32.981  29.859  1.00  0.00     0.091 A 
ATOM     87  F   UNL A   1      37.311  33.007  28.457  1.00  0.00    -0.205 F 
ATOM     88  C   UNL A   1      34.777  32.592  31.066  1.00  0.00     0.022 A 
BRANCH  86  89
ATOM     89  S   UNL A   1      34.378  33.927  28.709  1.00  0.00     0.127 S 
ATOM     90  O   UNL A   1      34.188  32.972  27.621  1.00  0.00    -0.237 OA
ATOM     91  O   UNL A   1      33.183  34.200  29.509  1.00  0.00    -0.237 OA
ATOM     92  O   UNL A   1      35.164  35.109  28.382  1.00  0.00    -0.744 OA
ENDBRANCH  86  89
ENDBRANCH  58  82
BRANCH  70  93
ATOM     93  C   UNL A   1      43.316  35.772  31.626  1.00  0.00     0.023 A 
ATOM     94  C   UNL A   1      43.423  36.035  33.007  1.00  0.00     0.012 A 
ATOM     95  C   UNL A   1      43.527  36.821  30.708  1.00  0.00     0.148 A 
ATOM     96  C   UNL A   1      43.698  37.323  33.466  1.00  0.00     0.002 A 
ATOM     97  C   UNL A   1      43.852  38.091  31.170  1.00  0.00     0.091 A 
ATOM     98  F   UNL A   1      43.404  36.559  29.398  1.00  0.00    -0.205 F 
ATOM     99  C   UNL A   1      43.925  38.347  32.550  1.00  0.00     0.022 A 
BRANCH  97 100
ATOM    100  S   UNL A   1      44.253  39.450  30.065  1.00  0.00     0.127 S 
ATOM    101  O   UNL A   1      45.381  38.899  29.315  1.00  0.00    -0.237 OA
ATOM    102  O   UNL A   1      43.019  39.594  29.292  1.00  0.00    -0.237 OA
ATOM    103  O   UNL A   1      44.569  40.585  30.920  1.00  0.00    -0.744 OA
ENDBRANCH  97 100
ENDBRANCH  70  93
ENDBRANCH  44  45
ENDBRANCH  36  39
ENDBRANCH  34  35
ENDBRANCH  33  34
ENDBRANCH   1  33
TORSDOF 18
ENDMDL
MODEL 3
REMARK VINA RESULT:     -11.6      7.875     14.536
REMARK SMILES O=C(CCN1C(=O)c2ccc(NC(=O)c3cc4ccccc4o3)cc2C1=O)NCCCCNC(=O)c1ccc(-c2c3nc(c(-c4cccc(S(=O)(=O)[O-])c4F)c4ccc([nH]4)c(-c4cccc(S(=O)(=O)[O-])c4F)c4nc(c(-c5cccc(S(=O)(=O)[O-])c5F)c5ccc2[nH]5)C=C4)C=C3)cc1
REMARK SMILES IDX 30 1 29 2 28 3 1 4 2 5 3 7 4 8 5 9 6 10 26 11 7 12 8 13
REMARK SMILES IDX 25 14 27 15 9 16 24 17 10 18 11 19 12 20 13 21 14 23 15 24
REMARK SMILES IDX 16 25 23 26 17 27 22 28 18 29 21 30 19 31 20 32 31 33 32 34
REMARK SMILES IDX 33 35 34 36 35 38 36 39 37 40 98 41 38 42 97 43 39 44 40 45
REMARK SMILES IDX 41 46 91 47 42 48 96 49 90 50 92 51 43 52 95 53 89 54 88 55
REMARK SMILES IDX 44 57 76 58 56 59 75 60 57 61 60 62 74 63 93 64 58 65 59 66
REMARK SMILES IDX 73 68 94 69 61 70 45 71 46 72 54 73 47 74 49 75 55 76 48 77
REMARK SMILES IDX 50 78 51 79 52 80 53 81 77 82 78 83 86 84 79 85 81 86 87 87
REMARK SMILES IDX 80 88 82 89 83 90 84 91 85 92 62 93 63 94 71 95 64 96 66 97
REMARK SMILES IDX 72 98 65 99 67 100 68 101 69 102 70 103
REMARK H PARENT 28 6 12 22 33 37 92 56 60 67
REMARK Flexibility Score: inf
ROOT
ATOM      1  C   UNL A   1      40.141  34.092  42.176  1.00  0.00     0.023 C 
ENDROOT
BRANCH   1   2
ATOM      2  C   UNL A   1      40.058  33.129  40.991  1.00  0.00     0.116 C 
BRANCH   2   3
ATOM      3  N   UNL A   1      39.929  33.825  39.730  1.00  0.00    -0.356 N 
ATOM      4  O   UNL A   1      38.400  32.408  38.773  1.00  0.00    -0.275 OA
ATOM      5  C   UNL A   1      39.078  33.430  38.729  1.00  0.00     0.221 C 
ATOM      6  H   UNL A   1      40.482  34.626  39.582  1.00  0.00     0.163 HD
BRANCH   5   7
ATOM      7  C   UNL A   1      39.017  34.384  37.554  1.00  0.00     0.122 C 
BRANCH   7   8
ATOM      8  C   UNL A   1      39.017  33.638  36.225  1.00  0.00     0.139 C 
BRANCH   8   9
ATOM      9  N   UNL A   1      37.946  33.912  35.271  1.00  0.00    -0.274 N 
ATOM     10  C   UNL A   1      36.593  33.814  35.444  1.00  0.00     0.261 C 
ATOM     11  C   UNL A   1      38.242  34.348  34.006  1.00  0.00     0.261 C 
ATOM     12  O   UNL A   1      35.965  33.501  36.440  1.00  0.00    -0.269 OA
ATOM     13  C   UNL A   1      35.968  34.078  34.150  1.00  0.00     0.053 A 
ATOM     14  C   UNL A   1      36.974  34.429  33.288  1.00  0.00     0.055 A 
ATOM     15  O   UNL A   1      39.330  34.597  33.526  1.00  0.00    -0.269 OA
ATOM     16  C   UNL A   1      34.668  33.953  33.705  1.00  0.00     0.017 A 
ATOM     17  C   UNL A   1      36.744  34.690  31.955  1.00  0.00     0.040 A 
ATOM     18  C   UNL A   1      34.424  34.181  32.337  1.00  0.00     0.027 A 
ATOM     19  C   UNL A   1      35.460  34.544  31.441  1.00  0.00     0.042 A 
BRANCH  19  20
ATOM     20  N   UNL A   1      35.121  34.663  30.076  1.00  0.00    -0.319 N 
ATOM     21  C   UNL A   1      35.171  33.805  28.983  1.00  0.00     0.291 C 
ATOM     22  H   UNL A   1      34.770  35.553  29.845  1.00  0.00     0.170 HD
ATOM     23  O   UNL A   1      34.652  34.206  27.942  1.00  0.00    -0.265 OA
BRANCH  21  24
ATOM     24  C   UNL A   1      35.892  32.560  29.067  1.00  0.00     0.193 A 
ATOM     25  C   UNL A   1      35.509  31.279  28.718  1.00  0.00     0.065 A 
ATOM     26  O   UNL A   1      37.204  32.560  29.465  1.00  0.00    -0.451 OA
ATOM     27  C   UNL A   1      36.703  30.514  28.646  1.00  0.00     0.021 A 
ATOM     28  C   UNL A   1      37.713  31.342  29.118  1.00  0.00     0.135 A 
ATOM     29  C   UNL A   1      37.050  29.244  28.154  1.00  0.00     0.012 A 
ATOM     30  C   UNL A   1      39.067  31.016  29.099  1.00  0.00     0.048 A 
ATOM     31  C   UNL A   1      38.410  28.904  28.081  1.00  0.00     0.001 A 
ATOM     32  C   UNL A   1      39.399  29.781  28.534  1.00  0.00     0.004 A 
ENDBRANCH  21  24
ENDBRANCH  19  20
ENDBRANCH   8   9
ENDBRANCH   7   8
ENDBRANCH   5   7
ENDBRANCH   2   3
ENDBRANCH   1   2
BRANCH   1  33
ATOM     33  C   UNL A   1      40.850  33.555  43.427  1.00  0.00     0.023 C 
BRANCH  33  34
ATOM     34  C   UNL A   1      42.377  33.540  43.379  1.00  0.00     0.116 C 
BRANCH  34  35
ATOM     35  N   UNL A   1      42.948  34.835  43.707  1.00  0.00    -0.352 N 
ATOM     36  C   UNL A   1      43.553  35.763  42.893  1.00  0.00     0.251 C 
ATOM     37  H   UNL A   1      42.894  35.085  44.658  1.00  0.00     0.163 HD
ATOM     38  O   UNL A   1      44.154  36.707  43.400  1.00  0.00    -0.269 OA
BRANCH  36  39
ATOM     39  C   UNL A   1      43.507  35.633  41.415  1.00  0.00     0.039 A 
ATOM     40  C   UNL A   1      42.425  36.188  40.723  1.00  0.00     0.014 A 
ATOM     41  C   UNL A   1      44.478  34.922  40.710  1.00  0.00     0.014 A 
ATOM     42  C   UNL A   1      42.354  36.085  39.328  1.00  0.00     0.010 A 
ATOM     43  C   UNL A   1      44.428  34.865  39.312  1.00  0.00     0.010 A 
ATOM     44  C   UNL A   1      43.376  35.458  38.594  1.00  0.00    -0.014 A 
BRANCH  44  45
ATOM     45  C   UNL A   1      43.366  35.454  37.098  1.00  0.00     0.031 A 
ATOM     46  C   UNL A   1      43.703  36.693  36.299  1.00  0.00     0.074 A 
ATOM     47  C   UNL A   1      42.978  34.345  36.429  1.00  0.00     0.049 A 
ATOM     48  N   UNL A   1      43.703  36.860  35.000  1.00  0.00    -0.248 NA
ATOM     49  C   UNL A   1      44.048  37.904  37.058  1.00  0.00     0.031 C 
ATOM     50  C   UNL A   1      42.539  33.092  37.050  1.00  0.00     0.029 A 
ATOM     51  N   UNL A   1      42.868  34.097  35.080  1.00  0.00    -0.354 N 
ATOM     52  C   UNL A   1      44.008  38.200  34.785  1.00  0.00     0.074 A 
ATOM     53  C   UNL A   1      44.144  38.808  36.093  1.00  0.00     0.031 C 
ATOM     54  C   UNL A   1      42.228  32.208  36.088  1.00  0.00     0.029 A 
ATOM     55  C   UNL A   1      42.406  32.834  34.781  1.00  0.00     0.049 A 
ATOM     56  H   UNL A   1      43.099  34.761  34.392  1.00  0.00     0.167 HD
ATOM     57  C   UNL A   1      44.197  38.866  33.618  1.00  0.00     0.034 A 
ATOM     58  C   UNL A   1      42.144  32.240  33.599  1.00  0.00     0.034 A 
ATOM     59  C   UNL A   1      44.110  38.268  32.311  1.00  0.00     0.049 A 
ATOM     60  C   UNL A   1      42.393  32.984  32.315  1.00  0.00     0.074 A 
ATOM     61  C   UNL A   1      44.381  38.845  31.082  1.00  0.00     0.029 A 
ATOM     62  N   UNL A   1      43.710  36.966  32.058  1.00  0.00    -0.354 N 
ATOM     63  N   UNL A   1      42.847  34.201  32.143  1.00  0.00    -0.248 NA
ATOM     64  C   UNL A   1      42.127  32.262  31.060  1.00  0.00     0.031 C 
ATOM     65  C   UNL A   1      44.115  37.902  30.084  1.00  0.00     0.029 A 
ATOM     66  C   UNL A   1      43.716  36.725  30.693  1.00  0.00     0.049 A 
ATOM     67  H   UNL A   1      43.459  36.308  32.746  1.00  0.00     0.167 HD
ATOM     68  C   UNL A   1      42.956  34.376  30.766  1.00  0.00     0.074 A 
ATOM     69  C   UNL A   1      42.542  33.134  30.151  1.00  0.00     0.031 C 
ATOM     70  C   UNL A   1      43.353  35.475  30.078  1.00  0.00     0.034 A 
BRANCH  57  71
ATOM     71  C   UNL A   1      44.581  40.325  33.698  1.00  0.00     0.023 A 
ATOM     72  C   UNL A   1      45.944  40.685  33.635  1.00  0.00     0.012 A 
ATOM     73  C   UNL A   1      43.603  41.338  33.762  1.00  0.00     0.148 A 
ATOM     74  C   UNL A   1      46.330  42.024  33.687  1.00  0.00     0.002 A 
ATOM     75  C   UNL A   1      43.995  42.673  33.763  1.00  0.00     0.091 A 
ATOM     76  F   UNL A   1      42.313  40.981  33.817  1.00  0.00    -0.205 F 
ATOM     77  C   UNL A   1      45.357  43.016  33.742  1.00  0.00     0.022 A 
BRANCH  75  78
ATOM     78  S   UNL A   1      42.820  44.033  33.732  1.00  0.00     0.127 S 
ATOM     79  O   UNL A   1      41.929  43.682  34.835  1.00  0.00    -0.237 OA
ATOM     80  O   UNL A   1      43.682  45.187  33.991  1.00  0.00    -0.237 OA
ATOM     81  O   UNL A   1      42.215  44.015  32.407  1.00  0.00    -0.744 OA
ENDBRANCH  75  78
ENDBRANCH  57  71
BRANCH  58  82
ATOM     82  C   UNL A   1      41.650  30.832  33.566  1.00  0.00     0.023 A 
ATOM     83  C   UNL A   1      42.528  29.776  33.882  1.00  0.00     0.012 A 
ATOM     84  C   UNL A   1      40.315  30.538  33.232  1.00  0.00     0.148 A 
ATOM     85  C   UNL A   1      42.095  28.451  33.830  1.00  0.00     0.002 A 
ATOM     86  C   UNL A   1      39.874  29.220  33.240  1.00  0.00     0.091 A 
ATOM     87  F   UNL A   1      39.499  31.555  32.924  1.00  0.00    -0.205 F 
ATOM     88  C   UNL A   1      40.767  28.172  33.519  1.00  0.00     0.022 A 
BRANCH  86  89
ATOM     89  S   UNL A   1      38.151  28.781  32.985  1.00  0.00     0.127 S 
ATOM     90  O   UNL A   1      38.207  27.322  33.007  1.00  0.00    -0.237 OA
ATOM     91  O   UNL A   1      37.511  29.394  34.150  1.00  0.00    -0.237 OA
ATOM     92  O   UNL A   1      37.777  29.380  31.711  1.00  0.00    -0.744 OA
ENDBRANCH  86  89
ENDBRANCH  58  82
BRANCH  70  93
ATOM     93  C   UNL A   1      43.409  35.385  28.573  1.00  0.00     0.023 A 
ATOM     94  C   UNL A   1      42.307  35.799  27.798  1.00  0.00     0.012 A 
ATOM     95  C   UNL A   1      44.586  34.959  27.923  1.00  0.00     0.148 A 
ATOM     96  C   UNL A   1      42.362  35.757  26.404  1.00  0.00     0.002 A 
ATOM     97  C   UNL A   1      44.652  34.968  26.535  1.00  0.00     0.091 A 
ATOM     98  F   UNL A   1      45.619  34.551  28.675  1.00  0.00    -0.205 F 
ATOM     99  C   UNL A   1      43.537  35.355  25.774  1.00  0.00     0.022 A 
BRANCH  97 100
ATOM    100  S   UNL A   1      46.153  34.557  25.636  1.00  0.00     0.127 S 
ATOM    101  O   UNL A   1      47.036  35.660  26.012  1.00  0.00    -0.237 OA
ATOM    102  O   UNL A   1      46.515  33.262  26.214  1.00  0.00    -0.237 OA
ATOM    103  O   UNL A   1      45.779  34.510  24.229  1.00  0.00    -0.744 OA
ENDBRANCH  97 100
ENDBRANCH  70  93
ENDBRANCH  44  45
ENDBRANCH  36  39
ENDBRANCH  34  35
ENDBRANCH  33  34
ENDBRANCH   1  33
TORSDOF 18
ENDMDL
