MODEL 1
REMARK VINA RESULT:     -12.1      0.000      0.000
REMARK SMILES O=C(NCCCCNC(=O)C1CC[NH+]([C@@H]2CC(=O)N(c3ccc(Oc4ccccc4)cc3)C2=O)CC1)c1ccc(-c2c3nc(c(-c4cccc(S(=O)(=O)[O-])c4F)c4ccc([nH]4)c(-c4cccc(S(=O)(=O)[O-])c4F)c4nc(c(-c5cccc(S(=O)(=O)[O-])c5F)c5ccc2[nH]5)C=C4)C=C3)cc1
REMARK SMILES IDX 6 1 5 2 4 3 3 4 1 5 2 6 37 8 38 9 99 10 39 11 98 12 40 13
REMARK SMILES IDX 41 14 42 15 92 16 43 17 97 18 91 19 93 20 44 21 96 22 90 23
REMARK SMILES IDX 89 24 45 26 77 27 57 28 76 29 58 30 61 31 75 32 94 33 59 34
REMARK SMILES IDX 60 35 74 37 95 38 62 39 46 40 47 41 55 42 48 43 50 44 56 45
REMARK SMILES IDX 49 46 51 47 52 48 53 49 54 50 78 51 79 52 87 53 80 54 82 55
REMARK SMILES IDX 88 56 81 57 83 58 84 59 85 60 86 61 63 62 64 63 72 64 65 65
REMARK SMILES IDX 67 66 73 67 66 68 68 69 69 70 70 71 71 72 7 73 8 74 9 75
REMARK SMILES IDX 10 77 11 78 12 79 36 80 13 81 35 82 14 83 15 85 16 86 33 87
REMARK SMILES IDX 17 88 19 89 34 90 18 91 20 92 21 93 32 94 22 95 31 96 23 97
REMARK SMILES IDX 24 98 25 99 26 100 30 101 27 102 29 103 28 104
REMARK H PARENT 3 7 93 25 61 36 8 76 14 84
REMARK Flexibility Score: inf
ROOT
ATOM      1  C   UNL A   1      34.903  32.620  27.822  1.00  0.00     0.023 C 
ENDROOT
BRANCH   1   2
ATOM      2  C   UNL A   1      33.531  33.201  28.163  1.00  0.00     0.023 C 
BRANCH   2   3
ATOM      3  C   UNL A   1      33.483  34.715  28.318  1.00  0.00     0.116 C 
BRANCH   3   4
ATOM      4  N   UNL A   1      32.888  35.146  29.573  1.00  0.00    -0.352 N 
ATOM      5  O   UNL A   1      32.605  35.246  31.808  1.00  0.00    -0.269 OA
ATOM      6  C   UNL A   1      33.299  34.887  30.860  1.00  0.00     0.251 C 
ATOM      7  H   UNL A   1      32.078  35.701  29.489  1.00  0.00     0.163 HD
BRANCH   6   8
ATOM      8  C   UNL A   1      34.552  34.137  31.085  1.00  0.00     0.039 A 
ATOM      9  C   UNL A   1      34.529  32.884  31.701  1.00  0.00     0.014 A 
ATOM     10  C   UNL A   1      35.769  34.718  30.720  1.00  0.00     0.014 A 
ATOM     11  C   UNL A   1      35.721  32.296  32.108  1.00  0.00     0.010 A 
ATOM     12  C   UNL A   1      36.968  34.082  31.053  1.00  0.00     0.010 A 
ATOM     13  C   UNL A   1      36.955  32.892  31.798  1.00  0.00    -0.014 A 
BRANCH  13  14
ATOM     14  C   UNL A   1      38.209  32.235  32.249  1.00  0.00     0.031 A 
ATOM     15  C   UNL A   1      38.843  32.587  33.569  1.00  0.00     0.074 A 
ATOM     16  C   UNL A   1      38.760  31.284  31.469  1.00  0.00     0.049 A 
ATOM     17  N   UNL A   1      39.891  32.051  34.144  1.00  0.00    -0.248 NA
ATOM     18  C   UNL A   1      38.238  33.684  34.341  1.00  0.00     0.031 C 
ATOM     19  C   UNL A   1      38.265  30.892  30.148  1.00  0.00     0.029 A 
ATOM     20  N   UNL A   1      39.842  30.468  31.674  1.00  0.00    -0.354 N 
ATOM     21  C   UNL A   1      40.098  32.771  35.314  1.00  0.00     0.074 A 
ATOM     22  C   UNL A   1      39.070  33.788  35.369  1.00  0.00     0.031 C 
ATOM     23  C   UNL A   1      39.012  29.881  29.681  1.00  0.00     0.029 A 
ATOM     24  C   UNL A   1      40.063  29.581  30.648  1.00  0.00     0.049 A 
ATOM     25  H   UNL A   1      40.407  30.513  32.479  1.00  0.00     0.167 HD
ATOM     26  C   UNL A   1      41.045  32.589  36.267  1.00  0.00     0.034 A 
ATOM     27  C   UNL A   1      41.001  28.626  30.499  1.00  0.00     0.034 A 
ATOM     28  C   UNL A   1      42.027  31.538  36.241  1.00  0.00     0.049 A 
ATOM     29  C   UNL A   1      41.994  28.404  31.604  1.00  0.00     0.074 A 
ATOM     30  C   UNL A   1      42.982  31.230  37.194  1.00  0.00     0.029 A 
ATOM     31  N   UNL A   1      42.181  30.623  35.211  1.00  0.00    -0.354 N 
ATOM     32  N   UNL A   1      42.085  29.008  32.764  1.00  0.00    -0.248 NA
ATOM     33  C   UNL A   1      42.994  27.349  31.393  1.00  0.00     0.031 C 
ATOM     34  C   UNL A   1      43.716  30.129  36.738  1.00  0.00     0.029 A 
ATOM     35  C   UNL A   1      43.215  29.749  35.505  1.00  0.00     0.049 A 
ATOM     36  H   UNL A   1      41.636  30.599  34.392  1.00  0.00     0.167 HD
ATOM     37  C   UNL A   1      43.135  28.391  33.432  1.00  0.00     0.074 A 
ATOM     38  C   UNL A   1      43.631  27.347  32.558  1.00  0.00     0.031 C 
ATOM     39  C   UNL A   1      43.657  28.677  34.650  1.00  0.00     0.034 A 
BRANCH  26  40
ATOM     40  C   UNL A   1      41.037  33.518  37.453  1.00  0.00     0.023 A 
ATOM     41  C   UNL A   1      41.809  34.696  37.417  1.00  0.00     0.012 A 
ATOM     42  C   UNL A   1      40.214  33.265  38.569  1.00  0.00     0.148 A 
ATOM     43  C   UNL A   1      41.779  35.598  38.481  1.00  0.00     0.002 A 
ATOM     44  C   UNL A   1      40.164  34.185  39.610  1.00  0.00     0.091 A 
ATOM     45  F   UNL A   1      39.507  32.126  38.599  1.00  0.00    -0.205 F 
ATOM     46  C   UNL A   1      40.951  35.348  39.571  1.00  0.00     0.022 A 
BRANCH  44  47
ATOM     47  S   UNL A   1      39.071  33.978  41.022  1.00  0.00     0.127 S 
ATOM     48  O   UNL A   1      37.761  33.920  40.375  1.00  0.00    -0.237 OA
ATOM     49  O   UNL A   1      39.527  32.709  41.589  1.00  0.00    -0.237 OA
ATOM     50  O   UNL A   1      39.305  35.135  41.875  1.00  0.00    -0.744 OA
ENDBRANCH  44  47
ENDBRANCH  26  40
BRANCH  27  51
ATOM     51  C   UNL A   1      40.981  27.758  29.290  1.00  0.00     0.023 A 
ATOM     52  C   UNL A   1      40.061  26.694  29.222  1.00  0.00     0.012 A 
ATOM     53  C   UNL A   1      41.818  28.015  28.188  1.00  0.00     0.148 A 
ATOM     54  C   UNL A   1      39.989  25.891  28.083  1.00  0.00     0.002 A 
ATOM     55  C   UNL A   1      41.700  27.247  27.035  1.00  0.00     0.091 A 
ATOM     56  F   UNL A   1      42.702  29.019  28.279  1.00  0.00    -0.205 F 
ATOM     57  C   UNL A   1      40.797  26.175  26.985  1.00  0.00     0.022 A 
BRANCH  55  58
ATOM     58  S   UNL A   1      42.599  27.652  25.533  1.00  0.00     0.127 S 
ATOM     59  O   UNL A   1      41.979  28.915  25.143  1.00  0.00    -0.237 OA
ATOM     60  O   UNL A   1      43.976  27.765  26.018  1.00  0.00    -0.237 OA
ATOM     61  O   UNL A   1      42.376  26.524  24.639  1.00  0.00    -0.744 OA
ENDBRANCH  55  58
ENDBRANCH  27  51
BRANCH  39  62
ATOM     62  C   UNL A   1      44.812  27.838  35.122  1.00  0.00     0.023 A 
ATOM     63  C   UNL A   1      46.126  28.204  34.768  1.00  0.00     0.012 A 
ATOM     64  C   UNL A   1      44.606  26.728  35.962  1.00  0.00     0.148 A 
ATOM     65  C   UNL A   1      47.214  27.459  35.218  1.00  0.00     0.002 A 
ATOM     66  C   UNL A   1      45.699  26.013  36.441  1.00  0.00     0.091 A 
ATOM     67  F   UNL A   1      43.348  26.379  36.269  1.00  0.00    -0.205 F 
ATOM     68  C   UNL A   1      47.002  26.371  36.062  1.00  0.00     0.022 A 
BRANCH  66  69
ATOM     69  S   UNL A   1      45.505  24.657  37.603  1.00  0.00     0.127 S 
ATOM     70  O   UNL A   1      44.143  24.870  38.087  1.00  0.00    -0.237 OA
ATOM     71  O   UNL A   1      45.670  23.480  36.749  1.00  0.00    -0.237 OA
ATOM     72  O   UNL A   1      46.564  24.834  38.588  1.00  0.00    -0.744 OA
ENDBRANCH  66  69
ENDBRANCH  39  62
ENDBRANCH  13  14
ENDBRANCH   6   8
ENDBRANCH   3   4
ENDBRANCH   2   3
ENDBRANCH   1   2
BRANCH   1  73
ATOM     73  C   UNL A   1      34.961  31.095  27.748  1.00  0.00     0.116 C 
BRANCH  73  74
ATOM     74  N   UNL A   1      33.668  30.494  28.008  1.00  0.00    -0.356 N 
ATOM     75  C   UNL A   1      32.826  29.835  27.164  1.00  0.00     0.223 C 
ATOM     76  H   UNL A   1      33.349  30.572  28.936  1.00  0.00     0.163 HD
ATOM     77  O   UNL A   1      31.793  29.367  27.641  1.00  0.00    -0.275 OA
BRANCH  75  78
ATOM     78  C   UNL A   1      33.187  29.695  25.683  1.00  0.00     0.089 C 
ATOM     79  C   UNL A   1      31.953  29.691  24.778  1.00  0.00     0.075 C 
ATOM     80  C   UNL A   1      33.987  28.413  25.423  1.00  0.00     0.075 C 
ATOM     81  C   UNL A   1      31.124  28.423  24.960  1.00  0.00     0.263 C 
ATOM     82  C   UNL A   1      33.129  27.147  25.513  1.00  0.00     0.263 C 
ATOM     83  N   UNL A   1      31.928  27.232  24.668  1.00  0.00    -0.324 N 
ATOM     84  H   UNL A   1      32.284  27.317  23.715  1.00  0.00     0.348 HD
BRANCH  83  85
ATOM     85  C   UNL A   1      31.092  26.007  24.689  1.00  0.00     0.284 C 
ATOM     86  C   UNL A   1      30.572  25.537  26.036  1.00  0.00     0.176 C 
ATOM     87  C   UNL A   1      31.841  24.807  24.133  1.00  0.00     0.292 C 
ATOM     88  C   UNL A   1      31.143  24.165  26.208  1.00  0.00     0.240 C 
ATOM     89  N   UNL A   1      31.896  23.829  25.105  1.00  0.00    -0.245 N 
ATOM     90  O   UNL A   1      32.265  24.756  22.983  1.00  0.00    -0.267 OA
ATOM     91  O   UNL A   1      30.932  23.513  27.222  1.00  0.00    -0.274 OA
BRANCH  89  92
ATOM     92  C   UNL A   1      32.623  22.611  24.963  1.00  0.00     0.052 A 
ATOM     93  C   UNL A   1      32.216  21.628  24.047  1.00  0.00     0.031 A 
ATOM     94  C   UNL A   1      33.782  22.356  25.711  1.00  0.00     0.031 A 
ATOM     95  C   UNL A   1      32.931  20.434  23.893  1.00  0.00     0.049 A 
ATOM     96  C   UNL A   1      34.497  21.161  25.563  1.00  0.00     0.049 A 
ATOM     97  C   UNL A   1      34.063  20.188  24.665  1.00  0.00     0.127 A 
BRANCH  97  98
ATOM     98  O   UNL A   1      34.697  18.987  24.430  1.00  0.00    -0.457 OA
BRANCH  98  99
ATOM     99  C   UNL A   1      34.057  17.839  24.826  1.00  0.00     0.127 A 
ATOM    100  C   UNL A   1      34.710  16.624  24.622  1.00  0.00     0.047 A 
ATOM    101  C   UNL A   1      32.770  17.872  25.369  1.00  0.00     0.047 A 
ATOM    102  C   UNL A   1      34.092  15.435  25.009  1.00  0.00     0.004 A 
ATOM    103  C   UNL A   1      32.157  16.682  25.759  1.00  0.00     0.004 A 
ATOM    104  C   UNL A   1      32.820  15.466  25.583  1.00  0.00     0.000 A 
ENDBRANCH  98  99
ENDBRANCH  97  98
ENDBRANCH  89  92
ENDBRANCH  83  85
ENDBRANCH  75  78
ENDBRANCH  73  74
ENDBRANCH   1  73
TORSDOF 18
ENDMDL
MODEL 2
REMARK VINA RESULT:     -11.6      2.219      7.527
REMARK SMILES O=C(NCCCCNC(=O)C1CC[NH+]([C@@H]2CC(=O)N(c3ccc(Oc4ccccc4)cc3)C2=O)CC1)c1ccc(-c2c3nc(c(-c4cccc(S(=O)(=O)[O-])c4F)c4ccc([nH]4)c(-c4cccc(S(=O)(=O)[O-])c4F)c4nc(c(-c5cccc(S(=O)(=O)[O-])c5F)c5ccc2[nH]5)C=C4)C=C3)cc1
REMARK SMILES IDX 6 1 5 2 4 3 3 4 1 5 2 6 37 8 38 9 99 10 39 11 98 12 40 13
REMARK SMILES IDX 41 14 42 15 92 16 43 17 97 18 91 19 93 20 44 21 96 22 90 23
REMARK SMILES IDX 89 24 45 26 77 27 57 28 76 29 58 30 61 31 75 32 94 33 59 34
REMARK SMILES IDX 60 35 74 37 95 38 62 39 46 40 47 41 55 42 48 43 50 44 56 45
REMARK SMILES IDX 49 46 51 47 52 48 53 49 54 50 78 51 79 52 87 53 80 54 82 55
REMARK SMILES IDX 88 56 81 57 83 58 84 59 85 60 86 61 63 62 64 63 72 64 65 65
REMARK SMILES IDX 67 66 73 67 66 68 68 69 69 70 70 71 71 72 7 73 8 74 9 75
REMARK SMILES IDX 10 77 11 78 12 79 36 80 13 81 35 82 14 83 15 85 16 86 33 87
REMARK SMILES IDX 17 88 19 89 34 90 18 91 20 92 21 93 32 94 22 95 31 96 23 97
REMARK SMILES IDX 24 98 25 99 26 100 30 101 27 102 29 103 28 104
REMARK H PARENT 3 7 93 25 61 36 8 76 14 84
REMARK Flexibility Score: inf
ROOT
ATOM      1  C   UNL A   1      34.927  32.578  27.776  1.00  0.00     0.023 C 
ENDROOT
BRANCH   1   2
ATOM      2  C   UNL A   1      33.684  33.175  28.436  1.00  0.00     0.023 C 
BRANCH   2   3
ATOM      3  C   UNL A   1      33.812  34.627  28.874  1.00  0.00     0.116 C 
BRANCH   3   4
ATOM      4  N   UNL A   1      32.907  34.984  29.955  1.00  0.00    -0.352 N 
ATOM      5  O   UNL A   1      32.164  35.115  32.080  1.00  0.00    -0.269 OA
ATOM      6  C   UNL A   1      33.089  34.859  31.313  1.00  0.00     0.251 C 
ATOM      7  H   UNL A   1      32.044  35.369  29.676  1.00  0.00     0.163 HD
BRANCH   6   8
ATOM      8  C   UNL A   1      34.385  34.374  31.830  1.00  0.00     0.039 A 
ATOM      9  C   UNL A   1      34.597  33.012  32.051  1.00  0.00     0.014 A 
ATOM     10  C   UNL A   1      35.383  35.301  32.145  1.00  0.00     0.014 A 
ATOM     11  C   UNL A   1      35.727  32.595  32.744  1.00  0.00     0.010 A 
ATOM     12  C   UNL A   1      36.559  34.868  32.764  1.00  0.00     0.010 A 
ATOM     13  C   UNL A   1      36.719  33.519  33.117  1.00  0.00    -0.014 A 
BRANCH  13  14
ATOM     14  C   UNL A   1      37.914  33.038  33.858  1.00  0.00     0.031 A 
ATOM     15  C   UNL A   1      39.100  32.461  33.132  1.00  0.00     0.074 A 
ATOM     16  C   UNL A   1      37.937  33.157  35.200  1.00  0.00     0.049 A 
ATOM     17  N   UNL A   1      40.250  32.070  33.623  1.00  0.00    -0.248 NA
ATOM     18  C   UNL A   1      38.987  32.288  31.675  1.00  0.00     0.031 C 
ATOM     19  C   UNL A   1      36.828  33.655  36.017  1.00  0.00     0.029 A 
ATOM     20  N   UNL A   1      38.924  32.883  36.110  1.00  0.00    -0.354 N 
ATOM     21  C   UNL A   1      40.974  31.564  32.550  1.00  0.00     0.074 A 
ATOM     22  C   UNL A   1      40.134  31.692  31.379  1.00  0.00     0.031 C 
ATOM     23  C   UNL A   1      37.212  33.695  37.301  1.00  0.00     0.029 A 
ATOM     24  C   UNL A   1      38.576  33.188  37.405  1.00  0.00     0.049 A 
ATOM     25  H   UNL A   1      39.799  32.506  35.861  1.00  0.00     0.167 HD
ATOM     26  C   UNL A   1      42.231  31.057  32.537  1.00  0.00     0.034 A 
ATOM     27  C   UNL A   1      39.276  33.079  38.550  1.00  0.00     0.034 A 
ATOM     28  C   UNL A   1      43.088  30.989  33.692  1.00  0.00     0.049 A 
ATOM     29  C   UNL A   1      40.691  32.578  38.493  1.00  0.00     0.074 A 
ATOM     30  C   UNL A   1      44.401  30.558  33.764  1.00  0.00     0.029 A 
ATOM     31  N   UNL A   1      42.719  31.361  34.975  1.00  0.00    -0.354 N 
ATOM     32  N   UNL A   1      41.402  32.234  37.447  1.00  0.00    -0.248 NA
ATOM     33  C   UNL A   1      41.411  32.480  39.770  1.00  0.00     0.031 C 
ATOM     34  C   UNL A   1      44.825  30.667  35.093  1.00  0.00     0.029 A 
ATOM     35  C   UNL A   1      43.778  31.171  35.847  1.00  0.00     0.049 A 
ATOM     36  H   UNL A   1      41.834  31.709  35.229  1.00  0.00     0.167 HD
ATOM     37  C   UNL A   1      42.660  31.903  37.935  1.00  0.00     0.074 A 
ATOM     38  C   UNL A   1      42.621  32.115  39.368  1.00  0.00     0.031 C 
ATOM     39  C   UNL A   1      43.742  31.443  37.261  1.00  0.00     0.034 A 
BRANCH  26  40
ATOM     40  C   UNL A   1      42.785  30.582  31.220  1.00  0.00     0.023 A 
ATOM     41  C   UNL A   1      43.526  31.472  30.416  1.00  0.00     0.012 A 
ATOM     42  C   UNL A   1      42.638  29.242  30.810  1.00  0.00     0.148 A 
ATOM     43  C   UNL A   1      44.092  31.043  29.216  1.00  0.00     0.002 A 
ATOM     44  C   UNL A   1      43.234  28.813  29.629  1.00  0.00     0.091 A 
ATOM     45  F   UNL A   1      41.909  28.415  31.573  1.00  0.00    -0.205 F 
ATOM     46  C   UNL A   1      43.956  29.714  28.828  1.00  0.00     0.022 A 
BRANCH  44  47
ATOM     47  S   UNL A   1      43.170  27.100  29.088  1.00  0.00     0.127 S 
ATOM     48  O   UNL A   1      43.977  27.145  27.870  1.00  0.00    -0.237 OA
ATOM     49  O   UNL A   1      43.797  26.394  30.207  1.00  0.00    -0.237 OA
ATOM     50  O   UNL A   1      41.758  26.798  28.902  1.00  0.00    -0.744 OA
ENDBRANCH  44  47
ENDBRANCH  26  40
BRANCH  27  51
ATOM     51  C   UNL A   1      38.667  33.534  39.830  1.00  0.00     0.023 A 
ATOM     52  C   UNL A   1      38.900  34.851  40.272  1.00  0.00     0.012 A 
ATOM     53  C   UNL A   1      37.813  32.699  40.575  1.00  0.00     0.148 A 
ATOM     54  C   UNL A   1      38.307  35.320  41.445  1.00  0.00     0.002 A 
ATOM     55  C   UNL A   1      37.180  33.193  41.709  1.00  0.00     0.091 A 
ATOM     56  F   UNL A   1      37.620  31.442  40.150  1.00  0.00    -0.205 F 
ATOM     57  C   UNL A   1      37.436  34.498  42.155  1.00  0.00     0.022 A 
BRANCH  55  58
ATOM     58  S   UNL A   1      35.933  32.242  42.585  1.00  0.00     0.127 S 
ATOM     59  O   UNL A   1      35.471  33.200  43.584  1.00  0.00    -0.237 OA
ATOM     60  O   UNL A   1      34.969  31.944  41.525  1.00  0.00    -0.237 OA
ATOM     61  O   UNL A   1      36.633  31.070  43.095  1.00  0.00    -0.744 OA
ENDBRANCH  55  58
ENDBRANCH  27  51
BRANCH  39  62
ATOM     62  C   UNL A   1      44.984  31.156  38.059  1.00  0.00     0.023 A 
ATOM     63  C   UNL A   1      45.841  32.217  38.415  1.00  0.00     0.012 A 
ATOM     64  C   UNL A   1      45.272  29.854  38.508  1.00  0.00     0.148 A 
ATOM     65  C   UNL A   1      46.982  31.980  39.179  1.00  0.00     0.002 A 
ATOM     66  C   UNL A   1      46.391  29.631  39.305  1.00  0.00     0.091 A 
ATOM     67  F   UNL A   1      44.460  28.852  38.139  1.00  0.00    -0.205 F 
ATOM     68  C   UNL A   1      47.251  30.691  39.633  1.00  0.00     0.022 A 
BRANCH  66  69
ATOM     69  S   UNL A   1      46.749  28.013  39.998  1.00  0.00     0.127 S 
ATOM     70  O   UNL A   1      47.950  28.284  40.785  1.00  0.00    -0.237 OA
ATOM     71  O   UNL A   1      45.552  27.733  40.791  1.00  0.00    -0.237 OA
ATOM     72  O   UNL A   1      46.927  27.130  38.852  1.00  0.00    -0.744 OA
ENDBRANCH  66  69
ENDBRANCH  39  62
ENDBRANCH  13  14
ENDBRANCH   6   8
ENDBRANCH   3   4
ENDBRANCH   2   3
ENDBRANCH   1   2
BRANCH   1  73
ATOM     73  C   UNL A   1      34.944  31.052  27.689  1.00  0.00     0.116 C 
BRANCH  73  74
ATOM     74  N   UNL A   1      33.638  30.482  27.957  1.00  0.00    -0.356 N 
ATOM     75  C   UNL A   1      32.761  29.874  27.112  1.00  0.00     0.223 C 
ATOM     76  H   UNL A   1      33.340  30.543  28.894  1.00  0.00     0.163 HD
ATOM     77  O   UNL A   1      31.724  29.423  27.596  1.00  0.00    -0.275 OA
BRANCH  75  78
ATOM     78  C   UNL A   1      33.089  29.766  25.621  1.00  0.00     0.089 C 
ATOM     79  C   UNL A   1      31.834  29.768  24.745  1.00  0.00     0.075 C 
ATOM     80  C   UNL A   1      33.895  28.498  25.317  1.00  0.00     0.075 C 
ATOM     81  C   UNL A   1      31.022  28.489  24.920  1.00  0.00     0.263 C 
ATOM     82  C   UNL A   1      33.051  27.222  25.401  1.00  0.00     0.263 C 
ATOM     83  N   UNL A   1      31.830  27.311  24.586  1.00  0.00    -0.324 N 
ATOM     84  H   UNL A   1      32.163  27.418  23.628  1.00  0.00     0.348 HD
BRANCH  83  85
ATOM     85  C   UNL A   1      31.007  26.078  24.602  1.00  0.00     0.284 C 
ATOM     86  C   UNL A   1      30.459  25.619  25.942  1.00  0.00     0.176 C 
ATOM     87  C   UNL A   1      31.782  24.879  24.080  1.00  0.00     0.292 C 
ATOM     88  C   UNL A   1      31.039  24.255  26.145  1.00  0.00     0.240 C 
ATOM     89  N   UNL A   1      31.822  23.914  25.065  1.00  0.00    -0.245 N 
ATOM     90  O   UNL A   1      32.233  24.819  22.941  1.00  0.00    -0.267 OA
ATOM     91  O   UNL A   1      30.810  23.614  27.162  1.00  0.00    -0.274 OA
BRANCH  89  92
ATOM     92  C   UNL A   1      32.565  22.702  24.956  1.00  0.00     0.052 A 
ATOM     93  C   UNL A   1      32.215  21.721  24.015  1.00  0.00     0.031 A 
ATOM     94  C   UNL A   1      33.685  22.451  25.763  1.00  0.00     0.031 A 
ATOM     95  C   UNL A   1      32.946  20.533  23.893  1.00  0.00     0.049 A 
ATOM     96  C   UNL A   1      34.415  21.262  25.648  1.00  0.00     0.049 A 
ATOM     97  C   UNL A   1      34.037  20.291  24.723  1.00  0.00     0.127 A 
BRANCH  97  98
ATOM     98  O   UNL A   1      34.691  19.096  24.517  1.00  0.00    -0.457 OA
BRANCH  98  99
ATOM     99  C   UNL A   1      34.010  17.938  24.796  1.00  0.00     0.127 A 
ATOM    100  C   UNL A   1      32.903  18.018  25.640  1.00  0.00     0.047 A 
ATOM    101  C   UNL A   1      34.437  16.704  24.298  1.00  0.00     0.047 A 
ATOM    102  C   UNL A   1      32.187  16.862  25.949  1.00  0.00     0.004 A 
ATOM    103  C   UNL A   1      33.716  15.551  24.605  1.00  0.00     0.004 A 
ATOM    104  C   UNL A   1      32.589  15.632  25.426  1.00  0.00     0.000 A 
ENDBRANCH  98  99
ENDBRANCH  97  98
ENDBRANCH  89  92
ENDBRANCH  83  85
ENDBRANCH  75  78
ENDBRANCH  73  74
ENDBRANCH   1  73
TORSDOF 18
ENDMDL
MODEL 3
REMARK VINA RESULT:     -11.6      5.167      8.999
REMARK SMILES O=C(NCCCCNC(=O)C1CC[NH+]([C@@H]2CC(=O)N(c3ccc(Oc4ccccc4)cc3)C2=O)CC1)c1ccc(-c2c3nc(c(-c4cccc(S(=O)(=O)[O-])c4F)c4ccc([nH]4)c(-c4cccc(S(=O)(=O)[O-])c4F)c4nc(c(-c5cccc(S(=O)(=O)[O-])c5F)c5ccc2[nH]5)C=C4)C=C3)cc1
REMARK SMILES IDX 6 1 5 2 4 3 3 4 1 5 2 6 37 8 38 9 99 10 39 11 98 12 40 13
REMARK SMILES IDX 41 14 42 15 92 16 43 17 97 18 91 19 93 20 44 21 96 22 90 23
REMARK SMILES IDX 89 24 45 26 77 27 57 28 76 29 58 30 61 31 75 32 94 33 59 34
REMARK SMILES IDX 60 35 74 37 95 38 62 39 46 40 47 41 55 42 48 43 50 44 56 45
REMARK SMILES IDX 49 46 51 47 52 48 53 49 54 50 78 51 79 52 87 53 80 54 82 55
REMARK SMILES IDX 88 56 81 57 83 58 84 59 85 60 86 61 63 62 64 63 72 64 65 65
REMARK SMILES IDX 67 66 73 67 66 68 68 69 69 70 70 71 71 72 7 73 8 74 9 75
REMARK SMILES IDX 10 77 11 78 12 79 36 80 13 81 35 82 14 83 15 85 16 86 33 87
REMARK SMILES IDX 17 88 19 89 34 90 18 91 20 92 21 93 32 94 22 95 31 96 23 97
REMARK SMILES IDX 24 98 25 99 26 100 30 101 27 102 29 103 28 104
REMARK H PARENT 3 7 93 25 61 36 8 76 14 84
REMARK Flexibility Score: inf
ROOT
ATOM      1  C   UNL A   1      37.122  33.501  29.999  1.00  0.00     0.023 C 
ENDROOT
BRANCH   1   2
ATOM      2  C   UNL A   1      35.910  33.254  29.100  1.00  0.00     0.023 C 
BRANCH   2   3
ATOM      3  C   UNL A   1      34.789  32.438  29.727  1.00  0.00     0.116 C 
BRANCH   3   4
ATOM      4  N   UNL A   1      34.108  31.571  28.779  1.00  0.00    -0.352 N 
ATOM      5  O   UNL A   1      33.908  29.946  27.227  1.00  0.00    -0.269 OA
ATOM      6  C   UNL A   1      34.606  30.500  28.072  1.00  0.00     0.251 C 
ATOM      7  H   UNL A   1      33.158  31.779  28.620  1.00  0.00     0.163 HD
BRANCH   6   8
ATOM      8  C   UNL A   1      35.996  30.057  28.310  1.00  0.00     0.039 A 
ATOM      9  C   UNL A   1      36.383  29.576  29.562  1.00  0.00     0.014 A 
ATOM     10  C   UNL A   1      36.934  30.172  27.280  1.00  0.00     0.014 A 
ATOM     11  C   UNL A   1      37.732  29.378  29.835  1.00  0.00     0.010 A 
ATOM     12  C   UNL A   1      38.279  29.889  27.534  1.00  0.00     0.010 A 
ATOM     13  C   UNL A   1      38.697  29.541  28.827  1.00  0.00    -0.014 A 
BRANCH  13  14
ATOM     14  C   UNL A   1      40.130  29.321  29.156  1.00  0.00     0.031 A 
ATOM     15  C   UNL A   1      40.948  30.389  29.833  1.00  0.00     0.074 A 
ATOM     16  C   UNL A   1      40.685  28.128  28.868  1.00  0.00     0.049 A 
ATOM     17  N   UNL A   1      42.184  30.327  30.259  1.00  0.00    -0.248 NA
ATOM     18  C   UNL A   1      40.307  31.695  30.055  1.00  0.00     0.031 C 
ATOM     19  C   UNL A   1      40.008  27.033  28.168  1.00  0.00     0.029 A 
ATOM     20  N   UNL A   1      41.934  27.629  29.135  1.00  0.00    -0.354 N 
ATOM     21  C   UNL A   1      42.485  31.590  30.752  1.00  0.00     0.074 A 
ATOM     22  C   UNL A   1      41.303  32.405  30.571  1.00  0.00     0.031 C 
ATOM     23  C   UNL A   1      40.831  25.978  28.103  1.00  0.00     0.029 A 
ATOM     24  C   UNL A   1      42.107  26.331  28.715  1.00  0.00     0.049 A 
ATOM     25  H   UNL A   1      42.638  28.150  29.584  1.00  0.00     0.167 HD
ATOM     26  C   UNL A   1      43.634  32.029  31.323  1.00  0.00     0.034 A 
ATOM     27  C   UNL A   1      43.171  25.511  28.817  1.00  0.00     0.034 A 
ATOM     28  C   UNL A   1      44.787  31.200  31.559  1.00  0.00     0.049 A 
ATOM     29  C   UNL A   1      44.405  26.004  29.517  1.00  0.00     0.074 A 
ATOM     30  C   UNL A   1      45.970  31.535  32.195  1.00  0.00     0.029 A 
ATOM     31  N   UNL A   1      44.902  29.874  31.172  1.00  0.00    -0.354 N 
ATOM     32  N   UNL A   1      44.618  27.160  30.097  1.00  0.00    -0.248 NA
ATOM     33  C   UNL A   1      45.536  25.069  29.602  1.00  0.00     0.031 C 
ATOM     34  C   UNL A   1      46.803  30.410  32.189  1.00  0.00     0.029 A 
ATOM     35  C   UNL A   1      46.136  29.375  31.555  1.00  0.00     0.049 A 
ATOM     36  H   UNL A   1      44.209  29.364  30.696  1.00  0.00     0.167 HD
ATOM     37  C   UNL A   1      45.895  27.084  30.638  1.00  0.00     0.074 A 
ATOM     38  C   UNL A   1      46.397  25.758  30.341  1.00  0.00     0.031 C 
ATOM     39  C   UNL A   1      46.597  28.033  31.303  1.00  0.00     0.034 A 
BRANCH  26  40
ATOM     40  C   UNL A   1      43.689  33.462  31.784  1.00  0.00     0.023 A 
ATOM     41  C   UNL A   1      43.981  34.479  30.854  1.00  0.00     0.012 A 
ATOM     42  C   UNL A   1      43.382  33.810  33.115  1.00  0.00     0.148 A 
ATOM     43  C   UNL A   1      43.988  35.818  31.245  1.00  0.00     0.002 A 
ATOM     44  C   UNL A   1      43.357  35.149  33.488  1.00  0.00     0.091 A 
ATOM     45  F   UNL A   1      43.132  32.828  33.993  1.00  0.00    -0.205 F 
ATOM     46  C   UNL A   1      43.667  36.154  32.556  1.00  0.00     0.022 A 
BRANCH  44  47
ATOM     47  S   UNL A   1      42.884  35.676  35.140  1.00  0.00     0.127 S 
ATOM     48  O   UNL A   1      41.867  34.685  35.487  1.00  0.00    -0.237 OA
ATOM     49  O   UNL A   1      44.139  35.547  35.882  1.00  0.00    -0.237 OA
ATOM     50  O   UNL A   1      42.410  37.046  34.996  1.00  0.00    -0.744 OA
ENDBRANCH  44  47
ENDBRANCH  26  40
BRANCH  27  51
ATOM     51  C   UNL A   1      43.072  24.113  28.315  1.00  0.00     0.023 A 
ATOM     52  C   UNL A   1      42.267  23.188  29.007  1.00  0.00     0.012 A 
ATOM     53  C   UNL A   1      43.714  23.713  27.128  1.00  0.00     0.148 A 
ATOM     54  C   UNL A   1      42.119  21.884  28.535  1.00  0.00     0.002 A 
ATOM     55  C   UNL A   1      43.515  22.429  26.633  1.00  0.00     0.091 A 
ATOM     56  F   UNL A   1      44.493  24.601  26.493  1.00  0.00    -0.205 F 
ATOM     57  C   UNL A   1      42.731  21.508  27.342  1.00  0.00     0.022 A 
BRANCH  55  58
ATOM     58  S   UNL A   1      44.147  21.926  25.028  1.00  0.00     0.127 S 
ATOM     59  O   UNL A   1      45.586  22.089  25.207  1.00  0.00    -0.237 OA
ATOM     60  O   UNL A   1      43.690  20.538  24.937  1.00  0.00    -0.237 OA
ATOM     61  O   UNL A   1      43.514  22.822  24.070  1.00  0.00    -0.744 OA
ENDBRANCH  55  58
ENDBRANCH  27  51
BRANCH  39  62
ATOM     62  C   UNL A   1      47.979  27.670  31.773  1.00  0.00     0.023 A 
ATOM     63  C   UNL A   1      49.089  27.956  30.954  1.00  0.00     0.012 A 
ATOM     64  C   UNL A   1      48.186  27.103  33.045  1.00  0.00     0.148 A 
ATOM     65  C   UNL A   1      50.381  27.656  31.380  1.00  0.00     0.002 A 
ATOM     66  C   UNL A   1      49.481  26.843  33.481  1.00  0.00     0.091 A 
ATOM     67  F   UNL A   1      47.117  26.814  33.801  1.00  0.00    -0.205 F 
ATOM     68  C   UNL A   1      50.578  27.110  32.647  1.00  0.00     0.022 A 
BRANCH  66  69
ATOM     69  S   UNL A   1      49.814  26.224  35.134  1.00  0.00     0.127 S 
ATOM     70  O   UNL A   1      49.180  24.908  35.094  1.00  0.00    -0.237 OA
ATOM     71  O   UNL A   1      51.277  26.195  35.175  1.00  0.00    -0.237 OA
ATOM     72  O   UNL A   1      49.210  27.192  36.041  1.00  0.00    -0.744 OA
ENDBRANCH  66  69
ENDBRANCH  39  62
ENDBRANCH  13  14
ENDBRANCH   6   8
ENDBRANCH   3   4
ENDBRANCH   2   3
ENDBRANCH   1   2
BRANCH   1  73
ATOM     73  C   UNL A   1      37.034  32.876  31.390  1.00  0.00     0.116 C 
BRANCH  73  74
ATOM     74  N   UNL A   1      38.177  33.225  32.211  1.00  0.00    -0.356 N 
ATOM     75  C   UNL A   1      38.707  32.582  33.288  1.00  0.00     0.223 C 
ATOM     76  H   UNL A   1      38.641  34.053  31.950  1.00  0.00     0.163 HD
ATOM     77  O   UNL A   1      39.724  33.058  33.791  1.00  0.00    -0.275 OA
BRANCH  75  78
ATOM     78  C   UNL A   1      38.040  31.312  33.822  1.00  0.00     0.089 C 
ATOM     79  C   UNL A   1      38.162  31.182  35.342  1.00  0.00     0.075 C 
ATOM     80  C   UNL A   1      38.635  30.055  33.175  1.00  0.00     0.075 C 
ATOM     81  C   UNL A   1      39.601  30.914  35.771  1.00  0.00     0.263 C 
ATOM     82  C   UNL A   1      40.046  29.737  33.682  1.00  0.00     0.263 C 
ATOM     83  N   UNL A   1      40.109  29.687  35.150  1.00  0.00    -0.324 N 
ATOM     84  H   UNL A   1      39.488  28.921  35.412  1.00  0.00     0.348 HD
BRANCH  83  85
ATOM     85  C   UNL A   1      41.447  29.334  35.681  1.00  0.00     0.284 C 
ATOM     86  C   UNL A   1      42.658  29.785  34.884  1.00  0.00     0.176 C 
ATOM     87  C   UNL A   1      41.620  27.830  35.814  1.00  0.00     0.292 C 
ATOM     88  C   UNL A   1      43.371  28.520  34.523  1.00  0.00     0.240 C 
ATOM     89  N   UNL A   1      42.698  27.439  35.046  1.00  0.00    -0.245 N 
ATOM     90  O   UNL A   1      40.915  27.137  36.539  1.00  0.00    -0.267 OA
ATOM     91  O   UNL A   1      44.389  28.537  33.844  1.00  0.00    -0.274 OA
BRANCH  89  92
ATOM     92  C   UNL A   1      43.077  26.078  34.849  1.00  0.00     0.052 A 
ATOM     93  C   UNL A   1      43.945  25.712  33.808  1.00  0.00     0.031 A 
ATOM     94  C   UNL A   1      42.622  25.059  35.698  1.00  0.00     0.031 A 
ATOM     95  C   UNL A   1      44.332  24.381  33.615  1.00  0.00     0.049 A 
ATOM     96  C   UNL A   1      43.002  23.725  35.505  1.00  0.00     0.049 A 
ATOM     97  C   UNL A   1      43.846  23.379  34.451  1.00  0.00     0.127 A 
BRANCH  97  98
ATOM     98  O   UNL A   1      44.294  22.105  34.180  1.00  0.00    -0.457 OA
BRANCH  98  99
ATOM     99  C   UNL A   1      45.283  21.591  34.981  1.00  0.00     0.127 A 
ATOM    100  C   UNL A   1      45.379  20.205  35.093  1.00  0.00     0.047 A 
ATOM    101  C   UNL A   1      46.138  22.424  35.707  1.00  0.00     0.047 A 
ATOM    102  C   UNL A   1      46.370  19.645  35.899  1.00  0.00     0.004 A 
ATOM    103  C   UNL A   1      47.131  21.861  36.509  1.00  0.00     0.004 A 
ATOM    104  C   UNL A   1      47.249  20.472  36.600  1.00  0.00     0.000 A 
ENDBRANCH  98  99
ENDBRANCH  97  98
ENDBRANCH  89  92
ENDBRANCH  83  85
ENDBRANCH  75  78
ENDBRANCH  73  74
ENDBRANCH   1  73
TORSDOF 18
ENDMDL
