MODEL 1
REMARK VINA RESULT:     -11.9      0.000      0.000
REMARK SMILES CC(=O)N[C@@H](C(=O)NCCCCNC(=O)c1ccc(-c2c3nc(c(-c4cccc(S(=O)(=O)[O-])c4F)c4ccc([nH]4)c(-c4cccc(S(=O)(=O)[O-])c4F)c4nc(c(-c5cccc(S(=O)(=O)[O-])c5F)c5ccc2[nH]5)C=C4)C=C3)cc1)C(c1ccccc1)c1ccccc1
REMARK SMILES IDX 11 1 10 2 9 3 8 4 6 5 7 6 5 8 4 9 1 10 2 11 3 12 79 14 80 15
REMARK SMILES IDX 81 16 85 17 82 18 84 19 83 20 86 21 87 22 91 23 88 24 90 25
REMARK SMILES IDX 89 26 12 27 13 28 14 29 15 31 16 32 17 33 78 34 18 35 77 36
REMARK SMILES IDX 19 37 20 38 21 39 71 40 22 41 76 42 70 43 72 44 23 45 75 46
REMARK SMILES IDX 69 47 68 48 24 50 56 51 36 52 55 53 37 54 40 55 54 56 73 57
REMARK SMILES IDX 38 58 39 59 53 61 74 62 41 63 25 64 26 65 34 66 27 67 29 68
REMARK SMILES IDX 35 69 28 70 30 71 31 72 32 73 33 74 57 75 58 76 66 77 59 78
REMARK SMILES IDX 61 79 67 80 60 81 62 82 63 83 64 84 65 85 42 86 43 87 51 88
REMARK SMILES IDX 44 89 46 90 52 91 45 92 47 93 48 94 49 95 50 96
REMARK H PARENT 8 7 4 13 13 30 72 49 40 60
REMARK Flexibility Score: inf
ROOT
ATOM      1  C   UNL A   1      31.534  28.584  25.574  1.00  0.00     0.023 C 
ENDROOT
BRANCH   1   2
ATOM      2  C   UNL A   1      31.373  27.449  26.590  1.00  0.00     0.023 C 
BRANCH   2   3
ATOM      3  C   UNL A   1      30.858  26.140  25.991  1.00  0.00     0.116 C 
BRANCH   3   4
ATOM      4  N   UNL A   1      31.120  25.021  26.872  1.00  0.00    -0.354 N 
ATOM      5  C   UNL A   1      31.658  23.797  26.574  1.00  0.00     0.243 C 
ATOM      6  O   UNL A   1      31.540  22.905  27.416  1.00  0.00    -0.273 OA
ATOM      7  H   UNL A   1      30.877  25.159  27.816  1.00  0.00     0.163 HD
BRANCH   5   8
ATOM      8  C   UNL A   1      32.294  23.552  25.181  1.00  0.00     0.183 C 
BRANCH   8   9
ATOM      9  N   UNL A   1      32.657  22.119  25.160  1.00  0.00    -0.344 N 
ATOM     10  C   UNL A   1      32.155  21.549  22.783  1.00  0.00     0.114 C 
ATOM     11  C   UNL A   1      32.600  21.186  24.175  1.00  0.00     0.217 C 
ATOM     12  O   UNL A   1      32.929  20.029  24.437  1.00  0.00    -0.275 OA
ATOM     13  H   UNL A   1      33.004  21.778  26.016  1.00  0.00     0.164 HD
ENDBRANCH   8   9
BRANCH   8  14
ATOM     14  C   UNL A   1      33.553  24.469  25.004  1.00  0.00     0.081 C 
BRANCH  14  15
ATOM     15  C   UNL A   1      34.895  23.733  24.905  1.00  0.00    -0.038 A 
ATOM     16  C   UNL A   1      35.372  23.354  23.637  1.00  0.00     0.004 A 
ATOM     17  C   UNL A   1      35.637  23.355  26.032  1.00  0.00     0.004 A 
ATOM     18  C   UNL A   1      36.572  22.656  23.502  1.00  0.00     0.000 A 
ATOM     19  C   UNL A   1      36.850  22.676  25.895  1.00  0.00     0.000 A 
ATOM     20  C   UNL A   1      37.318  22.328  24.630  1.00  0.00     0.000 A 
ENDBRANCH  14  15
BRANCH  14  21
ATOM     21  C   UNL A   1      33.436  25.462  23.844  1.00  0.00    -0.038 A 
ATOM     22  C   UNL A   1      32.807  25.129  22.634  1.00  0.00     0.004 A 
ATOM     23  C   UNL A   1      34.028  26.732  23.964  1.00  0.00     0.004 A 
ATOM     24  C   UNL A   1      32.780  26.040  21.574  1.00  0.00     0.000 A 
ATOM     25  C   UNL A   1      34.000  27.638  22.903  1.00  0.00     0.000 A 
ATOM     26  C   UNL A   1      33.378  27.290  21.707  1.00  0.00     0.000 A 
ENDBRANCH  14  21
ENDBRANCH   8  14
ENDBRANCH   5   8
ENDBRANCH   3   4
ENDBRANCH   2   3
ENDBRANCH   1   2
BRANCH   1  27
ATOM     27  C   UNL A   1      32.711  29.520  25.831  1.00  0.00     0.116 C 
BRANCH  27  28
ATOM     28  N   UNL A   1      32.307  30.866  26.210  1.00  0.00    -0.352 N 
ATOM     29  C   UNL A   1      32.956  31.738  27.053  1.00  0.00     0.251 C 
ATOM     30  H   UNL A   1      31.467  31.194  25.814  1.00  0.00     0.163 HD
ATOM     31  O   UNL A   1      32.442  32.811  27.357  1.00  0.00    -0.269 OA
BRANCH  29  32
ATOM     32  C   UNL A   1      34.262  31.346  27.617  1.00  0.00     0.039 A 
ATOM     33  C   UNL A   1      35.249  32.319  27.784  1.00  0.00     0.014 A 
ATOM     34  C   UNL A   1      34.481  30.031  28.037  1.00  0.00     0.014 A 
ATOM     35  C   UNL A   1      36.437  31.987  28.438  1.00  0.00     0.010 A 
ATOM     36  C   UNL A   1      35.633  29.722  28.749  1.00  0.00     0.010 A 
ATOM     37  C   UNL A   1      36.623  30.695  28.955  1.00  0.00    -0.014 A 
BRANCH  37  38
ATOM     38  C   UNL A   1      37.840  30.334  29.726  1.00  0.00     0.031 A 
ATOM     39  C   UNL A   1      38.836  29.369  29.146  1.00  0.00     0.074 A 
ATOM     40  C   UNL A   1      37.994  30.792  30.984  1.00  0.00     0.049 A 
ATOM     41  N   UNL A   1      39.912  28.866  29.693  1.00  0.00    -0.248 NA
ATOM     42  C   UNL A   1      38.570  28.879  27.783  1.00  0.00     0.031 C 
ATOM     43  C   UNL A   1      37.057  31.672  31.685  1.00  0.00     0.029 A 
ATOM     44  N   UNL A   1      38.982  30.556  31.907  1.00  0.00    -0.354 N 
ATOM     45  C   UNL A   1      40.427  27.974  28.760  1.00  0.00     0.074 A 
ATOM     46  C   UNL A   1      39.526  27.976  27.629  1.00  0.00     0.031 C 
ATOM     47  C   UNL A   1      37.521  31.909  32.924  1.00  0.00     0.029 A 
ATOM     48  C   UNL A   1      38.769  31.177  33.114  1.00  0.00     0.049 A 
ATOM     49  H   UNL A   1      39.770  29.995  31.721  1.00  0.00     0.167 HD
ATOM     50  C   UNL A   1      41.567  27.245  28.823  1.00  0.00     0.034 A 
ATOM     51  C   UNL A   1      39.498  31.159  34.248  1.00  0.00     0.034 A 
ATOM     52  C   UNL A   1      42.486  27.285  29.926  1.00  0.00     0.049 A 
ATOM     53  C   UNL A   1      40.782  30.374  34.278  1.00  0.00     0.074 A 
ATOM     54  C   UNL A   1      43.711  26.655  30.051  1.00  0.00     0.029 A 
ATOM     55  N   UNL A   1      42.282  27.997  31.099  1.00  0.00    -0.354 N 
ATOM     56  N   UNL A   1      41.333  29.659  33.328  1.00  0.00    -0.248 NA
ATOM     57  C   UNL A   1      41.562  30.424  35.523  1.00  0.00     0.031 C 
ATOM     58  C   UNL A   1      44.242  26.976  31.306  1.00  0.00     0.029 A 
ATOM     59  C   UNL A   1      43.354  27.819  31.955  1.00  0.00     0.049 A 
ATOM     60  H   UNL A   1      41.489  28.548  31.294  1.00  0.00     0.167 HD
ATOM     61  C   UNL A   1      42.541  29.204  33.846  1.00  0.00     0.074 A 
ATOM     62  C   UNL A   1      42.646  29.738  35.189  1.00  0.00     0.031 C 
ATOM     63  C   UNL A   1      43.472  28.406  33.266  1.00  0.00     0.034 A 
BRANCH  50  64
ATOM     64  C   UNL A   1      41.908  26.391  27.630  1.00  0.00     0.023 A 
ATOM     65  C   UNL A   1      42.510  26.987  26.502  1.00  0.00     0.012 A 
ATOM     66  C   UNL A   1      41.661  25.005  27.627  1.00  0.00     0.148 A 
ATOM     67  C   UNL A   1      42.819  26.229  25.374  1.00  0.00     0.002 A 
ATOM     68  C   UNL A   1      42.012  24.247  26.515  1.00  0.00     0.091 A 
ATOM     69  F   UNL A   1      41.064  24.457  28.695  1.00  0.00    -0.205 F 
ATOM     70  C   UNL A   1      42.578  24.857  25.385  1.00  0.00     0.022 A 
BRANCH  68  71
ATOM     71  S   UNL A   1      41.810  22.461  26.467  1.00  0.00     0.127 S 
ATOM     72  O   UNL A   1      42.450  22.125  25.197  1.00  0.00    -0.237 OA
ATOM     73  O   UNL A   1      42.549  22.032  27.654  1.00  0.00    -0.237 OA
ATOM     74  O   UNL A   1      40.374  22.225  26.534  1.00  0.00    -0.744 OA
ENDBRANCH  68  71
ENDBRANCH  50  64
BRANCH  51  75
ATOM     75  C   UNL A   1      39.075  31.986  35.413  1.00  0.00     0.023 A 
ATOM     76  C   UNL A   1      38.179  31.435  36.352  1.00  0.00     0.012 A 
ATOM     77  C   UNL A   1      39.582  33.282  35.625  1.00  0.00     0.148 A 
ATOM     78  C   UNL A   1      37.777  32.169  37.467  1.00  0.00     0.002 A 
ATOM     79  C   UNL A   1      39.215  33.990  36.764  1.00  0.00     0.091 A 
ATOM     80  F   UNL A   1      40.426  33.790  34.716  1.00  0.00    -0.205 F 
ATOM     81  C   UNL A   1      38.301  33.441  37.679  1.00  0.00     0.022 A 
BRANCH  79  82
ATOM     82  S   UNL A   1      39.933  35.581  37.187  1.00  0.00     0.127 S 
ATOM     83  O   UNL A   1      39.230  35.906  38.426  1.00  0.00    -0.237 OA
ATOM     84  O   UNL A   1      41.347  35.240  37.351  1.00  0.00    -0.237 OA
ATOM     85  O   UNL A   1      39.652  36.453  36.055  1.00  0.00    -0.744 OA
ENDBRANCH  79  82
ENDBRANCH  51  75
BRANCH  63  86
ATOM     86  C   UNL A   1      44.710  28.084  34.061  1.00  0.00     0.023 A 
ATOM     87  C   UNL A   1      45.806  28.968  34.038  1.00  0.00     0.012 A 
ATOM     88  C   UNL A   1      44.751  26.950  34.896  1.00  0.00     0.148 A 
ATOM     89  C   UNL A   1      46.935  28.715  34.816  1.00  0.00     0.002 A 
ATOM     90  C   UNL A   1      45.861  26.730  35.704  1.00  0.00     0.091 A 
ATOM     91  F   UNL A   1      43.705  26.110  34.888  1.00  0.00    -0.205 F 
ATOM     92  C   UNL A   1      46.958  27.605  35.657  1.00  0.00     0.022 A 
BRANCH  90  93
ATOM     93  S   UNL A   1      45.936  25.379  36.886  1.00  0.00     0.127 S 
ATOM     94  O   UNL A   1      46.952  25.858  37.822  1.00  0.00    -0.237 OA
ATOM     95  O   UNL A   1      44.574  25.358  37.422  1.00  0.00    -0.237 OA
ATOM     96  O   UNL A   1      46.299  24.196  36.119  1.00  0.00    -0.744 OA
ENDBRANCH  90  93
ENDBRANCH  63  86
ENDBRANCH  37  38
ENDBRANCH  29  32
ENDBRANCH  27  28
ENDBRANCH   1  27
TORSDOF 18
ENDMDL
MODEL 2
REMARK VINA RESULT:     -11.6      4.451      7.822
REMARK SMILES CC(=O)N[C@@H](C(=O)NCCCCNC(=O)c1ccc(-c2c3nc(c(-c4cccc(S(=O)(=O)[O-])c4F)c4ccc([nH]4)c(-c4cccc(S(=O)(=O)[O-])c4F)c4nc(c(-c5cccc(S(=O)(=O)[O-])c5F)c5ccc2[nH]5)C=C4)C=C3)cc1)C(c1ccccc1)c1ccccc1
REMARK SMILES IDX 11 1 10 2 9 3 8 4 6 5 7 6 5 8 4 9 1 10 2 11 3 12 79 14 80 15
REMARK SMILES IDX 81 16 85 17 82 18 84 19 83 20 86 21 87 22 91 23 88 24 90 25
REMARK SMILES IDX 89 26 12 27 13 28 14 29 15 31 16 32 17 33 78 34 18 35 77 36
REMARK SMILES IDX 19 37 20 38 21 39 71 40 22 41 76 42 70 43 72 44 23 45 75 46
REMARK SMILES IDX 69 47 68 48 24 50 56 51 36 52 55 53 37 54 40 55 54 56 73 57
REMARK SMILES IDX 38 58 39 59 53 61 74 62 41 63 25 64 26 65 34 66 27 67 29 68
REMARK SMILES IDX 35 69 28 70 30 71 31 72 32 73 33 74 57 75 58 76 66 77 59 78
REMARK SMILES IDX 61 79 67 80 60 81 62 82 63 83 64 84 65 85 42 86 43 87 51 88
REMARK SMILES IDX 44 89 46 90 52 91 45 92 47 93 48 94 49 95 50 96
REMARK H PARENT 8 7 4 13 13 30 72 49 40 60
REMARK Flexibility Score: inf
ROOT
ATOM      1  C   UNL A   1      35.628  23.509  24.990  1.00  0.00     0.023 C 
ENDROOT
BRANCH   1   2
ATOM      2  C   UNL A   1      34.438  22.767  25.603  1.00  0.00     0.023 C 
BRANCH   2   3
ATOM      3  C   UNL A   1      33.973  23.329  26.947  1.00  0.00     0.116 C 
BRANCH   3   4
ATOM      4  N   UNL A   1      32.563  23.079  27.162  1.00  0.00    -0.354 N 
ATOM      5  C   UNL A   1      31.492  23.882  26.875  1.00  0.00     0.243 C 
ATOM      6  O   UNL A   1      30.410  23.589  27.386  1.00  0.00    -0.273 OA
ATOM      7  H   UNL A   1      32.344  22.211  27.572  1.00  0.00     0.163 HD
BRANCH   5   8
ATOM      8  C   UNL A   1      31.693  25.158  26.017  1.00  0.00     0.183 C 
BRANCH   8   9
ATOM      9  N   UNL A   1      31.171  26.272  26.838  1.00  0.00    -0.344 N 
ATOM     10  C   UNL A   1      33.091  27.862  26.737  1.00  0.00     0.114 C 
ATOM     11  C   UNL A   1      31.723  27.454  27.214  1.00  0.00     0.217 C 
ATOM     12  O   UNL A   1      31.077  28.199  27.952  1.00  0.00    -0.275 OA
ATOM     13  H   UNL A   1      30.256  26.130  27.174  1.00  0.00     0.164 HD
ENDBRANCH   8   9
BRANCH   8  14
ATOM     14  C   UNL A   1      30.908  25.020  24.668  1.00  0.00     0.081 C 
BRANCH  14  15
ATOM     15  C   UNL A   1      30.394  26.335  24.067  1.00  0.00    -0.038 A 
ATOM     16  C   UNL A   1      29.008  26.518  23.916  1.00  0.00     0.004 A 
ATOM     17  C   UNL A   1      31.250  27.338  23.593  1.00  0.00     0.004 A 
ATOM     18  C   UNL A   1      28.497  27.684  23.346  1.00  0.00     0.000 A 
ATOM     19  C   UNL A   1      30.738  28.515  23.045  1.00  0.00     0.000 A 
ATOM     20  C   UNL A   1      29.362  28.689  22.922  1.00  0.00     0.000 A 
ENDBRANCH  14  15
BRANCH  14  21
ATOM     21  C   UNL A   1      31.663  24.235  23.591  1.00  0.00    -0.038 A 
ATOM     22  C   UNL A   1      31.434  22.869  23.361  1.00  0.00     0.004 A 
ATOM     23  C   UNL A   1      32.663  24.881  22.843  1.00  0.00     0.004 A 
ATOM     24  C   UNL A   1      32.191  22.171  22.416  1.00  0.00     0.000 A 
ATOM     25  C   UNL A   1      33.417  24.181  21.900  1.00  0.00     0.000 A 
ATOM     26  C   UNL A   1      33.183  22.825  21.690  1.00  0.00     0.000 A 
ENDBRANCH  14  21
ENDBRANCH   8  14
ENDBRANCH   5   8
ENDBRANCH   3   4
ENDBRANCH   2   3
ENDBRANCH   1   2
BRANCH   1  27
ATOM     27  C   UNL A   1      36.804  23.739  25.934  1.00  0.00     0.116 C 
BRANCH  27  28
ATOM     28  N   UNL A   1      37.722  22.611  25.999  1.00  0.00    -0.352 N 
ATOM     29  C   UNL A   1      39.051  22.622  26.354  1.00  0.00     0.251 C 
ATOM     30  H   UNL A   1      37.347  21.733  25.760  1.00  0.00     0.163 HD
ATOM     31  O   UNL A   1      39.728  21.602  26.268  1.00  0.00    -0.269 OA
BRANCH  29  32
ATOM     32  C   UNL A   1      39.659  23.890  26.803  1.00  0.00     0.039 A 
ATOM     33  C   UNL A   1      40.084  24.815  25.846  1.00  0.00     0.014 A 
ATOM     34  C   UNL A   1      39.749  24.184  28.166  1.00  0.00     0.014 A 
ATOM     35  C   UNL A   1      40.537  26.070  26.259  1.00  0.00     0.010 A 
ATOM     36  C   UNL A   1      40.133  25.457  28.569  1.00  0.00     0.010 A 
ATOM     37  C   UNL A   1      40.532  26.412  27.621  1.00  0.00    -0.014 A 
BRANCH  37  38
ATOM     38  C   UNL A   1      40.930  27.765  28.084  1.00  0.00     0.031 A 
ATOM     39  C   UNL A   1      42.382  28.151  28.110  1.00  0.00     0.074 A 
ATOM     40  C   UNL A   1      39.997  28.604  28.575  1.00  0.00     0.049 A 
ATOM     41  N   UNL A   1      42.936  29.249  28.556  1.00  0.00    -0.248 NA
ATOM     42  C   UNL A   1      43.342  27.160  27.598  1.00  0.00     0.031 C 
ATOM     43  C   UNL A   1      38.565  28.314  28.674  1.00  0.00     0.029 A 
ATOM     44  N   UNL A   1      40.118  29.862  29.111  1.00  0.00    -0.354 N 
ATOM     45  C   UNL A   1      44.306  29.064  28.416  1.00  0.00     0.074 A 
ATOM     46  C   UNL A   1      44.502  27.735  27.879  1.00  0.00     0.031 C 
ATOM     47  C   UNL A   1      37.941  29.366  29.228  1.00  0.00     0.029 A 
ATOM     48  C   UNL A   1      38.928  30.392  29.549  1.00  0.00     0.049 A 
ATOM     49  H   UNL A   1      40.977  30.338  29.176  1.00  0.00     0.167 HD
ATOM     50  C   UNL A   1      45.310  29.935  28.675  1.00  0.00     0.034 A 
ATOM     51  C   UNL A   1      38.663  31.573  30.142  1.00  0.00     0.034 A 
ATOM     52  C   UNL A   1      45.109  31.272  29.160  1.00  0.00     0.049 A 
ATOM     53  C   UNL A   1      39.791  32.539  30.382  1.00  0.00     0.074 A 
ATOM     54  C   UNL A   1      46.050  32.263  29.372  1.00  0.00     0.029 A 
ATOM     55  N   UNL A   1      43.879  31.809  29.509  1.00  0.00    -0.354 N 
ATOM     56  N   UNL A   1      41.064  32.408  30.099  1.00  0.00    -0.248 NA
ATOM     57  C   UNL A   1      39.441  33.831  30.991  1.00  0.00     0.031 C 
ATOM     58  C   UNL A   1      45.390  33.396  29.861  1.00  0.00     0.029 A 
ATOM     59  C   UNL A   1      44.035  33.115  29.938  1.00  0.00     0.049 A 
ATOM     60  H   UNL A   1      43.019  31.330  29.458  1.00  0.00     0.167 HD
ATOM     61  C   UNL A   1      41.661  33.612  30.459  1.00  0.00     0.074 A 
ATOM     62  C   UNL A   1      40.606  34.464  30.967  1.00  0.00     0.031 C 
ATOM     63  C   UNL A   1      42.966  33.972  30.385  1.00  0.00     0.034 A 
BRANCH  50  64
ATOM     64  C   UNL A   1      46.715  29.479  28.377  1.00  0.00     0.023 A 
ATOM     65  C   UNL A   1      47.268  29.730  27.104  1.00  0.00     0.012 A 
ATOM     66  C   UNL A   1      47.496  28.828  29.351  1.00  0.00     0.148 A 
ATOM     67  C   UNL A   1      48.557  29.303  26.790  1.00  0.00     0.002 A 
ATOM     68  C   UNL A   1      48.797  28.444  29.045  1.00  0.00     0.091 A 
ATOM     69  F   UNL A   1      46.948  28.572  30.548  1.00  0.00    -0.205 F 
ATOM     70  C   UNL A   1      49.324  28.668  27.763  1.00  0.00     0.022 A 
BRANCH  68  71
ATOM     71  S   UNL A   1      49.887  27.689  30.258  1.00  0.00     0.127 S 
ATOM     72  O   UNL A   1      49.132  26.495  30.631  1.00  0.00    -0.237 OA
ATOM     73  O   UNL A   1      51.093  27.427  29.473  1.00  0.00    -0.237 OA
ATOM     74  O   UNL A   1      50.056  28.683  31.310  1.00  0.00    -0.744 OA
ENDBRANCH  68  71
ENDBRANCH  50  64
BRANCH  51  75
ATOM     75  C   UNL A   1      37.255  31.941  30.461  1.00  0.00     0.023 A 
ATOM     76  C   UNL A   1      36.747  31.652  31.744  1.00  0.00     0.012 A 
ATOM     77  C   UNL A   1      36.435  32.609  29.533  1.00  0.00     0.148 A 
ATOM     78  C   UNL A   1      35.442  32.000  32.088  1.00  0.00     0.002 A 
ATOM     79  C   UNL A   1      35.150  32.997  29.898  1.00  0.00     0.091 A 
ATOM     80  F   UNL A   1      36.934  32.867  28.315  1.00  0.00    -0.205 F 
ATOM     81  C   UNL A   1      34.647  32.681  31.170  1.00  0.00     0.022 A 
BRANCH  79  82
ATOM     82  S   UNL A   1      34.098  33.987  28.830  1.00  0.00     0.127 S 
ATOM     83  O   UNL A   1      33.129  34.526  29.781  1.00  0.00    -0.237 OA
ATOM     84  O   UNL A   1      35.046  34.964  28.294  1.00  0.00    -0.237 OA
ATOM     85  O   UNL A   1      33.563  33.062  27.840  1.00  0.00    -0.744 OA
ENDBRANCH  79  82
ENDBRANCH  51  75
BRANCH  63  86
ATOM     86  C   UNL A   1      43.334  35.362  30.833  1.00  0.00     0.023 A 
ATOM     87  C   UNL A   1      43.718  35.587  32.169  1.00  0.00     0.012 A 
ATOM     88  C   UNL A   1      43.382  36.425  29.909  1.00  0.00     0.148 A 
ATOM     89  C   UNL A   1      44.121  36.856  32.585  1.00  0.00     0.002 A 
ATOM     90  C   UNL A   1      43.829  37.675  30.320  1.00  0.00     0.091 A 
ATOM     91  F   UNL A   1      42.993  36.193  28.646  1.00  0.00    -0.205 F 
ATOM     92  C   UNL A   1      44.189  37.896  31.659  1.00  0.00     0.022 A 
BRANCH  90  93
ATOM     93  S   UNL A   1      44.039  39.044  29.176  1.00  0.00     0.127 S 
ATOM     94  O   UNL A   1      42.653  39.407  28.886  1.00  0.00    -0.237 OA
ATOM     95  O   UNL A   1      44.768  40.020  29.988  1.00  0.00    -0.237 OA
ATOM     96  O   UNL A   1      44.796  38.512  28.051  1.00  0.00    -0.744 OA
ENDBRANCH  90  93
ENDBRANCH  63  86
ENDBRANCH  37  38
ENDBRANCH  29  32
ENDBRANCH  27  28
ENDBRANCH   1  27
TORSDOF 18
ENDMDL
MODEL 3
REMARK VINA RESULT:     -11.5      1.388      8.016
REMARK SMILES CC(=O)N[C@@H](C(=O)NCCCCNC(=O)c1ccc(-c2c3nc(c(-c4cccc(S(=O)(=O)[O-])c4F)c4ccc([nH]4)c(-c4cccc(S(=O)(=O)[O-])c4F)c4nc(c(-c5cccc(S(=O)(=O)[O-])c5F)c5ccc2[nH]5)C=C4)C=C3)cc1)C(c1ccccc1)c1ccccc1
REMARK SMILES IDX 11 1 10 2 9 3 8 4 6 5 7 6 5 8 4 9 1 10 2 11 3 12 79 14 80 15
REMARK SMILES IDX 81 16 85 17 82 18 84 19 83 20 86 21 87 22 91 23 88 24 90 25
REMARK SMILES IDX 89 26 12 27 13 28 14 29 15 31 16 32 17 33 78 34 18 35 77 36
REMARK SMILES IDX 19 37 20 38 21 39 71 40 22 41 76 42 70 43 72 44 23 45 75 46
REMARK SMILES IDX 69 47 68 48 24 50 56 51 36 52 55 53 37 54 40 55 54 56 73 57
REMARK SMILES IDX 38 58 39 59 53 61 74 62 41 63 25 64 26 65 34 66 27 67 29 68
REMARK SMILES IDX 35 69 28 70 30 71 31 72 32 73 33 74 57 75 58 76 66 77 59 78
REMARK SMILES IDX 61 79 67 80 60 81 62 82 63 83 64 84 65 85 42 86 43 87 51 88
REMARK SMILES IDX 44 89 46 90 52 91 45 92 47 93 48 94 49 95 50 96
REMARK H PARENT 8 7 4 13 13 30 72 49 40 60
REMARK Flexibility Score: inf
ROOT
ATOM      1  C   UNL A   1      31.954  29.567  25.224  1.00  0.00     0.023 C 
ENDROOT
BRANCH   1   2
ATOM      2  C   UNL A   1      32.112  28.059  25.010  1.00  0.00     0.023 C 
BRANCH   2   3
ATOM      3  C   UNL A   1      33.471  27.644  24.446  1.00  0.00     0.116 C 
BRANCH   3   4
ATOM      4  N   UNL A   1      33.370  27.279  23.049  1.00  0.00    -0.354 N 
ATOM      5  C   UNL A   1      33.510  26.048  22.467  1.00  0.00     0.243 C 
ATOM      6  O   UNL A   1      33.654  26.010  21.244  1.00  0.00    -0.273 OA
ATOM      7  H   UNL A   1      33.175  28.020  22.430  1.00  0.00     0.163 HD
BRANCH   5   8
ATOM      8  C   UNL A   1      33.582  24.779  23.356  1.00  0.00     0.183 C 
BRANCH   8   9
ATOM      9  N   UNL A   1      34.723  23.996  22.835  1.00  0.00    -0.344 N 
ATOM     10  C   UNL A   1      35.997  23.580  24.940  1.00  0.00     0.114 C 
ATOM     11  C   UNL A   1      35.814  23.470  23.450  1.00  0.00     0.217 C 
ATOM     12  O   UNL A   1      36.655  22.887  22.764  1.00  0.00    -0.275 OA
ATOM     13  H   UNL A   1      34.687  23.826  21.866  1.00  0.00     0.164 HD
ENDBRANCH   8   9
BRANCH   8  14
ATOM     14  C   UNL A   1      32.238  23.979  23.247  1.00  0.00     0.081 C 
BRANCH  14  15
ATOM     15  C   UNL A   1      32.315  22.503  23.658  1.00  0.00    -0.038 A 
ATOM     16  C   UNL A   1      32.633  22.183  24.990  1.00  0.00     0.004 A 
ATOM     17  C   UNL A   1      32.152  21.452  22.746  1.00  0.00     0.004 A 
ATOM     18  C   UNL A   1      32.745  20.855  25.402  1.00  0.00     0.000 A 
ATOM     19  C   UNL A   1      32.240  20.122  23.163  1.00  0.00     0.000 A 
ATOM     20  C   UNL A   1      32.536  19.823  24.490  1.00  0.00     0.000 A 
ENDBRANCH  14  15
BRANCH  14  21
ATOM     21  C   UNL A   1      31.063  24.643  23.972  1.00  0.00    -0.038 A 
ATOM     22  C   UNL A   1      30.086  25.384  23.291  1.00  0.00     0.004 A 
ATOM     23  C   UNL A   1      30.986  24.563  25.374  1.00  0.00     0.004 A 
ATOM     24  C   UNL A   1      29.066  26.032  23.994  1.00  0.00     0.000 A 
ATOM     25  C   UNL A   1      29.968  25.211  26.074  1.00  0.00     0.000 A 
ATOM     26  C   UNL A   1      29.010  25.949  25.383  1.00  0.00     0.000 A 
ENDBRANCH  14  21
ENDBRANCH   8  14
ENDBRANCH   5   8
ENDBRANCH   3   4
ENDBRANCH   2   3
ENDBRANCH   1   2
BRANCH   1  27
ATOM     27  C   UNL A   1      32.322  30.065  26.618  1.00  0.00     0.116 C 
BRANCH  27  28
ATOM     28  N   UNL A   1      32.273  31.515  26.746  1.00  0.00    -0.352 N 
ATOM     29  C   UNL A   1      33.197  32.342  27.341  1.00  0.00     0.251 C 
ATOM     30  H   UNL A   1      31.484  31.957  26.359  1.00  0.00     0.163 HD
ATOM     31  O   UNL A   1      32.973  33.543  27.460  1.00  0.00    -0.269 OA
BRANCH  29  32
ATOM     32  C   UNL A   1      34.444  31.756  27.870  1.00  0.00     0.039 A 
ATOM     33  C   UNL A   1      35.561  32.577  28.039  1.00  0.00     0.014 A 
ATOM     34  C   UNL A   1      34.483  30.413  28.254  1.00  0.00     0.014 A 
ATOM     35  C   UNL A   1      36.702  32.064  28.661  1.00  0.00     0.010 A 
ATOM     36  C   UNL A   1      35.592  29.926  28.935  1.00  0.00     0.010 A 
ATOM     37  C   UNL A   1      36.713  30.745  29.144  1.00  0.00    -0.014 A 
BRANCH  37  38
ATOM     38  C   UNL A   1      37.879  30.197  29.881  1.00  0.00     0.031 A 
ATOM     39  C   UNL A   1      38.166  30.661  31.282  1.00  0.00     0.074 A 
ATOM     40  C   UNL A   1      38.733  29.364  29.255  1.00  0.00     0.049 A 
ATOM     41  N   UNL A   1      39.176  30.367  32.058  1.00  0.00    -0.248 NA
ATOM     42  C   UNL A   1      37.208  31.607  31.877  1.00  0.00     0.031 C 
ATOM     43  C   UNL A   1      38.605  28.902  27.872  1.00  0.00     0.029 A 
ATOM     44  N   UNL A   1      39.896  28.781  29.693  1.00  0.00    -0.354 N 
ATOM     45  C   UNL A   1      38.997  31.119  33.213  1.00  0.00     0.074 A 
ATOM     46  C   UNL A   1      37.803  31.912  33.021  1.00  0.00     0.031 C 
ATOM     47  C   UNL A   1      39.642  28.101  27.579  1.00  0.00     0.029 A 
ATOM     48  C   UNL A   1      40.522  28.014  28.740  1.00  0.00     0.049 A 
ATOM     49  H   UNL A   1      40.248  28.901  30.605  1.00  0.00     0.167 HD
ATOM     50  C   UNL A   1      39.739  31.123  34.346  1.00  0.00     0.034 A 
ATOM     51  C   UNL A   1      41.676  27.320  28.795  1.00  0.00     0.034 A 
ATOM     52  C   UNL A   1      40.895  30.296  34.552  1.00  0.00     0.049 A 
ATOM     53  C   UNL A   1      42.460  27.308  30.079  1.00  0.00     0.074 A 
ATOM     54  C   UNL A   1      41.665  30.159  35.693  1.00  0.00     0.029 A 
ATOM     55  N   UNL A   1      41.451  29.462  33.593  1.00  0.00    -0.354 N 
ATOM     56  N   UNL A   1      42.192  27.904  31.215  1.00  0.00    -0.248 NA
ATOM     57  C   UNL A   1      43.688  26.499  30.101  1.00  0.00     0.031 C 
ATOM     58  C   UNL A   1      42.694  29.251  35.420  1.00  0.00     0.029 A 
ATOM     59  C   UNL A   1      42.555  28.810  34.113  1.00  0.00     0.049 A 
ATOM     60  H   UNL A   1      41.109  29.349  32.677  1.00  0.00     0.167 HD
ATOM     61  C   UNL A   1      43.193  27.514  32.097  1.00  0.00     0.074 A 
ATOM     62  C   UNL A   1      44.066  26.617  31.366  1.00  0.00     0.031 C 
ATOM     63  C   UNL A   1      43.379  27.874  33.391  1.00  0.00     0.034 A 
BRANCH  50  64
ATOM     64  C   UNL A   1      39.276  32.011  35.471  1.00  0.00     0.023 A 
ATOM     65  C   UNL A   1      38.319  31.526  36.386  1.00  0.00     0.012 A 
ATOM     66  C   UNL A   1      39.798  33.307  35.643  1.00  0.00     0.148 A 
ATOM     67  C   UNL A   1      37.855  32.329  37.426  1.00  0.00     0.002 A 
ATOM     68  C   UNL A   1      39.364  34.088  36.709  1.00  0.00     0.091 A 
ATOM     69  F   UNL A   1      40.688  33.765  34.751  1.00  0.00    -0.205 F 
ATOM     70  C   UNL A   1      38.384  33.607  37.593  1.00  0.00     0.022 A 
BRANCH  68  71
ATOM     71  S   UNL A   1      40.044  35.716  37.048  1.00  0.00     0.127 S 
ATOM     72  O   UNL A   1      39.649  36.456  35.852  1.00  0.00    -0.237 OA
ATOM     73  O   UNL A   1      39.334  36.103  38.267  1.00  0.00    -0.237 OA
ATOM     74  O   UNL A   1      41.476  35.517  37.223  1.00  0.00    -0.744 OA
ENDBRANCH  68  71
ENDBRANCH  50  64
BRANCH  51  75
ATOM     75  C   UNL A   1      42.105  26.503  27.625  1.00  0.00     0.023 A 
ATOM     76  C   UNL A   1      42.908  27.101  26.633  1.00  0.00     0.012 A 
ATOM     77  C   UNL A   1      41.768  25.142  27.508  1.00  0.00     0.148 A 
ATOM     78  C   UNL A   1      43.348  26.364  25.534  1.00  0.00     0.002 A 
ATOM     79  C   UNL A   1      42.251  24.399  26.435  1.00  0.00     0.091 A 
ATOM     80  F   UNL A   1      40.996  24.595  28.458  1.00  0.00    -0.205 F 
ATOM     81  C   UNL A   1      43.028  25.012  25.439  1.00  0.00     0.022 A 
BRANCH  79  82
ATOM     82  S   UNL A   1      41.997  22.627  26.293  1.00  0.00     0.127 S 
ATOM     83  O   UNL A   1      42.648  22.333  25.018  1.00  0.00    -0.237 OA
ATOM     84  O   UNL A   1      42.700  22.126  27.475  1.00  0.00    -0.237 OA
ATOM     85  O   UNL A   1      40.554  22.432  26.324  1.00  0.00    -0.744 OA
ENDBRANCH  79  82
ENDBRANCH  51  75
BRANCH  63  86
ATOM     86  C   UNL A   1      44.553  27.277  34.122  1.00  0.00     0.023 A 
ATOM     87  C   UNL A   1      45.800  27.931  34.094  1.00  0.00     0.012 A 
ATOM     88  C   UNL A   1      44.396  26.117  34.905  1.00  0.00     0.148 A 
ATOM     89  C   UNL A   1      46.881  27.424  34.816  1.00  0.00     0.002 A 
ATOM     90  C   UNL A   1      45.464  25.644  35.658  1.00  0.00     0.091 A 
ATOM     91  F   UNL A   1      43.206  25.498  34.902  1.00  0.00    -0.205 F 
ATOM     92  C   UNL A   1      46.710  26.290  35.607  1.00  0.00     0.022 A 
BRANCH  90  93
ATOM     93  S   UNL A   1      45.308  24.248  36.778  1.00  0.00     0.127 S 
ATOM     94  O   UNL A   1      44.637  23.261  35.934  1.00  0.00    -0.237 OA
ATOM     95  O   UNL A   1      46.705  23.938  37.086  1.00  0.00    -0.237 OA
ATOM     96  O   UNL A   1      44.534  24.731  37.913  1.00  0.00    -0.744 OA
ENDBRANCH  90  93
ENDBRANCH  63  86
ENDBRANCH  37  38
ENDBRANCH  29  32
ENDBRANCH  27  28
ENDBRANCH   1  27
TORSDOF 18
ENDMDL
