MODEL 1
REMARK VINA RESULT:     -12.1      0.000      0.000
REMARK SMILES CC(C)N1C(=O)C[C@@H](Sc2csc(C(=O)NCCCCNC(=O)c3ccc(-c4c5nc(c(-c6cccc(S(=O)(=O)[O-])c6F)c6ccc([nH]6)c(-c6cccc(S(=O)(=O)[O-])c6F)c6nc(c(-c7cccc(S(=O)(=O)[O-])c7F)c7ccc4[nH]7)C=C6)C=C5)cc3)c2)C1=O
REMARK SMILES IDX 18 1 17 2 16 3 14 4 15 5 13 7 10 8 11 9 87 10 12 11 9 12
REMARK SMILES IDX 8 13 4 14 5 15 88 16 6 17 7 18 89 19 2 20 1 21 3 22 19 23
REMARK SMILES IDX 20 24 21 25 22 26 23 28 24 29 25 30 86 31 26 32 85 33 27 34
REMARK SMILES IDX 28 35 29 36 79 37 30 38 84 39 78 40 80 41 31 42 83 43 77 44
REMARK SMILES IDX 76 45 32 47 64 48 44 49 63 50 45 51 48 52 62 53 81 54 46 55
REMARK SMILES IDX 47 56 61 58 82 59 49 60 33 61 34 62 42 63 35 64 37 65 43 66
REMARK SMILES IDX 36 67 38 68 39 69 40 70 41 71 65 72 66 73 74 74 67 75 69 76
REMARK SMILES IDX 75 77 68 78 70 79 71 80 72 81 73 82 50 83 51 84 59 85 52 86
REMARK SMILES IDX 54 87 60 88 53 89 55 90 56 91 57 92 58 93
REMARK H PARENT 16 6 21 27 80 46 48 57
REMARK Flexibility Score: inf
ROOT
ATOM      1  C   UNL A   1      31.160  29.511  24.518  1.00  0.00     0.023 C 
ENDROOT
BRANCH   1   2
ATOM      2  C   UNL A   1      31.156  28.442  23.426  1.00  0.00     0.116 C 
BRANCH   2   3
ATOM      3  N   UNL A   1      32.355  28.530  22.622  1.00  0.00    -0.351 N 
ATOM      4  C   UNL A   1      33.402  27.659  22.449  1.00  0.00     0.261 C 
ATOM      5  O   UNL A   1      34.276  28.042  21.666  1.00  0.00    -0.268 OA
ATOM      6  H   UNL A   1      32.433  29.365  22.105  1.00  0.00     0.163 HD
BRANCH   4   7
ATOM      7  C   UNL A   1      33.449  26.368  23.129  1.00  0.00     0.093 A 
ATOM      8  C   UNL A   1      33.434  24.083  23.719  1.00  0.00     0.020 A 
ATOM      9  C   UNL A   1      33.865  24.665  24.880  1.00  0.00     0.080 A 
ATOM     10  C   UNL A   1      33.108  25.080  22.750  1.00  0.00     0.040 A 
ATOM     11  S   UNL A   1      34.009  26.362  24.758  1.00  0.00    -0.137 S 
BRANCH   8  12
ATOM     12  S   UNL A   1      33.210  22.389  23.309  1.00  0.00    -0.111 SA
BRANCH  12  13
ATOM     13  C   UNL A   1      33.720  21.371  24.710  1.00  0.00     0.150 C 
ATOM     14  N   UNL A   1      34.166  19.078  24.766  1.00  0.00    -0.279 N 
ATOM     15  C   UNL A   1      35.389  19.687  24.792  1.00  0.00     0.231 C 
ATOM     16  C   UNL A   1      33.135  19.983  24.712  1.00  0.00     0.243 C 
ATOM     17  O   UNL A   1      36.484  19.142  24.764  1.00  0.00    -0.274 OA
ATOM     18  C   UNL A   1      35.218  21.175  24.828  1.00  0.00     0.125 C 
ATOM     19  O   UNL A   1      31.943  19.719  24.694  1.00  0.00    -0.273 OA
BRANCH  14  20
ATOM     20  C   UNL A   1      33.949  17.630  24.682  1.00  0.00     0.087 C 
ATOM     21  C   UNL A   1      32.829  17.175  25.620  1.00  0.00     0.031 C 
ATOM     22  C   UNL A   1      33.685  17.164  23.252  1.00  0.00     0.031 C 
ENDBRANCH  14  20
ENDBRANCH  12  13
ENDBRANCH   8  12
ENDBRANCH   4   7
ENDBRANCH   2   3
ENDBRANCH   1   2
BRANCH   1  23
ATOM     23  C   UNL A   1      31.780  29.039  25.838  1.00  0.00     0.023 C 
BRANCH  23  24
ATOM     24  C   UNL A   1      33.067  29.759  26.233  1.00  0.00     0.116 C 
BRANCH  24  25
ATOM     25  N   UNL A   1      32.843  31.131  26.661  1.00  0.00    -0.352 N 
ATOM     26  C   UNL A   1      33.599  31.895  27.515  1.00  0.00     0.251 C 
ATOM     27  H   UNL A   1      32.043  31.570  26.291  1.00  0.00     0.163 HD
ATOM     28  O   UNL A   1      33.193  32.995  27.875  1.00  0.00    -0.269 OA
BRANCH  26  29
ATOM     29  C   UNL A   1      34.881  31.363  28.020  1.00  0.00     0.039 A 
ATOM     30  C   UNL A   1      35.981  32.219  28.081  1.00  0.00     0.014 A 
ATOM     31  C   UNL A   1      34.990  30.039  28.456  1.00  0.00     0.014 A 
ATOM     32  C   UNL A   1      37.178  31.759  28.629  1.00  0.00     0.010 A 
ATOM     33  C   UNL A   1      36.157  29.609  29.079  1.00  0.00     0.010 A 
ATOM     34  C   UNL A   1      37.267  30.460  29.164  1.00  0.00    -0.014 A 
BRANCH  34  35
ATOM     35  C   UNL A   1      38.514  30.012  29.831  1.00  0.00     0.031 A 
ATOM     36  C   UNL A   1      38.895  30.533  31.191  1.00  0.00     0.074 A 
ATOM     37  C   UNL A   1      39.328  29.152  29.188  1.00  0.00     0.049 A 
ATOM     38  N   UNL A   1      39.904  30.189  31.948  1.00  0.00    -0.248 NA
ATOM     39  C   UNL A   1      38.052  31.593  31.766  1.00  0.00     0.031 C 
ATOM     40  C   UNL A   1      39.125  28.656  27.825  1.00  0.00     0.029 A 
ATOM     41  N   UNL A   1      40.492  28.547  29.590  1.00  0.00    -0.354 N 
ATOM     42  C   UNL A   1      39.831  31.001  33.074  1.00  0.00     0.074 A 
ATOM     43  C   UNL A   1      38.706  31.888  32.880  1.00  0.00     0.031 C 
ATOM     44  C   UNL A   1      40.110  27.798  27.516  1.00  0.00     0.029 A 
ATOM     45  C   UNL A   1      41.028  27.703  28.645  1.00  0.00     0.049 A 
ATOM     46  H   UNL A   1      40.903  28.701  30.470  1.00  0.00     0.167 HD
ATOM     47  C   UNL A   1      40.610  30.988  34.182  1.00  0.00     0.034 A 
ATOM     48  C   UNL A   1      42.131  26.932  28.688  1.00  0.00     0.034 A 
ATOM     49  C   UNL A   1      41.713  30.087  34.380  1.00  0.00     0.049 A 
ATOM     50  C   UNL A   1      42.945  26.896  29.951  1.00  0.00     0.074 A 
ATOM     51  C   UNL A   1      42.511  29.934  35.501  1.00  0.00     0.029 A 
ATOM     52  N   UNL A   1      42.189  29.196  33.429  1.00  0.00    -0.354 N 
ATOM     53  N   UNL A   1      42.755  27.542  31.077  1.00  0.00    -0.248 NA
ATOM     54  C   UNL A   1      44.100  25.988  29.967  1.00  0.00     0.031 C 
ATOM     55  C   UNL A   1      43.492  28.978  35.214  1.00  0.00     0.029 A 
ATOM     56  C   UNL A   1      43.278  28.502  33.931  1.00  0.00     0.049 A 
ATOM     57  H   UNL A   1      41.809  29.076  32.529  1.00  0.00     0.167 HD
ATOM     58  C   UNL A   1      43.747  27.098  31.943  1.00  0.00     0.074 A 
ATOM     59  C   UNL A   1      44.512  26.101  31.222  1.00  0.00     0.031 C 
ATOM     60  C   UNL A   1      44.012  27.490  33.214  1.00  0.00     0.034 A 
BRANCH  47  61
ATOM     61  C   UNL A   1      40.265  31.952  35.290  1.00  0.00     0.023 A 
ATOM     62  C   UNL A   1      40.973  33.168  35.405  1.00  0.00     0.012 A 
ATOM     63  C   UNL A   1      39.210  31.683  36.184  1.00  0.00     0.148 A 
ATOM     64  C   UNL A   1      40.663  34.079  36.413  1.00  0.00     0.002 A 
ATOM     65  C   UNL A   1      38.873  32.620  37.154  1.00  0.00     0.091 A 
ATOM     66  F   UNL A   1      38.562  30.515  36.074  1.00  0.00    -0.205 F 
ATOM     67  C   UNL A   1      39.607  33.811  37.279  1.00  0.00     0.022 A 
BRANCH  65  68
ATOM     68  S   UNL A   1      37.478  32.408  38.265  1.00  0.00     0.127 S 
ATOM     69  O   UNL A   1      37.913  33.171  39.434  1.00  0.00    -0.237 OA
ATOM     70  O   UNL A   1      36.388  33.023  37.507  1.00  0.00    -0.237 OA
ATOM     71  O   UNL A   1      37.342  30.973  38.472  1.00  0.00    -0.744 OA
ENDBRANCH  65  68
ENDBRANCH  47  61
BRANCH  48  72
ATOM     72  C   UNL A   1      42.488  26.078  27.520  1.00  0.00     0.023 A 
ATOM     73  C   UNL A   1      43.301  26.600  26.495  1.00  0.00     0.012 A 
ATOM     74  C   UNL A   1      42.044  24.745  27.432  1.00  0.00     0.148 A 
ATOM     75  C   UNL A   1      43.632  25.823  25.384  1.00  0.00     0.002 A 
ATOM     76  C   UNL A   1      42.429  23.958  26.354  1.00  0.00     0.091 A 
ATOM     77  F   UNL A   1      41.265  24.269  28.414  1.00  0.00    -0.205 F 
ATOM     78  C   UNL A   1      43.205  24.500  25.318  1.00  0.00     0.022 A 
BRANCH  76  79
ATOM     79  S   UNL A   1      42.040  22.207  26.254  1.00  0.00     0.127 S 
ATOM     80  O   UNL A   1      40.592  22.232  26.063  1.00  0.00    -0.237 OA
ATOM     81  O   UNL A   1      42.811  21.795  25.082  1.00  0.00    -0.237 OA
ATOM     82  O   UNL A   1      42.501  21.629  27.510  1.00  0.00    -0.744 OA
ENDBRANCH  76  79
ENDBRANCH  48  72
BRANCH  60  83
ATOM     83  C   UNL A   1      45.165  26.816  33.915  1.00  0.00     0.023 A 
ATOM     84  C   UNL A   1      46.464  27.357  33.820  1.00  0.00     0.012 A 
ATOM     85  C   UNL A   1      44.957  25.657  34.690  1.00  0.00     0.148 A 
ATOM     86  C   UNL A   1      47.544  26.723  34.433  1.00  0.00     0.002 A 
ATOM     87  C   UNL A   1      46.030  25.063  35.344  1.00  0.00     0.091 A 
ATOM     88  F   UNL A   1      43.720  25.145  34.757  1.00  0.00    -0.205 F 
ATOM     89  C   UNL A   1      47.325  25.582  35.201  1.00  0.00     0.022 A 
BRANCH  87  90
ATOM     90  S   UNL A   1      45.823  23.651  36.435  1.00  0.00     0.127 S 
ATOM     91  O   UNL A   1      47.200  23.396  36.855  1.00  0.00    -0.237 OA
ATOM     92  O   UNL A   1      44.956  24.191  37.482  1.00  0.00    -0.237 OA
ATOM     93  O   UNL A   1      45.210  22.607  35.625  1.00  0.00    -0.744 OA
ENDBRANCH  87  90
ENDBRANCH  60  83
ENDBRANCH  34  35
ENDBRANCH  26  29
ENDBRANCH  24  25
ENDBRANCH  23  24
ENDBRANCH   1  23
TORSDOF 17
ENDMDL
MODEL 2
REMARK VINA RESULT:     -12.1      1.466      1.820
REMARK SMILES CC(C)N1C(=O)C[C@@H](Sc2csc(C(=O)NCCCCNC(=O)c3ccc(-c4c5nc(c(-c6cccc(S(=O)(=O)[O-])c6F)c6ccc([nH]6)c(-c6cccc(S(=O)(=O)[O-])c6F)c6nc(c(-c7cccc(S(=O)(=O)[O-])c7F)c7ccc4[nH]7)C=C6)C=C5)cc3)c2)C1=O
REMARK SMILES IDX 18 1 17 2 16 3 14 4 15 5 13 7 10 8 11 9 87 10 12 11 9 12
REMARK SMILES IDX 8 13 4 14 5 15 88 16 6 17 7 18 89 19 2 20 1 21 3 22 19 23
REMARK SMILES IDX 20 24 21 25 22 26 23 28 24 29 25 30 86 31 26 32 85 33 27 34
REMARK SMILES IDX 28 35 29 36 79 37 30 38 84 39 78 40 80 41 31 42 83 43 77 44
REMARK SMILES IDX 76 45 32 47 64 48 44 49 63 50 45 51 48 52 62 53 81 54 46 55
REMARK SMILES IDX 47 56 61 58 82 59 49 60 33 61 34 62 42 63 35 64 37 65 43 66
REMARK SMILES IDX 36 67 38 68 39 69 40 70 41 71 65 72 66 73 74 74 67 75 69 76
REMARK SMILES IDX 75 77 68 78 70 79 71 80 72 81 73 82 50 83 51 84 59 85 52 86
REMARK SMILES IDX 54 87 60 88 53 89 55 90 56 91 57 92 58 93
REMARK H PARENT 16 6 21 27 80 46 48 57
REMARK Flexibility Score: inf
ROOT
ATOM      1  C   UNL A   1      31.637  27.870  26.278  1.00  0.00     0.023 C 
ENDROOT
BRANCH   1   2
ATOM      2  C   UNL A   1      30.767  26.867  25.520  1.00  0.00     0.116 C 
BRANCH   2   3
ATOM      3  N   UNL A   1      30.584  27.285  24.148  1.00  0.00    -0.351 N 
ATOM      4  C   UNL A   1      30.995  26.725  22.963  1.00  0.00     0.261 C 
ATOM      5  O   UNL A   1      30.653  27.341  21.949  1.00  0.00    -0.268 OA
ATOM      6  H   UNL A   1      30.073  28.120  24.045  1.00  0.00     0.163 HD
BRANCH   4   7
ATOM      7  C   UNL A   1      31.754  25.479  22.924  1.00  0.00     0.093 A 
ATOM      8  C   UNL A   1      32.481  23.236  22.814  1.00  0.00     0.020 A 
ATOM      9  C   UNL A   1      33.665  23.915  22.715  1.00  0.00     0.080 A 
ATOM     10  C   UNL A   1      31.399  24.144  23.028  1.00  0.00     0.040 A 
ATOM     11  S   UNL A   1      33.462  25.610  22.737  1.00  0.00    -0.137 S 
BRANCH   8  12
ATOM     12  S   UNL A   1      32.148  21.512  22.752  1.00  0.00    -0.111 SA
BRANCH  12  13
ATOM     13  C   UNL A   1      32.723  20.746  24.282  1.00  0.00     0.150 C 
ATOM     14  N   UNL A   1      34.010  18.815  24.557  1.00  0.00    -0.279 N 
ATOM     15  C   UNL A   1      34.865  19.858  24.784  1.00  0.00     0.231 C 
ATOM     16  C   UNL A   1      32.741  19.240  24.252  1.00  0.00     0.243 C 
ATOM     17  O   UNL A   1      36.067  19.791  24.999  1.00  0.00    -0.274 OA
ATOM     18  C   UNL A   1      34.121  21.156  24.700  1.00  0.00     0.125 C 
ATOM     19  O   UNL A   1      31.778  18.527  24.020  1.00  0.00    -0.273 OA
BRANCH  14  20
ATOM     20  C   UNL A   1      34.400  17.402  24.518  1.00  0.00     0.087 C 
ATOM     21  C   UNL A   1      33.702  16.597  25.616  1.00  0.00     0.031 C 
ATOM     22  C   UNL A   1      34.163  16.773  23.146  1.00  0.00     0.031 C 
ENDBRANCH  14  20
ENDBRANCH  12  13
ENDBRANCH   8  12
ENDBRANCH   4   7
ENDBRANCH   2   3
ENDBRANCH   1   2
BRANCH   1  23
ATOM     23  C   UNL A   1      33.136  27.716  25.998  1.00  0.00     0.023 C 
BRANCH  23  24
ATOM     24  C   UNL A   1      33.800  28.945  25.384  1.00  0.00     0.116 C 
BRANCH  24  25
ATOM     25  N   UNL A   1      33.120  30.187  25.720  1.00  0.00    -0.352 N 
ATOM     26  C   UNL A   1      33.376  31.049  26.756  1.00  0.00     0.251 C 
ATOM     27  H   UNL A   1      32.377  30.442  25.126  1.00  0.00     0.163 HD
ATOM     28  O   UNL A   1      32.617  31.988  26.975  1.00  0.00    -0.269 OA
BRANCH  26  29
ATOM     29  C   UNL A   1      34.548  30.813  27.623  1.00  0.00     0.039 A 
ATOM     30  C   UNL A   1      34.594  29.640  28.377  1.00  0.00     0.014 A 
ATOM     31  C   UNL A   1      35.605  31.727  27.672  1.00  0.00     0.014 A 
ATOM     32  C   UNL A   1      35.728  29.361  29.141  1.00  0.00     0.010 A 
ATOM     33  C   UNL A   1      36.767  31.406  28.366  1.00  0.00     0.010 A 
ATOM     34  C   UNL A   1      36.838  30.225  29.116  1.00  0.00    -0.014 A 
BRANCH  34  35
ATOM     35  C   UNL A   1      38.076  29.872  29.855  1.00  0.00     0.031 A 
ATOM     36  C   UNL A   1      38.331  30.409  31.237  1.00  0.00     0.074 A 
ATOM     37  C   UNL A   1      38.993  29.086  29.258  1.00  0.00     0.049 A 
ATOM     38  N   UNL A   1      39.318  30.140  32.052  1.00  0.00    -0.248 NA
ATOM     39  C   UNL A   1      37.372  31.393  31.765  1.00  0.00     0.031 C 
ATOM     40  C   UNL A   1      38.912  28.588  27.882  1.00  0.00     0.029 A 
ATOM     41  N   UNL A   1      40.176  28.573  29.726  1.00  0.00    -0.354 N 
ATOM     42  C   UNL A   1      39.113  30.933  33.175  1.00  0.00     0.074 A 
ATOM     43  C   UNL A   1      37.934  31.729  32.918  1.00  0.00     0.031 C 
ATOM     44  C   UNL A   1      39.980  27.816  27.629  1.00  0.00     0.029 A 
ATOM     45  C   UNL A   1      40.834  27.784  28.811  1.00  0.00     0.049 A 
ATOM     46  H   UNL A   1      40.520  28.751  30.630  1.00  0.00     0.167 HD
ATOM     47  C   UNL A   1      39.823  30.973  34.328  1.00  0.00     0.034 A 
ATOM     48  C   UNL A   1      41.991  27.104  28.917  1.00  0.00     0.034 A 
ATOM     49  C   UNL A   1      40.982  30.161  34.588  1.00  0.00     0.049 A 
ATOM     50  C   UNL A   1      42.729  27.122  30.227  1.00  0.00     0.074 A 
ATOM     51  C   UNL A   1      41.721  30.063  35.754  1.00  0.00     0.029 A 
ATOM     52  N   UNL A   1      41.584  29.321  33.663  1.00  0.00    -0.354 N 
ATOM     53  N   UNL A   1      42.420  27.740  31.341  1.00  0.00    -0.248 NA
ATOM     54  C   UNL A   1      43.951  26.310  30.308  1.00  0.00     0.031 C 
ATOM     55  C   UNL A   1      42.791  29.191  35.522  1.00  0.00     0.029 A 
ATOM     56  C   UNL A   1      42.693  28.711  34.226  1.00  0.00     0.049 A 
ATOM     57  H   UNL A   1      41.269  29.179  32.742  1.00  0.00     0.167 HD
ATOM     58  C   UNL A   1      43.391  27.369  32.264  1.00  0.00     0.074 A 
ATOM     59  C   UNL A   1      44.276  26.443  31.585  1.00  0.00     0.031 C 
ATOM     60  C   UNL A   1      43.548  27.769  33.550  1.00  0.00     0.034 A 
BRANCH  47  61
ATOM     61  C   UNL A   1      39.336  31.896  35.417  1.00  0.00     0.023 A 
ATOM     62  C   UNL A   1      38.401  31.428  36.365  1.00  0.00     0.012 A 
ATOM     63  C   UNL A   1      39.839  33.206  35.536  1.00  0.00     0.148 A 
ATOM     64  C   UNL A   1      37.947  32.259  37.388  1.00  0.00     0.002 A 
ATOM     65  C   UNL A   1      39.421  34.011  36.589  1.00  0.00     0.091 A 
ATOM     66  F   UNL A   1      40.711  33.642  34.616  1.00  0.00    -0.205 F 
ATOM     67  C   UNL A   1      38.465  33.546  37.507  1.00  0.00     0.022 A 
BRANCH  65  68
ATOM     68  S   UNL A   1      40.088  35.654  36.879  1.00  0.00     0.127 S 
ATOM     69  O   UNL A   1      39.486  35.993  38.168  1.00  0.00    -0.237 OA
ATOM     70  O   UNL A   1      41.528  35.394  36.929  1.00  0.00    -0.237 OA
ATOM     71  O   UNL A   1      39.655  36.469  35.754  1.00  0.00    -0.744 OA
ENDBRANCH  65  68
ENDBRANCH  47  61
BRANCH  48  72
ATOM     72  C   UNL A   1      42.485  26.292  27.769  1.00  0.00     0.023 A 
ATOM     73  C   UNL A   1      43.439  26.837  26.887  1.00  0.00     0.012 A 
ATOM     74  C   UNL A   1      42.030  24.976  27.560  1.00  0.00     0.148 A 
ATOM     75  C   UNL A   1      43.901  26.100  25.796  1.00  0.00     0.002 A 
ATOM     76  C   UNL A   1      42.540  24.227  26.507  1.00  0.00     0.091 A 
ATOM     77  F   UNL A   1      41.116  24.479  28.406  1.00  0.00    -0.205 F 
ATOM     78  C   UNL A   1      43.460  24.793  25.611  1.00  0.00     0.022 A 
BRANCH  76  79
ATOM     79  S   UNL A   1      42.133  22.493  26.275  1.00  0.00     0.127 S 
ATOM     80  O   UNL A   1      42.616  21.903  27.521  1.00  0.00    -0.237 OA
ATOM     81  O   UNL A   1      40.678  22.543  26.139  1.00  0.00    -0.237 OA
ATOM     82  O   UNL A   1      42.836  22.082  25.067  1.00  0.00    -0.744 OA
ENDBRANCH  76  79
ENDBRANCH  48  72
BRANCH  60  83
ATOM     83  C   UNL A   1      44.708  27.183  34.316  1.00  0.00     0.023 A 
ATOM     84  C   UNL A   1      45.934  27.877  34.382  1.00  0.00     0.012 A 
ATOM     85  C   UNL A   1      44.576  25.954  34.992  1.00  0.00     0.148 A 
ATOM     86  C   UNL A   1      47.025  27.329  35.055  1.00  0.00     0.002 A 
ATOM     87  C   UNL A   1      45.650  25.442  35.709  1.00  0.00     0.091 A 
ATOM     88  F   UNL A   1      43.409  25.298  34.907  1.00  0.00    -0.205 F 
ATOM     89  C   UNL A   1      46.880  26.117  35.725  1.00  0.00     0.022 A 
BRANCH  87  90
ATOM     90  S   UNL A   1      45.522  23.939  36.684  1.00  0.00     0.127 S 
ATOM     91  O   UNL A   1      46.925  23.551  36.819  1.00  0.00    -0.237 OA
ATOM     92  O   UNL A   1      44.900  24.420  37.918  1.00  0.00    -0.237 OA
ATOM     93  O   UNL A   1      44.691  23.028  35.907  1.00  0.00    -0.744 OA
ENDBRANCH  87  90
ENDBRANCH  60  83
ENDBRANCH  34  35
ENDBRANCH  26  29
ENDBRANCH  24  25
ENDBRANCH  23  24
ENDBRANCH   1  23
TORSDOF 17
ENDMDL
MODEL 3
REMARK VINA RESULT:     -11.8      2.670      3.281
REMARK SMILES CC(C)N1C(=O)C[C@@H](Sc2csc(C(=O)NCCCCNC(=O)c3ccc(-c4c5nc(c(-c6cccc(S(=O)(=O)[O-])c6F)c6ccc([nH]6)c(-c6cccc(S(=O)(=O)[O-])c6F)c6nc(c(-c7cccc(S(=O)(=O)[O-])c7F)c7ccc4[nH]7)C=C6)C=C5)cc3)c2)C1=O
REMARK SMILES IDX 18 1 17 2 16 3 14 4 15 5 13 7 10 8 11 9 87 10 12 11 9 12
REMARK SMILES IDX 8 13 4 14 5 15 88 16 6 17 7 18 89 19 2 20 1 21 3 22 19 23
REMARK SMILES IDX 20 24 21 25 22 26 23 28 24 29 25 30 86 31 26 32 85 33 27 34
REMARK SMILES IDX 28 35 29 36 79 37 30 38 84 39 78 40 80 41 31 42 83 43 77 44
REMARK SMILES IDX 76 45 32 47 64 48 44 49 63 50 45 51 48 52 62 53 81 54 46 55
REMARK SMILES IDX 47 56 61 58 82 59 49 60 33 61 34 62 42 63 35 64 37 65 43 66
REMARK SMILES IDX 36 67 38 68 39 69 40 70 41 71 65 72 66 73 74 74 67 75 69 76
REMARK SMILES IDX 75 77 68 78 70 79 71 80 72 81 73 82 50 83 51 84 59 85 52 86
REMARK SMILES IDX 54 87 60 88 53 89 55 90 56 91 57 92 58 93
REMARK H PARENT 16 6 21 27 80 46 48 57
REMARK Flexibility Score: inf
ROOT
ATOM      1  C   UNL A   1      32.932  29.369  24.931  1.00  0.00     0.023 C 
ENDROOT
BRANCH   1   2
ATOM      2  C   UNL A   1      31.414  29.520  25.024  1.00  0.00     0.116 C 
BRANCH   2   3
ATOM      3  N   UNL A   1      30.835  29.676  23.708  1.00  0.00    -0.351 N 
ATOM      4  C   UNL A   1      30.706  28.798  22.660  1.00  0.00     0.261 C 
ATOM      5  O   UNL A   1      30.140  29.255  21.663  1.00  0.00    -0.268 OA
ATOM      6  H   UNL A   1      30.468  30.573  23.533  1.00  0.00     0.163 HD
BRANCH   4   7
ATOM      7  C   UNL A   1      31.184  27.422  22.747  1.00  0.00     0.093 A 
ATOM      8  C   UNL A   1      31.445  25.098  23.067  1.00  0.00     0.020 A 
ATOM      9  C   UNL A   1      32.603  25.418  22.412  1.00  0.00     0.080 A 
ATOM     10  C   UNL A   1      30.681  26.274  23.336  1.00  0.00     0.040 A 
ATOM     11  S   UNL A   1      32.701  27.073  22.007  1.00  0.00    -0.137 S 
BRANCH   8  12
ATOM     12  S   UNL A   1      30.837  23.542  23.612  1.00  0.00    -0.111 SA
BRANCH  12  13
ATOM     13  C   UNL A   1      31.957  22.877  24.862  1.00  0.00     0.150 C 
ATOM     14  N   UNL A   1      34.251  22.463  24.698  1.00  0.00    -0.279 N 
ATOM     15  C   UNL A   1      34.139  23.606  25.439  1.00  0.00     0.231 C 
ATOM     16  C   UNL A   1      33.029  21.971  24.314  1.00  0.00     0.243 C 
ATOM     17  O   UNL A   1      35.052  24.307  25.853  1.00  0.00    -0.274 OA
ATOM     18  C   UNL A   1      32.694  23.929  25.666  1.00  0.00     0.125 C 
ATOM     19  O   UNL A   1      32.831  20.958  23.660  1.00  0.00    -0.273 OA
BRANCH  14  20
ATOM     20  C   UNL A   1      35.516  21.873  24.248  1.00  0.00     0.087 C 
ATOM     21  C   UNL A   1      36.338  22.867  23.426  1.00  0.00     0.031 C 
ATOM     22  C   UNL A   1      36.338  21.311  25.406  1.00  0.00     0.031 C 
ENDBRANCH  14  20
ENDBRANCH  12  13
ENDBRANCH   8  12
ENDBRANCH   4   7
ENDBRANCH   2   3
ENDBRANCH   1   2
BRANCH   1  23
ATOM     23  C   UNL A   1      33.507  28.338  25.908  1.00  0.00     0.023 C 
BRANCH  23  24
ATOM     24  C   UNL A   1      33.476  28.762  27.375  1.00  0.00     0.116 C 
BRANCH  24  25
ATOM     25  N   UNL A   1      33.510  30.206  27.551  1.00  0.00    -0.352 N 
ATOM     26  C   UNL A   1      34.507  30.978  28.091  1.00  0.00     0.251 C 
ATOM     27  H   UNL A   1      32.712  30.693  27.242  1.00  0.00     0.163 HD
ATOM     28  O   UNL A   1      34.318  32.174  28.288  1.00  0.00    -0.269 OA
BRANCH  26  29
ATOM     29  C   UNL A   1      35.789  30.348  28.467  1.00  0.00     0.039 A 
ATOM     30  C   UNL A   1      36.859  30.429  27.575  1.00  0.00     0.014 A 
ATOM     31  C   UNL A   1      35.942  29.706  29.699  1.00  0.00     0.014 A 
ATOM     32  C   UNL A   1      38.100  29.910  27.945  1.00  0.00     0.010 A 
ATOM     33  C   UNL A   1      37.201  29.266  30.099  1.00  0.00     0.010 A 
ATOM     34  C   UNL A   1      38.290  29.354  29.223  1.00  0.00    -0.014 A 
BRANCH  34  35
ATOM     35  C   UNL A   1      39.637  28.892  29.643  1.00  0.00     0.031 A 
ATOM     36  C   UNL A   1      40.382  29.585  30.751  1.00  0.00     0.074 A 
ATOM     37  C   UNL A   1      40.206  27.857  28.994  1.00  0.00     0.049 A 
ATOM     38  N   UNL A   1      41.528  29.265  31.294  1.00  0.00    -0.248 NA
ATOM     39  C   UNL A   1      39.780  30.808  31.305  1.00  0.00     0.031 C 
ATOM     40  C   UNL A   1      39.632  27.169  27.835  1.00  0.00     0.029 A 
ATOM     41  N   UNL A   1      41.394  27.207  29.209  1.00  0.00    -0.354 N 
ATOM     42  C   UNL A   1      41.794  30.254  32.234  1.00  0.00     0.074 A 
ATOM     43  C   UNL A   1      40.714  31.211  32.156  1.00  0.00     0.031 C 
ATOM     44  C   UNL A   1      40.451  26.173  27.463  1.00  0.00     0.029 A 
ATOM     45  C   UNL A   1      41.619  26.168  28.337  1.00  0.00     0.049 A 
ATOM     46  H   UNL A   1      42.025  27.458  29.921  1.00  0.00     0.167 HD
ATOM     47  C   UNL A   1      42.827  30.341  33.107  1.00  0.00     0.034 A 
ATOM     48  C   UNL A   1      42.647  25.302  28.255  1.00  0.00     0.034 A 
ATOM     49  C   UNL A   1      43.888  29.372  33.197  1.00  0.00     0.049 A 
ATOM     50  C   UNL A   1      43.753  25.388  29.271  1.00  0.00     0.074 A 
ATOM     51  C   UNL A   1      44.934  29.322  34.102  1.00  0.00     0.029 A 
ATOM     52  N   UNL A   1      44.050  28.293  32.341  1.00  0.00    -0.354 N 
ATOM     53  N   UNL A   1      43.895  26.226  30.269  1.00  0.00    -0.248 NA
ATOM     54  C   UNL A   1      44.816  24.378  29.176  1.00  0.00     0.031 C 
ATOM     55  C   UNL A   1      45.748  28.234  33.770  1.00  0.00     0.029 A 
ATOM     56  C   UNL A   1      45.186  27.579  32.687  1.00  0.00     0.049 A 
ATOM     57  H   UNL A   1      43.446  28.068  31.597  1.00  0.00     0.167 HD
ATOM     58  C   UNL A   1      45.046  25.828  30.939  1.00  0.00     0.074 A 
ATOM     59  C   UNL A   1      45.539  24.651  30.253  1.00  0.00     0.031 C 
ATOM     60  C   UNL A   1      45.650  26.392  32.014  1.00  0.00     0.034 A 
BRANCH  47  61
ATOM     61  C   UNL A   1      42.836  31.504  34.067  1.00  0.00     0.023 A 
ATOM     62  C   UNL A   1      43.450  32.717  33.690  1.00  0.00     0.012 A 
ATOM     63  C   UNL A   1      42.194  31.417  35.317  1.00  0.00     0.148 A 
ATOM     64  C   UNL A   1      43.460  33.810  34.557  1.00  0.00     0.002 A 
ATOM     65  C   UNL A   1      42.162  32.527  36.154  1.00  0.00     0.091 A 
ATOM     66  F   UNL A   1      41.633  30.251  35.668  1.00  0.00    -0.205 F 
ATOM     67  C   UNL A   1      42.806  33.718  35.782  1.00  0.00     0.022 A 
BRANCH  65  68
ATOM     68  S   UNL A   1      41.276  32.539  37.717  1.00  0.00     0.127 S 
ATOM     69  O   UNL A   1      39.962  32.039  37.315  1.00  0.00    -0.237 OA
ATOM     70  O   UNL A   1      42.064  31.604  38.521  1.00  0.00    -0.237 OA
ATOM     71  O   UNL A   1      41.303  33.917  38.184  1.00  0.00    -0.744 OA
ENDBRANCH  65  68
ENDBRANCH  47  61
BRANCH  48  72
ATOM     72  C   UNL A   1      42.642  24.235  27.215  1.00  0.00     0.023 A 
ATOM     73  C   UNL A   1      43.499  24.341  26.102  1.00  0.00     0.012 A 
ATOM     74  C   UNL A   1      41.808  23.107  27.334  1.00  0.00     0.148 A 
ATOM     75  C   UNL A   1      43.497  23.362  25.107  1.00  0.00     0.002 A 
ATOM     76  C   UNL A   1      41.856  22.107  26.371  1.00  0.00     0.091 A 
ATOM     77  F   UNL A   1      40.994  23.030  28.397  1.00  0.00    -0.205 F 
ATOM     78  C   UNL A   1      42.683  22.241  25.246  1.00  0.00     0.022 A 
BRANCH  76  79
ATOM     79  S   UNL A   1      40.946  20.568  26.539  1.00  0.00     0.127 S 
ATOM     80  O   UNL A   1      39.606  20.964  26.113  1.00  0.00    -0.237 OA
ATOM     81  O   UNL A   1      41.658  19.696  25.605  1.00  0.00    -0.237 OA
ATOM     82  O   UNL A   1      41.076  20.184  27.938  1.00  0.00    -0.744 OA
ENDBRANCH  76  79
ENDBRANCH  48  72
BRANCH  60  83
ATOM     83  C   UNL A   1      46.900  25.724  32.531  1.00  0.00     0.023 A 
ATOM     84  C   UNL A   1      46.830  24.856  33.639  1.00  0.00     0.012 A 
ATOM     85  C   UNL A   1      48.142  25.939  31.901  1.00  0.00     0.148 A 
ATOM     86  C   UNL A   1      47.984  24.261  34.150  1.00  0.00     0.002 A 
ATOM     87  C   UNL A   1      49.278  25.298  32.380  1.00  0.00     0.091 A 
ATOM     88  F   UNL A   1      48.195  26.781  30.859  1.00  0.00    -0.205 F 
ATOM     89  C   UNL A   1      49.205  24.475  33.515  1.00  0.00     0.022 A 
BRANCH  87  90
ATOM     90  S   UNL A   1      50.872  25.437  31.565  1.00  0.00     0.127 S 
ATOM     91  O   UNL A   1      51.680  24.486  32.326  1.00  0.00    -0.237 OA
ATOM     92  O   UNL A   1      50.561  25.016  30.199  1.00  0.00    -0.237 OA
ATOM     93  O   UNL A   1      51.264  26.835  31.688  1.00  0.00    -0.744 OA
ENDBRANCH  87  90
ENDBRANCH  60  83
ENDBRANCH  34  35
ENDBRANCH  26  29
ENDBRANCH  24  25
ENDBRANCH  23  24
ENDBRANCH   1  23
TORSDOF 17
ENDMDL
