MODEL 1
REMARK VINA RESULT:     -13.1      0.000      0.000
REMARK SMILES O=C(NCCCCNC(=O)[C@@H]1CCCC[C@@H]1C(=O)Nc1ccccc1C(=O)N1CCN(c2ccc(F)cc2)CC1)c1ccc(-c2c3nc(c(-c4cccc(S(=O)(=O)[O-])c4F)c4ccc([nH]4)c(-c4cccc(S(=O)(=O)[O-])c4F)c4nc(c(-c5cccc(S(=O)(=O)[O-])c5F)c5ccc2[nH]5)C=C4)C=C3)cc1
REMARK SMILES IDX 6 1 5 2 4 3 3 4 1 5 2 6 41 8 42 9 103 10 43 11 102 12 44 13
REMARK SMILES IDX 45 14 46 15 96 16 47 17 101 18 95 19 97 20 48 21 100 22
REMARK SMILES IDX 94 23 93 24 49 26 81 27 61 28 80 29 62 30 65 31 79 32 98 33
REMARK SMILES IDX 63 34 64 35 78 37 99 38 66 39 50 40 51 41 59 42 52 43 54 44
REMARK SMILES IDX 60 45 53 46 55 47 56 48 57 49 58 50 82 51 83 52 91 53 84 54
REMARK SMILES IDX 86 55 92 56 85 57 87 58 88 59 89 60 90 61 67 62 68 63 76 64
REMARK SMILES IDX 69 65 71 66 77 67 70 68 72 69 73 70 74 71 75 72 7 73 8 74
REMARK SMILES IDX 9 75 10 77 11 78 12 79 16 80 13 81 15 82 14 83 17 84 18 85
REMARK SMILES IDX 19 86 20 88 21 89 25 90 22 91 24 92 23 93 26 94 27 95 28 96
REMARK SMILES IDX 29 97 40 98 30 99 39 100 31 101 32 102 33 103 38 104 34 105
REMARK SMILES IDX 37 106 35 107 36 108
REMARK H PARENT 3 7 97 25 65 36 8 76 19 87
REMARK Flexibility Score: inf
ROOT
ATOM      1  C   UNL A   1      32.755  30.162  25.292  1.00  0.00     0.023 C 
ENDROOT
BRANCH   1   2
ATOM      2  C   UNL A   1      33.425  30.769  26.530  1.00  0.00     0.023 C 
BRANCH   2   3
ATOM      3  C   UNL A   1      32.450  31.398  27.515  1.00  0.00     0.116 C 
BRANCH   3   4
ATOM      4  N   UNL A   1      32.449  32.852  27.403  1.00  0.00    -0.352 N 
ATOM      5  O   UNL A   1      32.934  34.944  28.092  1.00  0.00    -0.269 OA
ATOM      6  C   UNL A   1      33.242  33.753  28.059  1.00  0.00     0.251 C 
ATOM      7  H   UNL A   1      31.795  33.233  26.774  1.00  0.00     0.163 HD
BRANCH   6   8
ATOM      8  C   UNL A   1      34.469  33.264  28.706  1.00  0.00     0.039 A 
ATOM      9  C   UNL A   1      34.356  32.393  29.795  1.00  0.00     0.014 A 
ATOM     10  C   UNL A   1      35.718  33.671  28.238  1.00  0.00     0.014 A 
ATOM     11  C   UNL A   1      35.492  32.006  30.483  1.00  0.00     0.010 A 
ATOM     12  C   UNL A   1      36.866  33.203  28.875  1.00  0.00     0.010 A 
ATOM     13  C   UNL A   1      36.759  32.368  29.999  1.00  0.00    -0.014 A 
BRANCH  13  14
ATOM     14  C   UNL A   1      37.952  31.711  30.577  1.00  0.00     0.031 A 
ATOM     15  C   UNL A   1      38.705  30.653  29.830  1.00  0.00     0.074 A 
ATOM     16  C   UNL A   1      38.310  32.072  31.826  1.00  0.00     0.049 A 
ATOM     17  N   UNL A   1      39.740  29.963  30.226  1.00  0.00    -0.248 NA
ATOM     18  C   UNL A   1      38.241  30.320  28.474  1.00  0.00     0.031 C 
ATOM     19  C   UNL A   1      37.604  33.060  32.650  1.00  0.00     0.029 A 
ATOM     20  N   UNL A   1      39.333  31.643  32.630  1.00  0.00    -0.354 N 
ATOM     21  C   UNL A   1      40.025  29.077  29.196  1.00  0.00     0.074 A 
ATOM     22  C   UNL A   1      39.062  29.329  28.144  1.00  0.00     0.031 C 
ATOM     23  C   UNL A   1      38.213  33.162  33.838  1.00  0.00     0.029 A 
ATOM     24  C   UNL A   1      39.301  32.198  33.888  1.00  0.00     0.049 A 
ATOM     25  H   UNL A   1      40.021  31.003  32.336  1.00  0.00     0.167 HD
ATOM     26  C   UNL A   1      41.002  28.142  29.143  1.00  0.00     0.034 A 
ATOM     27  C   UNL A   1      40.032  31.922  34.983  1.00  0.00     0.034 A 
ATOM     28  C   UNL A   1      41.966  27.929  30.191  1.00  0.00     0.049 A 
ATOM     29  C   UNL A   1      41.102  30.878  34.883  1.00  0.00     0.074 A 
ATOM     30  C   UNL A   1      43.058  27.080  30.188  1.00  0.00     0.029 A 
ATOM     31  N   UNL A   1      41.938  28.540  31.435  1.00  0.00    -0.354 N 
ATOM     32  N   UNL A   1      41.469  30.174  33.841  1.00  0.00    -0.248 NA
ATOM     33  C   UNL A   1      41.874  30.602  36.101  1.00  0.00     0.031 C 
ATOM     34  C   UNL A   1      43.661  27.142  31.449  1.00  0.00     0.029 A 
ATOM     35  C   UNL A   1      42.968  28.058  32.223  1.00  0.00     0.049 A 
ATOM     36  H   UNL A   1      41.280  29.218  31.716  1.00  0.00     0.167 HD
ATOM     37  C   UNL A   1      42.522  29.381  34.271  1.00  0.00     0.074 A 
ATOM     38  C   UNL A   1      42.762  29.723  35.659  1.00  0.00     0.031 C 
ATOM     39  C   UNL A   1      43.214  28.437  33.589  1.00  0.00     0.034 A 
BRANCH  26  40
ATOM     40  C   UNL A   1      41.103  27.272  27.920  1.00  0.00     0.023 A 
ATOM     41  C   UNL A   1      41.758  27.749  26.768  1.00  0.00     0.012 A 
ATOM     42  C   UNL A   1      40.664  25.932  27.964  1.00  0.00     0.148 A 
ATOM     43  C   UNL A   1      41.968  26.908  25.675  1.00  0.00     0.002 A 
ATOM     44  C   UNL A   1      40.913  25.090  26.888  1.00  0.00     0.091 A 
ATOM     45  F   UNL A   1      40.028  25.507  29.064  1.00  0.00    -0.205 F 
ATOM     46  C   UNL A   1      41.559  25.579  25.740  1.00  0.00     0.022 A 
BRANCH  44  47
ATOM     47  S   UNL A   1      40.501  23.342  26.905  1.00  0.00     0.127 S 
ATOM     48  O   UNL A   1      39.051  23.380  26.720  1.00  0.00    -0.237 OA
ATOM     49  O   UNL A   1      41.251  22.841  25.753  1.00  0.00    -0.237 OA
ATOM     50  O   UNL A   1      40.946  22.834  28.195  1.00  0.00    -0.744 OA
ENDBRANCH  44  47
ENDBRANCH  26  40
BRANCH  27  51
ATOM     51  C   UNL A   1      39.753  32.629  36.264  1.00  0.00     0.023 A 
ATOM     52  C   UNL A   1      40.477  33.790  36.593  1.00  0.00     0.012 A 
ATOM     53  C   UNL A   1      38.759  32.163  37.148  1.00  0.00     0.148 A 
ATOM     54  C   UNL A   1      40.245  34.451  37.799  1.00  0.00     0.002 A 
ATOM     55  C   UNL A   1      38.489  32.863  38.317  1.00  0.00     0.091 A 
ATOM     56  F   UNL A   1      38.089  31.048  36.824  1.00  0.00    -0.205 F 
ATOM     57  C   UNL A   1      39.245  33.994  38.656  1.00  0.00     0.022 A 
BRANCH  55  58
ATOM     58  S   UNL A   1      37.121  32.425  39.395  1.00  0.00     0.127 S 
ATOM     59  O   UNL A   1      37.257  33.411  40.464  1.00  0.00    -0.237 OA
ATOM     60  O   UNL A   1      35.966  32.623  38.517  1.00  0.00    -0.237 OA
ATOM     61  O   UNL A   1      37.352  31.038  39.773  1.00  0.00    -0.744 OA
ENDBRANCH  55  58
ENDBRANCH  27  51
BRANCH  39  62
ATOM     62  C   UNL A   1      44.306  27.715  34.329  1.00  0.00     0.023 A 
ATOM     63  C   UNL A   1      45.580  28.307  34.440  1.00  0.00     0.012 A 
ATOM     64  C   UNL A   1      44.052  26.488  34.971  1.00  0.00     0.148 A 
ATOM     65  C   UNL A   1      46.594  27.671  35.153  1.00  0.00     0.002 A 
ATOM     66  C   UNL A   1      45.050  25.886  35.724  1.00  0.00     0.091 A 
ATOM     67  F   UNL A   1      42.836  25.938  34.837  1.00  0.00    -0.205 F 
ATOM     68  C   UNL A   1      46.326  26.469  35.804  1.00  0.00     0.022 A 
BRANCH  66  69
ATOM     69  S   UNL A   1      44.775  24.388  36.674  1.00  0.00     0.127 S 
ATOM     70  O   UNL A   1      44.130  24.912  37.876  1.00  0.00    -0.237 OA
ATOM     71  O   UNL A   1      43.894  23.623  35.791  1.00  0.00    -0.237 OA
ATOM     72  O   UNL A   1      46.089  23.796  36.885  1.00  0.00    -0.744 OA
ENDBRANCH  66  69
ENDBRANCH  39  62
ENDBRANCH  13  14
ENDBRANCH   6   8
ENDBRANCH   3   4
ENDBRANCH   2   3
ENDBRANCH   1   2
BRANCH   1  73
ATOM     73  C   UNL A   1      31.273  29.794  25.469  1.00  0.00     0.116 C 
BRANCH  73  74
ATOM     74  N   UNL A   1      30.524  29.949  24.240  1.00  0.00    -0.356 N 
ATOM     75  C   UNL A   1      30.653  29.106  23.186  1.00  0.00     0.223 C 
ATOM     76  H   UNL A   1      29.891  30.699  24.166  1.00  0.00     0.163 HD
ATOM     77  O   UNL A   1      31.122  29.580  22.147  1.00  0.00    -0.275 OA
BRANCH  75  78
ATOM     78  C   UNL A   1      30.315  27.610  23.328  1.00  0.00     0.091 C 
ATOM     79  C   UNL A   1      30.657  27.245  24.797  1.00  0.00     0.014 C 
ATOM     80  C   UNL A   1      30.676  26.530  22.202  1.00  0.00     0.091 C 
ATOM     81  C   UNL A   1      30.248  25.853  25.226  1.00  0.00     0.001 C 
ATOM     82  C   UNL A   1      30.025  25.218  22.792  1.00  0.00     0.014 C 
ATOM     83  C   UNL A   1      30.613  24.836  24.172  1.00  0.00     0.001 C 
BRANCH  80  84
ATOM     84  C   UNL A   1      32.053  25.935  21.650  1.00  0.00     0.228 C 
ATOM     85  O   UNL A   1      32.198  25.705  20.436  1.00  0.00    -0.274 OA
ATOM     86  N   UNL A   1      33.268  25.919  22.262  1.00  0.00    -0.325 N 
ATOM     87  H   UNL A   1      34.003  25.932  21.607  1.00  0.00     0.169 HD
BRANCH  86  88
ATOM     88  C   UNL A   1      33.749  25.890  23.571  1.00  0.00     0.054 A 
ATOM     89  C   UNL A   1      33.856  27.139  24.215  1.00  0.00     0.027 A 
ATOM     90  C   UNL A   1      34.190  24.757  24.245  1.00  0.00     0.063 A 
ATOM     91  C   UNL A   1      34.118  27.218  25.583  1.00  0.00     0.002 A 
ATOM     92  C   UNL A   1      34.363  24.825  25.640  1.00  0.00     0.016 A 
ATOM     93  C   UNL A   1      34.288  26.048  26.312  1.00  0.00     0.001 A 
BRANCH  90  94
ATOM     94  C   UNL A   1      34.693  23.531  23.561  1.00  0.00     0.256 C 
ATOM     95  O   UNL A   1      35.537  23.655  22.678  1.00  0.00    -0.269 OA
ATOM     96  N   UNL A   1      34.191  22.289  23.984  1.00  0.00    -0.335 N 
ATOM     97  C   UNL A   1      35.203  21.344  24.379  1.00  0.00     0.141 C 
ATOM     98  C   UNL A   1      33.102  21.606  23.267  1.00  0.00     0.141 C 
ATOM     99  C   UNL A   1      34.666  20.276  25.296  1.00  0.00     0.138 C 
ATOM    100  C   UNL A   1      32.589  20.279  23.966  1.00  0.00     0.138 C 
ATOM    101  N   UNL A   1      33.692  19.500  24.558  1.00  0.00    -0.368 N 
BRANCH 101 102
ATOM    102  C   UNL A   1      33.686  18.184  24.987  1.00  0.00     0.037 A 
ATOM    103  C   UNL A   1      34.462  17.194  24.350  1.00  0.00     0.029 A 
ATOM    104  C   UNL A   1      32.603  17.773  25.775  1.00  0.00     0.029 A 
ATOM    105  C   UNL A   1      34.107  15.844  24.426  1.00  0.00     0.041 A 
ATOM    106  C   UNL A   1      32.248  16.426  25.853  1.00  0.00     0.041 A 
ATOM    107  C   UNL A   1      32.990  15.477  25.163  1.00  0.00     0.123 A 
ATOM    108  F   UNL A   1      32.597  14.196  25.172  1.00  0.00    -0.207 F 
ENDBRANCH 101 102
ENDBRANCH  90  94
ENDBRANCH  86  88
ENDBRANCH  80  84
ENDBRANCH  75  78
ENDBRANCH  73  74
ENDBRANCH   1  73
TORSDOF 18
ENDMDL
MODEL 2
REMARK VINA RESULT:     -13.0      1.294      2.268
REMARK SMILES O=C(NCCCCNC(=O)[C@@H]1CCCC[C@@H]1C(=O)Nc1ccccc1C(=O)N1CCN(c2ccc(F)cc2)CC1)c1ccc(-c2c3nc(c(-c4cccc(S(=O)(=O)[O-])c4F)c4ccc([nH]4)c(-c4cccc(S(=O)(=O)[O-])c4F)c4nc(c(-c5cccc(S(=O)(=O)[O-])c5F)c5ccc2[nH]5)C=C4)C=C3)cc1
REMARK SMILES IDX 6 1 5 2 4 3 3 4 1 5 2 6 41 8 42 9 103 10 43 11 102 12 44 13
REMARK SMILES IDX 45 14 46 15 96 16 47 17 101 18 95 19 97 20 48 21 100 22
REMARK SMILES IDX 94 23 93 24 49 26 81 27 61 28 80 29 62 30 65 31 79 32 98 33
REMARK SMILES IDX 63 34 64 35 78 37 99 38 66 39 50 40 51 41 59 42 52 43 54 44
REMARK SMILES IDX 60 45 53 46 55 47 56 48 57 49 58 50 82 51 83 52 91 53 84 54
REMARK SMILES IDX 86 55 92 56 85 57 87 58 88 59 89 60 90 61 67 62 68 63 76 64
REMARK SMILES IDX 69 65 71 66 77 67 70 68 72 69 73 70 74 71 75 72 7 73 8 74
REMARK SMILES IDX 9 75 10 77 11 78 12 79 16 80 13 81 15 82 14 83 17 84 18 85
REMARK SMILES IDX 19 86 20 88 21 89 25 90 22 91 24 92 23 93 26 94 27 95 28 96
REMARK SMILES IDX 29 97 40 98 30 99 39 100 31 101 32 102 33 103 38 104 34 105
REMARK SMILES IDX 37 106 35 107 36 108
REMARK H PARENT 3 7 97 25 65 36 8 76 19 87
REMARK Flexibility Score: inf
ROOT
ATOM      1  C   UNL A   1      31.829  28.779  27.630  1.00  0.00     0.023 C 
ENDROOT
BRANCH   1   2
ATOM      2  C   UNL A   1      31.720  30.065  26.802  1.00  0.00     0.023 C 
BRANCH   2   3
ATOM      3  C   UNL A   1      33.008  30.875  26.746  1.00  0.00     0.116 C 
BRANCH   3   4
ATOM      4  N   UNL A   1      32.749  32.295  26.953  1.00  0.00    -0.352 N 
ATOM      5  O   UNL A   1      32.803  34.221  28.126  1.00  0.00    -0.269 OA
ATOM      6  C   UNL A   1      33.325  33.137  27.865  1.00  0.00     0.251 C 
ATOM      7  H   UNL A   1      32.074  32.698  26.362  1.00  0.00     0.163 HD
BRANCH   6   8
ATOM      8  C   UNL A   1      34.581  32.721  28.506  1.00  0.00     0.039 A 
ATOM      9  C   UNL A   1      34.521  31.905  29.641  1.00  0.00     0.014 A 
ATOM     10  C   UNL A   1      35.805  33.140  27.986  1.00  0.00     0.014 A 
ATOM     11  C   UNL A   1      35.684  31.590  30.321  1.00  0.00     0.010 A 
ATOM     12  C   UNL A   1      36.982  32.741  28.619  1.00  0.00     0.010 A 
ATOM     13  C   UNL A   1      36.927  31.964  29.787  1.00  0.00    -0.014 A 
BRANCH  13  14
ATOM     14  C   UNL A   1      38.153  31.375  30.369  1.00  0.00     0.031 A 
ATOM     15  C   UNL A   1      38.936  30.321  29.649  1.00  0.00     0.074 A 
ATOM     16  C   UNL A   1      38.515  31.794  31.599  1.00  0.00     0.049 A 
ATOM     17  N   UNL A   1      40.004  29.686  30.052  1.00  0.00    -0.248 NA
ATOM     18  C   UNL A   1      38.467  29.922  28.312  1.00  0.00     0.031 C 
ATOM     19  C   UNL A   1      37.781  32.782  32.399  1.00  0.00     0.029 A 
ATOM     20  N   UNL A   1      39.564  31.434  32.402  1.00  0.00    -0.354 N 
ATOM     21  C   UNL A   1      40.308  28.776  29.049  1.00  0.00     0.074 A 
ATOM     22  C   UNL A   1      39.321  28.952  28.004  1.00  0.00     0.031 C 
ATOM     23  C   UNL A   1      38.403  32.951  33.573  1.00  0.00     0.029 A 
ATOM     24  C   UNL A   1      39.529  32.032  33.640  1.00  0.00     0.049 A 
ATOM     25  H   UNL A   1      40.273  30.811  32.120  1.00  0.00     0.167 HD
ATOM     26  C   UNL A   1      41.320  27.878  29.015  1.00  0.00     0.034 A 
ATOM     27  C   UNL A   1      40.285  31.824  34.732  1.00  0.00     0.034 A 
ATOM     28  C   UNL A   1      42.307  27.741  30.054  1.00  0.00     0.049 A 
ATOM     29  C   UNL A   1      41.395  30.819  34.653  1.00  0.00     0.074 A 
ATOM     30  C   UNL A   1      43.432  26.935  30.064  1.00  0.00     0.029 A 
ATOM     31  N   UNL A   1      42.272  28.394  31.276  1.00  0.00    -0.354 N 
ATOM     32  N   UNL A   1      41.774  30.093  33.630  1.00  0.00    -0.248 NA
ATOM     33  C   UNL A   1      42.193  30.617  35.867  1.00  0.00     0.031 C 
ATOM     34  C   UNL A   1      44.050  27.065  31.312  1.00  0.00     0.029 A 
ATOM     35  C   UNL A   1      43.332  27.980  32.064  1.00  0.00     0.049 A 
ATOM     36  H   UNL A   1      41.593  29.055  31.543  1.00  0.00     0.167 HD
ATOM     37  C   UNL A   1      42.863  29.357  34.071  1.00  0.00     0.074 A 
ATOM     38  C   UNL A   1      43.110  29.758  35.442  1.00  0.00     0.031 C 
ATOM     39  C   UNL A   1      43.582  28.417  33.412  1.00  0.00     0.034 A 
BRANCH  26  40
ATOM     40  C   UNL A   1      41.439  26.970  27.821  1.00  0.00     0.023 A 
ATOM     41  C   UNL A   1      42.152  27.391  26.682  1.00  0.00     0.012 A 
ATOM     42  C   UNL A   1      40.954  25.647  27.886  1.00  0.00     0.148 A 
ATOM     43  C   UNL A   1      42.375  26.512  25.622  1.00  0.00     0.002 A 
ATOM     44  C   UNL A   1      41.216  24.766  26.845  1.00  0.00     0.091 A 
ATOM     45  F   UNL A   1      40.264  25.274  28.973  1.00  0.00    -0.205 F 
ATOM     46  C   UNL A   1      41.920  25.199  25.709  1.00  0.00     0.022 A 
BRANCH  44  47
ATOM     47  S   UNL A   1      40.746  23.033  26.895  1.00  0.00     0.127 S 
ATOM     48  O   UNL A   1      39.295  23.116  26.729  1.00  0.00    -0.237 OA
ATOM     49  O   UNL A   1      41.462  22.489  25.741  1.00  0.00    -0.237 OA
ATOM     50  O   UNL A   1      41.193  22.530  28.186  1.00  0.00    -0.744 OA
ENDBRANCH  44  47
ENDBRANCH  26  40
BRANCH  27  51
ATOM     51  C   UNL A   1      39.997  32.564  35.992  1.00  0.00     0.023 A 
ATOM     52  C   UNL A   1      40.728  33.726  36.302  1.00  0.00     0.012 A 
ATOM     53  C   UNL A   1      38.987  32.130  36.874  1.00  0.00     0.148 A 
ATOM     54  C   UNL A   1      40.487  34.418  37.489  1.00  0.00     0.002 A 
ATOM     55  C   UNL A   1      38.709  32.861  38.021  1.00  0.00     0.091 A 
ATOM     56  F   UNL A   1      38.310  31.014  36.568  1.00  0.00    -0.205 F 
ATOM     57  C   UNL A   1      39.472  33.992  38.343  1.00  0.00     0.022 A 
BRANCH  55  58
ATOM     58  S   UNL A   1      37.322  32.464  39.091  1.00  0.00     0.127 S 
ATOM     59  O   UNL A   1      37.516  33.404  40.192  1.00  0.00    -0.237 OA
ATOM     60  O   UNL A   1      36.177  32.754  38.226  1.00  0.00    -0.237 OA
ATOM     61  O   UNL A   1      37.477  31.054  39.422  1.00  0.00    -0.744 OA
ENDBRANCH  55  58
ENDBRANCH  27  51
BRANCH  39  62
ATOM     62  C   UNL A   1      44.712  27.766  34.160  1.00  0.00     0.023 A 
ATOM     63  C   UNL A   1      45.993  28.352  34.135  1.00  0.00     0.012 A 
ATOM     64  C   UNL A   1      44.490  26.615  34.941  1.00  0.00     0.148 A 
ATOM     65  C   UNL A   1      47.044  27.783  34.852  1.00  0.00     0.002 A 
ATOM     66  C   UNL A   1      45.528  26.085  35.694  1.00  0.00     0.091 A 
ATOM     67  F   UNL A   1      43.266  26.067  34.936  1.00  0.00    -0.205 F 
ATOM     68  C   UNL A   1      46.809  26.659  35.640  1.00  0.00     0.022 A 
BRANCH  66  69
ATOM     69  S   UNL A   1      45.302  24.697  36.810  1.00  0.00     0.127 S 
ATOM     70  O   UNL A   1      44.158  25.139  37.606  1.00  0.00    -0.237 OA
ATOM     71  O   UNL A   1      45.015  23.602  35.884  1.00  0.00    -0.237 OA
ATOM     72  O   UNL A   1      46.552  24.561  37.546  1.00  0.00    -0.744 OA
ENDBRANCH  66  69
ENDBRANCH  39  62
ENDBRANCH  13  14
ENDBRANCH   6   8
ENDBRANCH   3   4
ENDBRANCH   2   3
ENDBRANCH   1   2
BRANCH   1  73
ATOM     73  C   UNL A   1      31.410  27.495  26.896  1.00  0.00     0.116 C 
BRANCH  73  74
ATOM     74  N   UNL A   1      32.143  27.311  25.660  1.00  0.00    -0.356 N 
ATOM     75  C   UNL A   1      33.446  26.943  25.623  1.00  0.00     0.223 C 
ATOM     76  H   UNL A   1      31.672  27.461  24.809  1.00  0.00     0.163 HD
ATOM     77  O   UNL A   1      34.246  27.764  25.167  1.00  0.00    -0.275 OA
BRANCH  75  78
ATOM     78  C   UNL A   1      33.900  25.595  26.216  1.00  0.00     0.091 C 
ATOM     79  C   UNL A   1      35.099  25.141  25.342  1.00  0.00     0.014 C 
ATOM     80  C   UNL A   1      32.868  24.465  26.688  1.00  0.00     0.091 C 
ATOM     81  C   UNL A   1      35.827  23.911  25.836  1.00  0.00     0.001 C 
ATOM     82  C   UNL A   1      33.837  23.377  27.297  1.00  0.00     0.014 C 
ATOM     83  C   UNL A   1      34.850  22.839  26.257  1.00  0.00     0.001 C 
BRANCH  80  84
ATOM     84  C   UNL A   1      31.840  23.519  25.910  1.00  0.00     0.228 C 
ATOM     85  O   UNL A   1      31.479  22.439  26.408  1.00  0.00    -0.274 OA
ATOM     86  N   UNL A   1      31.011  23.845  24.882  1.00  0.00    -0.325 N 
ATOM     87  H   UNL A   1      30.203  23.282  24.878  1.00  0.00     0.169 HD
BRANCH  86  88
ATOM     88  C   UNL A   1      31.000  24.765  23.834  1.00  0.00     0.054 A 
ATOM     89  C   UNL A   1      29.818  25.518  23.688  1.00  0.00     0.027 A 
ATOM     90  C   UNL A   1      32.015  24.937  22.899  1.00  0.00     0.063 A 
ATOM     91  C   UNL A   1      29.768  26.608  22.818  1.00  0.00     0.002 A 
ATOM     92  C   UNL A   1      32.001  26.088  22.091  1.00  0.00     0.016 A 
ATOM     93  C   UNL A   1      30.896  26.943  22.080  1.00  0.00     0.001 A 
BRANCH  90  94
ATOM     94  C   UNL A   1      33.007  23.878  22.550  1.00  0.00     0.256 C 
ATOM     95  O   UNL A   1      34.102  24.221  22.114  1.00  0.00    -0.269 OA
ATOM     96  N   UNL A   1      32.642  22.540  22.766  1.00  0.00    -0.335 N 
ATOM     97  C   UNL A   1      33.558  21.803  23.598  1.00  0.00     0.141 C 
ATOM     98  C   UNL A   1      32.136  21.687  21.678  1.00  0.00     0.141 C 
ATOM     99  C   UNL A   1      32.914  20.600  24.236  1.00  0.00     0.138 C 
ATOM    100  C   UNL A   1      31.661  20.247  22.142  1.00  0.00     0.138 C 
ATOM    101  N   UNL A   1      32.537  19.681  23.183  1.00  0.00    -0.368 N 
BRANCH 101 102
ATOM    102  C   UNL A   1      32.621  18.370  23.622  1.00  0.00     0.037 A 
ATOM    103  C   UNL A   1      32.238  18.002  24.928  1.00  0.00     0.029 A 
ATOM    104  C   UNL A   1      33.466  17.511  22.910  1.00  0.00     0.029 A 
ATOM    105  C   UNL A   1      32.761  16.854  25.532  1.00  0.00     0.041 A 
ATOM    106  C   UNL A   1      33.989  16.365  23.511  1.00  0.00     0.041 A 
ATOM    107  C   UNL A   1      33.648  16.058  24.821  1.00  0.00     0.123 A 
ATOM    108  F   UNL A   1      34.217  15.005  25.423  1.00  0.00    -0.207 F 
ENDBRANCH 101 102
ENDBRANCH  90  94
ENDBRANCH  86  88
ENDBRANCH  80  84
ENDBRANCH  75  78
ENDBRANCH  73  74
ENDBRANCH   1  73
TORSDOF 18
ENDMDL
MODEL 3
REMARK VINA RESULT:     -12.4      4.982     10.553
REMARK SMILES O=C(NCCCCNC(=O)[C@@H]1CCCC[C@@H]1C(=O)Nc1ccccc1C(=O)N1CCN(c2ccc(F)cc2)CC1)c1ccc(-c2c3nc(c(-c4cccc(S(=O)(=O)[O-])c4F)c4ccc([nH]4)c(-c4cccc(S(=O)(=O)[O-])c4F)c4nc(c(-c5cccc(S(=O)(=O)[O-])c5F)c5ccc2[nH]5)C=C4)C=C3)cc1
REMARK SMILES IDX 6 1 5 2 4 3 3 4 1 5 2 6 41 8 42 9 103 10 43 11 102 12 44 13
REMARK SMILES IDX 45 14 46 15 96 16 47 17 101 18 95 19 97 20 48 21 100 22
REMARK SMILES IDX 94 23 93 24 49 26 81 27 61 28 80 29 62 30 65 31 79 32 98 33
REMARK SMILES IDX 63 34 64 35 78 37 99 38 66 39 50 40 51 41 59 42 52 43 54 44
REMARK SMILES IDX 60 45 53 46 55 47 56 48 57 49 58 50 82 51 83 52 91 53 84 54
REMARK SMILES IDX 86 55 92 56 85 57 87 58 88 59 89 60 90 61 67 62 68 63 76 64
REMARK SMILES IDX 69 65 71 66 77 67 70 68 72 69 73 70 74 71 75 72 7 73 8 74
REMARK SMILES IDX 9 75 10 77 11 78 12 79 16 80 13 81 15 82 14 83 17 84 18 85
REMARK SMILES IDX 19 86 20 88 21 89 25 90 22 91 24 92 23 93 26 94 27 95 28 96
REMARK SMILES IDX 29 97 40 98 30 99 39 100 31 101 32 102 33 103 38 104 34 105
REMARK SMILES IDX 37 106 35 107 36 108
REMARK H PARENT 3 7 97 25 65 36 8 76 19 87
REMARK Flexibility Score: inf
ROOT
ATOM      1  C   UNL A   1      37.868  32.373  37.521  1.00  0.00     0.023 C 
ENDROOT
BRANCH   1   2
ATOM      2  C   UNL A   1      37.948  33.715  38.258  1.00  0.00     0.023 C 
BRANCH   2   3
ATOM      3  C   UNL A   1      39.214  33.892  39.085  1.00  0.00     0.116 C 
BRANCH   3   4
ATOM      4  N   UNL A   1      39.620  35.291  39.137  1.00  0.00    -0.352 N 
ATOM      5  O   UNL A   1      41.025  37.015  38.761  1.00  0.00    -0.269 OA
ATOM      6  C   UNL A   1      40.590  35.919  38.407  1.00  0.00     0.251 C 
ATOM      7  H   UNL A   1      39.133  35.855  39.780  1.00  0.00     0.163 HD
BRANCH   6   8
ATOM      8  C   UNL A   1      41.085  35.262  37.188  1.00  0.00     0.039 A 
ATOM      9  C   UNL A   1      42.292  34.556  37.244  1.00  0.00     0.014 A 
ATOM     10  C   UNL A   1      40.359  35.349  36.001  1.00  0.00     0.014 A 
ATOM     11  C   UNL A   1      42.827  34.020  36.087  1.00  0.00     0.010 A 
ATOM     12  C   UNL A   1      40.855  34.727  34.855  1.00  0.00     0.010 A 
ATOM     13  C   UNL A   1      42.089  34.059  34.894  1.00  0.00    -0.014 A 
BRANCH  13  14
ATOM     14  C   UNL A   1      42.546  33.237  33.752  1.00  0.00     0.031 A 
ATOM     15  C   UNL A   1      42.777  33.833  32.398  1.00  0.00     0.074 A 
ATOM     16  C   UNL A   1      42.704  31.915  33.968  1.00  0.00     0.049 A 
ATOM     17  N   UNL A   1      43.137  33.229  31.296  1.00  0.00    -0.248 NA
ATOM     18  C   UNL A   1      42.578  35.284  32.252  1.00  0.00     0.031 C 
ATOM     19  C   UNL A   1      42.453  31.237  35.245  1.00  0.00     0.029 A 
ATOM     20  N   UNL A   1      43.087  30.903  33.128  1.00  0.00    -0.354 N 
ATOM     21  C   UNL A   1      43.157  34.210  30.313  1.00  0.00     0.074 A 
ATOM     22  C   UNL A   1      42.791  35.457  30.952  1.00  0.00     0.031 C 
ATOM     23  C   UNL A   1      42.689  29.926  35.105  1.00  0.00     0.029 A 
ATOM     24  C   UNL A   1      43.034  29.661  33.716  1.00  0.00     0.049 A 
ATOM     25  H   UNL A   1      43.373  31.051  32.197  1.00  0.00     0.167 HD
ATOM     26  C   UNL A   1      43.454  34.070  29.001  1.00  0.00     0.034 A 
ATOM     27  C   UNL A   1      43.189  28.435  33.185  1.00  0.00     0.034 A 
ATOM     28  C   UNL A   1      43.844  32.824  28.394  1.00  0.00     0.049 A 
ATOM     29  C   UNL A   1      43.515  28.325  31.726  1.00  0.00     0.074 A 
ATOM     30  C   UNL A   1      44.267  32.600  27.096  1.00  0.00     0.029 A 
ATOM     31  N   UNL A   1      43.826  31.591  29.026  1.00  0.00    -0.354 N 
ATOM     32  N   UNL A   1      43.703  29.282  30.852  1.00  0.00    -0.248 NA
ATOM     33  C   UNL A   1      43.672  26.970  31.184  1.00  0.00     0.031 C 
ATOM     34  C   UNL A   1      44.458  31.225  26.930  1.00  0.00     0.029 A 
ATOM     35  C   UNL A   1      44.191  30.597  28.136  1.00  0.00     0.049 A 
ATOM     36  H   UNL A   1      43.589  31.445  29.971  1.00  0.00     0.167 HD
ATOM     37  C   UNL A   1      44.012  28.649  29.657  1.00  0.00     0.074 A 
ATOM     38  C   UNL A   1      44.029  27.226  29.932  1.00  0.00     0.031 C 
ATOM     39  C   UNL A   1      44.238  29.191  28.437  1.00  0.00     0.034 A 
BRANCH  26  40
ATOM     40  C   UNL A   1      43.386  35.283  28.113  1.00  0.00     0.023 A 
ATOM     41  C   UNL A   1      42.140  35.750  27.653  1.00  0.00     0.012 A 
ATOM     42  C   UNL A   1      44.550  36.034  27.847  1.00  0.00     0.148 A 
ATOM     43  C   UNL A   1      42.053  36.944  26.935  1.00  0.00     0.002 A 
ATOM     44  C   UNL A   1      44.450  37.241  27.167  1.00  0.00     0.091 A 
ATOM     45  F   UNL A   1      45.726  35.560  28.280  1.00  0.00    -0.205 F 
ATOM     46  C   UNL A   1      43.203  37.693  26.704  1.00  0.00     0.022 A 
BRANCH  44  47
ATOM     47  S   UNL A   1      45.858  38.321  26.892  1.00  0.00     0.127 S 
ATOM     48  O   UNL A   1      46.725  37.473  26.074  1.00  0.00    -0.237 OA
ATOM     49  O   UNL A   1      45.247  39.441  26.175  1.00  0.00    -0.237 OA
ATOM     50  O   UNL A   1      46.380  38.650  28.211  1.00  0.00    -0.744 OA
ENDBRANCH  44  47
ENDBRANCH  26  40
BRANCH  27  51
ATOM     51  C   UNL A   1      43.013  27.226  34.035  1.00  0.00     0.023 A 
ATOM     52  C   UNL A   1      41.718  26.800  34.385  1.00  0.00     0.012 A 
ATOM     53  C   UNL A   1      44.126  26.486  34.483  1.00  0.00     0.148 A 
ATOM     54  C   UNL A   1      41.536  25.682  35.200  1.00  0.00     0.002 A 
ATOM     55  C   UNL A   1      43.934  25.337  35.240  1.00  0.00     0.091 A 
ATOM     56  F   UNL A   1      45.352  26.914  34.151  1.00  0.00    -0.205 F 
ATOM     57  C   UNL A   1      42.642  24.946  35.619  1.00  0.00     0.022 A 
BRANCH  55  58
ATOM     58  S   UNL A   1      45.295  24.255  35.691  1.00  0.00     0.127 S 
ATOM     59  O   UNL A   1      45.871  23.941  34.385  1.00  0.00    -0.237 OA
ATOM     60  O   UNL A   1      46.114  25.130  36.532  1.00  0.00    -0.237 OA
ATOM     61  O   UNL A   1      44.687  23.141  36.405  1.00  0.00    -0.744 OA
ENDBRANCH  55  58
ENDBRANCH  27  51
BRANCH  39  62
ATOM     62  C   UNL A   1      44.537  28.243  27.308  1.00  0.00     0.023 A 
ATOM     63  C   UNL A   1      43.476  27.688  26.566  1.00  0.00     0.012 A 
ATOM     64  C   UNL A   1      45.866  27.957  26.941  1.00  0.00     0.148 A 
ATOM     65  C   UNL A   1      43.733  26.837  25.493  1.00  0.00     0.002 A 
ATOM     66  C   UNL A   1      46.115  27.151  25.839  1.00  0.00     0.091 A 
ATOM     67  F   UNL A   1      46.858  28.484  27.673  1.00  0.00    -0.205 F 
ATOM     68  C   UNL A   1      45.051  26.579  25.122  1.00  0.00     0.022 A 
BRANCH  66  69
ATOM     69  S   UNL A   1      47.774  26.836  25.227  1.00  0.00     0.127 S 
ATOM     70  O   UNL A   1      48.409  26.224  26.393  1.00  0.00    -0.237 OA
ATOM     71  O   UNL A   1      47.522  25.918  24.116  1.00  0.00    -0.237 OA
ATOM     72  O   UNL A   1      48.314  28.131  24.837  1.00  0.00    -0.744 OA
ENDBRANCH  66  69
ENDBRANCH  39  62
ENDBRANCH  13  14
ENDBRANCH   6   8
ENDBRANCH   3   4
ENDBRANCH   2   3
ENDBRANCH   1   2
BRANCH   1  73
ATOM     73  C   UNL A   1      38.301  32.414  36.046  1.00  0.00     0.116 C 
BRANCH  73  74
ATOM     74  N   UNL A   1      37.226  32.842  35.175  1.00  0.00    -0.356 N 
ATOM     75  C   UNL A   1      37.422  33.647  34.103  1.00  0.00     0.223 C 
ATOM     76  H   UNL A   1      36.312  32.534  35.371  1.00  0.00     0.163 HD
ATOM     77  O   UNL A   1      36.904  34.767  34.143  1.00  0.00    -0.275 OA
BRANCH  75  78
ATOM     78  C   UNL A   1      38.329  33.202  32.939  1.00  0.00     0.091 C 
ATOM     79  C   UNL A   1      38.401  34.420  31.981  1.00  0.00     0.014 C 
ATOM     80  C   UNL A   1      38.232  31.750  32.272  1.00  0.00     0.091 C 
ATOM     81  C   UNL A   1      39.379  34.282  30.836  1.00  0.00     0.001 C 
ATOM     82  C   UNL A   1      39.426  31.789  31.239  1.00  0.00     0.014 C 
ATOM     83  C   UNL A   1      39.266  32.919  30.194  1.00  0.00     0.001 C 
BRANCH  80  84
ATOM     84  C   UNL A   1      37.121  31.018  31.386  1.00  0.00     0.228 C 
ATOM     85  O   UNL A   1      37.283  29.840  31.021  1.00  0.00    -0.274 OA
ATOM     86  N   UNL A   1      35.820  31.373  31.208  1.00  0.00    -0.325 N 
ATOM     87  H   UNL A   1      35.253  30.590  31.025  1.00  0.00     0.169 HD
BRANCH  86  88
ATOM     88  C   UNL A   1      35.076  32.553  31.216  1.00  0.00     0.054 A 
ATOM     89  C   UNL A   1      34.402  32.848  32.418  1.00  0.00     0.027 A 
ATOM     90  C   UNL A   1      34.893  33.401  30.128  1.00  0.00     0.063 A 
ATOM     91  C   UNL A   1      33.806  34.094  32.616  1.00  0.00     0.002 A 
ATOM     92  C   UNL A   1      34.375  34.689  30.356  1.00  0.00     0.016 A 
ATOM     93  C   UNL A   1      33.869  35.047  31.608  1.00  0.00     0.001 A 
BRANCH  90  94
ATOM     94  C   UNL A   1      35.013  32.962  28.708  1.00  0.00     0.256 C 
ATOM     95  O   UNL A   1      36.028  33.261  28.085  1.00  0.00    -0.269 OA
ATOM     96  N   UNL A   1      33.965  32.203  28.163  1.00  0.00    -0.335 N 
ATOM     97  C   UNL A   1      34.375  30.941  27.604  1.00  0.00     0.141 C 
ATOM     98  C   UNL A   1      32.911  32.813  27.336  1.00  0.00     0.141 C 
ATOM     99  C   UNL A   1      33.242  29.952  27.524  1.00  0.00     0.138 C 
ATOM    100  C   UNL A   1      31.749  31.819  26.917  1.00  0.00     0.138 C 
ATOM    101  N   UNL A   1      32.257  30.473  26.599  1.00  0.00    -0.368 N 
BRANCH 101 102
ATOM    102  C   UNL A   1      31.612  29.442  25.936  1.00  0.00     0.037 A 
ATOM    103  C   UNL A   1      31.816  28.093  26.290  1.00  0.00     0.029 A 
ATOM    104  C   UNL A   1      31.095  29.724  24.666  1.00  0.00     0.029 A 
ATOM    105  C   UNL A   1      31.596  27.067  25.366  1.00  0.00     0.041 A 
ATOM    106  C   UNL A   1      30.873  28.702  23.742  1.00  0.00     0.041 A 
ATOM    107  C   UNL A   1      31.144  27.386  24.093  1.00  0.00     0.123 A 
ATOM    108  F   UNL A   1      31.011  26.417  23.178  1.00  0.00    -0.207 F 
ENDBRANCH 101 102
ENDBRANCH  90  94
ENDBRANCH  86  88
ENDBRANCH  80  84
ENDBRANCH  75  78
ENDBRANCH  73  74
ENDBRANCH   1  73
TORSDOF 18
ENDMDL
