MODEL 1
REMARK VINA RESULT:     -11.9      0.000      0.000
REMARK SMILES O=C(NCCCCNC(=O)c1ccc(S(=O)(=O)NCC[NH+]2CCCC2)c(F)c1)c1ccc(-c2c3nc(c(-c4cccc(S(=O)(=O)[O-])c4F)c4ccc([nH]4)c(-c4cccc(S(=O)(=O)[O-])c4F)c4nc(c(-c5cccc(S(=O)(=O)[O-])c5F)c5ccc2[nH]5)C=C4)C=C3)cc1
REMARK SMILES IDX 6 1 5 2 4 3 3 4 1 5 2 6 29 8 30 9 91 10 31 11 90 12 32 13
REMARK SMILES IDX 33 14 34 15 84 16 35 17 89 18 83 19 85 20 36 21 88 22 82 23
REMARK SMILES IDX 81 24 37 26 69 27 49 28 68 29 50 30 53 31 67 32 86 33 51 34
REMARK SMILES IDX 52 35 66 37 87 38 54 39 38 40 39 41 47 42 40 43 42 44 48 45
REMARK SMILES IDX 41 46 43 47 44 48 45 49 46 50 70 51 71 52 79 53 72 54 74 55
REMARK SMILES IDX 80 56 73 57 75 58 76 59 77 60 78 61 55 62 56 63 64 64 57 65
REMARK SMILES IDX 59 66 65 67 58 68 60 69 61 70 62 71 63 72 7 73 8 74 9 75
REMARK SMILES IDX 10 77 11 78 12 79 28 80 13 81 26 82 14 83 27 84 15 85 16 86
REMARK SMILES IDX 17 87 18 88 19 90 20 91 21 92 22 93 25 94 23 96 24 97
REMARK H PARENT 3 7 85 25 53 36 8 76 18 89 21 95
REMARK Flexibility Score: inf
ROOT
ATOM      1  C   UNL A   1      36.525  20.409  24.959  1.00  0.00     0.023 C 
ENDROOT
BRANCH   1   2
ATOM      2  C   UNL A   1      37.883  19.728  24.819  1.00  0.00     0.023 C 
BRANCH   2   3
ATOM      3  C   UNL A   1      38.970  20.222  25.764  1.00  0.00     0.116 C 
BRANCH   3   4
ATOM      4  N   UNL A   1      40.111  19.325  25.836  1.00  0.00    -0.352 N 
ATOM      5  O   UNL A   1      42.281  18.744  25.952  1.00  0.00    -0.269 OA
ATOM      6  C   UNL A   1      41.434  19.625  26.064  1.00  0.00     0.251 C 
ATOM      7  H   UNL A   1      39.908  18.371  25.702  1.00  0.00     0.163 HD
BRANCH   6   8
ATOM      8  C   UNL A   1      41.831  21.008  26.410  1.00  0.00     0.039 A 
ATOM      9  C   UNL A   1      42.005  21.392  27.743  1.00  0.00     0.014 A 
ATOM     10  C   UNL A   1      42.047  21.930  25.382  1.00  0.00     0.014 A 
ATOM     11  C   UNL A   1      42.268  22.723  28.051  1.00  0.00     0.010 A 
ATOM     12  C   UNL A   1      42.385  23.251  25.691  1.00  0.00     0.010 A 
ATOM     13  C   UNL A   1      42.476  23.663  27.028  1.00  0.00    -0.014 A 
BRANCH  13  14
ATOM     14  C   UNL A   1      42.893  25.042  27.384  1.00  0.00     0.031 A 
ATOM     15  C   UNL A   1      44.238  25.584  26.999  1.00  0.00     0.074 A 
ATOM     16  C   UNL A   1      42.020  25.814  28.060  1.00  0.00     0.049 A 
ATOM     17  N   UNL A   1      44.722  26.784  27.192  1.00  0.00    -0.248 NA
ATOM     18  C   UNL A   1      45.163  24.667  26.314  1.00  0.00     0.031 C 
ATOM     19  C   UNL A   1      40.701  25.376  28.519  1.00  0.00     0.029 A 
ATOM     20  N   UNL A   1      42.099  27.120  28.470  1.00  0.00    -0.354 N 
ATOM     21  C   UNL A   1      46.013  26.764  26.679  1.00  0.00     0.074 A 
ATOM     22  C   UNL A   1      46.242  25.426  26.173  1.00  0.00     0.031 C 
ATOM     23  C   UNL A   1      40.076  26.405  29.106  1.00  0.00     0.029 A 
ATOM     24  C   UNL A   1      40.965  27.561  29.109  1.00  0.00     0.049 A 
ATOM     25  H   UNL A   1      42.890  27.686  28.320  1.00  0.00     0.167 HD
ATOM     26  C   UNL A   1      46.913  27.775  26.616  1.00  0.00     0.034 A 
ATOM     27  C   UNL A   1      40.667  28.764  29.639  1.00  0.00     0.034 A 
ATOM     28  C   UNL A   1      46.666  29.109  27.097  1.00  0.00     0.049 A 
ATOM     29  C   UNL A   1      41.672  29.872  29.535  1.00  0.00     0.074 A 
ATOM     30  C   UNL A   1      47.503  30.210  27.047  1.00  0.00     0.029 A 
ATOM     31  N   UNL A   1      45.495  29.527  27.714  1.00  0.00    -0.354 N 
ATOM     32  N   UNL A   1      42.848  29.862  28.956  1.00  0.00    -0.248 NA
ATOM     33  C   UNL A   1      41.305  31.163  30.133  1.00  0.00     0.031 C 
ATOM     34  C   UNL A   1      46.842  31.291  27.640  1.00  0.00     0.029 A 
ATOM     35  C   UNL A   1      45.588  30.867  28.050  1.00  0.00     0.049 A 
ATOM     36  H   UNL A   1      44.713  28.955  27.887  1.00  0.00     0.167 HD
ATOM     37  C   UNL A   1      43.359  31.143  29.105  1.00  0.00     0.074 A 
ATOM     38  C   UNL A   1      42.351  31.913  29.809  1.00  0.00     0.031 C 
ATOM     39  C   UNL A   1      44.561  31.632  28.712  1.00  0.00     0.034 A 
BRANCH  26  40
ATOM     40  C   UNL A   1      48.236  27.497  25.952  1.00  0.00     0.023 A 
ATOM     41  C   UNL A   1      49.321  27.062  26.739  1.00  0.00     0.012 A 
ATOM     42  C   UNL A   1      48.388  27.584  24.555  1.00  0.00     0.148 A 
ATOM     43  C   UNL A   1      50.542  26.738  26.149  1.00  0.00     0.002 A 
ATOM     44  C   UNL A   1      49.599  27.225  23.969  1.00  0.00     0.091 A 
ATOM     45  F   UNL A   1      47.355  28.024  23.822  1.00  0.00    -0.205 F 
ATOM     46  C   UNL A   1      50.679  26.808  24.765  1.00  0.00     0.022 A 
BRANCH  44  47
ATOM     47  S   UNL A   1      49.834  27.219  22.188  1.00  0.00     0.127 S 
ATOM     48  O   UNL A   1      49.638  28.629  21.858  1.00  0.00    -0.237 OA
ATOM     49  O   UNL A   1      51.214  26.749  22.051  1.00  0.00    -0.237 OA
ATOM     50  O   UNL A   1      48.833  26.298  21.665  1.00  0.00    -0.744 OA
ENDBRANCH  44  47
ENDBRANCH  26  40
BRANCH  27  51
ATOM     51  C   UNL A   1      39.314  28.973  30.224  1.00  0.00     0.023 A 
ATOM     52  C   UNL A   1      39.023  28.428  31.488  1.00  0.00     0.012 A 
ATOM     53  C   UNL A   1      38.372  29.817  29.603  1.00  0.00     0.148 A 
ATOM     54  C   UNL A   1      37.819  28.723  32.127  1.00  0.00     0.002 A 
ATOM     55  C   UNL A   1      37.203  30.156  30.271  1.00  0.00     0.091 A 
ATOM     56  F   UNL A   1      38.668  30.316  28.394  1.00  0.00    -0.205 F 
ATOM     57  C   UNL A   1      36.919  29.601  31.529  1.00  0.00     0.022 A 
BRANCH  55  58
ATOM     58  S   UNL A   1      36.066  31.404  29.654  1.00  0.00     0.127 S 
ATOM     59  O   UNL A   1      35.239  31.663  30.830  1.00  0.00    -0.237 OA
ATOM     60  O   UNL A   1      36.979  32.489  29.291  1.00  0.00    -0.237 OA
ATOM     61  O   UNL A   1      35.382  30.792  28.524  1.00  0.00    -0.744 OA
ENDBRANCH  55  58
ENDBRANCH  27  51
BRANCH  39  62
ATOM     62  C   UNL A   1      44.867  33.070  29.031  1.00  0.00     0.023 A 
ATOM     63  C   UNL A   1      45.428  33.394  30.282  1.00  0.00     0.012 A 
ATOM     64  C   UNL A   1      44.694  34.080  28.066  1.00  0.00     0.148 A 
ATOM     65  C   UNL A   1      45.796  34.706  30.574  1.00  0.00     0.002 A 
ATOM     66  C   UNL A   1      45.099  35.379  28.349  1.00  0.00     0.091 A 
ATOM     67  F   UNL A   1      44.137  33.754  26.890  1.00  0.00    -0.205 F 
ATOM     68  C   UNL A   1      45.645  35.695  29.605  1.00  0.00     0.022 A 
BRANCH  66  69
ATOM     69  S   UNL A   1      45.020  36.693  27.127  1.00  0.00     0.127 S 
ATOM     70  O   UNL A   1      45.503  37.841  27.892  1.00  0.00    -0.237 OA
ATOM     71  O   UNL A   1      45.940  36.220  26.092  1.00  0.00    -0.237 OA
ATOM     72  O   UNL A   1      43.626  36.757  26.706  1.00  0.00    -0.744 OA
ENDBRANCH  66  69
ENDBRANCH  39  62
ENDBRANCH  13  14
ENDBRANCH   6   8
ENDBRANCH   3   4
ENDBRANCH   2   3
ENDBRANCH   1   2
BRANCH   1  73
ATOM     73  C   UNL A   1      36.525  21.750  25.689  1.00  0.00     0.116 C 
BRANCH  73  74
ATOM     74  N   UNL A   1      35.356  21.947  26.535  1.00  0.00    -0.352 N 
ATOM     75  C   UNL A   1      34.245  22.734  26.350  1.00  0.00     0.251 C 
ATOM     76  H   UNL A   1      35.363  21.434  27.376  1.00  0.00     0.163 HD
ATOM     77  O   UNL A   1      33.411  22.846  27.242  1.00  0.00    -0.269 OA
BRANCH  75  78
ATOM     78  C   UNL A   1      34.067  23.499  25.099  1.00  0.00     0.042 A 
ATOM     79  C   UNL A   1      34.416  24.849  25.008  1.00  0.00     0.015 A 
ATOM     80  C   UNL A   1      33.528  22.839  23.990  1.00  0.00     0.054 A 
ATOM     81  C   UNL A   1      34.067  25.573  23.869  1.00  0.00     0.026 A 
ATOM     82  C   UNL A   1      33.223  23.558  22.838  1.00  0.00     0.144 A 
ATOM     83  C   UNL A   1      33.429  24.930  22.798  1.00  0.00     0.118 A 
ATOM     84  F   UNL A   1      32.689  22.886  21.809  1.00  0.00    -0.205 F 
BRANCH  83  85
ATOM     85  S   UNL A   1      32.756  25.967  21.541  1.00  0.00     0.243 S 
ATOM     86  O   UNL A   1      33.112  25.359  20.279  1.00  0.00    -0.207 OA
ATOM     87  O   UNL A   1      31.372  26.201  21.895  1.00  0.00    -0.207 OA
BRANCH  85  88
ATOM     88  N   UNL A   1      33.511  27.451  21.624  1.00  0.00    -0.205 NA
ATOM     89  H   UNL A   1      33.571  27.795  20.667  1.00  0.00     0.141 HD
BRANCH  88  90
ATOM     90  C   UNL A   1      32.972  28.556  22.423  1.00  0.00     0.160 C 
BRANCH  90  91
ATOM     91  C   UNL A   1      33.812  28.947  23.649  1.00  0.00     0.278 C 
BRANCH  91  92
ATOM     92  N   UNL A   1      33.150  29.659  24.758  1.00  0.00    -0.334 N 
ATOM     93  C   UNL A   1      33.745  29.235  26.041  1.00  0.00     0.262 C 
ATOM     94  C   UNL A   1      31.712  29.408  24.901  1.00  0.00     0.262 C 
ATOM     95  H   UNL A   1      33.284  30.644  24.532  1.00  0.00     0.348 HD
ATOM     96  C   UNL A   1      32.928  28.026  26.461  1.00  0.00     0.067 C 
ATOM     97  C   UNL A   1      31.526  28.382  26.011  1.00  0.00     0.067 C 
ENDBRANCH  91  92
ENDBRANCH  90  91
ENDBRANCH  88  90
ENDBRANCH  85  88
ENDBRANCH  83  85
ENDBRANCH  75  78
ENDBRANCH  73  74
ENDBRANCH   1  73
TORSDOF 19
ENDMDL
MODEL 2
REMARK VINA RESULT:     -11.6      5.193      8.407
REMARK SMILES O=C(NCCCCNC(=O)c1ccc(S(=O)(=O)NCC[NH+]2CCCC2)c(F)c1)c1ccc(-c2c3nc(c(-c4cccc(S(=O)(=O)[O-])c4F)c4ccc([nH]4)c(-c4cccc(S(=O)(=O)[O-])c4F)c4nc(c(-c5cccc(S(=O)(=O)[O-])c5F)c5ccc2[nH]5)C=C4)C=C3)cc1
REMARK SMILES IDX 6 1 5 2 4 3 3 4 1 5 2 6 29 8 30 9 91 10 31 11 90 12 32 13
REMARK SMILES IDX 33 14 34 15 84 16 35 17 89 18 83 19 85 20 36 21 88 22 82 23
REMARK SMILES IDX 81 24 37 26 69 27 49 28 68 29 50 30 53 31 67 32 86 33 51 34
REMARK SMILES IDX 52 35 66 37 87 38 54 39 38 40 39 41 47 42 40 43 42 44 48 45
REMARK SMILES IDX 41 46 43 47 44 48 45 49 46 50 70 51 71 52 79 53 72 54 74 55
REMARK SMILES IDX 80 56 73 57 75 58 76 59 77 60 78 61 55 62 56 63 64 64 57 65
REMARK SMILES IDX 59 66 65 67 58 68 60 69 61 70 62 71 63 72 7 73 8 74 9 75
REMARK SMILES IDX 10 77 11 78 12 79 28 80 13 81 26 82 14 83 27 84 15 85 16 86
REMARK SMILES IDX 17 87 18 88 19 90 20 91 21 92 22 93 25 94 23 96 24 97
REMARK H PARENT 3 7 85 25 53 36 8 76 18 89 21 95
REMARK Flexibility Score: inf
ROOT
ATOM      1  C   UNL A   1      31.603  29.235  24.050  1.00  0.00     0.023 C 
ENDROOT
BRANCH   1   2
ATOM      2  C   UNL A   1      33.101  29.201  24.338  1.00  0.00     0.023 C 
BRANCH   2   3
ATOM      3  C   UNL A   1      33.500  29.448  25.787  1.00  0.00     0.116 C 
BRANCH   3   4
ATOM      4  N   UNL A   1      33.120  30.767  26.263  1.00  0.00    -0.352 N 
ATOM      5  O   UNL A   1      33.140  32.564  27.617  1.00  0.00    -0.269 OA
ATOM      6  C   UNL A   1      33.688  31.524  27.262  1.00  0.00     0.251 C 
ATOM      7  H   UNL A   1      32.348  31.175  25.808  1.00  0.00     0.163 HD
BRANCH   6   8
ATOM      8  C   UNL A   1      34.932  31.068  27.920  1.00  0.00     0.039 A 
ATOM      9  C   UNL A   1      36.060  31.893  27.973  1.00  0.00     0.014 A 
ATOM     10  C   UNL A   1      34.965  29.799  28.505  1.00  0.00     0.014 A 
ATOM     11  C   UNL A   1      37.252  31.403  28.497  1.00  0.00     0.010 A 
ATOM     12  C   UNL A   1      36.143  29.336  29.098  1.00  0.00     0.010 A 
ATOM     13  C   UNL A   1      37.302  30.125  29.078  1.00  0.00    -0.014 A 
BRANCH  13  14
ATOM     14  C   UNL A   1      38.548  29.683  29.753  1.00  0.00     0.031 A 
ATOM     15  C   UNL A   1      39.491  28.709  29.111  1.00  0.00     0.074 A 
ATOM     16  C   UNL A   1      38.825  30.193  30.969  1.00  0.00     0.049 A 
ATOM     17  N   UNL A   1      40.642  28.272  29.554  1.00  0.00    -0.248 NA
ATOM     18  C   UNL A   1      39.097  28.147  27.809  1.00  0.00     0.031 C 
ATOM     19  C   UNL A   1      37.958  31.117  31.703  1.00  0.00     0.029 A 
ATOM     20  N   UNL A   1      39.905  30.021  31.795  1.00  0.00    -0.354 N 
ATOM     21  C   UNL A   1      41.100  27.368  28.604  1.00  0.00     0.074 A 
ATOM     22  C   UNL A   1      40.096  27.310  27.562  1.00  0.00     0.031 C 
ATOM     23  C   UNL A   1      38.558  31.466  32.848  1.00  0.00     0.029 A 
ATOM     24  C   UNL A   1      39.829  30.756  32.954  1.00  0.00     0.049 A 
ATOM     25  H   UNL A   1      40.662  29.429  31.579  1.00  0.00     0.167 HD
ATOM     26  C   UNL A   1      42.261  26.669  28.593  1.00  0.00     0.034 A 
ATOM     27  C   UNL A   1      40.685  30.855  33.990  1.00  0.00     0.034 A 
ATOM     28  C   UNL A   1      43.266  26.754  29.621  1.00  0.00     0.049 A 
ATOM     29  C   UNL A   1      41.974  30.089  33.942  1.00  0.00     0.074 A 
ATOM     30  C   UNL A   1      44.490  26.111  29.681  1.00  0.00     0.029 A 
ATOM     31  N   UNL A   1      43.167  27.531  30.766  1.00  0.00    -0.354 N 
ATOM     32  N   UNL A   1      42.434  29.317  32.987  1.00  0.00    -0.248 NA
ATOM     33  C   UNL A   1      42.872  30.222  35.097  1.00  0.00     0.031 C 
ATOM     34  C   UNL A   1      45.127  26.492  30.867  1.00  0.00     0.029 A 
ATOM     35  C   UNL A   1      44.306  27.383  31.540  1.00  0.00     0.049 A 
ATOM     36  H   UNL A   1      42.400  28.104  30.995  1.00  0.00     0.167 HD
ATOM     37  C   UNL A   1      43.681  28.882  33.416  1.00  0.00     0.074 A 
ATOM     38  C   UNL A   1      43.914  29.498  34.708  1.00  0.00     0.031 C 
ATOM     39  C   UNL A   1      44.543  28.035  32.803  1.00  0.00     0.034 A 
BRANCH  26  40
ATOM     40  C   UNL A   1      42.540  25.789  27.403  1.00  0.00     0.023 A 
ATOM     41  C   UNL A   1      43.257  26.319  26.311  1.00  0.00     0.012 A 
ATOM     42  C   UNL A   1      42.173  24.429  27.394  1.00  0.00     0.148 A 
ATOM     43  C   UNL A   1      43.585  25.515  25.219  1.00  0.00     0.002 A 
ATOM     44  C   UNL A   1      42.535  23.625  26.316  1.00  0.00     0.091 A 
ATOM     45  F   UNL A   1      41.470  23.947  28.427  1.00  0.00    -0.205 F 
ATOM     46  C   UNL A   1      43.235  24.168  25.226  1.00  0.00     0.022 A 
BRANCH  44  47
ATOM     47  S   UNL A   1      42.185  21.863  26.281  1.00  0.00     0.127 S 
ATOM     48  O   UNL A   1      42.594  21.452  27.622  1.00  0.00    -0.237 OA
ATOM     49  O   UNL A   1      40.740  21.831  26.050  1.00  0.00    -0.237 OA
ATOM     50  O   UNL A   1      42.979  21.329  25.182  1.00  0.00    -0.744 OA
ENDBRANCH  44  47
ENDBRANCH  26  40
BRANCH  27  51
ATOM     51  C   UNL A   1      40.362  31.793  35.099  1.00  0.00     0.023 A 
ATOM     52  C   UNL A   1      40.875  33.102  35.060  1.00  0.00     0.012 A 
ATOM     53  C   UNL A   1      39.447  31.441  36.112  1.00  0.00     0.148 A 
ATOM     54  C   UNL A   1      40.479  34.047  36.006  1.00  0.00     0.002 A 
ATOM     55  C   UNL A   1      39.010  32.403  37.013  1.00  0.00     0.091 A 
ATOM     56  F   UNL A   1      38.980  30.184  36.134  1.00  0.00    -0.205 F 
ATOM     57  C   UNL A   1      39.534  33.705  36.969  1.00  0.00     0.022 A 
BRANCH  55  58
ATOM     58  S   UNL A   1      37.676  32.098  38.179  1.00  0.00     0.127 S 
ATOM     59  O   UNL A   1      37.355  30.700  37.906  1.00  0.00    -0.237 OA
ATOM     60  O   UNL A   1      38.338  32.341  39.462  1.00  0.00    -0.237 OA
ATOM     61  O   UNL A   1      36.636  33.062  37.849  1.00  0.00    -0.744 OA
ENDBRANCH  55  58
ENDBRANCH  27  51
BRANCH  39  62
ATOM     62  C   UNL A   1      45.828  27.713  33.517  1.00  0.00     0.023 A 
ATOM     63  C   UNL A   1      46.949  28.546  33.328  1.00  0.00     0.012 A 
ATOM     64  C   UNL A   1      45.899  26.654  34.442  1.00  0.00     0.148 A 
ATOM     65  C   UNL A   1      48.126  28.319  34.038  1.00  0.00     0.002 A 
ATOM     66  C   UNL A   1      47.064  26.457  35.174  1.00  0.00     0.091 A 
ATOM     67  F   UNL A   1      44.829  25.860  34.589  1.00  0.00    -0.205 F 
ATOM     68  C   UNL A   1      48.181  27.285  34.969  1.00  0.00     0.022 A 
BRANCH  66  69
ATOM     69  S   UNL A   1      47.187  25.204  36.456  1.00  0.00     0.127 S 
ATOM     70  O   UNL A   1      46.144  25.627  37.388  1.00  0.00    -0.237 OA
ATOM     71  O   UNL A   1      46.888  23.972  35.723  1.00  0.00    -0.237 OA
ATOM     72  O   UNL A   1      48.552  25.286  36.958  1.00  0.00    -0.744 OA
ENDBRANCH  66  69
ENDBRANCH  39  62
ENDBRANCH  13  14
ENDBRANCH   6   8
ENDBRANCH   3   4
ENDBRANCH   2   3
ENDBRANCH   1   2
BRANCH   1  73
ATOM     73  C   UNL A   1      31.088  28.181  23.074  1.00  0.00     0.116 C 
BRANCH  73  74
ATOM     74  N   UNL A   1      32.096  27.733  22.123  1.00  0.00    -0.352 N 
ATOM     75  C   UNL A   1      32.837  26.576  22.090  1.00  0.00     0.251 C 
ATOM     76  H   UNL A   1      32.277  28.360  21.385  1.00  0.00     0.163 HD
ATOM     77  O   UNL A   1      33.724  26.433  21.255  1.00  0.00    -0.269 OA
BRANCH  75  78
ATOM     78  C   UNL A   1      32.614  25.513  23.092  1.00  0.00     0.042 A 
ATOM     79  C   UNL A   1      31.746  24.446  22.850  1.00  0.00     0.015 A 
ATOM     80  C   UNL A   1      33.295  25.600  24.311  1.00  0.00     0.054 A 
ATOM     81  C   UNL A   1      31.432  23.567  23.885  1.00  0.00     0.026 A 
ATOM     82  C   UNL A   1      33.011  24.692  25.327  1.00  0.00     0.144 A 
ATOM     83  C   UNL A   1      32.037  23.720  25.142  1.00  0.00     0.118 A 
ATOM     84  F   UNL A   1      33.673  24.827  26.483  1.00  0.00    -0.205 F 
BRANCH  83  85
ATOM     85  S   UNL A   1      31.364  22.769  26.464  1.00  0.00     0.243 S 
ATOM     86  O   UNL A   1      30.786  23.714  27.392  1.00  0.00    -0.207 OA
ATOM     87  O   UNL A   1      30.560  21.729  25.857  1.00  0.00    -0.207 OA
BRANCH  85  88
ATOM     88  N   UNL A   1      32.616  21.990  27.242  1.00  0.00    -0.205 NA
ATOM     89  H   UNL A   1      32.187  21.398  27.952  1.00  0.00     0.141 HD
BRANCH  88  90
ATOM     90  C   UNL A   1      33.571  21.140  26.524  1.00  0.00     0.160 C 
BRANCH  90  91
ATOM     91  C   UNL A   1      35.032  21.615  26.571  1.00  0.00     0.278 C 
BRANCH  91  92
ATOM     92  N   UNL A   1      35.872  21.428  25.373  1.00  0.00    -0.334 N 
ATOM     93  C   UNL A   1      37.208  22.010  25.612  1.00  0.00     0.262 C 
ATOM     94  C   UNL A   1      35.384  22.075  24.151  1.00  0.00     0.262 C 
ATOM     95  H   UNL A   1      35.868  20.418  25.226  1.00  0.00     0.348 HD
ATOM     96  C   UNL A   1      37.078  23.457  25.172  1.00  0.00     0.067 C 
ATOM     97  C   UNL A   1      36.159  23.374  23.970  1.00  0.00     0.067 C 
ENDBRANCH  91  92
ENDBRANCH  90  91
ENDBRANCH  88  90
ENDBRANCH  85  88
ENDBRANCH  83  85
ENDBRANCH  75  78
ENDBRANCH  73  74
ENDBRANCH   1  73
TORSDOF 19
ENDMDL
MODEL 3
REMARK VINA RESULT:     -11.6      5.553     11.411
REMARK SMILES O=C(NCCCCNC(=O)c1ccc(S(=O)(=O)NCC[NH+]2CCCC2)c(F)c1)c1ccc(-c2c3nc(c(-c4cccc(S(=O)(=O)[O-])c4F)c4ccc([nH]4)c(-c4cccc(S(=O)(=O)[O-])c4F)c4nc(c(-c5cccc(S(=O)(=O)[O-])c5F)c5ccc2[nH]5)C=C4)C=C3)cc1
REMARK SMILES IDX 6 1 5 2 4 3 3 4 1 5 2 6 29 8 30 9 91 10 31 11 90 12 32 13
REMARK SMILES IDX 33 14 34 15 84 16 35 17 89 18 83 19 85 20 36 21 88 22 82 23
REMARK SMILES IDX 81 24 37 26 69 27 49 28 68 29 50 30 53 31 67 32 86 33 51 34
REMARK SMILES IDX 52 35 66 37 87 38 54 39 38 40 39 41 47 42 40 43 42 44 48 45
REMARK SMILES IDX 41 46 43 47 44 48 45 49 46 50 70 51 71 52 79 53 72 54 74 55
REMARK SMILES IDX 80 56 73 57 75 58 76 59 77 60 78 61 55 62 56 63 64 64 57 65
REMARK SMILES IDX 59 66 65 67 58 68 60 69 61 70 62 71 63 72 7 73 8 74 9 75
REMARK SMILES IDX 10 77 11 78 12 79 28 80 13 81 26 82 14 83 27 84 15 85 16 86
REMARK SMILES IDX 17 87 18 88 19 90 20 91 21 92 22 93 25 94 23 96 24 97
REMARK H PARENT 3 7 85 25 53 36 8 76 18 89 21 95
REMARK Flexibility Score: inf
ROOT
ATOM      1  C   UNL A   1      31.466  30.069  26.219  1.00  0.00     0.023 C 
ENDROOT
BRANCH   1   2
ATOM      2  C   UNL A   1      31.389  31.574  26.459  1.00  0.00     0.023 C 
BRANCH   2   3
ATOM      3  C   UNL A   1      32.694  32.245  26.867  1.00  0.00     0.116 C 
BRANCH   3   4
ATOM      4  N   UNL A   1      32.505  33.593  27.374  1.00  0.00    -0.352 N 
ATOM      5  O   UNL A   1      32.794  35.342  28.759  1.00  0.00    -0.269 OA
ATOM      6  C   UNL A   1      33.188  34.246  28.374  1.00  0.00     0.251 C 
ATOM      7  H   UNL A   1      31.789  34.112  26.941  1.00  0.00     0.163 HD
BRANCH   6   8
ATOM      8  C   UNL A   1      34.370  33.611  29.000  1.00  0.00     0.039 A 
ATOM      9  C   UNL A   1      34.233  32.475  29.804  1.00  0.00     0.014 A 
ATOM     10  C   UNL A   1      35.636  34.154  28.766  1.00  0.00     0.014 A 
ATOM     11  C   UNL A   1      35.341  31.962  30.472  1.00  0.00     0.010 A 
ATOM     12  C   UNL A   1      36.760  33.592  29.379  1.00  0.00     0.010 A 
ATOM     13  C   UNL A   1      36.618  32.506  30.254  1.00  0.00    -0.014 A 
BRANCH  13  14
ATOM     14  C   UNL A   1      37.799  31.851  30.869  1.00  0.00     0.031 A 
ATOM     15  C   UNL A   1      38.211  32.134  32.285  1.00  0.00     0.074 A 
ATOM     16  C   UNL A   1      38.498  30.974  30.123  1.00  0.00     0.049 A 
ATOM     17  N   UNL A   1      39.185  31.600  32.975  1.00  0.00    -0.248 NA
ATOM     18  C   UNL A   1      37.438  33.146  33.022  1.00  0.00     0.031 C 
ATOM     19  C   UNL A   1      38.210  30.654  28.724  1.00  0.00     0.029 A 
ATOM     20  N   UNL A   1      39.579  30.189  30.429  1.00  0.00    -0.354 N 
ATOM     21  C   UNL A   1      39.162  32.224  34.216  1.00  0.00     0.074 A 
ATOM     22  C   UNL A   1      38.081  33.187  34.181  1.00  0.00     0.031 C 
ATOM     23  C   UNL A   1      39.061  29.708  28.306  1.00  0.00     0.029 A 
ATOM     24  C   UNL A   1      39.985  29.388  29.389  1.00  0.00     0.049 A 
ATOM     25  H   UNL A   1      40.020  30.196  31.309  1.00  0.00     0.167 HD
ATOM     26  C   UNL A   1      39.956  31.996  35.290  1.00  0.00     0.034 A 
ATOM     27  C   UNL A   1      40.986  28.491  29.309  1.00  0.00     0.034 A 
ATOM     28  C   UNL A   1      41.011  31.017  35.324  1.00  0.00     0.049 A 
ATOM     29  C   UNL A   1      41.835  28.241  30.520  1.00  0.00     0.074 A 
ATOM     30  C   UNL A   1      41.847  30.691  36.378  1.00  0.00     0.029 A 
ATOM     31  N   UNL A   1      41.375  30.205  34.260  1.00  0.00    -0.354 N 
ATOM     32  N   UNL A   1      41.734  28.769  31.716  1.00  0.00    -0.248 NA
ATOM     33  C   UNL A   1      42.920  27.260  30.383  1.00  0.00     0.031 C 
ATOM     34  C   UNL A   1      42.721  29.686  35.948  1.00  0.00     0.029 A 
ATOM     35  C   UNL A   1      42.423  29.378  34.630  1.00  0.00     0.049 A 
ATOM     36  H   UNL A   1      40.950  30.213  33.372  1.00  0.00     0.167 HD
ATOM     37  C   UNL A   1      42.729  28.176  32.481  1.00  0.00     0.074 A 
ATOM     38  C   UNL A   1      43.408  27.229  31.618  1.00  0.00     0.031 C 
ATOM     39  C   UNL A   1      43.061  28.410  33.774  1.00  0.00     0.034 A 
BRANCH  26  40
ATOM     40  C   UNL A   1      39.681  32.782  36.546  1.00  0.00     0.023 A 
ATOM     41  C   UNL A   1      40.335  34.015  36.742  1.00  0.00     0.012 A 
ATOM     42  C   UNL A   1      38.724  32.351  37.485  1.00  0.00     0.148 A 
ATOM     43  C   UNL A   1      40.059  34.796  37.863  1.00  0.00     0.002 A 
ATOM     44  C   UNL A   1      38.428  33.153  38.584  1.00  0.00     0.091 A 
ATOM     45  F   UNL A   1      38.130  31.165  37.299  1.00  0.00    -0.205 F 
ATOM     46  C   UNL A   1      39.098  34.373  38.778  1.00  0.00     0.022 A 
BRANCH  44  47
ATOM     47  S   UNL A   1      37.152  32.713  39.770  1.00  0.00     0.127 S 
ATOM     48  O   UNL A   1      35.964  32.656  38.921  1.00  0.00    -0.237 OA
ATOM     49  O   UNL A   1      37.610  31.413  40.263  1.00  0.00    -0.237 OA
ATOM     50  O   UNL A   1      37.167  33.772  40.771  1.00  0.00    -0.744 OA
ENDBRANCH  44  47
ENDBRANCH  26  40
BRANCH  27  51
ATOM     51  C   UNL A   1      41.154  27.713  28.051  1.00  0.00     0.023 A 
ATOM     52  C   UNL A   1      41.828  28.302  26.966  1.00  0.00     0.012 A 
ATOM     53  C   UNL A   1      40.774  26.358  27.973  1.00  0.00     0.148 A 
ATOM     54  C   UNL A   1      42.127  27.556  25.827  1.00  0.00     0.002 A 
ATOM     55  C   UNL A   1      41.129  25.604  26.862  1.00  0.00     0.091 A 
ATOM     56  F   UNL A   1      40.123  25.822  29.015  1.00  0.00    -0.205 F 
ATOM     57  C   UNL A   1      41.795  26.205  25.782  1.00  0.00     0.022 A 
BRANCH  55  58
ATOM     58  S   UNL A   1      40.891  23.824  26.787  1.00  0.00     0.127 S 
ATOM     59  O   UNL A   1      41.373  23.403  28.100  1.00  0.00    -0.237 OA
ATOM     60  O   UNL A   1      39.442  23.723  26.599  1.00  0.00    -0.237 OA
ATOM     61  O   UNL A   1      41.677  23.369  25.650  1.00  0.00    -0.744 OA
ENDBRANCH  55  58
ENDBRANCH  27  51
BRANCH  39  62
ATOM     62  C   UNL A   1      44.215  27.634  34.348  1.00  0.00     0.023 A 
ATOM     63  C   UNL A   1      45.511  28.185  34.295  1.00  0.00     0.012 A 
ATOM     64  C   UNL A   1      44.006  26.417  35.023  1.00  0.00     0.148 A 
ATOM     65  C   UNL A   1      46.584  27.526  34.890  1.00  0.00     0.002 A 
ATOM     66  C   UNL A   1      45.075  25.784  35.648  1.00  0.00     0.091 A 
ATOM     67  F   UNL A   1      42.769  25.899  35.042  1.00  0.00    -0.205 F 
ATOM     68  C   UNL A   1      46.366  26.334  35.577  1.00  0.00     0.022 A 
BRANCH  66  69
ATOM     69  S   UNL A   1      44.863  24.293  36.627  1.00  0.00     0.127 S 
ATOM     70  O   UNL A   1      44.297  24.826  37.864  1.00  0.00    -0.237 OA
ATOM     71  O   UNL A   1      43.928  23.511  35.816  1.00  0.00    -0.237 OA
ATOM     72  O   UNL A   1      46.191  23.704  36.742  1.00  0.00    -0.744 OA
ENDBRANCH  66  69
ENDBRANCH  39  62
ENDBRANCH  13  14
ENDBRANCH   6   8
ENDBRANCH   3   4
ENDBRANCH   2   3
ENDBRANCH   1   2
BRANCH   1  73
ATOM     73  C   UNL A   1      32.167  29.634  24.934  1.00  0.00     0.116 C 
BRANCH  73  74
ATOM     74  N   UNL A   1      31.266  29.515  23.797  1.00  0.00    -0.352 N 
ATOM     75  C   UNL A   1      31.050  28.465  22.939  1.00  0.00     0.251 C 
ATOM     76  H   UNL A   1      30.724  30.317  23.613  1.00  0.00     0.163 HD
ATOM     77  O   UNL A   1      30.317  28.603  21.964  1.00  0.00    -0.269 OA
BRANCH  75  78
ATOM     78  C   UNL A   1      31.738  27.174  23.144  1.00  0.00     0.042 A 
ATOM     79  C   UNL A   1      33.048  26.962  22.707  1.00  0.00     0.015 A 
ATOM     80  C   UNL A   1      31.040  26.147  23.788  1.00  0.00     0.054 A 
ATOM     81  C   UNL A   1      33.592  25.680  22.762  1.00  0.00     0.026 A 
ATOM     82  C   UNL A   1      31.607  24.878  23.880  1.00  0.00     0.144 A 
ATOM     83  C   UNL A   1      32.847  24.626  23.313  1.00  0.00     0.118 A 
ATOM     84  F   UNL A   1      30.892  23.922  24.488  1.00  0.00    -0.205 F 
BRANCH  83  85
ATOM     85  S   UNL A   1      33.480  22.999  23.068  1.00  0.00     0.243 S 
ATOM     86  O   UNL A   1      32.495  22.295  22.279  1.00  0.00    -0.207 OA
ATOM     87  O   UNL A   1      34.842  23.152  22.602  1.00  0.00    -0.207 OA
BRANCH  85  88
ATOM     88  N   UNL A   1      33.581  22.245  24.551  1.00  0.00    -0.205 NA
ATOM     89  H   UNL A   1      32.625  22.027  24.826  1.00  0.00     0.141 HD
BRANCH  88  90
ATOM     90  C   UNL A   1      34.354  21.015  24.750  1.00  0.00     0.160 C 
BRANCH  90  91
ATOM     91  C   UNL A   1      33.596  19.711  24.456  1.00  0.00     0.278 C 
BRANCH  91  92
ATOM     92  N   UNL A   1      33.990  18.489  25.182  1.00  0.00    -0.334 N 
ATOM     93  C   UNL A   1      34.939  17.713  24.360  1.00  0.00     0.262 C 
ATOM     94  C   UNL A   1      32.901  17.559  25.492  1.00  0.00     0.262 C 
ATOM     95  H   UNL A   1      34.375  18.839  26.060  1.00  0.00     0.348 HD
ATOM     96  C   UNL A   1      34.061  16.807  23.514  1.00  0.00     0.067 C 
ATOM     97  C   UNL A   1      32.932  16.442  24.456  1.00  0.00     0.067 C 
ENDBRANCH  91  92
ENDBRANCH  90  91
ENDBRANCH  88  90
ENDBRANCH  85  88
ENDBRANCH  83  85
ENDBRANCH  75  78
ENDBRANCH  73  74
ENDBRANCH   1  73
TORSDOF 19
ENDMDL
