MODEL 1
REMARK VINA RESULT:     -11.6      0.000      0.000
REMARK SMILES CC(C)[NH2+][C@]1(C(=O)NCCCCNC(=O)c2ccc(-c3c4nc(c(-c5cccc(S(=O)(=O)[O-])c5F)c5ccc([nH]5)c(-c5cccc(S(=O)(=O)[O-])c5F)c5nc(c(-c6cccc(S(=O)(=O)[O-])c6F)c6ccc3[nH]6)C=C5)C=C4)cc2)CC[C@H]([N@H+](C)C2CCCC2)C1
REMARK SMILES IDX 11 1 10 2 9 3 8 4 6 5 7 6 5 8 79 9 89 10 80 11 81 12 4 13
REMARK SMILES IDX 2 16 1 17 3 18 82 19 83 20 84 22 85 23 88 24 86 25 87 26
REMARK SMILES IDX 12 27 13 28 14 29 15 31 16 32 17 33 78 34 18 35 77 36 19 37
REMARK SMILES IDX 20 38 21 39 71 40 22 41 76 42 70 43 72 44 23 45 75 46 69 47
REMARK SMILES IDX 68 48 24 50 56 51 36 52 55 53 37 54 40 55 54 56 73 57 38 58
REMARK SMILES IDX 39 59 53 61 74 62 41 63 25 64 26 65 34 66 27 67 29 68 35 69
REMARK SMILES IDX 28 70 30 71 31 72 32 73 33 74 57 75 58 76 66 77 59 78 61 79
REMARK SMILES IDX 67 80 60 81 62 82 63 83 64 84 65 85 42 86 43 87 51 88 44 89
REMARK SMILES IDX 46 90 52 91 45 92 47 93 48 94 49 95 50 96
REMARK H PARENT 8 7 4 14 4 15 82 21 13 30 72 49 40 60
REMARK Flexibility Score: inf
ROOT
ATOM      1  C   UNL A   1      31.998  28.811  26.694  1.00  0.00     0.023 C 
ENDROOT
BRANCH   1   2
ATOM      2  C   UNL A   1      32.424  27.354  26.547  1.00  0.00     0.023 C 
BRANCH   2   3
ATOM      3  C   UNL A   1      31.475  26.492  25.707  1.00  0.00     0.116 C 
BRANCH   3   4
ATOM      4  N   UNL A   1      30.857  25.485  26.538  1.00  0.00    -0.351 N 
ATOM      5  C   UNL A   1      31.021  24.137  26.593  1.00  0.00     0.281 C 
ATOM      6  O   UNL A   1      30.131  23.543  27.220  1.00  0.00    -0.268 OA
ATOM      7  H   UNL A   1      30.200  25.839  27.180  1.00  0.00     0.163 HD
BRANCH   5   8
ATOM      8  C   UNL A   1      32.280  23.350  26.012  1.00  0.00     0.181 C 
ATOM      9  C   UNL A   1      33.632  24.049  26.114  1.00  0.00     0.085 C 
ATOM     10  C   UNL A   1      32.444  22.110  26.914  1.00  0.00     0.144 C 
ATOM     11  C   UNL A   1      34.627  23.058  26.723  1.00  0.00     0.072 C 
ATOM     12  C   UNL A   1      33.932  21.694  26.932  1.00  0.00     0.191 C 
BRANCH   8  13
ATOM     13  N   UNL A   1      31.918  23.086  24.602  1.00  0.00    -0.331 N 
ATOM     14  H   UNL A   1      32.309  22.168  24.392  1.00  0.00     0.347 HD
ATOM     15  H   UNL A   1      30.914  23.261  24.646  1.00  0.00     0.347 HD
BRANCH  13  16
ATOM     16  C   UNL A   1      32.263  23.916  23.463  1.00  0.00     0.176 C 
ATOM     17  C   UNL A   1      32.916  22.976  22.436  1.00  0.00     0.075 C 
ATOM     18  C   UNL A   1      31.109  24.641  22.772  1.00  0.00     0.075 C 
ENDBRANCH  13  16
ENDBRANCH   8  13
BRANCH  12  19
ATOM     19  N   UNL A   1      34.380  20.637  25.987  1.00  0.00    -0.332 N 
ATOM     20  C   UNL A   1      35.115  21.224  24.844  1.00  0.00     0.333 C 
ATOM     21  H   UNL A   1      34.979  20.029  26.546  1.00  0.00     0.348 HD
BRANCH  19  22
ATOM     22  C   UNL A   1      33.271  19.823  25.427  1.00  0.00     0.184 C 
ATOM     23  C   UNL A   1      33.291  19.787  23.887  1.00  0.00     0.065 C 
ATOM     24  C   UNL A   1      33.213  18.317  25.720  1.00  0.00     0.065 C 
ATOM     25  C   UNL A   1      32.266  18.720  23.518  1.00  0.00     0.006 C 
ATOM     26  C   UNL A   1      32.189  17.785  24.721  1.00  0.00     0.006 C 
ENDBRANCH  19  22
ENDBRANCH  12  19
ENDBRANCH   5   8
ENDBRANCH   3   4
ENDBRANCH   2   3
ENDBRANCH   1   2
BRANCH   1  27
ATOM     27  C   UNL A   1      32.940  29.816  26.055  1.00  0.00     0.116 C 
BRANCH  27  28
ATOM     28  N   UNL A   1      32.676  31.191  26.459  1.00  0.00    -0.352 N 
ATOM     29  C   UNL A   1      33.402  31.977  27.320  1.00  0.00     0.251 C 
ATOM     30  H   UNL A   1      31.876  31.609  26.067  1.00  0.00     0.163 HD
ATOM     31  O   UNL A   1      32.994  33.087  27.646  1.00  0.00    -0.269 OA
BRANCH  29  32
ATOM     32  C   UNL A   1      34.662  31.444  27.870  1.00  0.00     0.039 A 
ATOM     33  C   UNL A   1      35.760  32.297  28.001  1.00  0.00     0.014 A 
ATOM     34  C   UNL A   1      34.726  30.124  28.326  1.00  0.00     0.014 A 
ATOM     35  C   UNL A   1      36.907  31.839  28.648  1.00  0.00     0.010 A 
ATOM     36  C   UNL A   1      35.833  29.702  29.047  1.00  0.00     0.010 A 
ATOM     37  C   UNL A   1      36.939  30.550  29.205  1.00  0.00    -0.014 A 
BRANCH  37  38
ATOM     38  C   UNL A   1      38.123  30.063  29.954  1.00  0.00     0.031 A 
ATOM     39  C   UNL A   1      38.380  30.557  31.351  1.00  0.00     0.074 A 
ATOM     40  C   UNL A   1      39.009  29.252  29.344  1.00  0.00     0.049 A 
ATOM     41  N   UNL A   1      39.379  30.288  32.149  1.00  0.00    -0.248 NA
ATOM     42  C   UNL A   1      37.405  31.508  31.913  1.00  0.00     0.031 C 
ATOM     43  C   UNL A   1      38.919  28.785  27.958  1.00  0.00     0.029 A 
ATOM     44  N   UNL A   1      40.174  28.694  29.806  1.00  0.00    -0.354 N 
ATOM     45  C   UNL A   1      39.176  31.062  33.284  1.00  0.00     0.074 A 
ATOM     46  C   UNL A   1      37.983  31.846  33.056  1.00  0.00     0.031 C 
ATOM     47  C   UNL A   1      39.977  28.005  27.686  1.00  0.00     0.029 A 
ATOM     48  C   UNL A   1      40.830  27.929  28.869  1.00  0.00     0.049 A 
ATOM     49  H   UNL A   1      40.510  28.828  30.721  1.00  0.00     0.167 HD
ATOM     50  C   UNL A   1      39.894  31.090  34.431  1.00  0.00     0.034 A 
ATOM     51  C   UNL A   1      41.983  27.241  28.957  1.00  0.00     0.034 A 
ATOM     52  C   UNL A   1      41.042  30.260  34.675  1.00  0.00     0.049 A 
ATOM     53  C   UNL A   1      42.720  27.226  30.270  1.00  0.00     0.074 A 
ATOM     54  C   UNL A   1      41.782  30.134  35.837  1.00  0.00     0.029 A 
ATOM     55  N   UNL A   1      41.613  29.411  33.741  1.00  0.00    -0.354 N 
ATOM     56  N   UNL A   1      42.417  27.830  31.394  1.00  0.00    -0.248 NA
ATOM     57  C   UNL A   1      43.935  26.401  30.341  1.00  0.00     0.031 C 
ATOM     58  C   UNL A   1      42.808  29.214  35.601  1.00  0.00     0.029 A 
ATOM     59  C   UNL A   1      42.698  28.756  34.297  1.00  0.00     0.049 A 
ATOM     60  H   UNL A   1      41.295  29.291  32.817  1.00  0.00     0.167 HD
ATOM     61  C   UNL A   1      43.379  27.432  32.313  1.00  0.00     0.074 A 
ATOM     62  C   UNL A   1      44.263  26.516  31.622  1.00  0.00     0.031 C 
ATOM     63  C   UNL A   1      43.529  27.802  33.609  1.00  0.00     0.034 A 
BRANCH  50  64
ATOM     64  C   UNL A   1      39.413  31.995  35.533  1.00  0.00     0.023 A 
ATOM     65  C   UNL A   1      38.513  31.494  36.497  1.00  0.00     0.012 A 
ATOM     66  C   UNL A   1      39.877  33.320  35.646  1.00  0.00     0.148 A 
ATOM     67  C   UNL A   1      38.053  32.304  37.532  1.00  0.00     0.002 A 
ATOM     68  C   UNL A   1      39.448  34.109  36.708  1.00  0.00     0.091 A 
ATOM     69  F   UNL A   1      40.712  33.788  34.708  1.00  0.00    -0.205 F 
ATOM     70  C   UNL A   1      38.529  33.608  37.644  1.00  0.00     0.022 A 
BRANCH  68  71
ATOM     71  S   UNL A   1      40.061  35.776  36.983  1.00  0.00     0.127 S 
ATOM     72  O   UNL A   1      41.500  35.546  37.095  1.00  0.00    -0.237 OA
ATOM     73  O   UNL A   1      39.646  36.463  35.758  1.00  0.00    -0.237 OA
ATOM     74  O   UNL A   1      39.404  36.248  38.193  1.00  0.00    -0.744 OA
ENDBRANCH  68  71
ENDBRANCH  50  64
BRANCH  51  75
ATOM     75  C   UNL A   1      42.460  26.431  27.800  1.00  0.00     0.023 A 
ATOM     76  C   UNL A   1      43.382  26.997  26.899  1.00  0.00     0.012 A 
ATOM     77  C   UNL A   1      42.037  25.102  27.606  1.00  0.00     0.148 A 
ATOM     78  C   UNL A   1      43.850  26.266  25.806  1.00  0.00     0.002 A 
ATOM     79  C   UNL A   1      42.548  24.362  26.545  1.00  0.00     0.091 A 
ATOM     80  F   UNL A   1      41.150  24.584  28.467  1.00  0.00    -0.205 F 
ATOM     81  C   UNL A   1      43.441  24.947  25.634  1.00  0.00     0.022 A 
BRANCH  79  82
ATOM     82  S   UNL A   1      42.177  22.618  26.324  1.00  0.00     0.127 S 
ATOM     83  O   UNL A   1      42.631  22.053  27.591  1.00  0.00    -0.237 OA
ATOM     84  O   UNL A   1      40.724  22.637  26.143  1.00  0.00    -0.237 OA
ATOM     85  O   UNL A   1      42.919  22.210  25.139  1.00  0.00    -0.744 OA
ENDBRANCH  79  82
ENDBRANCH  51  75
BRANCH  63  86
ATOM     86  C   UNL A   1      44.671  27.196  34.380  1.00  0.00     0.023 A 
ATOM     87  C   UNL A   1      45.919  27.849  34.407  1.00  0.00     0.012 A 
ATOM     88  C   UNL A   1      44.484  26.026  35.141  1.00  0.00     0.148 A 
ATOM     89  C   UNL A   1      46.973  27.329  35.155  1.00  0.00     0.002 A 
ATOM     90  C   UNL A   1      45.525  25.539  35.921  1.00  0.00     0.091 A 
ATOM     91  F   UNL A   1      43.295  25.408  35.085  1.00  0.00    -0.205 F 
ATOM     92  C   UNL A   1      46.774  26.183  35.922  1.00  0.00     0.022 A 
BRANCH  90  93
ATOM     93  S   UNL A   1      45.325  24.126  37.012  1.00  0.00     0.127 S 
ATOM     94  O   UNL A   1      44.285  24.598  37.924  1.00  0.00    -0.237 OA
ATOM     95  O   UNL A   1      44.897  23.074  36.090  1.00  0.00    -0.237 OA
ATOM     96  O   UNL A   1      46.633  23.901  37.614  1.00  0.00    -0.744 OA
ENDBRANCH  90  93
ENDBRANCH  63  86
ENDBRANCH  37  38
ENDBRANCH  29  32
ENDBRANCH  27  28
ENDBRANCH   1  27
TORSDOF 18
ENDMDL
MODEL 2
REMARK VINA RESULT:     -11.3      1.771      2.378
REMARK SMILES CC(C)[NH2+][C@]1(C(=O)NCCCCNC(=O)c2ccc(-c3c4nc(c(-c5cccc(S(=O)(=O)[O-])c5F)c5ccc([nH]5)c(-c5cccc(S(=O)(=O)[O-])c5F)c5nc(c(-c6cccc(S(=O)(=O)[O-])c6F)c6ccc3[nH]6)C=C5)C=C4)cc2)CC[C@H]([N@H+](C)C2CCCC2)C1
REMARK SMILES IDX 11 1 10 2 9 3 8 4 6 5 7 6 5 8 79 9 89 10 80 11 81 12 4 13
REMARK SMILES IDX 2 16 1 17 3 18 82 19 83 20 84 22 85 23 88 24 86 25 87 26
REMARK SMILES IDX 12 27 13 28 14 29 15 31 16 32 17 33 78 34 18 35 77 36 19 37
REMARK SMILES IDX 20 38 21 39 71 40 22 41 76 42 70 43 72 44 23 45 75 46 69 47
REMARK SMILES IDX 68 48 24 50 56 51 36 52 55 53 37 54 40 55 54 56 73 57 38 58
REMARK SMILES IDX 39 59 53 61 74 62 41 63 25 64 26 65 34 66 27 67 29 68 35 69
REMARK SMILES IDX 28 70 30 71 31 72 32 73 33 74 57 75 58 76 66 77 59 78 61 79
REMARK SMILES IDX 67 80 60 81 62 82 63 83 64 84 65 85 42 86 43 87 51 88 44 89
REMARK SMILES IDX 46 90 52 91 45 92 47 93 48 94 49 95 50 96
REMARK H PARENT 8 7 4 14 4 15 82 21 13 30 72 49 40 60
REMARK Flexibility Score: inf
ROOT
ATOM      1  C   UNL A   1      31.991  29.214  26.063  1.00  0.00     0.023 C 
ENDROOT
BRANCH   1   2
ATOM      2  C   UNL A   1      32.676  29.338  24.705  1.00  0.00     0.023 C 
BRANCH   2   3
ATOM      3  C   UNL A   1      33.719  28.253  24.414  1.00  0.00     0.116 C 
BRANCH   3   4
ATOM      4  N   UNL A   1      33.625  27.834  23.036  1.00  0.00    -0.351 N 
ATOM      5  C   UNL A   1      33.469  26.605  22.476  1.00  0.00     0.281 C 
ATOM      6  O   UNL A   1      33.712  26.567  21.261  1.00  0.00    -0.268 OA
ATOM      7  H   UNL A   1      33.684  28.570  22.385  1.00  0.00     0.163 HD
BRANCH   5   8
ATOM      8  C   UNL A   1      32.922  25.319  23.244  1.00  0.00     0.181 C 
ATOM      9  C   UNL A   1      32.326  24.209  22.384  1.00  0.00     0.085 C 
ATOM     10  C   UNL A   1      34.162  24.659  23.880  1.00  0.00     0.144 C 
ATOM     11  C   UNL A   1      32.968  22.888  22.815  1.00  0.00     0.072 C 
ATOM     12  C   UNL A   1      33.912  23.140  24.011  1.00  0.00     0.191 C 
BRANCH   8  13
ATOM     13  N   UNL A   1      31.919  25.865  24.185  1.00  0.00    -0.331 N 
ATOM     14  H   UNL A   1      32.367  25.835  25.100  1.00  0.00     0.347 HD
ATOM     15  H   UNL A   1      31.693  26.738  23.710  1.00  0.00     0.347 HD
BRANCH  13  16
ATOM     16  C   UNL A   1      30.580  25.348  24.400  1.00  0.00     0.176 C 
ATOM     17  C   UNL A   1      30.555  24.825  25.846  1.00  0.00     0.075 C 
ATOM     18  C   UNL A   1      29.431  26.341  24.237  1.00  0.00     0.075 C 
ENDBRANCH  13  16
ENDBRANCH   8  13
BRANCH  12  19
ATOM     19  N   UNL A   1      33.399  22.619  25.306  1.00  0.00    -0.332 N 
ATOM     20  C   UNL A   1      34.109  23.241  26.446  1.00  0.00     0.333 C 
ATOM     21  H   UNL A   1      32.407  22.860  25.306  1.00  0.00     0.348 HD
BRANCH  19  22
ATOM     22  C   UNL A   1      33.528  21.147  25.455  1.00  0.00     0.184 C 
ATOM     23  C   UNL A   1      32.297  20.393  24.917  1.00  0.00     0.065 C 
ATOM     24  C   UNL A   1      34.638  20.403  24.700  1.00  0.00     0.065 C 
ATOM     25  C   UNL A   1      32.719  18.928  24.918  1.00  0.00     0.006 C 
ATOM     26  C   UNL A   1      34.241  18.933  24.812  1.00  0.00     0.006 C 
ENDBRANCH  19  22
ENDBRANCH  12  19
ENDBRANCH   5   8
ENDBRANCH   3   4
ENDBRANCH   2   3
ENDBRANCH   1   2
BRANCH   1  27
ATOM     27  C   UNL A   1      32.762  29.825  27.221  1.00  0.00     0.116 C 
BRANCH  27  28
ATOM     28  N   UNL A   1      32.781  31.282  27.194  1.00  0.00    -0.352 N 
ATOM     29  C   UNL A   1      33.780  32.125  27.613  1.00  0.00     0.251 C 
ATOM     30  H   UNL A   1      31.977  31.717  26.830  1.00  0.00     0.163 HD
ATOM     31  O   UNL A   1      33.607  33.340  27.625  1.00  0.00    -0.269 OA
BRANCH  29  32
ATOM     32  C   UNL A   1      35.049  31.539  28.083  1.00  0.00     0.039 A 
ATOM     33  C   UNL A   1      36.160  32.369  28.249  1.00  0.00     0.014 A 
ATOM     34  C   UNL A   1      35.111  30.186  28.429  1.00  0.00     0.014 A 
ATOM     35  C   UNL A   1      37.319  31.851  28.824  1.00  0.00     0.010 A 
ATOM     36  C   UNL A   1      36.234  29.698  29.082  1.00  0.00     0.010 A 
ATOM     37  C   UNL A   1      37.352  30.521  29.276  1.00  0.00    -0.014 A 
BRANCH  37  38
ATOM     38  C   UNL A   1      38.552  29.965  29.948  1.00  0.00     0.031 A 
ATOM     39  C   UNL A   1      38.926  30.441  31.325  1.00  0.00     0.074 A 
ATOM     40  C   UNL A   1      39.348  29.104  29.285  1.00  0.00     0.049 A 
ATOM     41  N   UNL A   1      39.957  30.114  32.058  1.00  0.00    -0.248 NA
ATOM     42  C   UNL A   1      38.046  31.447  31.946  1.00  0.00     0.031 C 
ATOM     43  C   UNL A   1      39.143  28.646  27.908  1.00  0.00     0.029 A 
ATOM     44  N   UNL A   1      40.507  28.480  29.673  1.00  0.00    -0.354 N 
ATOM     45  C   UNL A   1      39.872  30.897  33.202  1.00  0.00     0.074 A 
ATOM     46  C   UNL A   1      38.714  31.750  33.049  1.00  0.00     0.031 C 
ATOM     47  C   UNL A   1      40.135  27.806  27.572  1.00  0.00     0.029 A 
ATOM     48  C   UNL A   1      41.056  27.679  28.698  1.00  0.00     0.049 A 
ATOM     49  H   UNL A   1      40.908  28.593  30.564  1.00  0.00     0.167 HD
ATOM     50  C   UNL A   1      40.662  30.882  34.301  1.00  0.00     0.034 A 
ATOM     51  C   UNL A   1      42.171  26.925  28.713  1.00  0.00     0.034 A 
ATOM     52  C   UNL A   1      41.773  29.987  34.473  1.00  0.00     0.049 A 
ATOM     53  C   UNL A   1      42.988  26.866  29.977  1.00  0.00     0.074 A 
ATOM     54  C   UNL A   1      42.578  29.817  35.585  1.00  0.00     0.029 A 
ATOM     55  N   UNL A   1      42.233  29.107  33.506  1.00  0.00    -0.354 N 
ATOM     56  N   UNL A   1      42.792  27.485  31.116  1.00  0.00    -0.248 NA
ATOM     57  C   UNL A   1      44.155  25.971  29.972  1.00  0.00     0.031 C 
ATOM     58  C   UNL A   1      43.532  28.839  35.286  1.00  0.00     0.029 A 
ATOM     59  C   UNL A   1      43.312  28.390  33.994  1.00  0.00     0.049 A 
ATOM     60  H   UNL A   1      41.850  29.007  32.605  1.00  0.00     0.167 HD
ATOM     61  C   UNL A   1      43.787  27.031  31.973  1.00  0.00     0.074 A 
ATOM     62  C   UNL A   1      44.570  26.066  31.228  1.00  0.00     0.031 C 
ATOM     63  C   UNL A   1      44.040  27.390  33.255  1.00  0.00     0.034 A 
BRANCH  50  64
ATOM     64  C   UNL A   1      40.305  31.812  35.429  1.00  0.00     0.023 A 
ATOM     65  C   UNL A   1      41.052  32.995  35.613  1.00  0.00     0.012 A 
ATOM     66  C   UNL A   1      39.213  31.546  36.277  1.00  0.00     0.148 A 
ATOM     67  C   UNL A   1      40.743  33.879  36.644  1.00  0.00     0.002 A 
ATOM     68  C   UNL A   1      38.883  32.456  37.275  1.00  0.00     0.091 A 
ATOM     69  F   UNL A   1      38.530  30.407  36.104  1.00  0.00    -0.205 F 
ATOM     70  C   UNL A   1      39.652  33.615  37.468  1.00  0.00     0.022 A 
BRANCH  68  71
ATOM     71  S   UNL A   1      37.451  32.246  38.341  1.00  0.00     0.127 S 
ATOM     72  O   UNL A   1      36.425  32.983  37.605  1.00  0.00    -0.237 OA
ATOM     73  O   UNL A   1      37.277  30.792  38.340  1.00  0.00    -0.237 OA
ATOM     74  O   UNL A   1      37.826  32.810  39.630  1.00  0.00    -0.744 OA
ENDBRANCH  68  71
ENDBRANCH  50  64
BRANCH  51  75
ATOM     75  C   UNL A   1      42.525  26.091  27.530  1.00  0.00     0.023 A 
ATOM     76  C   UNL A   1      43.326  26.645  26.513  1.00  0.00     0.012 A 
ATOM     77  C   UNL A   1      42.106  24.750  27.421  1.00  0.00     0.148 A 
ATOM     78  C   UNL A   1      43.677  25.891  25.393  1.00  0.00     0.002 A 
ATOM     79  C   UNL A   1      42.504  23.989  26.327  1.00  0.00     0.091 A 
ATOM     80  F   UNL A   1      41.334  24.244  28.393  1.00  0.00    -0.205 F 
ATOM     81  C   UNL A   1      43.275  24.562  25.304  1.00  0.00     0.022 A 
BRANCH  79  82
ATOM     82  S   UNL A   1      42.141  22.234  26.197  1.00  0.00     0.127 S 
ATOM     83  O   UNL A   1      42.875  21.866  24.990  1.00  0.00    -0.237 OA
ATOM     84  O   UNL A   1      42.704  21.714  27.444  1.00  0.00    -0.237 OA
ATOM     85  O   UNL A   1      40.689  22.143  26.114  1.00  0.00    -0.744 OA
ENDBRANCH  79  82
ENDBRANCH  51  75
BRANCH  63  86
ATOM     86  C   UNL A   1      45.193  26.718  33.953  1.00  0.00     0.023 A 
ATOM     87  C   UNL A   1      46.480  27.285  33.880  1.00  0.00     0.012 A 
ATOM     88  C   UNL A   1      44.984  25.573  34.746  1.00  0.00     0.148 A 
ATOM     89  C   UNL A   1      47.548  26.704  34.560  1.00  0.00     0.002 A 
ATOM     90  C   UNL A   1      46.043  25.026  35.459  1.00  0.00     0.091 A 
ATOM     91  F   UNL A   1      43.755  25.036  34.786  1.00  0.00    -0.205 F 
ATOM     92  C   UNL A   1      47.329  25.583  35.359  1.00  0.00     0.022 A 
BRANCH  90  93
ATOM     93  S   UNL A   1      45.829  23.643  36.586  1.00  0.00     0.127 S 
ATOM     94  O   UNL A   1      47.200  23.409  37.035  1.00  0.00    -0.237 OA
ATOM     95  O   UNL A   1      44.940  24.203  37.604  1.00  0.00    -0.237 OA
ATOM     96  O   UNL A   1      45.236  22.574  35.793  1.00  0.00    -0.744 OA
ENDBRANCH  90  93
ENDBRANCH  63  86
ENDBRANCH  37  38
ENDBRANCH  29  32
ENDBRANCH  27  28
ENDBRANCH   1  27
TORSDOF 18
ENDMDL
MODEL 3
REMARK VINA RESULT:     -11.3      4.865     10.308
REMARK SMILES CC(C)[NH2+][C@]1(C(=O)NCCCCNC(=O)c2ccc(-c3c4nc(c(-c5cccc(S(=O)(=O)[O-])c5F)c5ccc([nH]5)c(-c5cccc(S(=O)(=O)[O-])c5F)c5nc(c(-c6cccc(S(=O)(=O)[O-])c6F)c6ccc3[nH]6)C=C5)C=C4)cc2)CC[C@H]([N@H+](C)C2CCCC2)C1
REMARK SMILES IDX 11 1 10 2 9 3 8 4 6 5 7 6 5 8 79 9 89 10 80 11 81 12 4 13
REMARK SMILES IDX 2 16 1 17 3 18 82 19 83 20 84 22 85 23 88 24 86 25 87 26
REMARK SMILES IDX 12 27 13 28 14 29 15 31 16 32 17 33 78 34 18 35 77 36 19 37
REMARK SMILES IDX 20 38 21 39 71 40 22 41 76 42 70 43 72 44 23 45 75 46 69 47
REMARK SMILES IDX 68 48 24 50 56 51 36 52 55 53 37 54 40 55 54 56 73 57 38 58
REMARK SMILES IDX 39 59 53 61 74 62 41 63 25 64 26 65 34 66 27 67 29 68 35 69
REMARK SMILES IDX 28 70 30 71 31 72 32 73 33 74 57 75 58 76 66 77 59 78 61 79
REMARK SMILES IDX 67 80 60 81 62 82 63 83 64 84 65 85 42 86 43 87 51 88 44 89
REMARK SMILES IDX 46 90 52 91 45 92 47 93 48 94 49 95 50 96
REMARK H PARENT 8 7 4 14 4 15 82 21 13 30 72 49 40 60
REMARK Flexibility Score: inf
ROOT
ATOM      1  C   UNL A   1      35.043  21.907  25.092  1.00  0.00     0.023 C 
ENDROOT
BRANCH   1   2
ATOM      2  C   UNL A   1      33.737  21.768  25.868  1.00  0.00     0.023 C 
BRANCH   2   3
ATOM      3  C   UNL A   1      32.728  22.897  25.628  1.00  0.00     0.116 C 
BRANCH   3   4
ATOM      4  N   UNL A   1      33.250  24.143  26.138  1.00  0.00    -0.351 N 
ATOM      5  C   UNL A   1      33.247  25.400  25.621  1.00  0.00     0.281 C 
ATOM      6  O   UNL A   1      34.027  26.181  26.184  1.00  0.00    -0.268 OA
ATOM      7  H   UNL A   1      33.685  24.069  27.017  1.00  0.00     0.163 HD
BRANCH   5   8
ATOM      8  C   UNL A   1      32.270  25.906  24.466  1.00  0.00     0.181 C 
ATOM      9  C   UNL A   1      30.855  25.336  24.467  1.00  0.00     0.085 C 
ATOM     10  C   UNL A   1      32.057  27.409  24.734  1.00  0.00     0.144 C 
ATOM     11  C   UNL A   1      29.879  26.510  24.352  1.00  0.00     0.072 C 
ATOM     12  C   UNL A   1      30.672  27.825  24.190  1.00  0.00     0.191 C 
BRANCH   8  13
ATOM     13  N   UNL A   1      32.986  25.561  23.217  1.00  0.00    -0.331 N 
ATOM     14  H   UNL A   1      33.202  26.455  22.778  1.00  0.00     0.347 HD
ATOM     15  H   UNL A   1      33.705  24.944  23.594  1.00  0.00     0.347 HD
BRANCH  13  16
ATOM     16  C   UNL A   1      32.479  24.724  22.146  1.00  0.00     0.176 C 
ATOM     17  C   UNL A   1      32.457  25.609  20.890  1.00  0.00     0.075 C 
ATOM     18  C   UNL A   1      33.284  23.466  21.824  1.00  0.00     0.075 C 
ENDBRANCH  13  16
ENDBRANCH   8  13
BRANCH  12  19
ATOM     19  N   UNL A   1      30.598  28.411  22.826  1.00  0.00    -0.332 N 
ATOM     20  C   UNL A   1      31.909  28.962  22.414  1.00  0.00     0.333 C 
ATOM     21  H   UNL A   1      30.313  27.636  22.227  1.00  0.00     0.348 HD
BRANCH  19  22
ATOM     22  C   UNL A   1      29.600  29.503  22.694  1.00  0.00     0.184 C 
ATOM     23  C   UNL A   1      28.151  28.983  22.755  1.00  0.00     0.065 C 
ATOM     24  C   UNL A   1      29.527  30.598  23.767  1.00  0.00     0.065 C 
ATOM     25  C   UNL A   1      27.300  30.243  22.863  1.00  0.00     0.006 C 
ATOM     26  C   UNL A   1      28.202  31.303  23.489  1.00  0.00     0.006 C 
ENDBRANCH  19  22
ENDBRANCH  12  19
ENDBRANCH   5   8
ENDBRANCH   3   4
ENDBRANCH   2   3
ENDBRANCH   1   2
BRANCH   1  27
ATOM     27  C   UNL A   1      36.270  22.159  25.952  1.00  0.00     0.116 C 
BRANCH  27  28
ATOM     28  N   UNL A   1      37.299  21.140  25.798  1.00  0.00    -0.352 N 
ATOM     29  C   UNL A   1      38.653  21.265  25.994  1.00  0.00     0.251 C 
ATOM     30  H   UNL A   1      36.987  20.250  25.518  1.00  0.00     0.163 HD
ATOM     31  O   UNL A   1      39.411  20.339  25.721  1.00  0.00    -0.269 OA
BRANCH  29  32
ATOM     32  C   UNL A   1      39.178  22.545  26.503  1.00  0.00     0.039 A 
ATOM     33  C   UNL A   1      40.253  22.532  27.394  1.00  0.00     0.014 A 
ATOM     34  C   UNL A   1      38.653  23.754  26.036  1.00  0.00     0.014 A 
ATOM     35  C   UNL A   1      40.843  23.737  27.770  1.00  0.00     0.010 A 
ATOM     36  C   UNL A   1      39.300  24.943  26.341  1.00  0.00     0.010 A 
ATOM     37  C   UNL A   1      40.393  24.949  27.219  1.00  0.00    -0.014 A 
BRANCH  37  38
ATOM     38  C   UNL A   1      41.045  26.238  27.553  1.00  0.00     0.031 A 
ATOM     39  C   UNL A   1      42.466  26.489  27.128  1.00  0.00     0.074 A 
ATOM     40  C   UNL A   1      40.392  27.138  28.313  1.00  0.00     0.049 A 
ATOM     41  N   UNL A   1      43.225  27.527  27.363  1.00  0.00    -0.248 NA
ATOM     42  C   UNL A   1      43.137  25.417  26.372  1.00  0.00     0.031 C 
ATOM     43  C   UNL A   1      39.047  26.964  28.869  1.00  0.00     0.029 A 
ATOM     44  N   UNL A   1      40.782  28.371  28.771  1.00  0.00    -0.354 N 
ATOM     45  C   UNL A   1      44.466  27.219  26.822  1.00  0.00     0.074 A 
ATOM     46  C   UNL A   1      44.375  25.879  26.285  1.00  0.00     0.031 C 
ATOM     47  C   UNL A   1      38.721  28.053  29.582  1.00  0.00     0.029 A 
ATOM     48  C   UNL A   1      39.836  28.995  29.551  1.00  0.00     0.049 A 
ATOM     49  H   UNL A   1      41.656  28.773  28.560  1.00  0.00     0.167 HD
ATOM     50  C   UNL A   1      45.573  27.995  26.741  1.00  0.00     0.034 A 
ATOM     51  C   UNL A   1      39.864  30.192  30.167  1.00  0.00     0.034 A 
ATOM     52  C   UNL A   1      45.635  29.348  27.220  1.00  0.00     0.049 A 
ATOM     53  C   UNL A   1      41.077  31.067  29.994  1.00  0.00     0.074 A 
ATOM     54  C   UNL A   1      46.671  30.257  27.099  1.00  0.00     0.029 A 
ATOM     55  N   UNL A   1      44.617  29.989  27.907  1.00  0.00    -0.354 N 
ATOM     56  N   UNL A   1      42.181  30.827  29.328  1.00  0.00    -0.248 NA
ATOM     57  C   UNL A   1      41.033  32.396  30.622  1.00  0.00     0.031 C 
ATOM     58  C   UNL A   1      46.281  31.446  27.723  1.00  0.00     0.029 A 
ATOM     59  C   UNL A   1      44.997  31.282  28.219  1.00  0.00     0.049 A 
ATOM     60  H   UNL A   1      43.750  29.584  28.140  1.00  0.00     0.167 HD
ATOM     61  C   UNL A   1      42.945  31.983  29.425  1.00  0.00     0.074 A 
ATOM     62  C   UNL A   1      42.169  32.932  30.196  1.00  0.00     0.031 C 
ATOM     63  C   UNL A   1      44.185  32.232  28.935  1.00  0.00     0.034 A 
BRANCH  50  64
ATOM     64  C   UNL A   1      46.778  27.420  26.046  1.00  0.00     0.023 A 
ATOM     65  C   UNL A   1      46.898  27.552  24.647  1.00  0.00     0.012 A 
ATOM     66  C   UNL A   1      47.808  26.791  26.772  1.00  0.00     0.148 A 
ATOM     67  C   UNL A   1      48.004  27.036  23.975  1.00  0.00     0.002 A 
ATOM     68  C   UNL A   1      48.930  26.318  26.099  1.00  0.00     0.091 A 
ATOM     69  F   UNL A   1      47.666  26.652  28.096  1.00  0.00    -0.205 F 
ATOM     70  C   UNL A   1      49.025  26.428  24.702  1.00  0.00     0.022 A 
BRANCH  68  71
ATOM     71  S   UNL A   1      50.333  25.589  26.953  1.00  0.00     0.127 S 
ATOM     72  O   UNL A   1      49.722  24.417  27.577  1.00  0.00    -0.237 OA
ATOM     73  O   UNL A   1      51.244  25.287  25.848  1.00  0.00    -0.237 OA
ATOM     74  O   UNL A   1      50.816  26.610  27.873  1.00  0.00    -0.744 OA
ENDBRANCH  68  71
ENDBRANCH  50  64
BRANCH  51  75
ATOM     75  C   UNL A   1      38.671  30.673  30.919  1.00  0.00     0.023 A 
ATOM     76  C   UNL A   1      38.651  30.559  32.322  1.00  0.00     0.012 A 
ATOM     77  C   UNL A   1      37.578  31.272  30.263  1.00  0.00     0.148 A 
ATOM     78  C   UNL A   1      37.550  31.001  33.057  1.00  0.00     0.002 A 
ATOM     79  C   UNL A   1      36.507  31.758  31.006  1.00  0.00     0.091 A 
ATOM     80  F   UNL A   1      37.609  31.361  28.926  1.00  0.00    -0.205 F 
ATOM     81  C   UNL A   1      36.484  31.608  32.401  1.00  0.00     0.022 A 
BRANCH  79  82
ATOM     82  S   UNL A   1      35.153  32.670  30.256  1.00  0.00     0.127 S 
ATOM     83  O   UNL A   1      34.243  32.836  31.385  1.00  0.00    -0.237 OA
ATOM     84  O   UNL A   1      35.820  33.896  29.816  1.00  0.00    -0.237 OA
ATOM     85  O   UNL A   1      34.674  31.829  29.167  1.00  0.00    -0.744 OA
ENDBRANCH  79  82
ENDBRANCH  51  75
BRANCH  63  86
ATOM     86  C   UNL A   1      44.773  33.594  29.187  1.00  0.00     0.023 A 
ATOM     87  C   UNL A   1      45.566  33.812  30.331  1.00  0.00     0.012 A 
ATOM     88  C   UNL A   1      44.607  34.633  28.251  1.00  0.00     0.148 A 
ATOM     89  C   UNL A   1      46.159  35.053  30.555  1.00  0.00     0.002 A 
ATOM     90  C   UNL A   1      45.240  35.853  28.457  1.00  0.00     0.091 A 
ATOM     91  F   UNL A   1      43.832  34.413  27.179  1.00  0.00    -0.205 F 
ATOM     92  C   UNL A   1      46.008  36.069  29.613  1.00  0.00     0.022 A 
BRANCH  90  93
ATOM     93  S   UNL A   1      45.177  37.181  27.248  1.00  0.00     0.127 S 
ATOM     94  O   UNL A   1      45.755  38.294  27.999  1.00  0.00    -0.237 OA
ATOM     95  O   UNL A   1      46.024  36.667  26.172  1.00  0.00    -0.237 OA
ATOM     96  O   UNL A   1      43.772  37.325  26.891  1.00  0.00    -0.744 OA
ENDBRANCH  90  93
ENDBRANCH  63  86
ENDBRANCH  37  38
ENDBRANCH  29  32
ENDBRANCH  27  28
ENDBRANCH   1  27
TORSDOF 18
ENDMDL
