MODEL 1
REMARK VINA RESULT:     -11.6      0.000      0.000
REMARK SMILES CC[NH2+][C@H](C)c1cccn1Cc1ccc(C(=O)NCCCCNC(=O)c2ccc(-c3c4nc(c(-c5cccc(S(=O)(=O)[O-])c5F)c5ccc([nH]5)c(-c5cccc(S(=O)(=O)[O-])c5F)c5nc(c(-c6cccc(S(=O)(=O)[O-])c6F)c6ccc3[nH]6)C=C5)C=C4)cc2)cc1
REMARK SMILES IDX 19 1 18 2 16 3 17 4 15 6 12 7 13 8 90 9 14 10 89 11 11 12
REMARK SMILES IDX 10 13 6 14 7 15 8 16 9 17 4 18 5 19 3 20 2 23 1 24 20 25
REMARK SMILES IDX 21 26 22 27 23 28 24 29 25 31 26 32 27 33 88 34 28 35 87 36
REMARK SMILES IDX 29 37 30 38 31 39 81 40 32 41 86 42 80 43 82 44 33 45 85 46
REMARK SMILES IDX 79 47 78 48 34 50 66 51 46 52 65 53 47 54 50 55 64 56 83 57
REMARK SMILES IDX 48 58 49 59 63 61 84 62 51 63 35 64 36 65 44 66 37 67 39 68
REMARK SMILES IDX 45 69 38 70 40 71 41 72 42 73 43 74 67 75 68 76 76 77 69 78
REMARK SMILES IDX 71 79 77 80 70 81 72 82 73 83 74 84 75 85 52 86 53 87 61 88
REMARK SMILES IDX 54 89 56 90 62 91 55 92 57 93 58 94 59 95 60 96
REMARK H PARENT 18 5 3 21 3 22 23 30 82 49 50 60
REMARK Flexibility Score: inf
ROOT
ATOM      1  C   UNL A   1      36.193  21.025  25.130  1.00  0.00     0.116 C 
ENDROOT
BRANCH   1   2
ATOM      2  N   UNL A   1      36.765  21.814  24.052  1.00  0.00    -0.352 N 
ATOM      3  C   UNL A   1      36.362  22.997  23.485  1.00  0.00     0.251 C 
ATOM      4  O   UNL A   1      37.020  23.482  22.566  1.00  0.00    -0.269 OA
ATOM      5  H   UNL A   1      37.583  21.432  23.658  1.00  0.00     0.163 HD
BRANCH   3   6
ATOM      6  C   UNL A   1      35.172  23.743  23.972  1.00  0.00     0.039 A 
ATOM      7  C   UNL A   1      32.956  25.122  25.041  1.00  0.00    -0.028 A 
ATOM      8  C   UNL A   1      34.152  25.031  25.767  1.00  0.00     0.006 A 
ATOM      9  C   UNL A   1      32.902  24.561  23.759  1.00  0.00     0.006 A 
ATOM     10  C   UNL A   1      35.253  24.350  25.233  1.00  0.00     0.014 A 
ATOM     11  C   UNL A   1      34.006  23.898  23.224  1.00  0.00     0.014 A 
BRANCH   7  12
ATOM     12  C   UNL A   1      31.740  25.820  25.600  1.00  0.00     0.157 C 
BRANCH  12  13
ATOM     13  N   UNL A   1      31.158  26.795  24.680  1.00  0.00    -0.342 N 
ATOM     14  C   UNL A   1      31.719  27.887  24.018  1.00  0.00     0.076 A 
ATOM     15  C   UNL A   1      30.666  28.454  23.289  1.00  0.00     0.029 A 
ATOM     16  C   UNL A   1      29.512  27.663  23.422  1.00  0.00     0.020 A 
ATOM     17  C   UNL A   1      29.845  26.637  24.261  1.00  0.00     0.086 A 
BRANCH  14  18
ATOM     18  C   UNL A   1      33.147  28.448  24.086  1.00  0.00     0.227 C 
ATOM     19  C   UNL A   1      33.882  28.574  22.754  1.00  0.00     0.082 C 
BRANCH  18  20
ATOM     20  N   UNL A   1      33.096  29.770  24.755  1.00  0.00    -0.339 N 
ATOM     21  H   UNL A   1      33.826  30.359  24.354  1.00  0.00     0.346 HD
ATOM     22  H   UNL A   1      32.157  30.138  24.598  1.00  0.00     0.346 HD
BRANCH  20  23
ATOM     23  C   UNL A   1      33.289  29.725  26.204  1.00  0.00     0.257 C 
ATOM     24  C   UNL A   1      31.958  29.898  26.919  1.00  0.00     0.071 C 
ENDBRANCH  20  23
ENDBRANCH  18  20
ENDBRANCH  14  18
ENDBRANCH  12  13
ENDBRANCH   7  12
ENDBRANCH   3   6
ENDBRANCH   1   2
BRANCH   1  25
ATOM     25  C   UNL A   1      36.683  19.574  25.053  1.00  0.00     0.023 C 
BRANCH  25  26
ATOM     26  C   UNL A   1      38.171  19.433  24.713  1.00  0.00     0.023 C 
BRANCH  26  27
ATOM     27  C   UNL A   1      39.101  19.880  25.839  1.00  0.00     0.116 C 
BRANCH  27  28
ATOM     28  N   UNL A   1      40.185  18.925  26.024  1.00  0.00    -0.352 N 
ATOM     29  C   UNL A   1      41.532  19.159  26.129  1.00  0.00     0.251 C 
ATOM     30  H   UNL A   1      39.912  17.981  26.080  1.00  0.00     0.163 HD
ATOM     31  O   UNL A   1      42.318  18.241  25.908  1.00  0.00    -0.269 OA
BRANCH  29  32
ATOM     32  C   UNL A   1      42.048  20.495  26.491  1.00  0.00     0.039 A 
ATOM     33  C   UNL A   1      42.594  21.288  25.476  1.00  0.00     0.014 A 
ATOM     34  C   UNL A   1      42.068  20.933  27.819  1.00  0.00     0.014 A 
ATOM     35  C   UNL A   1      43.098  22.548  25.782  1.00  0.00     0.010 A 
ATOM     36  C   UNL A   1      42.572  22.194  28.127  1.00  0.00     0.010 A 
ATOM     37  C   UNL A   1      43.063  23.015  27.105  1.00  0.00    -0.014 A 
BRANCH  37  38
ATOM     38  C   UNL A   1      43.312  24.460  27.345  1.00  0.00     0.031 A 
ATOM     39  C   UNL A   1      41.963  25.207  27.540  1.00  0.00     0.074 A 
ATOM     40  C   UNL A   1      44.611  24.906  27.306  1.00  0.00     0.049 A 
ATOM     41  N   UNL A   1      41.583  26.380  27.126  1.00  0.00    -0.248 NA
ATOM     42  C   UNL A   1      40.817  24.486  28.168  1.00  0.00     0.031 C 
ATOM     43  C   UNL A   1      45.804  24.033  27.193  1.00  0.00     0.029 A 
ATOM     44  N   UNL A   1      45.212  26.153  27.365  1.00  0.00    -0.354 N 
ATOM     45  C   UNL A   1      40.292  26.624  27.673  1.00  0.00     0.074 A 
ATOM     46  C   UNL A   1      39.808  25.362  28.131  1.00  0.00     0.031 C 
ATOM     47  C   UNL A   1      46.943  24.761  27.110  1.00  0.00     0.029 A 
ATOM     48  C   UNL A   1      46.627  26.176  27.182  1.00  0.00     0.049 A 
ATOM     49  H   UNL A   1      44.693  26.975  27.523  1.00  0.00     0.167 HD
ATOM     50  C   UNL A   1      39.806  27.884  27.904  1.00  0.00     0.034 A 
ATOM     51  C   UNL A   1      47.475  27.255  27.074  1.00  0.00     0.034 A 
ATOM     52  C   UNL A   1      40.823  28.822  27.564  1.00  0.00     0.049 A 
ATOM     53  C   UNL A   1      46.659  28.414  27.434  1.00  0.00     0.074 A 
ATOM     54  C   UNL A   1      41.371  29.218  26.375  1.00  0.00     0.029 A 
ATOM     55  N   UNL A   1      41.658  29.150  28.606  1.00  0.00    -0.354 N 
ATOM     56  N   UNL A   1      46.301  28.698  28.649  1.00  0.00    -0.248 NA
ATOM     57  C   UNL A   1      46.167  29.298  26.372  1.00  0.00     0.031 C 
ATOM     58  C   UNL A   1      42.735  29.335  26.696  1.00  0.00     0.029 A 
ATOM     59  C   UNL A   1      42.910  29.283  28.087  1.00  0.00     0.049 A 
ATOM     60  H   UNL A   1      41.400  29.268  29.550  1.00  0.00     0.167 HD
ATOM     61  C   UNL A   1      45.228  29.519  28.424  1.00  0.00     0.074 A 
ATOM     62  C   UNL A   1      45.428  30.116  27.119  1.00  0.00     0.031 C 
ATOM     63  C   UNL A   1      44.036  29.171  28.975  1.00  0.00     0.034 A 
BRANCH  50  64
ATOM     64  C   UNL A   1      38.657  28.472  28.705  1.00  0.00     0.023 A 
ATOM     65  C   UNL A   1      37.771  29.312  27.960  1.00  0.00     0.012 A 
ATOM     66  C   UNL A   1      38.568  28.539  30.104  1.00  0.00     0.148 A 
ATOM     67  C   UNL A   1      36.966  30.279  28.558  1.00  0.00     0.002 A 
ATOM     68  C   UNL A   1      37.712  29.470  30.702  1.00  0.00     0.091 A 
ATOM     69  F   UNL A   1      39.362  27.769  30.852  1.00  0.00    -0.205 F 
ATOM     70  C   UNL A   1      36.950  30.368  29.936  1.00  0.00     0.022 A 
BRANCH  68  71
ATOM     71  S   UNL A   1      37.515  29.620  32.482  1.00  0.00     0.127 S 
ATOM     72  O   UNL A   1      38.736  30.321  32.865  1.00  0.00    -0.237 OA
ATOM     73  O   UNL A   1      36.295  30.422  32.582  1.00  0.00    -0.237 OA
ATOM     74  O   UNL A   1      37.369  28.255  32.976  1.00  0.00    -0.744 OA
ENDBRANCH  68  71
ENDBRANCH  50  64
BRANCH  51  75
ATOM     75  C   UNL A   1      48.902  27.601  26.673  1.00  0.00     0.023 A 
ATOM     76  C   UNL A   1      50.000  27.604  27.539  1.00  0.00     0.012 A 
ATOM     77  C   UNL A   1      49.213  27.810  25.284  1.00  0.00     0.148 A 
ATOM     78  C   UNL A   1      51.321  27.705  27.039  1.00  0.00     0.002 A 
ATOM     79  C   UNL A   1      50.508  27.755  24.784  1.00  0.00     0.091 A 
ATOM     80  F   UNL A   1      48.238  28.098  24.416  1.00  0.00    -0.205 F 
ATOM     81  C   UNL A   1      51.578  27.723  25.667  1.00  0.00     0.022 A 
BRANCH  79  82
ATOM     82  S   UNL A   1      50.836  27.545  23.017  1.00  0.00     0.127 S 
ATOM     83  O   UNL A   1      50.811  28.921  22.525  1.00  0.00    -0.237 OA
ATOM     84  O   UNL A   1      52.161  26.926  23.043  1.00  0.00    -0.237 OA
ATOM     85  O   UNL A   1      49.778  26.689  22.497  1.00  0.00    -0.744 OA
ENDBRANCH  79  82
ENDBRANCH  51  75
BRANCH  63  86
ATOM     86  C   UNL A   1      44.137  28.388  30.292  1.00  0.00     0.023 A 
ATOM     87  C   UNL A   1      43.984  26.986  30.210  1.00  0.00     0.012 A 
ATOM     88  C   UNL A   1      44.241  28.942  31.591  1.00  0.00     0.148 A 
ATOM     89  C   UNL A   1      43.906  26.178  31.348  1.00  0.00     0.002 A 
ATOM     90  C   UNL A   1      44.149  28.134  32.735  1.00  0.00     0.091 A 
ATOM     91  F   UNL A   1      44.425  30.255  31.713  1.00  0.00    -0.205 F 
ATOM     92  C   UNL A   1      43.984  26.750  32.610  1.00  0.00     0.022 A 
BRANCH  90  93
ATOM     93  S   UNL A   1      44.160  28.767  34.429  1.00  0.00     0.127 S 
ATOM     94  O   UNL A   1      43.012  29.678  34.437  1.00  0.00    -0.237 OA
ATOM     95  O   UNL A   1      43.963  27.553  35.216  1.00  0.00    -0.237 OA
ATOM     96  O   UNL A   1      45.442  29.434  34.619  1.00  0.00    -0.744 OA
ENDBRANCH  90  93
ENDBRANCH  63  86
ENDBRANCH  37  38
ENDBRANCH  29  32
ENDBRANCH  27  28
ENDBRANCH  26  27
ENDBRANCH  25  26
ENDBRANCH   1  25
TORSDOF 19
ENDMDL
MODEL 2
REMARK VINA RESULT:     -11.3      4.759     10.467
REMARK SMILES CC[NH2+][C@H](C)c1cccn1Cc1ccc(C(=O)NCCCCNC(=O)c2ccc(-c3c4nc(c(-c5cccc(S(=O)(=O)[O-])c5F)c5ccc([nH]5)c(-c5cccc(S(=O)(=O)[O-])c5F)c5nc(c(-c6cccc(S(=O)(=O)[O-])c6F)c6ccc3[nH]6)C=C5)C=C4)cc2)cc1
REMARK SMILES IDX 19 1 18 2 16 3 17 4 15 6 12 7 13 8 90 9 14 10 89 11 11 12
REMARK SMILES IDX 10 13 6 14 7 15 8 16 9 17 4 18 5 19 3 20 2 23 1 24 20 25
REMARK SMILES IDX 21 26 22 27 23 28 24 29 25 31 26 32 27 33 88 34 28 35 87 36
REMARK SMILES IDX 29 37 30 38 31 39 81 40 32 41 86 42 80 43 82 44 33 45 85 46
REMARK SMILES IDX 79 47 78 48 34 50 66 51 46 52 65 53 47 54 50 55 64 56 83 57
REMARK SMILES IDX 48 58 49 59 63 61 84 62 51 63 35 64 36 65 44 66 37 67 39 68
REMARK SMILES IDX 45 69 38 70 40 71 41 72 42 73 43 74 67 75 68 76 76 77 69 78
REMARK SMILES IDX 71 79 77 80 70 81 72 82 73 83 74 84 75 85 52 86 53 87 61 88
REMARK SMILES IDX 54 89 56 90 62 91 55 92 57 93 58 94 59 95 60 96
REMARK H PARENT 18 5 3 21 3 22 23 30 82 49 50 60
REMARK Flexibility Score: inf
ROOT
ATOM      1  C   UNL A   1      32.390  30.197  26.075  1.00  0.00     0.116 C 
ENDROOT
BRANCH   1   2
ATOM      2  N   UNL A   1      31.923  29.410  27.204  1.00  0.00    -0.352 N 
ATOM      3  C   UNL A   1      31.876  28.053  27.404  1.00  0.00     0.251 C 
ATOM      4  O   UNL A   1      31.429  27.613  28.462  1.00  0.00    -0.269 OA
ATOM      5  H   UNL A   1      31.579  29.944  27.957  1.00  0.00     0.163 HD
BRANCH   3   6
ATOM      6  C   UNL A   1      32.388  27.087  26.396  1.00  0.00     0.039 A 
ATOM      7  C   UNL A   1      33.251  25.155  24.532  1.00  0.00    -0.028 A 
ATOM      8  C   UNL A   1      31.905  25.212  24.923  1.00  0.00     0.006 A 
ATOM      9  C   UNL A   1      34.142  26.106  25.045  1.00  0.00     0.006 A 
ATOM     10  C   UNL A   1      31.478  26.175  25.846  1.00  0.00     0.014 A 
ATOM     11  C   UNL A   1      33.709  27.073  25.951  1.00  0.00     0.014 A 
BRANCH   7  12
ATOM     12  C   UNL A   1      33.752  24.110  23.566  1.00  0.00     0.157 C 
BRANCH  12  13
ATOM     13  N   UNL A   1      33.401  22.746  23.956  1.00  0.00    -0.342 N 
ATOM     14  C   UNL A   1      33.662  22.024  25.121  1.00  0.00     0.076 A 
ATOM     15  C   UNL A   1      33.092  20.763  24.906  1.00  0.00     0.029 A 
ATOM     16  C   UNL A   1      32.408  20.750  23.679  1.00  0.00     0.020 A 
ATOM     17  C   UNL A   1      32.591  21.986  23.125  1.00  0.00     0.086 A 
BRANCH  14  18
ATOM     18  C   UNL A   1      34.457  22.432  26.371  1.00  0.00     0.227 C 
ATOM     19  C   UNL A   1      33.702  22.369  27.695  1.00  0.00     0.082 C 
BRANCH  18  20
ATOM     20  N   UNL A   1      35.670  21.583  26.446  1.00  0.00    -0.339 N 
ATOM     21  H   UNL A   1      35.910  21.457  27.430  1.00  0.00     0.346 HD
ATOM     22  H   UNL A   1      35.440  20.706  25.978  1.00  0.00     0.346 HD
BRANCH  20  23
ATOM     23  C   UNL A   1      36.838  22.130  25.757  1.00  0.00     0.257 C 
ATOM     24  C   UNL A   1      36.909  23.637  25.956  1.00  0.00     0.071 C 
ENDBRANCH  20  23
ENDBRANCH  18  20
ENDBRANCH  14  18
ENDBRANCH  12  13
ENDBRANCH   7  12
ENDBRANCH   3   6
ENDBRANCH   1   2
BRANCH   1  25
ATOM     25  C   UNL A   1      31.341  31.242  25.676  1.00  0.00     0.023 C 
BRANCH  25  26
ATOM     26  C   UNL A   1      31.181  32.385  26.685  1.00  0.00     0.023 C 
BRANCH  26  27
ATOM     27  C   UNL A   1      32.507  32.893  27.249  1.00  0.00     0.116 C 
BRANCH  27  28
ATOM     28  N   UNL A   1      32.412  34.302  27.604  1.00  0.00    -0.352 N 
ATOM     29  C   UNL A   1      33.029  34.978  28.625  1.00  0.00     0.251 C 
ATOM     30  H   UNL A   1      31.822  34.844  27.031  1.00  0.00     0.163 HD
ATOM     31  O   UNL A   1      32.560  36.048  29.004  1.00  0.00    -0.269 OA
BRANCH  29  32
ATOM     32  C   UNL A   1      34.235  34.433  29.280  1.00  0.00     0.039 A 
ATOM     33  C   UNL A   1      34.085  33.808  30.523  1.00  0.00     0.014 A 
ATOM     34  C   UNL A   1      35.506  34.602  28.722  1.00  0.00     0.014 A 
ATOM     35  C   UNL A   1      35.202  33.291  31.173  1.00  0.00     0.010 A 
ATOM     36  C   UNL A   1      36.625  34.085  29.371  1.00  0.00     0.010 A 
ATOM     37  C   UNL A   1      36.471  33.406  30.585  1.00  0.00    -0.014 A 
BRANCH  37  38
ATOM     38  C   UNL A   1      37.577  32.582  31.140  1.00  0.00     0.031 A 
ATOM     39  C   UNL A   1      37.783  31.312  30.269  1.00  0.00     0.074 A 
ATOM     40  C   UNL A   1      38.180  33.008  32.299  1.00  0.00     0.049 A 
ATOM     41  N   UNL A   1      38.055  30.089  30.616  1.00  0.00    -0.248 NA
ATOM     42  C   UNL A   1      37.505  31.382  28.803  1.00  0.00     0.031 C 
ATOM     43  C   UNL A   1      37.917  34.308  32.963  1.00  0.00     0.029 A 
ATOM     44  N   UNL A   1      39.131  32.473  33.152  1.00  0.00    -0.354 N 
ATOM     45  C   UNL A   1      38.245  29.341  29.419  1.00  0.00     0.074 A 
ATOM     46  C   UNL A   1      37.709  30.136  28.363  1.00  0.00     0.031 C 
ATOM     47  C   UNL A   1      38.608  34.419  34.122  1.00  0.00     0.029 A 
ATOM     48  C   UNL A   1      39.409  33.225  34.332  1.00  0.00     0.049 A 
ATOM     49  H   UNL A   1      39.589  31.623  32.956  1.00  0.00     0.167 HD
ATOM     50  C   UNL A   1      39.026  28.217  29.358  1.00  0.00     0.034 A 
ATOM     51  C   UNL A   1      40.206  32.900  35.407  1.00  0.00     0.034 A 
ATOM     52  C   UNL A   1      39.612  28.013  30.641  1.00  0.00     0.049 A 
ATOM     53  C   UNL A   1      40.930  31.701  34.990  1.00  0.00     0.074 A 
ATOM     54  C   UNL A   1      39.104  27.632  31.852  1.00  0.00     0.029 A 
ATOM     55  N   UNL A   1      40.831  28.629  30.808  1.00  0.00    -0.354 N 
ATOM     56  N   UNL A   1      41.914  31.707  34.143  1.00  0.00    -0.248 NA
ATOM     57  C   UNL A   1      40.511  30.395  35.512  1.00  0.00     0.031 C 
ATOM     58  C   UNL A   1      39.802  28.462  32.747  1.00  0.00     0.029 A 
ATOM     59  C   UNL A   1      40.872  29.088  32.090  1.00  0.00     0.049 A 
ATOM     60  H   UNL A   1      41.539  28.721  30.130  1.00  0.00     0.167 HD
ATOM     61  C   UNL A   1      41.924  30.399  33.739  1.00  0.00     0.074 A 
ATOM     62  C   UNL A   1      41.348  29.625  34.820  1.00  0.00     0.031 C 
ATOM     63  C   UNL A   1      41.797  30.143  32.411  1.00  0.00     0.034 A 
BRANCH  50  64
ATOM     64  C   UNL A   1      39.652  27.392  28.247  1.00  0.00     0.023 A 
ATOM     65  C   UNL A   1      39.378  25.990  28.311  1.00  0.00     0.012 A 
ATOM     66  C   UNL A   1      40.692  27.797  27.397  1.00  0.00     0.148 A 
ATOM     67  C   UNL A   1      40.188  25.033  27.702  1.00  0.00     0.002 A 
ATOM     68  C   UNL A   1      41.466  26.834  26.738  1.00  0.00     0.091 A 
ATOM     69  F   UNL A   1      40.986  29.095  27.288  1.00  0.00    -0.205 F 
ATOM     70  C   UNL A   1      41.247  25.459  26.925  1.00  0.00     0.022 A 
BRANCH  68  71
ATOM     71  S   UNL A   1      42.806  27.253  25.616  1.00  0.00     0.127 S 
ATOM     72  O   UNL A   1      43.796  27.822  26.523  1.00  0.00    -0.237 OA
ATOM     73  O   UNL A   1      43.160  25.942  25.071  1.00  0.00    -0.237 OA
ATOM     74  O   UNL A   1      42.225  28.165  24.636  1.00  0.00    -0.744 OA
ENDBRANCH  68  71
ENDBRANCH  50  64
BRANCH  51  75
ATOM     75  C   UNL A   1      40.511  33.348  36.829  1.00  0.00     0.023 A 
ATOM     76  C   UNL A   1      39.770  32.987  37.959  1.00  0.00     0.012 A 
ATOM     77  C   UNL A   1      41.720  34.082  37.093  1.00  0.00     0.148 A 
ATOM     78  C   UNL A   1      40.257  33.251  39.262  1.00  0.00     0.002 A 
ATOM     79  C   UNL A   1      42.266  34.202  38.364  1.00  0.00     0.091 A 
ATOM     80  F   UNL A   1      42.353  34.707  36.096  1.00  0.00    -0.205 F 
ATOM     81  C   UNL A   1      41.524  33.804  39.467  1.00  0.00     0.022 A 
BRANCH  79  82
ATOM     82  S   UNL A   1      43.988  34.700  38.615  1.00  0.00     0.127 S 
ATOM     83  O   UNL A   1      44.725  33.651  37.913  1.00  0.00    -0.237 OA
ATOM     84  O   UNL A   1      44.008  36.007  37.958  1.00  0.00    -0.237 OA
ATOM     85  O   UNL A   1      44.203  34.742  40.055  1.00  0.00    -0.744 OA
ENDBRANCH  79  82
ENDBRANCH  51  75
BRANCH  63  86
ATOM     86  C   UNL A   1      42.357  31.232  31.486  1.00  0.00     0.023 A 
ATOM     87  C   UNL A   1      41.415  32.071  30.850  1.00  0.00     0.012 A 
ATOM     88  C   UNL A   1      43.713  31.398  31.111  1.00  0.00     0.148 A 
ATOM     89  C   UNL A   1      41.785  33.001  29.874  1.00  0.00     0.002 A 
ATOM     90  C   UNL A   1      44.084  32.321  30.121  1.00  0.00     0.091 A 
ATOM     91  F   UNL A   1      44.638  30.655  31.714  1.00  0.00    -0.205 F 
ATOM     92  C   UNL A   1      43.117  33.124  29.505  1.00  0.00     0.022 A 
BRANCH  90  93
ATOM     93  S   UNL A   1      45.772  32.520  29.501  1.00  0.00     0.127 S 
ATOM     94  O   UNL A   1      45.583  33.388  28.336  1.00  0.00    -0.237 OA
ATOM     95  O   UNL A   1      46.441  33.171  30.625  1.00  0.00    -0.237 OA
ATOM     96  O   UNL A   1      46.258  31.186  29.171  1.00  0.00    -0.744 OA
ENDBRANCH  90  93
ENDBRANCH  63  86
ENDBRANCH  37  38
ENDBRANCH  29  32
ENDBRANCH  27  28
ENDBRANCH  26  27
ENDBRANCH  25  26
ENDBRANCH   1  25
TORSDOF 19
ENDMDL
MODEL 3
REMARK VINA RESULT:     -11.2      4.711     10.892
REMARK SMILES CC[NH2+][C@H](C)c1cccn1Cc1ccc(C(=O)NCCCCNC(=O)c2ccc(-c3c4nc(c(-c5cccc(S(=O)(=O)[O-])c5F)c5ccc([nH]5)c(-c5cccc(S(=O)(=O)[O-])c5F)c5nc(c(-c6cccc(S(=O)(=O)[O-])c6F)c6ccc3[nH]6)C=C5)C=C4)cc2)cc1
REMARK SMILES IDX 19 1 18 2 16 3 17 4 15 6 12 7 13 8 90 9 14 10 89 11 11 12
REMARK SMILES IDX 10 13 6 14 7 15 8 16 9 17 4 18 5 19 3 20 2 23 1 24 20 25
REMARK SMILES IDX 21 26 22 27 23 28 24 29 25 31 26 32 27 33 88 34 28 35 87 36
REMARK SMILES IDX 29 37 30 38 31 39 81 40 32 41 86 42 80 43 82 44 33 45 85 46
REMARK SMILES IDX 79 47 78 48 34 50 66 51 46 52 65 53 47 54 50 55 64 56 83 57
REMARK SMILES IDX 48 58 49 59 63 61 84 62 51 63 35 64 36 65 44 66 37 67 39 68
REMARK SMILES IDX 45 69 38 70 40 71 41 72 42 73 43 74 67 75 68 76 76 77 69 78
REMARK SMILES IDX 71 79 77 80 70 81 72 82 73 83 74 84 75 85 52 86 53 87 61 88
REMARK SMILES IDX 54 89 56 90 62 91 55 92 57 93 58 94 59 95 60 96
REMARK H PARENT 18 5 3 21 3 22 23 30 82 49 50 60
REMARK Flexibility Score: inf
ROOT
ATOM      1  C   UNL A   1      32.034  29.876  25.592  1.00  0.00     0.116 C 
ENDROOT
BRANCH   1   2
ATOM      2  N   UNL A   1      31.781  29.259  26.883  1.00  0.00    -0.352 N 
ATOM      3  C   UNL A   1      31.800  27.944  27.277  1.00  0.00     0.251 C 
ATOM      4  O   UNL A   1      31.547  27.660  28.446  1.00  0.00    -0.269 OA
ATOM      5  H   UNL A   1      31.555  29.895  27.600  1.00  0.00     0.163 HD
BRANCH   3   6
ATOM      6  C   UNL A   1      32.160  26.844  26.344  1.00  0.00     0.039 A 
ATOM      7  C   UNL A   1      32.719  24.678  24.626  1.00  0.00    -0.028 A 
ATOM      8  C   UNL A   1      31.397  24.970  24.992  1.00  0.00     0.006 A 
ATOM      9  C   UNL A   1      33.745  25.512  25.088  1.00  0.00     0.006 A 
ATOM     10  C   UNL A   1      31.121  26.048  25.842  1.00  0.00     0.014 A 
ATOM     11  C   UNL A   1      33.464  26.594  25.920  1.00  0.00     0.014 A 
BRANCH   7  12
ATOM     12  C   UNL A   1      33.056  23.504  23.739  1.00  0.00     0.157 C 
BRANCH  12  13
ATOM     13  N   UNL A   1      34.305  22.841  24.106  1.00  0.00    -0.342 N 
ATOM     14  C   UNL A   1      34.604  21.935  25.125  1.00  0.00     0.076 A 
ATOM     15  C   UNL A   1      35.972  21.667  24.987  1.00  0.00     0.029 A 
ATOM     16  C   UNL A   1      36.473  22.314  23.845  1.00  0.00     0.020 A 
ATOM     17  C   UNL A   1      35.426  23.009  23.307  1.00  0.00     0.086 A 
BRANCH  14  18
ATOM     18  C   UNL A   1      33.702  21.372  26.233  1.00  0.00     0.227 C 
ATOM     19  C   UNL A   1      33.261  22.364  27.306  1.00  0.00     0.082 C 
BRANCH  18  20
ATOM     20  N   UNL A   1      32.510  20.762  25.597  1.00  0.00    -0.339 N 
ATOM     21  H   UNL A   1      31.891  20.426  26.335  1.00  0.00     0.346 HD
ATOM     22  H   UNL A   1      32.084  21.489  25.021  1.00  0.00     0.346 HD
BRANCH  20  23
ATOM     23  C   UNL A   1      32.805  19.643  24.703  1.00  0.00     0.257 C 
ATOM     24  C   UNL A   1      32.729  18.327  25.464  1.00  0.00     0.071 C 
ENDBRANCH  20  23
ENDBRANCH  18  20
ENDBRANCH  14  18
ENDBRANCH  12  13
ENDBRANCH   7  12
ENDBRANCH   3   6
ENDBRANCH   1   2
BRANCH   1  25
ATOM     25  C   UNL A   1      31.203  31.154  25.434  1.00  0.00     0.023 C 
BRANCH  25  26
ATOM     26  C   UNL A   1      31.101  31.996  26.711  1.00  0.00     0.023 C 
BRANCH  26  27
ATOM     27  C   UNL A   1      32.445  32.537  27.196  1.00  0.00     0.116 C 
BRANCH  27  28
ATOM     28  N   UNL A   1      32.362  33.966  27.462  1.00  0.00    -0.352 N 
ATOM     29  C   UNL A   1      32.999  34.703  28.427  1.00  0.00     0.251 C 
ATOM     30  H   UNL A   1      31.764  34.473  26.866  1.00  0.00     0.163 HD
ATOM     31  O   UNL A   1      32.541  35.798  28.744  1.00  0.00    -0.269 OA
BRANCH  29  32
ATOM     32  C   UNL A   1      34.214  34.195  29.095  1.00  0.00     0.039 A 
ATOM     33  C   UNL A   1      34.067  33.534  30.319  1.00  0.00     0.014 A 
ATOM     34  C   UNL A   1      35.488  34.434  28.568  1.00  0.00     0.014 A 
ATOM     35  C   UNL A   1      35.191  33.050  30.980  1.00  0.00     0.010 A 
ATOM     36  C   UNL A   1      36.615  33.950  29.229  1.00  0.00     0.010 A 
ATOM     37  C   UNL A   1      36.467  33.235  30.423  1.00  0.00    -0.014 A 
BRANCH  37  38
ATOM     38  C   UNL A   1      37.596  32.447  30.982  1.00  0.00     0.031 A 
ATOM     39  C   UNL A   1      37.847  31.185  30.109  1.00  0.00     0.074 A 
ATOM     40  C   UNL A   1      38.178  32.890  32.144  1.00  0.00     0.049 A 
ATOM     41  N   UNL A   1      38.158  29.971  30.455  1.00  0.00    -0.248 NA
ATOM     42  C   UNL A   1      37.575  31.250  28.642  1.00  0.00     0.031 C 
ATOM     43  C   UNL A   1      37.870  34.178  32.810  1.00  0.00     0.029 A 
ATOM     44  N   UNL A   1      39.142  32.384  33.001  1.00  0.00    -0.354 N 
ATOM     45  C   UNL A   1      38.379  29.233  29.258  1.00  0.00     0.074 A 
ATOM     46  C   UNL A   1      37.822  30.012  28.200  1.00  0.00     0.031 C 
ATOM     47  C   UNL A   1      38.551  34.309  33.973  1.00  0.00     0.029 A 
ATOM     48  C   UNL A   1      39.390  33.142  34.184  1.00  0.00     0.049 A 
ATOM     49  H   UNL A   1      39.629  31.550  32.806  1.00  0.00     0.167 HD
ATOM     50  C   UNL A   1      39.197  28.135  29.199  1.00  0.00     0.034 A 
ATOM     51  C   UNL A   1      40.191  32.841  35.262  1.00  0.00     0.034 A 
ATOM     52  C   UNL A   1      39.782  27.948  30.484  1.00  0.00     0.049 A 
ATOM     53  C   UNL A   1      40.957  31.667  34.847  1.00  0.00     0.074 A 
ATOM     54  C   UNL A   1      39.281  27.547  31.692  1.00  0.00     0.029 A 
ATOM     55  N   UNL A   1      40.979  28.603  30.658  1.00  0.00    -0.354 N 
ATOM     56  N   UNL A   1      41.944  31.707  34.005  1.00  0.00    -0.248 NA
ATOM     57  C   UNL A   1      40.578  30.347  35.364  1.00  0.00     0.031 C 
ATOM     58  C   UNL A   1      39.947  28.398  32.592  1.00  0.00     0.029 A 
ATOM     59  C   UNL A   1      40.999  29.060  31.941  1.00  0.00     0.049 A 
ATOM     60  H   UNL A   1      41.688  28.720  29.984  1.00  0.00     0.167 HD
ATOM     61  C   UNL A   1      41.999  30.401  33.598  1.00  0.00     0.074 A 
ATOM     62  C   UNL A   1      41.443  29.606  34.675  1.00  0.00     0.031 C 
ATOM     63  C   UNL A   1      41.887  30.144  32.269  1.00  0.00     0.034 A 
BRANCH  50  64
ATOM     64  C   UNL A   1      39.855  27.333  28.089  1.00  0.00     0.023 A 
ATOM     65  C   UNL A   1      39.561  25.934  28.102  1.00  0.00     0.012 A 
ATOM     66  C   UNL A   1      40.931  27.748  27.291  1.00  0.00     0.148 A 
ATOM     67  C   UNL A   1      40.382  24.984  27.498  1.00  0.00     0.002 A 
ATOM     68  C   UNL A   1      41.718  26.795  26.635  1.00  0.00     0.091 A 
ATOM     69  F   UNL A   1      41.245  29.044  27.230  1.00  0.00    -0.205 F 
ATOM     70  C   UNL A   1      41.476  25.418  26.774  1.00  0.00     0.022 A 
BRANCH  68  71
ATOM     71  S   UNL A   1      43.105  27.227  25.577  1.00  0.00     0.127 S 
ATOM     72  O   UNL A   1      43.931  28.031  26.471  1.00  0.00    -0.237 OA
ATOM     73  O   UNL A   1      43.659  25.911  25.256  1.00  0.00    -0.237 OA
ATOM     74  O   UNL A   1      42.524  27.920  24.433  1.00  0.00    -0.744 OA
ENDBRANCH  68  71
ENDBRANCH  50  64
BRANCH  51  75
ATOM     75  C   UNL A   1      40.475  33.295  36.687  1.00  0.00     0.023 A 
ATOM     76  C   UNL A   1      41.445  34.235  37.050  1.00  0.00     0.012 A 
ATOM     77  C   UNL A   1      39.615  32.856  37.753  1.00  0.00     0.148 A 
ATOM     78  C   UNL A   1      41.483  34.773  38.359  1.00  0.00     0.002 A 
ATOM     79  C   UNL A   1      39.555  33.493  38.985  1.00  0.00     0.091 A 
ATOM     80  F   UNL A   1      38.846  31.775  37.588  1.00  0.00    -0.205 F 
ATOM     81  C   UNL A   1      40.509  34.448  39.306  1.00  0.00     0.022 A 
BRANCH  79  82
ATOM     82  S   UNL A   1      38.166  33.242  40.118  1.00  0.00     0.127 S 
ATOM     83  O   UNL A   1      38.510  31.978  40.765  1.00  0.00    -0.237 OA
ATOM     84  O   UNL A   1      38.279  34.421  40.976  1.00  0.00    -0.237 OA
ATOM     85  O   UNL A   1      36.963  33.204  39.297  1.00  0.00    -0.744 OA
ENDBRANCH  79  82
ENDBRANCH  51  75
BRANCH  63  86
ATOM     86  C   UNL A   1      42.416  31.253  31.349  1.00  0.00     0.023 A 
ATOM     87  C   UNL A   1      41.451  32.083  30.737  1.00  0.00     0.012 A 
ATOM     88  C   UNL A   1      43.763  31.446  30.957  1.00  0.00     0.148 A 
ATOM     89  C   UNL A   1      41.792  33.030  29.766  1.00  0.00     0.002 A 
ATOM     90  C   UNL A   1      44.105  32.386  29.972  1.00  0.00     0.091 A 
ATOM     91  F   UNL A   1      44.709  30.712  31.538  1.00  0.00    -0.205 F 
ATOM     92  C   UNL A   1      43.116  33.180  29.380  1.00  0.00     0.022 A 
BRANCH  90  93
ATOM     93  S   UNL A   1      45.780  32.621  29.332  1.00  0.00     0.127 S 
ATOM     94  O   UNL A   1      46.094  31.305  28.769  1.00  0.00    -0.237 OA
ATOM     95  O   UNL A   1      45.586  33.666  28.330  1.00  0.00    -0.237 OA
ATOM     96  O   UNL A   1      46.616  32.991  30.468  1.00  0.00    -0.744 OA
ENDBRANCH  90  93
ENDBRANCH  63  86
ENDBRANCH  37  38
ENDBRANCH  29  32
ENDBRANCH  27  28
ENDBRANCH  26  27
ENDBRANCH  25  26
ENDBRANCH   1  25
TORSDOF 19
ENDMDL
