MODEL 1
REMARK VINA RESULT:     -11.3      0.000      0.000
REMARK SMILES CCn1ncc(CNc2ccccc2C(=O)NCCCCNC(=O)c2ccc(-c3c4nc(c(-c5cccc(S(=O)(=O)[O-])c5F)c5ccc([nH]5)c(-c5cccc(S(=O)(=O)[O-])c5F)c5nc(c(-c6cccc(S(=O)(=O)[O-])c6F)c6ccc3[nH]6)C=C5)C=C4)cc2)c1C
REMARK SMILES IDX 19 1 18 2 17 3 15 4 16 5 14 7 9 8 10 9 11 10 13 11 12 12
REMARK SMILES IDX 8 13 7 15 6 16 3 17 4 18 88 19 5 20 89 21 2 22 1 23 20 24
REMARK SMILES IDX 21 25 22 26 23 27 24 29 25 30 26 31 87 32 27 33 86 34 28 35
REMARK SMILES IDX 29 36 30 37 80 38 31 39 85 40 79 41 81 42 32 43 84 44 78 45
REMARK SMILES IDX 77 46 33 48 65 49 45 50 64 51 46 52 49 53 63 54 82 55 47 56
REMARK SMILES IDX 48 57 62 59 83 60 50 61 34 62 35 63 43 64 36 65 38 66 44 67
REMARK SMILES IDX 37 68 39 69 40 70 41 71 42 72 66 73 67 74 75 75 68 76 70 77
REMARK SMILES IDX 76 78 69 79 71 80 72 81 73 82 74 83 51 84 52 85 60 86 53 87
REMARK SMILES IDX 55 88 61 89 54 90 56 91 57 92 58 93 59 94
REMARK H PARENT 17 6 8 14 22 28 81 47 49 58
REMARK Flexibility Score: inf
ROOT
ATOM      1  C   UNL A   1      32.652  29.122  25.846  1.00  0.00     0.023 C 
ENDROOT
BRANCH   1   2
ATOM      2  C   UNL A   1      32.888  27.633  25.559  1.00  0.00     0.116 C 
BRANCH   2   3
ATOM      3  N   UNL A   1      32.188  26.691  26.413  1.00  0.00    -0.352 N 
ATOM      4  C   UNL A   1      32.280  25.309  26.459  1.00  0.00     0.253 C 
ATOM      5  O   UNL A   1      31.543  24.718  27.250  1.00  0.00    -0.269 OA
ATOM      6  H   UNL A   1      31.556  27.092  27.052  1.00  0.00     0.163 HD
BRANCH   4   7
ATOM      7  C   UNL A   1      33.139  24.503  25.531  1.00  0.00     0.062 A 
ATOM      8  C   UNL A   1      32.699  23.440  24.726  1.00  0.00     0.047 A 
ATOM      9  C   UNL A   1      33.660  22.654  24.057  1.00  0.00     0.026 A 
ATOM     10  C   UNL A   1      35.015  22.965  24.091  1.00  0.00     0.002 A 
ATOM     11  C   UNL A   1      34.506  24.851  25.502  1.00  0.00     0.016 A 
ATOM     12  C   UNL A   1      35.434  24.093  24.781  1.00  0.00     0.001 A 
BRANCH   8  13
ATOM     13  N   UNL A   1      31.377  23.161  24.421  1.00  0.00    -0.380 N 
ATOM     14  H   UNL A   1      30.829  22.636  25.048  1.00  0.00     0.160 HD
BRANCH  13  15
ATOM     15  C   UNL A   1      30.793  23.645  23.171  1.00  0.00     0.152 C 
BRANCH  15  16
ATOM     16  C   UNL A   1      30.582  25.115  23.278  1.00  0.00     0.012 A 
ATOM     17  N   UNL A   1      30.632  27.286  22.936  1.00  0.00    -0.270 N 
ATOM     18  N   UNL A   1      29.590  27.103  23.765  1.00  0.00    -0.181 NA
ATOM     19  C   UNL A   1      31.219  26.106  22.551  1.00  0.00     0.040 A 
ATOM     20  C   UNL A   1      29.540  25.787  23.928  1.00  0.00     0.141 A 
ATOM     21  C   UNL A   1      32.254  25.953  21.500  1.00  0.00     0.067 C 
BRANCH  17  22
ATOM     22  C   UNL A   1      30.953  28.629  22.496  1.00  0.00     0.141 C 
ATOM     23  C   UNL A   1      29.891  29.667  22.834  1.00  0.00     0.029 C 
ENDBRANCH  17  22
ENDBRANCH  15  16
ENDBRANCH  13  15
ENDBRANCH   8  13
ENDBRANCH   4   7
ENDBRANCH   2   3
ENDBRANCH   1   2
BRANCH   1  24
ATOM     24  C   UNL A   1      33.008  29.647  27.243  1.00  0.00     0.023 C 
BRANCH  24  25
ATOM     25  C   UNL A   1      34.177  30.613  27.300  1.00  0.00     0.116 C 
BRANCH  25  26
ATOM     26  N   UNL A   1      34.099  31.665  28.307  1.00  0.00    -0.352 N 
ATOM     27  C   UNL A   1      34.929  31.866  29.404  1.00  0.00     0.251 C 
ATOM     28  H   UNL A   1      33.367  32.315  28.194  1.00  0.00     0.163 HD
ATOM     29  O   UNL A   1      34.589  32.647  30.282  1.00  0.00    -0.269 OA
BRANCH  27  30
ATOM     30  C   UNL A   1      36.236  31.155  29.503  1.00  0.00     0.039 A 
ATOM     31  C   UNL A   1      36.304  29.766  29.676  1.00  0.00     0.014 A 
ATOM     32  C   UNL A   1      37.420  31.888  29.489  1.00  0.00     0.014 A 
ATOM     33  C   UNL A   1      37.554  29.149  29.809  1.00  0.00     0.010 A 
ATOM     34  C   UNL A   1      38.644  31.298  29.564  1.00  0.00     0.010 A 
ATOM     35  C   UNL A   1      38.711  29.937  29.769  1.00  0.00    -0.014 A 
BRANCH  35  36
ATOM     36  C   UNL A   1      40.054  29.397  29.725  1.00  0.00     0.031 A 
ATOM     37  C   UNL A   1      40.604  29.120  31.075  1.00  0.00     0.074 A 
ATOM     38  C   UNL A   1      40.571  28.861  28.599  1.00  0.00     0.049 A 
ATOM     39  N   UNL A   1      41.540  29.777  31.669  1.00  0.00    -0.248 NA
ATOM     40  C   UNL A   1      39.925  28.141  31.943  1.00  0.00     0.031 C 
ATOM     41  C   UNL A   1      39.931  28.724  27.283  1.00  0.00     0.029 A 
ATOM     42  N   UNL A   1      41.725  28.163  28.445  1.00  0.00    -0.354 N 
ATOM     43  C   UNL A   1      41.749  29.115  32.873  1.00  0.00     0.074 A 
ATOM     44  C   UNL A   1      40.581  28.307  33.094  1.00  0.00     0.031 C 
ATOM     45  C   UNL A   1      40.597  27.796  26.557  1.00  0.00     0.029 A 
ATOM     46  C   UNL A   1      41.776  27.379  27.295  1.00  0.00     0.049 A 
ATOM     47  H   UNL A   1      42.465  28.206  29.094  1.00  0.00     0.167 HD
ATOM     48  C   UNL A   1      42.988  29.066  33.434  1.00  0.00     0.034 A 
ATOM     49  C   UNL A   1      42.691  26.413  27.022  1.00  0.00     0.034 A 
ATOM     50  C   UNL A   1      43.905  29.935  32.736  1.00  0.00     0.049 A 
ATOM     51  C   UNL A   1      43.870  26.680  27.882  1.00  0.00     0.074 A 
ATOM     52  C   UNL A   1      43.932  31.284  32.438  1.00  0.00     0.029 A 
ATOM     53  N   UNL A   1      44.760  29.329  31.844  1.00  0.00    -0.354 N 
ATOM     54  N   UNL A   1      44.615  27.743  27.757  1.00  0.00    -0.248 NA
ATOM     55  C   UNL A   1      43.936  26.019  29.176  1.00  0.00     0.031 C 
ATOM     56  C   UNL A   1      44.414  31.350  31.097  1.00  0.00     0.029 A 
ATOM     57  C   UNL A   1      44.739  30.056  30.683  1.00  0.00     0.049 A 
ATOM     58  H   UNL A   1      45.293  28.517  32.011  1.00  0.00     0.167 HD
ATOM     59  C   UNL A   1      44.832  28.158  29.065  1.00  0.00     0.074 A 
ATOM     60  C   UNL A   1      44.497  26.999  29.893  1.00  0.00     0.031 C 
ATOM     61  C   UNL A   1      44.953  29.485  29.371  1.00  0.00     0.034 A 
BRANCH  48  62
ATOM     62  C   UNL A   1      43.503  27.983  34.348  1.00  0.00     0.023 A 
ATOM     63  C   UNL A   1      44.098  28.404  35.558  1.00  0.00     0.012 A 
ATOM     64  C   UNL A   1      43.677  26.630  33.981  1.00  0.00     0.148 A 
ATOM     65  C   UNL A   1      44.872  27.538  36.336  1.00  0.00     0.002 A 
ATOM     66  C   UNL A   1      44.381  25.752  34.798  1.00  0.00     0.091 A 
ATOM     67  F   UNL A   1      43.281  26.206  32.777  1.00  0.00    -0.205 F 
ATOM     68  C   UNL A   1      45.008  26.209  35.959  1.00  0.00     0.022 A 
BRANCH  66  69
ATOM     69  S   UNL A   1      44.556  24.010  34.390  1.00  0.00     0.127 S 
ATOM     70  O   UNL A   1      45.299  24.076  33.136  1.00  0.00    -0.237 OA
ATOM     71  O   UNL A   1      45.316  23.513  35.537  1.00  0.00    -0.237 OA
ATOM     72  O   UNL A   1      43.198  23.489  34.301  1.00  0.00    -0.744 OA
ENDBRANCH  66  69
ENDBRANCH  48  62
BRANCH  49  73
ATOM     73  C   UNL A   1      42.535  25.132  26.287  1.00  0.00     0.023 A 
ATOM     74  C   UNL A   1      43.507  24.739  25.344  1.00  0.00     0.012 A 
ATOM     75  C   UNL A   1      41.603  24.162  26.719  1.00  0.00     0.148 A 
ATOM     76  C   UNL A   1      43.575  23.418  24.881  1.00  0.00     0.002 A 
ATOM     77  C   UNL A   1      41.673  22.851  26.254  1.00  0.00     0.091 A 
ATOM     78  F   UNL A   1      40.711  24.497  27.661  1.00  0.00    -0.205 F 
ATOM     79  C   UNL A   1      42.666  22.471  25.344  1.00  0.00     0.022 A 
BRANCH  77  80
ATOM     80  S   UNL A   1      40.552  21.574  26.842  1.00  0.00     0.127 S 
ATOM     81  O   UNL A   1      41.014  20.400  26.102  1.00  0.00    -0.237 OA
ATOM     82  O   UNL A   1      40.846  21.554  28.272  1.00  0.00    -0.237 OA
ATOM     83  O   UNL A   1      39.214  22.025  26.474  1.00  0.00    -0.744 OA
ENDBRANCH  77  80
ENDBRANCH  49  73
BRANCH  61  84
ATOM     84  C   UNL A   1      45.078  30.468  28.231  1.00  0.00     0.023 A 
ATOM     85  C   UNL A   1      43.960  30.983  27.540  1.00  0.00     0.012 A 
ATOM     86  C   UNL A   1      46.342  31.018  27.971  1.00  0.00     0.148 A 
ATOM     87  C   UNL A   1      44.102  32.006  26.597  1.00  0.00     0.002 A 
ATOM     88  C   UNL A   1      46.475  32.066  27.068  1.00  0.00     0.091 A 
ATOM     89  F   UNL A   1      47.396  30.524  28.638  1.00  0.00    -0.205 F 
ATOM     90  C   UNL A   1      45.360  32.557  26.372  1.00  0.00     0.022 A 
BRANCH  88  91
ATOM     91  S   UNL A   1      48.046  32.897  26.829  1.00  0.00     0.127 S 
ATOM     92  O   UNL A   1      47.721  33.868  25.785  1.00  0.00    -0.237 OA
ATOM     93  O   UNL A   1      48.298  33.480  28.148  1.00  0.00    -0.237 OA
ATOM     94  O   UNL A   1      48.996  31.860  26.447  1.00  0.00    -0.744 OA
ENDBRANCH  88  91
ENDBRANCH  61  84
ENDBRANCH  35  36
ENDBRANCH  27  30
ENDBRANCH  25  26
ENDBRANCH  24  25
ENDBRANCH   1  24
TORSDOF 18
ENDMDL
MODEL 2
REMARK VINA RESULT:     -11.1      5.178     10.994
REMARK SMILES CCn1ncc(CNc2ccccc2C(=O)NCCCCNC(=O)c2ccc(-c3c4nc(c(-c5cccc(S(=O)(=O)[O-])c5F)c5ccc([nH]5)c(-c5cccc(S(=O)(=O)[O-])c5F)c5nc(c(-c6cccc(S(=O)(=O)[O-])c6F)c6ccc3[nH]6)C=C5)C=C4)cc2)c1C
REMARK SMILES IDX 19 1 18 2 17 3 15 4 16 5 14 7 9 8 10 9 11 10 13 11 12 12
REMARK SMILES IDX 8 13 7 15 6 16 3 17 4 18 88 19 5 20 89 21 2 22 1 23 20 24
REMARK SMILES IDX 21 25 22 26 23 27 24 29 25 30 26 31 87 32 27 33 86 34 28 35
REMARK SMILES IDX 29 36 30 37 80 38 31 39 85 40 79 41 81 42 32 43 84 44 78 45
REMARK SMILES IDX 77 46 33 48 65 49 45 50 64 51 46 52 49 53 63 54 82 55 47 56
REMARK SMILES IDX 48 57 62 59 83 60 50 61 34 62 35 63 43 64 36 65 38 66 44 67
REMARK SMILES IDX 37 68 39 69 40 70 41 71 42 72 66 73 67 74 75 75 68 76 70 77
REMARK SMILES IDX 76 78 69 79 71 80 72 81 73 82 74 83 51 84 52 85 60 86 53 87
REMARK SMILES IDX 55 88 61 89 54 90 56 91 57 92 58 93 59 94
REMARK H PARENT 17 6 8 14 22 28 81 47 49 58
REMARK Flexibility Score: inf
ROOT
ATOM      1  C   UNL A   1      43.455  23.962  24.635  1.00  0.00     0.023 C 
ENDROOT
BRANCH   1   2
ATOM      2  C   UNL A   1      44.485  25.005  25.087  1.00  0.00     0.116 C 
BRANCH   2   3
ATOM      3  N   UNL A   1      45.799  24.505  25.448  1.00  0.00    -0.352 N 
ATOM      4  C   UNL A   1      46.359  24.330  26.703  1.00  0.00     0.253 C 
ATOM      5  O   UNL A   1      47.522  23.925  26.753  1.00  0.00    -0.269 OA
ATOM      6  H   UNL A   1      46.376  24.254  24.690  1.00  0.00     0.163 HD
BRANCH   4   7
ATOM      7  C   UNL A   1      45.669  24.705  27.980  1.00  0.00     0.062 A 
ATOM      8  C   UNL A   1      45.504  26.013  28.466  1.00  0.00     0.047 A 
ATOM      9  C   UNL A   1      45.010  26.191  29.774  1.00  0.00     0.026 A 
ATOM     10  C   UNL A   1      44.586  25.118  30.552  1.00  0.00     0.002 A 
ATOM     11  C   UNL A   1      45.172  23.632  28.749  1.00  0.00     0.016 A 
ATOM     12  C   UNL A   1      44.627  23.838  30.020  1.00  0.00     0.001 A 
BRANCH   8  13
ATOM     13  N   UNL A   1      45.669  27.169  27.723  1.00  0.00    -0.380 N 
ATOM     14  H   UNL A   1      44.881  27.650  27.383  1.00  0.00     0.160 HD
BRANCH  13  15
ATOM     15  C   UNL A   1      47.012  27.678  27.443  1.00  0.00     0.152 C 
BRANCH  15  16
ATOM     16  C   UNL A   1      47.186  27.782  25.968  1.00  0.00     0.012 A 
ATOM     17  N   UNL A   1      47.895  27.530  23.902  1.00  0.00    -0.270 N 
ATOM     18  N   UNL A   1      46.682  28.094  23.771  1.00  0.00    -0.181 NA
ATOM     19  C   UNL A   1      48.215  27.252  25.208  1.00  0.00     0.040 A 
ATOM     20  C   UNL A   1      46.244  28.199  25.020  1.00  0.00     0.141 A 
ATOM     21  C   UNL A   1      49.381  26.459  25.666  1.00  0.00     0.067 C 
BRANCH  17  22
ATOM     22  C   UNL A   1      48.658  27.219  22.709  1.00  0.00     0.141 C 
ATOM     23  C   UNL A   1      48.562  28.275  21.615  1.00  0.00     0.029 C 
ENDBRANCH  17  22
ENDBRANCH  15  16
ENDBRANCH  13  15
ENDBRANCH   8  13
ENDBRANCH   4   7
ENDBRANCH   2   3
ENDBRANCH   1   2
BRANCH   1  24
ATOM     24  C   UNL A   1      43.673  22.506  25.069  1.00  0.00     0.023 C 
BRANCH  24  25
ATOM     25  C   UNL A   1      42.932  22.082  26.324  1.00  0.00     0.116 C 
BRANCH  25  26
ATOM     26  N   UNL A   1      41.530  21.719  26.156  1.00  0.00    -0.352 N 
ATOM     27  C   UNL A   1      40.408  22.384  26.639  1.00  0.00     0.251 C 
ATOM     28  H   UNL A   1      41.356  20.901  25.636  1.00  0.00     0.163 HD
ATOM     29  O   UNL A   1      39.320  21.825  26.617  1.00  0.00    -0.269 OA
BRANCH  27  30
ATOM     30  C   UNL A   1      40.520  23.778  27.157  1.00  0.00     0.039 A 
ATOM     31  C   UNL A   1      39.835  24.841  26.555  1.00  0.00     0.014 A 
ATOM     32  C   UNL A   1      41.374  24.048  28.223  1.00  0.00     0.014 A 
ATOM     33  C   UNL A   1      40.007  26.139  27.049  1.00  0.00     0.010 A 
ATOM     34  C   UNL A   1      41.512  25.296  28.749  1.00  0.00     0.010 A 
ATOM     35  C   UNL A   1      40.866  26.347  28.135  1.00  0.00    -0.014 A 
BRANCH  35  36
ATOM     36  C   UNL A   1      40.992  27.609  28.835  1.00  0.00     0.031 A 
ATOM     37  C   UNL A   1      41.945  28.536  28.177  1.00  0.00     0.074 A 
ATOM     38  C   UNL A   1      40.074  28.019  29.738  1.00  0.00     0.049 A 
ATOM     39  N   UNL A   1      43.109  28.872  28.614  1.00  0.00    -0.248 NA
ATOM     40  C   UNL A   1      41.672  28.993  26.802  1.00  0.00     0.031 C 
ATOM     41  C   UNL A   1      38.851  27.326  30.167  1.00  0.00     0.029 A 
ATOM     42  N   UNL A   1      39.956  29.233  30.334  1.00  0.00    -0.354 N 
ATOM     43  C   UNL A   1      43.594  29.797  27.697  1.00  0.00     0.074 A 
ATOM     44  C   UNL A   1      42.807  29.631  26.505  1.00  0.00     0.031 C 
ATOM     45  C   UNL A   1      38.017  28.215  30.753  1.00  0.00     0.029 A 
ATOM     46  C   UNL A   1      38.694  29.494  30.863  1.00  0.00     0.049 A 
ATOM     47  H   UNL A   1      40.700  29.876  30.386  1.00  0.00     0.167 HD
ATOM     48  C   UNL A   1      44.405  30.815  28.097  1.00  0.00     0.034 A 
ATOM     49  C   UNL A   1      38.237  30.700  31.290  1.00  0.00     0.034 A 
ATOM     50  C   UNL A   1      44.812  30.640  29.470  1.00  0.00     0.049 A 
ATOM     51  C   UNL A   1      39.430  31.541  31.563  1.00  0.00     0.074 A 
ATOM     52  C   UNL A   1      45.466  29.647  30.174  1.00  0.00     0.029 A 
ATOM     53  N   UNL A   1      44.135  31.390  30.406  1.00  0.00    -0.354 N 
ATOM     54  N   UNL A   1      40.287  31.273  32.508  1.00  0.00    -0.248 NA
ATOM     55  C   UNL A   1      39.924  32.394  30.493  1.00  0.00     0.031 C 
ATOM     56  C   UNL A   1      44.767  29.560  31.414  1.00  0.00     0.029 A 
ATOM     57  C   UNL A   1      43.790  30.557  31.439  1.00  0.00     0.049 A 
ATOM     58  H   UNL A   1      43.935  32.352  30.345  1.00  0.00     0.167 HD
ATOM     59  C   UNL A   1      41.523  31.488  31.912  1.00  0.00     0.074 A 
ATOM     60  C   UNL A   1      41.238  32.288  30.721  1.00  0.00     0.031 C 
ATOM     61  C   UNL A   1      42.612  30.738  32.259  1.00  0.00     0.034 A 
BRANCH  48  62
ATOM     62  C   UNL A   1      44.539  32.157  27.421  1.00  0.00     0.023 A 
ATOM     63  C   UNL A   1      45.667  32.338  26.590  1.00  0.00     0.012 A 
ATOM     64  C   UNL A   1      43.793  33.308  27.755  1.00  0.00     0.148 A 
ATOM     65  C   UNL A   1      46.063  33.606  26.157  1.00  0.00     0.002 A 
ATOM     66  C   UNL A   1      44.145  34.558  27.257  1.00  0.00     0.091 A 
ATOM     67  F   UNL A   1      42.815  33.234  28.663  1.00  0.00    -0.205 F 
ATOM     68  C   UNL A   1      45.297  34.717  26.485  1.00  0.00     0.022 A 
BRANCH  66  69
ATOM     69  S   UNL A   1      43.171  36.028  27.607  1.00  0.00     0.127 S 
ATOM     70  O   UNL A   1      43.282  36.113  29.060  1.00  0.00    -0.237 OA
ATOM     71  O   UNL A   1      43.906  37.053  26.867  1.00  0.00    -0.237 OA
ATOM     72  O   UNL A   1      41.839  35.751  27.083  1.00  0.00    -0.744 OA
ENDBRANCH  66  69
ENDBRANCH  48  62
BRANCH  49  73
ATOM     73  C   UNL A   1      36.872  31.279  31.227  1.00  0.00     0.023 A 
ATOM     74  C   UNL A   1      36.239  31.719  32.408  1.00  0.00     0.012 A 
ATOM     75  C   UNL A   1      36.311  31.672  29.991  1.00  0.00     0.148 A 
ATOM     76  C   UNL A   1      35.116  32.557  32.360  1.00  0.00     0.002 A 
ATOM     77  C   UNL A   1      35.194  32.501  29.948  1.00  0.00     0.091 A 
ATOM     78  F   UNL A   1      36.932  31.317  28.859  1.00  0.00    -0.205 F 
ATOM     79  C   UNL A   1      34.600  32.957  31.131  1.00  0.00     0.022 A 
BRANCH  77  80
ATOM     80  S   UNL A   1      34.503  33.084  28.393  1.00  0.00     0.127 S 
ATOM     81  O   UNL A   1      33.694  31.940  27.973  1.00  0.00    -0.237 OA
ATOM     82  O   UNL A   1      33.740  34.251  28.824  1.00  0.00    -0.237 OA
ATOM     83  O   UNL A   1      35.648  33.355  27.532  1.00  0.00    -0.744 OA
ENDBRANCH  77  80
ENDBRANCH  49  73
BRANCH  61  84
ATOM     84  C   UNL A   1      42.495  29.833  33.463  1.00  0.00     0.023 A 
ATOM     85  C   UNL A   1      41.935  28.539  33.395  1.00  0.00     0.012 A 
ATOM     86  C   UNL A   1      43.128  30.231  34.650  1.00  0.00     0.148 A 
ATOM     87  C   UNL A   1      41.986  27.672  34.492  1.00  0.00     0.002 A 
ATOM     88  C   UNL A   1      43.218  29.353  35.722  1.00  0.00     0.091 A 
ATOM     89  F   UNL A   1      43.662  31.462  34.700  1.00  0.00    -0.205 F 
ATOM     90  C   UNL A   1      42.640  28.075  35.651  1.00  0.00     0.022 A 
BRANCH  88  91
ATOM     91  S   UNL A   1      44.155  29.769  37.194  1.00  0.00     0.127 S 
ATOM     92  O   UNL A   1      44.404  28.452  37.778  1.00  0.00    -0.237 OA
ATOM     93  O   UNL A   1      45.340  30.424  36.638  1.00  0.00    -0.237 OA
ATOM     94  O   UNL A   1      43.301  30.652  37.978  1.00  0.00    -0.744 OA
ENDBRANCH  88  91
ENDBRANCH  61  84
ENDBRANCH  35  36
ENDBRANCH  27  30
ENDBRANCH  25  26
ENDBRANCH  24  25
ENDBRANCH   1  24
TORSDOF 18
ENDMDL
MODEL 3
REMARK VINA RESULT:     -11.1      3.348      7.929
REMARK SMILES CCn1ncc(CNc2ccccc2C(=O)NCCCCNC(=O)c2ccc(-c3c4nc(c(-c5cccc(S(=O)(=O)[O-])c5F)c5ccc([nH]5)c(-c5cccc(S(=O)(=O)[O-])c5F)c5nc(c(-c6cccc(S(=O)(=O)[O-])c6F)c6ccc3[nH]6)C=C5)C=C4)cc2)c1C
REMARK SMILES IDX 19 1 18 2 17 3 15 4 16 5 14 7 9 8 10 9 11 10 13 11 12 12
REMARK SMILES IDX 8 13 7 15 6 16 3 17 4 18 88 19 5 20 89 21 2 22 1 23 20 24
REMARK SMILES IDX 21 25 22 26 23 27 24 29 25 30 26 31 87 32 27 33 86 34 28 35
REMARK SMILES IDX 29 36 30 37 80 38 31 39 85 40 79 41 81 42 32 43 84 44 78 45
REMARK SMILES IDX 77 46 33 48 65 49 45 50 64 51 46 52 49 53 63 54 82 55 47 56
REMARK SMILES IDX 48 57 62 59 83 60 50 61 34 62 35 63 43 64 36 65 38 66 44 67
REMARK SMILES IDX 37 68 39 69 40 70 41 71 42 72 66 73 67 74 75 75 68 76 70 77
REMARK SMILES IDX 76 78 69 79 71 80 72 81 73 82 74 83 51 84 52 85 60 86 53 87
REMARK SMILES IDX 55 88 61 89 54 90 56 91 57 92 58 93 59 94
REMARK H PARENT 17 6 8 14 22 28 81 47 49 58
REMARK Flexibility Score: inf
ROOT
ATOM      1  C   UNL A   1      38.257  21.653  25.453  1.00  0.00     0.023 C 
ENDROOT
BRANCH   1   2
ATOM      2  C   UNL A   1      36.763  21.895  25.204  1.00  0.00     0.116 C 
BRANCH   2   3
ATOM      3  N   UNL A   1      35.960  22.236  26.364  1.00  0.00    -0.352 N 
ATOM      4  C   UNL A   1      34.774  22.949  26.435  1.00  0.00     0.253 C 
ATOM      5  O   UNL A   1      34.298  23.149  27.554  1.00  0.00    -0.269 OA
ATOM      6  H   UNL A   1      36.309  21.913  27.226  1.00  0.00     0.163 HD
BRANCH   4   7
ATOM      7  C   UNL A   1      34.110  23.575  25.246  1.00  0.00     0.062 A 
ATOM      8  C   UNL A   1      33.198  22.937  24.389  1.00  0.00     0.047 A 
ATOM      9  C   UNL A   1      32.811  23.592  23.202  1.00  0.00     0.026 A 
ATOM     10  C   UNL A   1      33.225  24.888  22.911  1.00  0.00     0.002 A 
ATOM     11  C   UNL A   1      34.466  24.912  24.975  1.00  0.00     0.016 A 
ATOM     12  C   UNL A   1      34.021  25.566  23.822  1.00  0.00     0.001 A 
BRANCH   8  13
ATOM     13  N   UNL A   1      32.534  21.754  24.665  1.00  0.00    -0.380 N 
ATOM     14  H   UNL A   1      32.059  21.646  25.521  1.00  0.00     0.160 HD
BRANCH  13  15
ATOM     15  C   UNL A   1      32.535  20.664  23.689  1.00  0.00     0.152 C 
BRANCH  15  16
ATOM     16  C   UNL A   1      32.528  19.367  24.419  1.00  0.00     0.012 A 
ATOM     17  N   UNL A   1      32.739  17.247  24.960  1.00  0.00    -0.270 N 
ATOM     18  N   UNL A   1      32.618  17.880  26.139  1.00  0.00    -0.181 NA
ATOM     19  C   UNL A   1      32.766  18.110  23.892  1.00  0.00     0.040 A 
ATOM     20  C   UNL A   1      32.538  19.162  25.804  1.00  0.00     0.141 A 
ATOM     21  C   UNL A   1      33.084  17.746  22.490  1.00  0.00     0.067 C 
BRANCH  17  22
ATOM     22  C   UNL A   1      32.901  15.806  24.949  1.00  0.00     0.141 C 
ATOM     23  C   UNL A   1      34.346  15.340  25.079  1.00  0.00     0.029 C 
ENDBRANCH  17  22
ENDBRANCH  15  16
ENDBRANCH  13  15
ENDBRANCH   8  13
ENDBRANCH   4   7
ENDBRANCH   2   3
ENDBRANCH   1   2
BRANCH   1  24
ATOM     24  C   UNL A   1      38.836  20.286  25.064  1.00  0.00     0.023 C 
BRANCH  24  25
ATOM     25  C   UNL A   1      39.479  19.504  26.194  1.00  0.00     0.116 C 
BRANCH  25  26
ATOM     26  N   UNL A   1      40.750  18.856  25.892  1.00  0.00    -0.352 N 
ATOM     27  C   UNL A   1      42.007  19.442  25.783  1.00  0.00     0.251 C 
ATOM     28  H   UNL A   1      40.713  17.883  25.747  1.00  0.00     0.163 HD
ATOM     29  O   UNL A   1      42.928  18.804  25.291  1.00  0.00    -0.269 OA
BRANCH  27  30
ATOM     30  C   UNL A   1      42.241  20.826  26.284  1.00  0.00     0.039 A 
ATOM     31  C   UNL A   1      42.603  21.868  25.418  1.00  0.00     0.014 A 
ATOM     32  C   UNL A   1      42.165  21.085  27.650  1.00  0.00     0.014 A 
ATOM     33  C   UNL A   1      42.857  23.141  25.941  1.00  0.00     0.010 A 
ATOM     34  C   UNL A   1      42.357  22.329  28.168  1.00  0.00     0.010 A 
ATOM     35  C   UNL A   1      42.747  23.346  27.322  1.00  0.00    -0.014 A 
BRANCH  35  36
ATOM     36  C   UNL A   1      42.818  24.646  27.953  1.00  0.00     0.031 A 
ATOM     37  C   UNL A   1      41.511  25.348  27.968  1.00  0.00     0.074 A 
ATOM     38  C   UNL A   1      43.846  24.994  28.758  1.00  0.00     0.049 A 
ATOM     39  N   UNL A   1      41.189  26.380  27.267  1.00  0.00    -0.248 NA
ATOM     40  C   UNL A   1      40.375  24.739  28.683  1.00  0.00     0.031 C 
ATOM     41  C   UNL A   1      45.017  24.189  29.132  1.00  0.00     0.029 A 
ATOM     42  N   UNL A   1      43.967  26.087  29.554  1.00  0.00    -0.354 N 
ATOM     43  C   UNL A   1      39.898  26.708  27.665  1.00  0.00     0.074 A 
ATOM     44  C   UNL A   1      39.371  25.541  28.318  1.00  0.00     0.031 C 
ATOM     45  C   UNL A   1      45.585  24.716  30.241  1.00  0.00     0.029 A 
ATOM     46  C   UNL A   1      44.910  25.958  30.571  1.00  0.00     0.049 A 
ATOM     47  H   UNL A   1      43.431  26.903  29.424  1.00  0.00     0.167 HD
ATOM     48  C   UNL A   1      39.482  28.004  27.679  1.00  0.00     0.034 A 
ATOM     49  C   UNL A   1      45.059  26.786  31.638  1.00  0.00     0.034 A 
ATOM     50  C   UNL A   1      40.456  28.865  27.051  1.00  0.00     0.049 A 
ATOM     51  C   UNL A   1      44.418  28.075  31.274  1.00  0.00     0.074 A 
ATOM     52  C   UNL A   1      41.052  28.916  25.805  1.00  0.00     0.029 A 
ATOM     53  N   UNL A   1      41.279  29.573  27.898  1.00  0.00    -0.354 N 
ATOM     54  N   UNL A   1      44.861  28.846  30.321  1.00  0.00    -0.248 NA
ATOM     55  C   UNL A   1      43.024  28.272  31.641  1.00  0.00     0.031 C 
ATOM     56  C   UNL A   1      42.418  29.228  26.068  1.00  0.00     0.029 A 
ATOM     57  C   UNL A   1      42.564  29.440  27.441  1.00  0.00     0.049 A 
ATOM     58  H   UNL A   1      40.995  30.085  28.690  1.00  0.00     0.167 HD
ATOM     59  C   UNL A   1      43.713  29.243  29.648  1.00  0.00     0.074 A 
ATOM     60  C   UNL A   1      42.614  28.962  30.571  1.00  0.00     0.031 C 
ATOM     61  C   UNL A   1      43.730  29.462  28.299  1.00  0.00     0.034 A 
BRANCH  48  62
ATOM     62  C   UNL A   1      38.412  28.580  28.571  1.00  0.00     0.023 A 
ATOM     63  C   UNL A   1      37.393  29.326  27.939  1.00  0.00     0.012 A 
ATOM     64  C   UNL A   1      38.488  28.658  29.979  1.00  0.00     0.148 A 
ATOM     65  C   UNL A   1      36.529  30.151  28.664  1.00  0.00     0.002 A 
ATOM     66  C   UNL A   1      37.577  29.417  30.704  1.00  0.00     0.091 A 
ATOM     67  F   UNL A   1      39.521  28.110  30.626  1.00  0.00    -0.205 F 
ATOM     68  C   UNL A   1      36.616  30.191  30.049  1.00  0.00     0.022 A 
BRANCH  66  69
ATOM     69  S   UNL A   1      37.607  29.478  32.500  1.00  0.00     0.127 S 
ATOM     70  O   UNL A   1      38.843  30.214  32.747  1.00  0.00    -0.237 OA
ATOM     71  O   UNL A   1      36.377  30.213  32.793  1.00  0.00    -0.237 OA
ATOM     72  O   UNL A   1      37.592  28.088  32.940  1.00  0.00    -0.744 OA
ENDBRANCH  66  69
ENDBRANCH  48  62
BRANCH  49  73
ATOM     73  C   UNL A   1      45.464  26.481  33.033  1.00  0.00     0.023 A 
ATOM     74  C   UNL A   1      46.316  27.365  33.727  1.00  0.00     0.012 A 
ATOM     75  C   UNL A   1      44.787  25.492  33.781  1.00  0.00     0.148 A 
ATOM     76  C   UNL A   1      46.455  27.294  35.120  1.00  0.00     0.002 A 
ATOM     77  C   UNL A   1      44.931  25.424  35.164  1.00  0.00     0.091 A 
ATOM     78  F   UNL A   1      43.925  24.683  33.151  1.00  0.00    -0.205 F 
ATOM     79  C   UNL A   1      45.754  26.331  35.840  1.00  0.00     0.022 A 
BRANCH  77  80
ATOM     80  S   UNL A   1      44.023  24.228  36.154  1.00  0.00     0.127 S 
ATOM     81  O   UNL A   1      44.522  24.508  37.501  1.00  0.00    -0.237 OA
ATOM     82  O   UNL A   1      42.640  24.630  35.915  1.00  0.00    -0.237 OA
ATOM     83  O   UNL A   1      44.403  22.919  35.636  1.00  0.00    -0.744 OA
ENDBRANCH  77  80
ENDBRANCH  49  73
BRANCH  61  84
ATOM     84  C   UNL A   1      45.068  29.488  27.600  1.00  0.00     0.023 A 
ATOM     85  C   UNL A   1      45.972  30.567  27.717  1.00  0.00     0.012 A 
ATOM     86  C   UNL A   1      45.497  28.319  26.954  1.00  0.00     0.148 A 
ATOM     87  C   UNL A   1      47.262  30.489  27.185  1.00  0.00     0.002 A 
ATOM     88  C   UNL A   1      46.794  28.226  26.467  1.00  0.00     0.091 A 
ATOM     89  F   UNL A   1      44.631  27.298  26.854  1.00  0.00    -0.205 F 
ATOM     90  C   UNL A   1      47.678  29.311  26.571  1.00  0.00     0.022 A 
BRANCH  88  91
ATOM     91  S   UNL A   1      47.425  26.694  25.779  1.00  0.00     0.127 S 
ATOM     92  O   UNL A   1      48.801  27.056  25.443  1.00  0.00    -0.237 OA
ATOM     93  O   UNL A   1      47.295  25.767  26.904  1.00  0.00    -0.237 OA
ATOM     94  O   UNL A   1      46.565  26.378  24.646  1.00  0.00    -0.744 OA
ENDBRANCH  88  91
ENDBRANCH  61  84
ENDBRANCH  35  36
ENDBRANCH  27  30
ENDBRANCH  25  26
ENDBRANCH  24  25
ENDBRANCH   1  24
TORSDOF 18
ENDMDL
