MODEL 1
REMARK VINA RESULT:     -12.5      0.000      0.000
REMARK SMILES COc1nc2c(cc1C(=O)NCc1ccc(C(=O)NCCCCNC(=O)c3ccc(-c4c5nc(c(-c6cccc(S(=O)(=O)[O-])c6F)c6ccc([nH]6)c(-c6cccc(S(=O)(=O)[O-])c6F)c6nc(c(-c7cccc(S(=O)(=O)[O-])c7F)c7ccc4[nH]7)C=C6)C=C5)cc3)s1)CCC2
REMARK SMILES IDX 21 1 20 2 19 3 17 4 18 5 16 7 13 8 14 9 90 10 15 11 12 12
REMARK SMILES IDX 11 13 9 14 10 15 8 17 3 18 4 19 5 20 7 21 6 22 93 23 91 24
REMARK SMILES IDX 92 25 2 26 1 27 22 28 23 29 24 30 25 31 26 33 27 34 28 35
REMARK SMILES IDX 89 36 29 37 88 38 30 39 31 40 32 41 82 42 33 43 87 44 81 45
REMARK SMILES IDX 83 46 34 47 86 48 80 49 79 50 35 52 67 53 47 54 66 55 48 56
REMARK SMILES IDX 51 57 65 58 84 59 49 60 50 61 64 63 85 64 52 65 36 66 37 67
REMARK SMILES IDX 45 68 38 69 40 70 46 71 39 72 41 73 42 74 43 75 44 76 68 77
REMARK SMILES IDX 69 78 77 79 70 80 72 81 78 82 71 83 73 84 74 85 75 86 76 87
REMARK SMILES IDX 53 88 54 89 62 90 55 91 57 92 63 93 56 94 58 95 59 96 60 97
REMARK SMILES IDX 61 98
REMARK H PARENT 19 6 11 16 24 32 83 51 51 62
REMARK Flexibility Score: inf
ROOT
ATOM      1  C   UNL A   1      37.338  21.638  25.057  1.00  0.00     0.023 C 
ENDROOT
BRANCH   1   2
ATOM      2  C   UNL A   1      35.940  21.488  25.655  1.00  0.00     0.116 C 
BRANCH   2   3
ATOM      3  N   UNL A   1      35.273  20.315  25.143  1.00  0.00    -0.351 N 
ATOM      4  C   UNL A   1      33.973  20.066  24.776  1.00  0.00     0.261 C 
ATOM      5  O   UNL A   1      33.769  18.904  24.409  1.00  0.00    -0.268 OA
ATOM      6  H   UNL A   1      35.868  19.538  25.034  1.00  0.00     0.163 HD
BRANCH   4   7
ATOM      7  C   UNL A   1      32.925  21.087  24.793  1.00  0.00     0.092 A 
ATOM      8  C   UNL A   1      31.452  22.942  23.957  1.00  0.00     0.025 A 
ATOM      9  C   UNL A   1      31.288  22.701  25.303  1.00  0.00     0.018 A 
ATOM     10  S   UNL A   1      32.569  21.839  23.278  1.00  0.00    -0.133 S 
ATOM     11  C   UNL A   1      32.112  21.628  25.773  1.00  0.00     0.026 A 
BRANCH   8  12
ATOM     12  C   UNL A   1      30.864  24.000  23.085  1.00  0.00     0.163 C 
BRANCH  12  13
ATOM     13  N   UNL A   1      31.874  24.688  22.314  1.00  0.00    -0.347 N 
ATOM     14  C   UNL A   1      32.630  25.817  22.423  1.00  0.00     0.257 C 
ATOM     15  O   UNL A   1      33.576  25.859  21.623  1.00  0.00    -0.269 OA
ATOM     16  H   UNL A   1      32.070  24.209  21.477  1.00  0.00     0.164 HD
BRANCH  14  17
ATOM     17  C   UNL A   1      32.446  27.003  23.313  1.00  0.00     0.102 A 
ATOM     18  C   UNL A   1      31.556  28.077  23.219  1.00  0.00     0.226 A 
ATOM     19  N   UNL A   1      31.533  29.153  24.064  1.00  0.00    -0.218 NA
ATOM     20  C   UNL A   1      32.410  29.132  25.072  1.00  0.00     0.048 A 
ATOM     21  C   UNL A   1      33.309  27.024  24.437  1.00  0.00     0.025 A 
ATOM     22  C   UNL A   1      33.284  28.092  25.313  1.00  0.00    -0.025 A 
ATOM     23  C   UNL A   1      32.542  30.202  26.119  1.00  0.00     0.057 C 
ATOM     24  C   UNL A   1      34.058  28.309  26.570  1.00  0.00     0.038 C 
ATOM     25  C   UNL A   1      33.888  29.825  26.758  1.00  0.00     0.011 C 
BRANCH  18  26
ATOM     26  O   UNL A   1      30.619  28.158  22.233  1.00  0.00    -0.480 OA
ATOM     27  C   UNL A   1      30.178  29.508  22.092  1.00  0.00     0.280 C 
ENDBRANCH  18  26
ENDBRANCH  14  17
ENDBRANCH  12  13
ENDBRANCH   8  12
ENDBRANCH   4   7
ENDBRANCH   2   3
ENDBRANCH   1   2
BRANCH   1  28
ATOM     28  C   UNL A   1      38.210  20.382  25.183  1.00  0.00     0.023 C 
BRANCH  28  29
ATOM     29  C   UNL A   1      39.466  20.541  26.036  1.00  0.00     0.116 C 
BRANCH  29  30
ATOM     30  N   UNL A   1      40.334  19.370  26.010  1.00  0.00    -0.352 N 
ATOM     31  C   UNL A   1      41.702  19.342  26.148  1.00  0.00     0.251 C 
ATOM     32  H   UNL A   1      39.891  18.502  25.877  1.00  0.00     0.163 HD
ATOM     33  O   UNL A   1      42.328  18.298  26.045  1.00  0.00    -0.269 OA
BRANCH  31  34
ATOM     34  C   UNL A   1      42.393  20.621  26.386  1.00  0.00     0.039 A 
ATOM     35  C   UNL A   1      42.831  21.360  25.288  1.00  0.00     0.014 A 
ATOM     36  C   UNL A   1      42.500  21.122  27.687  1.00  0.00     0.014 A 
ATOM     37  C   UNL A   1      43.330  22.646  25.489  1.00  0.00     0.010 A 
ATOM     38  C   UNL A   1      42.958  22.420  27.880  1.00  0.00     0.010 A 
ATOM     39  C   UNL A   1      43.370  23.192  26.782  1.00  0.00    -0.014 A 
BRANCH  39  40
ATOM     40  C   UNL A   1      43.840  24.578  27.001  1.00  0.00     0.031 A 
ATOM     41  C   UNL A   1      42.885  25.621  27.499  1.00  0.00     0.074 A 
ATOM     42  C   UNL A   1      45.112  24.905  26.698  1.00  0.00     0.049 A 
ATOM     43  N   UNL A   1      43.109  26.881  27.760  1.00  0.00    -0.248 NA
ATOM     44  C   UNL A   1      41.490  25.199  27.720  1.00  0.00     0.031 C 
ATOM     45  C   UNL A   1      46.109  23.990  26.138  1.00  0.00     0.029 A 
ATOM     46  N   UNL A   1      45.777  26.099  26.805  1.00  0.00    -0.354 N 
ATOM     47  C   UNL A   1      41.889  27.407  28.156  1.00  0.00     0.074 A 
ATOM     48  C   UNL A   1      40.915  26.340  28.074  1.00  0.00     0.031 C 
ATOM     49  C   UNL A   1      47.264  24.656  25.961  1.00  0.00     0.029 A 
ATOM     50  C   UNL A   1      47.085  26.041  26.386  1.00  0.00     0.049 A 
ATOM     51  H   UNL A   1      45.357  26.921  27.148  1.00  0.00     0.167 HD
ATOM     52  C   UNL A   1      41.611  28.657  28.588  1.00  0.00     0.034 A 
ATOM     53  C   UNL A   1      48.037  26.995  26.363  1.00  0.00     0.034 A 
ATOM     54  C   UNL A   1      42.589  29.699  28.720  1.00  0.00     0.049 A 
ATOM     55  C   UNL A   1      47.712  28.368  26.885  1.00  0.00     0.074 A 
ATOM     56  C   UNL A   1      42.421  30.975  29.227  1.00  0.00     0.029 A 
ATOM     57  N   UNL A   1      43.918  29.585  28.344  1.00  0.00    -0.354 N 
ATOM     58  N   UNL A   1      46.586  28.807  27.392  1.00  0.00    -0.248 NA
ATOM     59  C   UNL A   1      48.792  29.365  26.863  1.00  0.00     0.031 C 
ATOM     60  C   UNL A   1      43.651  31.634  29.159  1.00  0.00     0.029 A 
ATOM     61  C   UNL A   1      44.583  30.768  28.609  1.00  0.00     0.049 A 
ATOM     62  H   UNL A   1      44.327  28.782  27.948  1.00  0.00     0.167 HD
ATOM     63  C   UNL A   1      46.827  30.121  27.773  1.00  0.00     0.074 A 
ATOM     64  C   UNL A   1      48.210  30.404  27.449  1.00  0.00     0.031 C 
ATOM     65  C   UNL A   1      45.974  31.014  28.327  1.00  0.00     0.034 A 
BRANCH  52  66
ATOM     66  C   UNL A   1      40.207  28.944  29.034  1.00  0.00     0.023 A 
ATOM     67  C   UNL A   1      39.231  29.236  28.061  1.00  0.00     0.012 A 
ATOM     68  C   UNL A   1      39.837  28.855  30.389  1.00  0.00     0.148 A 
ATOM     69  C   UNL A   1      37.906  29.450  28.430  1.00  0.00     0.002 A 
ATOM     70  C   UNL A   1      38.507  29.043  30.746  1.00  0.00     0.091 A 
ATOM     71  F   UNL A   1      40.789  28.593  31.296  1.00  0.00    -0.205 F 
ATOM     72  C   UNL A   1      37.543  29.345  29.770  1.00  0.00     0.022 A 
BRANCH  70  73
ATOM     73  S   UNL A   1      37.922  28.887  32.437  1.00  0.00     0.127 S 
ATOM     74  O   UNL A   1      38.841  29.774  33.150  1.00  0.00    -0.237 OA
ATOM     75  O   UNL A   1      36.551  29.384  32.333  1.00  0.00    -0.237 OA
ATOM     76  O   UNL A   1      38.038  27.476  32.777  1.00  0.00    -0.744 OA
ENDBRANCH  70  73
ENDBRANCH  52  66
BRANCH  53  77
ATOM     77  C   UNL A   1      49.412  26.646  25.918  1.00  0.00     0.023 A 
ATOM     78  C   UNL A   1      50.214  25.841  26.750  1.00  0.00     0.012 A 
ATOM     79  C   UNL A   1      49.906  27.049  24.662  1.00  0.00     0.148 A 
ATOM     80  C   UNL A   1      51.490  25.450  26.343  1.00  0.00     0.002 A 
ATOM     81  C   UNL A   1      51.164  26.627  24.249  1.00  0.00     0.091 A 
ATOM     82  F   UNL A   1      49.123  27.816  23.891  1.00  0.00    -0.205 F 
ATOM     83  C   UNL A   1      51.962  25.836  25.092  1.00  0.00     0.022 A 
BRANCH  81  84
ATOM     84  S   UNL A   1      51.826  26.990  22.619  1.00  0.00     0.127 S 
ATOM     85  O   UNL A   1      50.695  26.656  21.756  1.00  0.00    -0.237 OA
ATOM     86  O   UNL A   1      52.118  28.419  22.727  1.00  0.00    -0.237 OA
ATOM     87  O   UNL A   1      53.000  26.140  22.470  1.00  0.00    -0.744 OA
ENDBRANCH  81  84
ENDBRANCH  53  77
BRANCH  65  88
ATOM     88  C   UNL A   1      46.490  32.391  28.635  1.00  0.00     0.023 A 
ATOM     89  C   UNL A   1      47.032  32.652  29.907  1.00  0.00     0.012 A 
ATOM     90  C   UNL A   1      46.574  33.371  27.625  1.00  0.00     0.148 A 
ATOM     91  C   UNL A   1      47.650  33.872  30.174  1.00  0.00     0.002 A 
ATOM     92  C   UNL A   1      47.221  34.571  27.888  1.00  0.00     0.091 A 
ATOM     93  F   UNL A   1      46.041  33.097  26.425  1.00  0.00    -0.205 F 
ATOM     94  C   UNL A   1      47.757  34.825  29.163  1.00  0.00     0.022 A 
BRANCH  92  95
ATOM     95  S   UNL A   1      47.480  35.828  26.631  1.00  0.00     0.127 S 
ATOM     96  O   UNL A   1      46.107  36.180  26.273  1.00  0.00    -0.237 OA
ATOM     97  O   UNL A   1      48.203  36.862  27.372  1.00  0.00    -0.237 OA
ATOM     98  O   UNL A   1      48.251  35.188  25.573  1.00  0.00    -0.744 OA
ENDBRANCH  92  95
ENDBRANCH  65  88
ENDBRANCH  39  40
ENDBRANCH  31  34
ENDBRANCH  29  30
ENDBRANCH  28  29
ENDBRANCH   1  28
TORSDOF 18
ENDMDL
MODEL 2
REMARK VINA RESULT:     -12.4      3.593      8.420
REMARK SMILES COc1nc2c(cc1C(=O)NCc1ccc(C(=O)NCCCCNC(=O)c3ccc(-c4c5nc(c(-c6cccc(S(=O)(=O)[O-])c6F)c6ccc([nH]6)c(-c6cccc(S(=O)(=O)[O-])c6F)c6nc(c(-c7cccc(S(=O)(=O)[O-])c7F)c7ccc4[nH]7)C=C6)C=C5)cc3)s1)CCC2
REMARK SMILES IDX 21 1 20 2 19 3 17 4 18 5 16 7 13 8 14 9 90 10 15 11 12 12
REMARK SMILES IDX 11 13 9 14 10 15 8 17 3 18 4 19 5 20 7 21 6 22 93 23 91 24
REMARK SMILES IDX 92 25 2 26 1 27 22 28 23 29 24 30 25 31 26 33 27 34 28 35
REMARK SMILES IDX 89 36 29 37 88 38 30 39 31 40 32 41 82 42 33 43 87 44 81 45
REMARK SMILES IDX 83 46 34 47 86 48 80 49 79 50 35 52 67 53 47 54 66 55 48 56
REMARK SMILES IDX 51 57 65 58 84 59 49 60 50 61 64 63 85 64 52 65 36 66 37 67
REMARK SMILES IDX 45 68 38 69 40 70 46 71 39 72 41 73 42 74 43 75 44 76 68 77
REMARK SMILES IDX 69 78 77 79 70 80 72 81 78 82 71 83 73 84 74 85 75 86 76 87
REMARK SMILES IDX 53 88 54 89 62 90 55 91 57 92 63 93 56 94 58 95 59 96 60 97
REMARK SMILES IDX 61 98
REMARK H PARENT 19 6 11 16 24 32 83 51 51 62
REMARK Flexibility Score: inf
ROOT
ATOM      1  C   UNL A   1      35.597  21.414  25.967  1.00  0.00     0.023 C 
ENDROOT
BRANCH   1   2
ATOM      2  C   UNL A   1      35.276  20.558  24.743  1.00  0.00     0.116 C 
BRANCH   2   3
ATOM      3  N   UNL A   1      34.156  19.682  24.994  1.00  0.00    -0.351 N 
ATOM      4  C   UNL A   1      32.810  19.908  25.141  1.00  0.00     0.261 C 
ATOM      5  O   UNL A   1      32.154  18.889  25.385  1.00  0.00    -0.268 OA
ATOM      6  H   UNL A   1      34.408  18.734  25.075  1.00  0.00     0.163 HD
BRANCH   4   7
ATOM      7  C   UNL A   1      32.198  21.230  24.999  1.00  0.00     0.092 A 
ATOM      8  C   UNL A   1      31.322  23.292  23.864  1.00  0.00     0.025 A 
ATOM      9  C   UNL A   1      31.338  23.409  25.236  1.00  0.00     0.018 A 
ATOM     10  S   UNL A   1      31.846  21.736  23.384  1.00  0.00    -0.133 S 
ATOM     11  C   UNL A   1      31.817  22.224  25.883  1.00  0.00     0.026 A 
BRANCH   8  12
ATOM     12  C   UNL A   1      30.980  24.294  22.812  1.00  0.00     0.163 C 
BRANCH  12  13
ATOM     13  N   UNL A   1      32.157  24.945  22.284  1.00  0.00    -0.347 N 
ATOM     14  C   UNL A   1      32.954  26.003  22.607  1.00  0.00     0.257 C 
ATOM     15  O   UNL A   1      34.031  26.018  21.992  1.00  0.00    -0.269 OA
ATOM     16  H   UNL A   1      32.470  24.502  21.463  1.00  0.00     0.164 HD
BRANCH  14  17
ATOM     17  C   UNL A   1      32.690  27.145  23.534  1.00  0.00     0.102 A 
ATOM     18  C   UNL A   1      31.715  28.145  23.485  1.00  0.00     0.226 A 
ATOM     19  N   UNL A   1      31.620  29.192  24.361  1.00  0.00    -0.218 NA
ATOM     20  C   UNL A   1      32.513  29.214  25.355  1.00  0.00     0.048 A 
ATOM     21  C   UNL A   1      33.568  27.204  24.645  1.00  0.00     0.025 A 
ATOM     22  C   UNL A   1      33.472  28.242  25.552  1.00  0.00    -0.025 A 
ATOM     23  C   UNL A   1      32.577  30.262  26.430  1.00  0.00     0.057 C 
ATOM     24  C   UNL A   1      34.247  28.487  26.803  1.00  0.00     0.038 C 
ATOM     25  C   UNL A   1      33.960  29.977  27.037  1.00  0.00     0.011 C 
BRANCH  18  26
ATOM     26  O   UNL A   1      30.757  28.178  22.516  1.00  0.00    -0.480 OA
ATOM     27  C   UNL A   1      29.461  28.143  23.112  1.00  0.00     0.280 C 
ENDBRANCH  18  26
ENDBRANCH  14  17
ENDBRANCH  12  13
ENDBRANCH   8  12
ENDBRANCH   4   7
ENDBRANCH   2   3
ENDBRANCH   1   2
BRANCH   1  28
ATOM     28  C   UNL A   1      35.708  22.915  25.669  1.00  0.00     0.023 C 
BRANCH  28  29
ATOM     29  C   UNL A   1      37.118  23.420  25.373  1.00  0.00     0.116 C 
BRANCH  29  30
ATOM     30  N   UNL A   1      38.163  22.497  25.794  1.00  0.00    -0.352 N 
ATOM     31  C   UNL A   1      39.303  22.792  26.505  1.00  0.00     0.251 C 
ATOM     32  H   UNL A   1      38.041  21.554  25.539  1.00  0.00     0.163 HD
ATOM     33  O   UNL A   1      40.141  21.936  26.745  1.00  0.00    -0.269 OA
BRANCH  31  34
ATOM     34  C   UNL A   1      39.499  24.188  26.934  1.00  0.00     0.039 A 
ATOM     35  C   UNL A   1      39.261  24.518  28.269  1.00  0.00     0.014 A 
ATOM     36  C   UNL A   1      40.020  25.125  26.038  1.00  0.00     0.014 A 
ATOM     37  C   UNL A   1      39.606  25.788  28.726  1.00  0.00     0.010 A 
ATOM     38  C   UNL A   1      40.402  26.376  26.507  1.00  0.00     0.010 A 
ATOM     39  C   UNL A   1      40.202  26.714  27.854  1.00  0.00    -0.014 A 
BRANCH  39  40
ATOM     40  C   UNL A   1      40.627  28.044  28.344  1.00  0.00     0.031 A 
ATOM     41  C   UNL A   1      42.083  28.403  28.359  1.00  0.00     0.074 A 
ATOM     42  C   UNL A   1      39.706  28.903  28.822  1.00  0.00     0.049 A 
ATOM     43  N   UNL A   1      42.649  29.518  28.741  1.00  0.00    -0.248 NA
ATOM     44  C   UNL A   1      43.032  27.373  27.902  1.00  0.00     0.031 C 
ATOM     45  C   UNL A   1      38.270  28.633  28.924  1.00  0.00     0.029 A 
ATOM     46  N   UNL A   1      39.843  30.171  29.327  1.00  0.00    -0.354 N 
ATOM     47  C   UNL A   1      44.013  29.319  28.589  1.00  0.00     0.074 A 
ATOM     48  C   UNL A   1      44.198  27.967  28.109  1.00  0.00     0.031 C 
ATOM     49  C   UNL A   1      37.657  29.708  29.447  1.00  0.00     0.029 A 
ATOM     50  C   UNL A   1      38.656  30.737  29.726  1.00  0.00     0.049 A 
ATOM     51  H   UNL A   1      40.710  30.631  29.398  1.00  0.00     0.167 HD
ATOM     52  C   UNL A   1      45.019  30.198  28.793  1.00  0.00     0.034 A 
ATOM     53  C   UNL A   1      38.400  31.955  30.243  1.00  0.00     0.034 A 
ATOM     54  C   UNL A   1      44.829  31.556  29.216  1.00  0.00     0.049 A 
ATOM     55  C   UNL A   1      39.533  32.927  30.424  1.00  0.00     0.074 A 
ATOM     56  C   UNL A   1      45.781  32.547  29.371  1.00  0.00     0.029 A 
ATOM     57  N   UNL A   1      43.606  32.112  29.552  1.00  0.00    -0.354 N 
ATOM     58  N   UNL A   1      40.803  32.770  30.137  1.00  0.00    -0.248 NA
ATOM     59  C   UNL A   1      39.198  34.252  30.966  1.00  0.00     0.031 C 
ATOM     60  C   UNL A   1      45.131  33.708  29.800  1.00  0.00     0.029 A 
ATOM     61  C   UNL A   1      43.776  33.436  29.913  1.00  0.00     0.049 A 
ATOM     62  H   UNL A   1      42.744  31.637  29.536  1.00  0.00     0.167 HD
ATOM     63  C   UNL A   1      41.414  33.980  30.439  1.00  0.00     0.074 A 
ATOM     64  C   UNL A   1      40.375  34.866  30.921  1.00  0.00     0.031 C 
ATOM     65  C   UNL A   1      42.721  34.319  30.340  1.00  0.00     0.034 A 
BRANCH  52  66
ATOM     66  C   UNL A   1      46.414  29.744  28.474  1.00  0.00     0.023 A 
ATOM     67  C   UNL A   1      46.881  29.862  27.150  1.00  0.00     0.012 A 
ATOM     68  C   UNL A   1      47.279  29.276  29.481  1.00  0.00     0.148 A 
ATOM     69  C   UNL A   1      48.188  29.507  26.828  1.00  0.00     0.002 A 
ATOM     70  C   UNL A   1      48.590  28.950  29.156  1.00  0.00     0.091 A 
ATOM     71  F   UNL A   1      46.803  29.158  30.728  1.00  0.00    -0.205 F 
ATOM     72  C   UNL A   1      49.044  29.060  27.830  1.00  0.00     0.022 A 
BRANCH  70  73
ATOM     73  S   UNL A   1      49.790  28.406  30.377  1.00  0.00     0.127 S 
ATOM     74  O   UNL A   1      49.909  29.594  31.222  1.00  0.00    -0.237 OA
ATOM     75  O   UNL A   1      49.100  27.279  31.002  1.00  0.00    -0.237 OA
ATOM     76  O   UNL A   1      50.992  28.055  29.634  1.00  0.00    -0.744 OA
ENDBRANCH  70  73
ENDBRANCH  52  66
BRANCH  53  77
ATOM     77  C   UNL A   1      36.995  32.348  30.530  1.00  0.00     0.023 A 
ATOM     78  C   UNL A   1      36.468  32.106  31.814  1.00  0.00     0.012 A 
ATOM     79  C   UNL A   1      36.204  33.011  29.572  1.00  0.00     0.148 A 
ATOM     80  C   UNL A   1      35.171  32.508  32.136  1.00  0.00     0.002 A 
ATOM     81  C   UNL A   1      34.926  33.439  29.911  1.00  0.00     0.091 A 
ATOM     82  F   UNL A   1      36.730  33.227  28.358  1.00  0.00    -0.205 F 
ATOM     83  C   UNL A   1      34.404  33.180  31.189  1.00  0.00     0.022 A 
BRANCH  81  84
ATOM     84  S   UNL A   1      33.892  34.396  28.796  1.00  0.00     0.127 S 
ATOM     85  O   UNL A   1      33.587  33.416  27.756  1.00  0.00    -0.237 OA
ATOM     86  O   UNL A   1      32.767  34.747  29.662  1.00  0.00    -0.237 OA
ATOM     87  O   UNL A   1      34.708  35.526  28.373  1.00  0.00    -0.744 OA
ENDBRANCH  81  84
ENDBRANCH  53  77
BRANCH  65  88
ATOM     88  C   UNL A   1      43.127  35.706  30.749  1.00  0.00     0.023 A 
ATOM     89  C   UNL A   1      43.550  35.935  32.071  1.00  0.00     0.012 A 
ATOM     90  C   UNL A   1      43.232  36.737  29.793  1.00  0.00     0.148 A 
ATOM     91  C   UNL A   1      44.071  37.174  32.441  1.00  0.00     0.002 A 
ATOM     92  C   UNL A   1      43.782  37.958  30.161  1.00  0.00     0.091 A 
ATOM     93  F   UNL A   1      42.813  36.492  28.543  1.00  0.00    -0.205 F 
ATOM     94  C   UNL A   1      44.199  38.179  31.485  1.00  0.00     0.022 A 
BRANCH  92  95
ATOM     95  S   UNL A   1      44.063  39.287  28.986  1.00  0.00     0.127 S 
ATOM     96  O   UNL A   1      42.709  39.801  28.786  1.00  0.00    -0.237 OA
ATOM     97  O   UNL A   1      44.951  40.178  29.733  1.00  0.00    -0.237 OA
ATOM     98  O   UNL A   1      44.670  38.668  27.814  1.00  0.00    -0.744 OA
ENDBRANCH  92  95
ENDBRANCH  65  88
ENDBRANCH  39  40
ENDBRANCH  31  34
ENDBRANCH  29  30
ENDBRANCH  28  29
ENDBRANCH   1  28
TORSDOF 18
ENDMDL
MODEL 3
REMARK VINA RESULT:     -12.2      5.670     10.363
REMARK SMILES COc1nc2c(cc1C(=O)NCc1ccc(C(=O)NCCCCNC(=O)c3ccc(-c4c5nc(c(-c6cccc(S(=O)(=O)[O-])c6F)c6ccc([nH]6)c(-c6cccc(S(=O)(=O)[O-])c6F)c6nc(c(-c7cccc(S(=O)(=O)[O-])c7F)c7ccc4[nH]7)C=C6)C=C5)cc3)s1)CCC2
REMARK SMILES IDX 21 1 20 2 19 3 17 4 18 5 16 7 13 8 14 9 90 10 15 11 12 12
REMARK SMILES IDX 11 13 9 14 10 15 8 17 3 18 4 19 5 20 7 21 6 22 93 23 91 24
REMARK SMILES IDX 92 25 2 26 1 27 22 28 23 29 24 30 25 31 26 33 27 34 28 35
REMARK SMILES IDX 89 36 29 37 88 38 30 39 31 40 32 41 82 42 33 43 87 44 81 45
REMARK SMILES IDX 83 46 34 47 86 48 80 49 79 50 35 52 67 53 47 54 66 55 48 56
REMARK SMILES IDX 51 57 65 58 84 59 49 60 50 61 64 63 85 64 52 65 36 66 37 67
REMARK SMILES IDX 45 68 38 69 40 70 46 71 39 72 41 73 42 74 43 75 44 76 68 77
REMARK SMILES IDX 69 78 77 79 70 80 72 81 78 82 71 83 73 84 74 85 75 86 76 87
REMARK SMILES IDX 53 88 54 89 62 90 55 91 57 92 63 93 56 94 58 95 59 96 60 97
REMARK SMILES IDX 61 98
REMARK H PARENT 19 6 11 16 24 32 83 51 51 62
REMARK Flexibility Score: inf
ROOT
ATOM      1  C   UNL A   1      32.028  30.210  26.863  1.00  0.00     0.023 C 
ENDROOT
BRANCH   1   2
ATOM      2  C   UNL A   1      32.720  29.525  25.685  1.00  0.00     0.116 C 
BRANCH   2   3
ATOM      3  N   UNL A   1      31.998  29.742  24.454  1.00  0.00    -0.351 N 
ATOM      4  C   UNL A   1      31.537  28.891  23.481  1.00  0.00     0.261 C 
ATOM      5  O   UNL A   1      30.980  29.462  22.537  1.00  0.00    -0.268 OA
ATOM      6  H   UNL A   1      31.795  30.689  24.278  1.00  0.00     0.163 HD
BRANCH   4   7
ATOM      7  C   UNL A   1      31.667  27.435  23.560  1.00  0.00     0.092 A 
ATOM      8  C   UNL A   1      32.695  25.160  23.287  1.00  0.00     0.025 A 
ATOM      9  C   UNL A   1      31.391  25.103  23.727  1.00  0.00     0.018 A 
ATOM     10  S   UNL A   1      33.211  26.784  23.135  1.00  0.00    -0.133 S 
ATOM     11  C   UNL A   1      30.814  26.401  23.904  1.00  0.00     0.026 A 
BRANCH   8  12
ATOM     12  C   UNL A   1      33.635  24.067  22.901  1.00  0.00     0.163 C 
BRANCH  12  13
ATOM     13  N   UNL A   1      34.465  23.653  24.009  1.00  0.00    -0.347 N 
ATOM     14  C   UNL A   1      34.733  22.505  24.694  1.00  0.00     0.257 C 
ATOM     15  O   UNL A   1      35.741  22.580  25.413  1.00  0.00    -0.269 OA
ATOM     16  H   UNL A   1      34.980  24.410  24.370  1.00  0.00     0.164 HD
BRANCH  14  17
ATOM     17  C   UNL A   1      33.967  21.222  24.739  1.00  0.00     0.102 A 
ATOM     18  C   UNL A   1      32.597  20.990  24.886  1.00  0.00     0.226 A 
ATOM     19  N   UNL A   1      32.017  19.755  24.988  1.00  0.00    -0.218 NA
ATOM     20  C   UNL A   1      32.840  18.706  24.894  1.00  0.00     0.048 A 
ATOM     21  C   UNL A   1      34.769  20.063  24.591  1.00  0.00     0.025 A 
ATOM     22  C   UNL A   1      34.198  18.808  24.669  1.00  0.00    -0.025 A 
ATOM     23  C   UNL A   1      32.410  17.268  24.964  1.00  0.00     0.057 C 
ATOM     24  C   UNL A   1      34.825  17.465  24.505  1.00  0.00     0.038 C 
ATOM     25  C   UNL A   1      33.764  16.565  25.155  1.00  0.00     0.011 C 
BRANCH  18  26
ATOM     26  O   UNL A   1      31.693  22.007  24.967  1.00  0.00    -0.480 OA
ATOM     27  C   UNL A   1      31.536  22.411  26.327  1.00  0.00     0.280 C 
ENDBRANCH  18  26
ENDBRANCH  14  17
ENDBRANCH  12  13
ENDBRANCH   8  12
ENDBRANCH   4   7
ENDBRANCH   2   3
ENDBRANCH   1   2
BRANCH   1  28
ATOM     28  C   UNL A   1      31.883  31.730  26.706  1.00  0.00     0.023 C 
BRANCH  28  29
ATOM     29  C   UNL A   1      32.962  32.564  27.393  1.00  0.00     0.116 C 
BRANCH  29  30
ATOM     30  N   UNL A   1      32.522  33.911  27.730  1.00  0.00    -0.352 N 
ATOM     31  C   UNL A   1      33.074  34.762  28.660  1.00  0.00     0.251 C 
ATOM     32  H   UNL A   1      31.740  34.251  27.239  1.00  0.00     0.163 HD
ATOM     33  O   UNL A   1      32.574  35.850  28.899  1.00  0.00    -0.269 OA
BRANCH  31  34
ATOM     34  C   UNL A   1      34.268  34.299  29.388  1.00  0.00     0.039 A 
ATOM     35  C   UNL A   1      34.095  33.606  30.587  1.00  0.00     0.014 A 
ATOM     36  C   UNL A   1      35.535  34.460  28.820  1.00  0.00     0.014 A 
ATOM     37  C   UNL A   1      35.201  33.015  31.195  1.00  0.00     0.010 A 
ATOM     38  C   UNL A   1      36.628  33.833  29.406  1.00  0.00     0.010 A 
ATOM     39  C   UNL A   1      36.467  33.103  30.594  1.00  0.00    -0.014 A 
BRANCH  39  40
ATOM     40  C   UNL A   1      37.637  32.428  31.199  1.00  0.00     0.031 A 
ATOM     41  C   UNL A   1      38.192  32.921  32.503  1.00  0.00     0.074 A 
ATOM     42  C   UNL A   1      38.228  31.408  30.546  1.00  0.00     0.049 A 
ATOM     43  N   UNL A   1      39.200  32.457  33.192  1.00  0.00    -0.248 NA
ATOM     44  C   UNL A   1      37.540  34.097  33.105  1.00  0.00     0.031 C 
ATOM     45  C   UNL A   1      37.820  30.892  29.238  1.00  0.00     0.029 A 
ATOM     46  N   UNL A   1      39.308  30.634  30.888  1.00  0.00    -0.354 N 
ATOM     47  C   UNL A   1      39.317  33.291  34.294  1.00  0.00     0.074 A 
ATOM     48  C   UNL A   1      38.297  34.310  34.171  1.00  0.00     0.031 C 
ATOM     49  C   UNL A   1      38.633  29.878  28.894  1.00  0.00     0.029 A 
ATOM     50  C   UNL A   1      39.622  29.680  29.950  1.00  0.00     0.049 A 
ATOM     51  H   UNL A   1      39.810  30.752  31.727  1.00  0.00     0.167 HD
ATOM     52  C   UNL A   1      40.171  33.192  35.337  1.00  0.00     0.034 A 
ATOM     53  C   UNL A   1      40.588  28.742  29.950  1.00  0.00     0.034 A 
ATOM     54  C   UNL A   1      41.146  32.149  35.483  1.00  0.00     0.049 A 
ATOM     55  C   UNL A   1      41.502  28.630  31.140  1.00  0.00     0.074 A 
ATOM     56  C   UNL A   1      42.001  31.918  36.545  1.00  0.00     0.029 A 
ATOM     57  N   UNL A   1      41.394  31.164  34.542  1.00  0.00    -0.354 N 
ATOM     58  N   UNL A   1      41.503  29.338  32.242  1.00  0.00    -0.248 NA
ATOM     59  C   UNL A   1      42.522  27.572  31.103  1.00  0.00     0.031 C 
ATOM     60  C   UNL A   1      42.768  30.788  36.246  1.00  0.00     0.029 A 
ATOM     61  C   UNL A   1      42.389  30.319  34.997  1.00  0.00     0.049 A 
ATOM     62  H   UNL A   1      40.930  31.078  33.678  1.00  0.00     0.167 HD
ATOM     63  C   UNL A   1      42.504  28.800  33.040  1.00  0.00     0.074 A 
ATOM     64  C   UNL A   1      43.082  27.697  32.300  1.00  0.00     0.031 C 
ATOM     65  C   UNL A   1      42.915  29.194  34.269  1.00  0.00     0.034 A 
BRANCH  52  66
ATOM     66  C   UNL A   1      40.032  34.192  36.448  1.00  0.00     0.023 A 
ATOM     67  C   UNL A   1      40.362  35.538  36.195  1.00  0.00     0.012 A 
ATOM     68  C   UNL A   1      39.514  33.824  37.703  1.00  0.00     0.148 A 
ATOM     69  C   UNL A   1      40.191  36.505  37.183  1.00  0.00     0.002 A 
ATOM     70  C   UNL A   1      39.320  34.799  38.674  1.00  0.00     0.091 A 
ATOM     71  F   UNL A   1      39.225  32.533  37.922  1.00  0.00    -0.205 F 
ATOM     72  C   UNL A   1      39.663  36.138  38.417  1.00  0.00     0.022 A 
BRANCH  70  73
ATOM     73  S   UNL A   1      38.605  34.444  40.283  1.00  0.00     0.127 S 
ATOM     74  O   UNL A   1      38.345  35.791  40.793  1.00  0.00    -0.237 OA
ATOM     75  O   UNL A   1      37.407  33.687  39.924  1.00  0.00    -0.237 OA
ATOM     76  O   UNL A   1      39.612  33.690  41.015  1.00  0.00    -0.744 OA
ENDBRANCH  70  73
ENDBRANCH  52  66
BRANCH  53  77
ATOM     77  C   UNL A   1      40.669  27.774  28.823  1.00  0.00     0.023 A 
ATOM     78  C   UNL A   1      39.708  26.748  28.736  1.00  0.00     0.012 A 
ATOM     79  C   UNL A   1      41.642  27.897  27.814  1.00  0.00     0.148 A 
ATOM     80  C   UNL A   1      39.720  25.853  27.666  1.00  0.00     0.002 A 
ATOM     81  C   UNL A   1      41.628  27.023  26.733  1.00  0.00     0.091 A 
ATOM     82  F   UNL A   1      42.546  28.880  27.923  1.00  0.00    -0.205 F 
ATOM     83  C   UNL A   1      40.673  25.995  26.662  1.00  0.00     0.022 A 
BRANCH  81  84
ATOM     84  S   UNL A   1      42.752  27.178  25.340  1.00  0.00     0.127 S 
ATOM     85  O   UNL A   1      44.047  27.270  26.010  1.00  0.00    -0.237 OA
ATOM     86  O   UNL A   1      42.515  25.924  24.625  1.00  0.00    -0.237 OA
ATOM     87  O   UNL A   1      42.331  28.375  24.623  1.00  0.00    -0.744 OA
ENDBRANCH  81  84
ENDBRANCH  53  77
BRANCH  65  88
ATOM     88  C   UNL A   1      44.041  28.439  34.916  1.00  0.00     0.023 A 
ATOM     89  C   UNL A   1      45.368  28.818  34.642  1.00  0.00     0.012 A 
ATOM     90  C   UNL A   1      43.782  27.464  35.900  1.00  0.00     0.148 A 
ATOM     91  C   UNL A   1      46.427  28.236  35.337  1.00  0.00     0.002 A 
ATOM     92  C   UNL A   1      44.839  26.912  36.612  1.00  0.00     0.091 A 
ATOM     93  F   UNL A   1      42.508  27.116  36.133  1.00  0.00    -0.205 F 
ATOM     94  C   UNL A   1      46.162  27.295  36.330  1.00  0.00     0.022 A 
BRANCH  92  95
ATOM     95  S   UNL A   1      44.597  25.752  37.962  1.00  0.00     0.127 S 
ATOM     96  O   UNL A   1      44.023  24.601  37.268  1.00  0.00    -0.237 OA
ATOM     97  O   UNL A   1      45.963  25.554  38.448  1.00  0.00    -0.237 OA
ATOM     98  O   UNL A   1      43.706  26.413  38.907  1.00  0.00    -0.744 OA
ENDBRANCH  92  95
ENDBRANCH  65  88
ENDBRANCH  39  40
ENDBRANCH  31  34
ENDBRANCH  29  30
ENDBRANCH  28  29
ENDBRANCH   1  28
TORSDOF 18
ENDMDL
