MODEL 1
REMARK VINA RESULT:     -11.7      0.000      0.000
REMARK SMILES CN(C(=O)N1CCC(C(=O)NCCCCNC(=O)c2ccc(-c3c4nc(c(-c5cccc(S(=O)(=O)[O-])c5F)c5ccc([nH]5)c(-c5cccc(S(=O)(=O)[O-])c5F)c5nc(c(-c6cccc(S(=O)(=O)[O-])c6F)c6ccc3[nH]6)C=C5)C=C4)cc2)CC1)[C@H]1CCSC1
REMARK SMILES IDX 14 1 13 2 12 3 11 4 9 5 10 6 8 8 3 9 4 10 5 11 6 12 83 13
REMARK SMILES IDX 7 14 82 15 2 16 1 17 84 18 85 19 88 20 86 21 87 22 15 23
REMARK SMILES IDX 16 24 17 25 18 27 19 28 20 29 81 30 21 31 80 32 22 33 23 34
REMARK SMILES IDX 24 35 74 36 25 37 79 38 73 39 75 40 26 41 78 42 72 43 71 44
REMARK SMILES IDX 27 46 59 47 39 48 58 49 40 50 43 51 57 52 76 53 41 54 42 55
REMARK SMILES IDX 56 57 77 58 44 59 28 60 29 61 37 62 30 63 32 64 38 65 31 66
REMARK SMILES IDX 33 67 34 68 35 69 36 70 60 71 61 72 69 73 62 74 64 75 70 76
REMARK SMILES IDX 63 77 65 78 66 79 67 80 68 81 45 82 46 83 54 84 47 85 49 86
REMARK SMILES IDX 55 87 48 88 50 89 51 90 52 91 53 92
REMARK H PARENT 11 7 16 26 75 45 43 56
REMARK Flexibility Score: inf
ROOT
ATOM      1  C   UNL A   1      31.844  31.625  26.788  1.00  0.00     0.023 C 
ENDROOT
BRANCH   1   2
ATOM      2  C   UNL A   1      32.209  30.189  26.419  1.00  0.00     0.023 C 
BRANCH   2   3
ATOM      3  C   UNL A   1      31.420  29.617  25.246  1.00  0.00     0.116 C 
BRANCH   3   4
ATOM      4  N   UNL A   1      32.225  29.533  24.038  1.00  0.00    -0.356 N 
ATOM      5  C   UNL A   1      32.810  28.464  23.433  1.00  0.00     0.223 C 
ATOM      6  O   UNL A   1      33.456  28.659  22.401  1.00  0.00    -0.275 OA
ATOM      7  H   UNL A   1      32.372  30.394  23.584  1.00  0.00     0.163 HD
BRANCH   5   8
ATOM      8  C   UNL A   1      32.657  27.054  23.979  1.00  0.00     0.082 C 
ATOM      9  C   UNL A   1      34.439  23.451  23.494  1.00  0.00     0.320 C 
ATOM     10  O   UNL A   1      34.633  23.499  22.280  1.00  0.00    -0.248 OA
ATOM     11  N   UNL A   1      33.537  24.312  24.086  1.00  0.00    -0.325 N 
ATOM     12  C   UNL A   1      32.299  24.619  23.385  1.00  0.00     0.122 C 
ATOM     13  C   UNL A   1      33.865  25.180  25.210  1.00  0.00     0.122 C 
ATOM     14  C   UNL A   1      32.251  26.053  22.890  1.00  0.00     0.035 C 
ATOM     15  C   UNL A   1      33.882  26.650  24.811  1.00  0.00     0.035 C 
BRANCH   9  16
ATOM     16  N   UNL A   1      35.021  22.474  24.306  1.00  0.00    -0.324 N 
ATOM     17  C   UNL A   1      34.257  21.393  24.924  1.00  0.00     0.149 C 
BRANCH  16  18
ATOM     18  C   UNL A   1      36.485  22.554  24.584  1.00  0.00     0.097 C 
ATOM     19  C   UNL A   1      36.851  23.389  25.826  1.00  0.00     0.037 C 
ATOM     20  C   UNL A   1      37.168  21.189  24.819  1.00  0.00     0.094 C 
ATOM     21  C   UNL A   1      38.342  23.249  26.066  1.00  0.00     0.072 C 
ATOM     22  S   UNL A   1      38.673  21.497  25.803  1.00  0.00    -0.160 SA
ENDBRANCH  16  18
ENDBRANCH   9  16
ENDBRANCH   5   8
ENDBRANCH   3   4
ENDBRANCH   2   3
ENDBRANCH   1   2
BRANCH   1  23
ATOM     23  C   UNL A   1      32.989  32.460  27.349  1.00  0.00     0.116 C 
BRANCH  23  24
ATOM     24  N   UNL A   1      32.612  33.839  27.630  1.00  0.00    -0.352 N 
ATOM     25  C   UNL A   1      33.131  34.694  28.573  1.00  0.00     0.251 C 
ATOM     26  H   UNL A   1      31.890  34.207  27.072  1.00  0.00     0.163 HD
ATOM     27  O   UNL A   1      32.624  35.797  28.757  1.00  0.00    -0.269 OA
BRANCH  25  28
ATOM     28  C   UNL A   1      34.283  34.257  29.388  1.00  0.00     0.039 A 
ATOM     29  C   UNL A   1      34.047  33.531  30.557  1.00  0.00     0.014 A 
ATOM     30  C   UNL A   1      35.590  34.524  28.970  1.00  0.00     0.014 A 
ATOM     31  C   UNL A   1      35.126  33.009  31.272  1.00  0.00     0.010 A 
ATOM     32  C   UNL A   1      36.658  33.941  29.643  1.00  0.00     0.010 A 
ATOM     33  C   UNL A   1      36.438  33.178  30.801  1.00  0.00    -0.014 A 
BRANCH  33  34
ATOM     34  C   UNL A   1      37.596  32.555  31.493  1.00  0.00     0.031 A 
ATOM     35  C   UNL A   1      38.322  31.400  30.856  1.00  0.00     0.074 A 
ATOM     36  C   UNL A   1      37.933  32.967  32.731  1.00  0.00     0.049 A 
ATOM     37  N   UNL A   1      39.303  30.680  31.334  1.00  0.00    -0.248 NA
ATOM     38  C   UNL A   1      37.871  30.984  29.517  1.00  0.00     0.031 C 
ATOM     39  C   UNL A   1      37.252  34.020  33.490  1.00  0.00     0.029 A 
ATOM     40  N   UNL A   1      38.914  32.527  33.586  1.00  0.00    -0.354 N 
ATOM     41  C   UNL A   1      39.562  29.708  30.376  1.00  0.00     0.074 A 
ATOM     42  C   UNL A   1      38.614  29.907  29.302  1.00  0.00     0.031 C 
ATOM     43  C   UNL A   1      37.838  34.145  34.692  1.00  0.00     0.029 A 
ATOM     44  C   UNL A   1      38.914  33.167  34.803  1.00  0.00     0.049 A 
ATOM     45  H   UNL A   1      39.558  31.821  33.348  1.00  0.00     0.167 HD
ATOM     46  C   UNL A   1      40.527  28.758  30.371  1.00  0.00     0.034 A 
ATOM     47  C   UNL A   1      39.691  32.981  35.890  1.00  0.00     0.034 A 
ATOM     48  C   UNL A   1      41.502  28.595  31.414  1.00  0.00     0.049 A 
ATOM     49  C   UNL A   1      40.785  31.947  35.836  1.00  0.00     0.074 A 
ATOM     50  C   UNL A   1      42.566  27.713  31.466  1.00  0.00     0.029 A 
ATOM     51  N   UNL A   1      41.535  29.331  32.588  1.00  0.00    -0.354 N 
ATOM     52  N   UNL A   1      41.113  31.143  34.854  1.00  0.00    -0.248 NA
ATOM     53  C   UNL A   1      41.639  31.821  37.026  1.00  0.00     0.031 C 
ATOM     54  C   UNL A   1      43.238  27.910  32.677  1.00  0.00     0.029 A 
ATOM     55  C   UNL A   1      42.602  28.926  33.370  1.00  0.00     0.049 A 
ATOM     56  H   UNL A   1      40.894  30.038  32.829  1.00  0.00     0.167 HD
ATOM     57  C   UNL A   1      42.234  30.447  35.290  1.00  0.00     0.074 A 
ATOM     58  C   UNL A   1      42.542  30.939  36.618  1.00  0.00     0.031 C 
ATOM     59  C   UNL A   1      42.936  29.474  34.659  1.00  0.00     0.034 A 
BRANCH  46  60
ATOM     60  C   UNL A   1      40.624  27.861  29.165  1.00  0.00     0.023 A 
ATOM     61  C   UNL A   1      39.744  26.766  29.049  1.00  0.00     0.012 A 
ATOM     62  C   UNL A   1      41.523  28.139  28.118  1.00  0.00     0.148 A 
ATOM     63  C   UNL A   1      39.773  25.946  27.922  1.00  0.00     0.002 A 
ATOM     64  C   UNL A   1      41.520  27.342  26.979  1.00  0.00     0.091 A 
ATOM     65  F   UNL A   1      42.365  29.173  28.256  1.00  0.00    -0.205 F 
ATOM     66  C   UNL A   1      40.653  26.240  26.884  1.00  0.00     0.022 A 
BRANCH  64  67
ATOM     67  S   UNL A   1      42.557  27.678  25.552  1.00  0.00     0.127 S 
ATOM     68  O   UNL A   1      42.317  26.494  24.727  1.00  0.00    -0.237 OA
ATOM     69  O   UNL A   1      41.972  28.913  25.031  1.00  0.00    -0.237 OA
ATOM     70  O   UNL A   1      43.914  27.813  26.063  1.00  0.00    -0.744 OA
ENDBRANCH  64  67
ENDBRANCH  46  60
BRANCH  47  71
ATOM     71  C   UNL A   1      39.512  33.836  37.098  1.00  0.00     0.023 A 
ATOM     72  C   UNL A   1      39.988  35.162  37.079  1.00  0.00     0.012 A 
ATOM     73  C   UNL A   1      38.876  33.353  38.257  1.00  0.00     0.148 A 
ATOM     74  C   UNL A   1      39.870  35.978  38.206  1.00  0.00     0.002 A 
ATOM     75  C   UNL A   1      38.712  34.188  39.356  1.00  0.00     0.091 A 
ATOM     76  F   UNL A   1      38.443  32.084  38.264  1.00  0.00    -0.205 F 
ATOM     77  C   UNL A   1      39.225  35.494  39.340  1.00  0.00     0.022 A 
BRANCH  75  78
ATOM     78  S   UNL A   1      37.779  33.683  40.806  1.00  0.00     0.127 S 
ATOM     79  O   UNL A   1      37.693  34.932  41.558  1.00  0.00    -0.237 OA
ATOM     80  O   UNL A   1      36.517  33.231  40.218  1.00  0.00    -0.237 OA
ATOM     81  O   UNL A   1      38.564  32.620  41.418  1.00  0.00    -0.744 OA
ENDBRANCH  75  78
ENDBRANCH  47  71
BRANCH  59  82
ATOM     82  C   UNL A   1      44.132  28.901  35.369  1.00  0.00     0.023 A 
ATOM     83  C   UNL A   1      45.407  29.463  35.157  1.00  0.00     0.012 A 
ATOM     84  C   UNL A   1      43.982  27.858  36.304  1.00  0.00     0.148 A 
ATOM     85  C   UNL A   1      46.519  28.975  35.841  1.00  0.00     0.002 A 
ATOM     86  C   UNL A   1      45.087  27.408  37.018  1.00  0.00     0.091 A 
ATOM     87  F   UNL A   1      42.765  27.323  36.477  1.00  0.00    -0.205 F 
ATOM     88  C   UNL A   1      46.358  27.957  36.779  1.00  0.00     0.022 A 
BRANCH  86  89
ATOM     89  S   UNL A   1      44.955  26.170  38.313  1.00  0.00     0.127 S 
ATOM     90  O   UNL A   1      43.974  26.779  39.209  1.00  0.00    -0.237 OA
ATOM     91  O   UNL A   1      44.468  25.002  37.577  1.00  0.00    -0.237 OA
ATOM     92  O   UNL A   1      46.296  26.019  38.860  1.00  0.00    -0.744 OA
ENDBRANCH  86  89
ENDBRANCH  59  82
ENDBRANCH  33  34
ENDBRANCH  25  28
ENDBRANCH  23  24
ENDBRANCH   1  23
TORSDOF 16
ENDMDL
MODEL 2
REMARK VINA RESULT:     -11.7      2.303      8.020
REMARK SMILES CN(C(=O)N1CCC(C(=O)NCCCCNC(=O)c2ccc(-c3c4nc(c(-c5cccc(S(=O)(=O)[O-])c5F)c5ccc([nH]5)c(-c5cccc(S(=O)(=O)[O-])c5F)c5nc(c(-c6cccc(S(=O)(=O)[O-])c6F)c6ccc3[nH]6)C=C5)C=C4)cc2)CC1)[C@H]1CCSC1
REMARK SMILES IDX 14 1 13 2 12 3 11 4 9 5 10 6 8 8 3 9 4 10 5 11 6 12 83 13
REMARK SMILES IDX 7 14 82 15 2 16 1 17 84 18 85 19 88 20 86 21 87 22 15 23
REMARK SMILES IDX 16 24 17 25 18 27 19 28 20 29 81 30 21 31 80 32 22 33 23 34
REMARK SMILES IDX 24 35 74 36 25 37 79 38 73 39 75 40 26 41 78 42 72 43 71 44
REMARK SMILES IDX 27 46 59 47 39 48 58 49 40 50 43 51 57 52 76 53 41 54 42 55
REMARK SMILES IDX 56 57 77 58 44 59 28 60 29 61 37 62 30 63 32 64 38 65 31 66
REMARK SMILES IDX 33 67 34 68 35 69 36 70 60 71 61 72 69 73 62 74 64 75 70 76
REMARK SMILES IDX 63 77 65 78 66 79 67 80 68 81 45 82 46 83 54 84 47 85 49 86
REMARK SMILES IDX 55 87 48 88 50 89 51 90 52 91 53 92
REMARK H PARENT 11 7 16 26 75 45 43 56
REMARK Flexibility Score: inf
ROOT
ATOM      1  C   UNL A   1      32.296  29.749  24.961  1.00  0.00     0.023 C 
ENDROOT
BRANCH   1   2
ATOM      2  C   UNL A   1      30.910  29.496  24.372  1.00  0.00     0.023 C 
BRANCH   2   3
ATOM      3  C   UNL A   1      30.913  29.059  22.911  1.00  0.00     0.116 C 
BRANCH   3   4
ATOM      4  N   UNL A   1      32.258  29.008  22.361  1.00  0.00    -0.356 N 
ATOM      5  C   UNL A   1      33.190  28.017  22.382  1.00  0.00     0.223 C 
ATOM      6  O   UNL A   1      34.276  28.224  21.838  1.00  0.00    -0.275 OA
ATOM      7  H   UNL A   1      32.542  29.829  21.898  1.00  0.00     0.163 HD
BRANCH   5   8
ATOM      8  C   UNL A   1      32.907  26.668  23.024  1.00  0.00     0.082 C 
ATOM      9  C   UNL A   1      34.878  23.189  23.663  1.00  0.00     0.320 C 
ATOM     10  O   UNL A   1      35.484  23.118  22.595  1.00  0.00    -0.248 OA
ATOM     11  N   UNL A   1      33.794  24.035  23.789  1.00  0.00    -0.325 N 
ATOM     12  C   UNL A   1      32.870  24.161  22.672  1.00  0.00     0.122 C 
ATOM     13  C   UNL A   1      33.674  25.047  24.832  1.00  0.00     0.122 C 
ATOM     14  C   UNL A   1      32.946  25.523  22.005  1.00  0.00     0.035 C 
ATOM     15  C   UNL A   1      33.776  26.459  24.272  1.00  0.00     0.035 C 
BRANCH   9  16
ATOM     16  N   UNL A   1      35.173  22.359  24.748  1.00  0.00    -0.324 N 
ATOM     17  C   UNL A   1      36.285  22.607  25.662  1.00  0.00     0.149 C 
BRANCH  16  18
ATOM     18  C   UNL A   1      34.336  21.143  24.966  1.00  0.00     0.097 C 
ATOM     19  C   UNL A   1      33.184  20.975  23.957  1.00  0.00     0.037 C 
ATOM     20  C   UNL A   1      35.112  19.810  24.895  1.00  0.00     0.094 C 
ATOM     21  C   UNL A   1      32.529  19.631  24.208  1.00  0.00     0.072 C 
ATOM     22  S   UNL A   1      33.910  18.504  24.471  1.00  0.00    -0.160 SA
ENDBRANCH  16  18
ENDBRANCH   9  16
ENDBRANCH   5   8
ENDBRANCH   3   4
ENDBRANCH   2   3
ENDBRANCH   1   2
BRANCH   1  23
ATOM     23  C   UNL A   1      32.313  30.130  26.436  1.00  0.00     0.116 C 
BRANCH  23  24
ATOM     24  N   UNL A   1      32.243  31.567  26.660  1.00  0.00    -0.352 N 
ATOM     25  C   UNL A   1      33.125  32.373  27.341  1.00  0.00     0.251 C 
ATOM     26  H   UNL A   1      31.461  32.023  26.274  1.00  0.00     0.163 HD
ATOM     27  O   UNL A   1      32.863  33.556  27.535  1.00  0.00    -0.269 OA
BRANCH  25  28
ATOM     28  C   UNL A   1      34.376  31.789  27.869  1.00  0.00     0.039 A 
ATOM     29  C   UNL A   1      35.495  32.610  28.017  1.00  0.00     0.014 A 
ATOM     30  C   UNL A   1      34.424  30.447  28.259  1.00  0.00     0.014 A 
ATOM     31  C   UNL A   1      36.645  32.103  28.624  1.00  0.00     0.010 A 
ATOM     32  C   UNL A   1      35.543  29.967  28.929  1.00  0.00     0.010 A 
ATOM     33  C   UNL A   1      36.665  30.789  29.119  1.00  0.00    -0.014 A 
BRANCH  33  34
ATOM     34  C   UNL A   1      37.843  30.256  29.851  1.00  0.00     0.031 A 
ATOM     35  C   UNL A   1      38.140  30.731  31.248  1.00  0.00     0.074 A 
ATOM     36  C   UNL A   1      38.693  29.417  29.226  1.00  0.00     0.049 A 
ATOM     37  N   UNL A   1      39.156  30.440  32.018  1.00  0.00    -0.248 NA
ATOM     38  C   UNL A   1      37.184  31.676  31.849  1.00  0.00     0.031 C 
ATOM     39  C   UNL A   1      38.560  28.950  27.843  1.00  0.00     0.029 A 
ATOM     40  N   UNL A   1      39.858  28.834  29.660  1.00  0.00    -0.354 N 
ATOM     41  C   UNL A   1      38.981  31.189  33.175  1.00  0.00     0.074 A 
ATOM     42  C   UNL A   1      37.781  31.974  32.995  1.00  0.00     0.031 C 
ATOM     43  C   UNL A   1      39.598  28.151  27.547  1.00  0.00     0.029 A 
ATOM     44  C   UNL A   1      40.485  28.071  28.703  1.00  0.00     0.049 A 
ATOM     45  H   UNL A   1      40.210  28.949  30.572  1.00  0.00     0.167 HD
ATOM     46  C   UNL A   1      39.732  31.196  34.302  1.00  0.00     0.034 A 
ATOM     47  C   UNL A   1      41.647  27.388  28.750  1.00  0.00     0.034 A 
ATOM     48  C   UNL A   1      40.895  30.375  34.500  1.00  0.00     0.049 A 
ATOM     49  C   UNL A   1      42.435  27.378  30.033  1.00  0.00     0.074 A 
ATOM     50  C   UNL A   1      41.678  30.252  35.634  1.00  0.00     0.029 A 
ATOM     51  N   UNL A   1      41.442  29.535  33.543  1.00  0.00    -0.354 N 
ATOM     52  N   UNL A   1      42.166  27.971  31.171  1.00  0.00    -0.248 NA
ATOM     53  C   UNL A   1      43.666  26.575  30.051  1.00  0.00     0.031 C 
ATOM     54  C   UNL A   1      42.705  29.343  35.359  1.00  0.00     0.029 A 
ATOM     55  C   UNL A   1      42.551  28.889  34.060  1.00  0.00     0.049 A 
ATOM     56  H   UNL A   1      41.093  29.416  32.630  1.00  0.00     0.167 HD
ATOM     57  C   UNL A   1      43.170  27.580  32.050  1.00  0.00     0.074 A 
ATOM     58  C   UNL A   1      44.041  26.683  31.318  1.00  0.00     0.031 C 
ATOM     59  C   UNL A   1      43.367  27.945  33.341  1.00  0.00     0.034 A 
BRANCH  46  60
ATOM     60  C   UNL A   1      39.278  32.067  35.444  1.00  0.00     0.023 A 
ATOM     61  C   UNL A   1      38.404  31.533  36.413  1.00  0.00     0.012 A 
ATOM     62  C   UNL A   1      39.767  33.378  35.602  1.00  0.00     0.148 A 
ATOM     63  C   UNL A   1      38.005  32.296  37.508  1.00  0.00     0.002 A 
ATOM     64  C   UNL A   1      39.398  34.119  36.719  1.00  0.00     0.091 A 
ATOM     65  F   UNL A   1      40.582  33.875  34.661  1.00  0.00    -0.205 F 
ATOM     66  C   UNL A   1      38.509  33.583  37.667  1.00  0.00     0.022 A 
BRANCH  64  67
ATOM     67  S   UNL A   1      40.049  35.758  37.059  1.00  0.00     0.127 S 
ATOM     68  O   UNL A   1      39.365  36.094  38.307  1.00  0.00    -0.237 OA
ATOM     69  O   UNL A   1      41.482  35.496  37.201  1.00  0.00    -0.237 OA
ATOM     70  O   UNL A   1      39.690  36.581  35.913  1.00  0.00    -0.744 OA
ENDBRANCH  64  67
ENDBRANCH  46  60
BRANCH  47  71
ATOM     71  C   UNL A   1      42.105  26.600  27.571  1.00  0.00     0.023 A 
ATOM     72  C   UNL A   1      42.818  27.251  26.543  1.00  0.00     0.012 A 
ATOM     73  C   UNL A   1      41.845  25.222  27.457  1.00  0.00     0.148 A 
ATOM     74  C   UNL A   1      43.228  26.551  25.407  1.00  0.00     0.002 A 
ATOM     75  C   UNL A   1      42.304  24.519  26.348  1.00  0.00     0.091 A 
ATOM     76  F   UNL A   1      41.151  24.622  28.435  1.00  0.00    -0.205 F 
ATOM     77  C   UNL A   1      42.979  25.185  25.314  1.00  0.00     0.022 A 
BRANCH  75  78
ATOM     78  S   UNL A   1      42.138  22.736  26.214  1.00  0.00     0.127 S 
ATOM     79  O   UNL A   1      40.689  22.564  26.264  1.00  0.00    -0.237 OA
ATOM     80  O   UNL A   1      42.746  22.467  24.910  1.00  0.00    -0.237 OA
ATOM     81  O   UNL A   1      42.886  22.194  27.341  1.00  0.00    -0.744 OA
ENDBRANCH  75  78
ENDBRANCH  47  71
BRANCH  59  82
ATOM     82  C   UNL A   1      44.541  27.346  34.067  1.00  0.00     0.023 A 
ATOM     83  C   UNL A   1      45.783  28.011  34.057  1.00  0.00     0.012 A 
ATOM     84  C   UNL A   1      44.393  26.167  34.823  1.00  0.00     0.148 A 
ATOM     85  C   UNL A   1      46.868  27.495  34.763  1.00  0.00     0.002 A 
ATOM     86  C   UNL A   1      45.466  25.683  35.563  1.00  0.00     0.091 A 
ATOM     87  F   UNL A   1      43.208  25.539  34.803  1.00  0.00    -0.205 F 
ATOM     88  C   UNL A   1      46.707  26.339  35.525  1.00  0.00     0.022 A 
BRANCH  86  89
ATOM     89  S   UNL A   1      45.320  24.258  36.646  1.00  0.00     0.127 S 
ATOM     90  O   UNL A   1      46.718  24.006  36.996  1.00  0.00    -0.237 OA
ATOM     91  O   UNL A   1      44.503  24.782  37.741  1.00  0.00    -0.237 OA
ATOM     92  O   UNL A   1      44.674  23.219  35.857  1.00  0.00    -0.744 OA
ENDBRANCH  86  89
ENDBRANCH  59  82
ENDBRANCH  33  34
ENDBRANCH  25  28
ENDBRANCH  23  24
ENDBRANCH   1  23
TORSDOF 16
ENDMDL
MODEL 3
REMARK VINA RESULT:     -11.6      6.287     11.721
REMARK SMILES CN(C(=O)N1CCC(C(=O)NCCCCNC(=O)c2ccc(-c3c4nc(c(-c5cccc(S(=O)(=O)[O-])c5F)c5ccc([nH]5)c(-c5cccc(S(=O)(=O)[O-])c5F)c5nc(c(-c6cccc(S(=O)(=O)[O-])c6F)c6ccc3[nH]6)C=C5)C=C4)cc2)CC1)[C@H]1CCSC1
REMARK SMILES IDX 14 1 13 2 12 3 11 4 9 5 10 6 8 8 3 9 4 10 5 11 6 12 83 13
REMARK SMILES IDX 7 14 82 15 2 16 1 17 84 18 85 19 88 20 86 21 87 22 15 23
REMARK SMILES IDX 16 24 17 25 18 27 19 28 20 29 81 30 21 31 80 32 22 33 23 34
REMARK SMILES IDX 24 35 74 36 25 37 79 38 73 39 75 40 26 41 78 42 72 43 71 44
REMARK SMILES IDX 27 46 59 47 39 48 58 49 40 50 43 51 57 52 76 53 41 54 42 55
REMARK SMILES IDX 56 57 77 58 44 59 28 60 29 61 37 62 30 63 32 64 38 65 31 66
REMARK SMILES IDX 33 67 34 68 35 69 36 70 60 71 61 72 69 73 62 74 64 75 70 76
REMARK SMILES IDX 63 77 65 78 66 79 67 80 68 81 45 82 46 83 54 84 47 85 49 86
REMARK SMILES IDX 55 87 48 88 50 89 51 90 52 91 53 92
REMARK H PARENT 11 7 16 26 75 45 43 56
REMARK Flexibility Score: inf
ROOT
ATOM      1  C   UNL A   1      37.784  19.491  24.766  1.00  0.00     0.023 C 
ENDROOT
BRANCH   1   2
ATOM      2  C   UNL A   1      36.407  20.150  24.779  1.00  0.00     0.023 C 
BRANCH   2   3
ATOM      3  C   UNL A   1      36.359  21.504  25.481  1.00  0.00     0.116 C 
BRANCH   3   4
ATOM      4  N   UNL A   1      35.510  21.476  26.659  1.00  0.00    -0.356 N 
ATOM      5  C   UNL A   1      34.267  21.989  26.871  1.00  0.00     0.223 C 
ATOM      6  O   UNL A   1      33.752  21.832  27.980  1.00  0.00    -0.275 OA
ATOM      7  H   UNL A   1      35.899  21.009  27.434  1.00  0.00     0.163 HD
BRANCH   5   8
ATOM      8  C   UNL A   1      33.502  22.710  25.773  1.00  0.00     0.082 C 
ATOM      9  C   UNL A   1      30.629  25.550  25.501  1.00  0.00     0.320 C 
ATOM     10  O   UNL A   1      29.930  25.201  26.452  1.00  0.00    -0.248 OA
ATOM     11  N   UNL A   1      31.558  24.678  24.968  1.00  0.00    -0.325 N 
ATOM     12  C   UNL A   1      31.211  23.270  24.854  1.00  0.00     0.122 C 
ATOM     13  C   UNL A   1      32.969  25.003  24.801  1.00  0.00     0.122 C 
ATOM     14  C   UNL A   1      32.002  22.396  25.811  1.00  0.00     0.035 C 
ATOM     15  C   UNL A   1      33.855  24.204  25.747  1.00  0.00     0.035 C 
BRANCH   9  16
ATOM     16  N   UNL A   1      30.452  26.774  24.852  1.00  0.00    -0.324 N 
ATOM     17  C   UNL A   1      29.753  26.906  23.576  1.00  0.00     0.149 C 
BRANCH  16  18
ATOM     18  C   UNL A   1      31.031  28.003  25.471  1.00  0.00     0.097 C 
ATOM     19  C   UNL A   1      31.718  27.767  26.829  1.00  0.00     0.037 C 
ATOM     20  C   UNL A   1      32.102  28.709  24.612  1.00  0.00     0.094 C 
ATOM     21  C   UNL A   1      32.384  29.062  27.253  1.00  0.00     0.072 C 
ATOM     22  S   UNL A   1      33.152  29.680  25.744  1.00  0.00    -0.160 SA
ENDBRANCH  16  18
ENDBRANCH   9  16
ENDBRANCH   5   8
ENDBRANCH   3   4
ENDBRANCH   2   3
ENDBRANCH   1   2
BRANCH   1  23
ATOM     23  C   UNL A   1      38.792  20.076  25.748  1.00  0.00     0.116 C 
BRANCH  23  24
ATOM     24  N   UNL A   1      39.945  19.215  25.971  1.00  0.00    -0.352 N 
ATOM     25  C   UNL A   1      41.216  19.568  26.356  1.00  0.00     0.251 C 
ATOM     26  H   UNL A   1      39.795  18.253  25.828  1.00  0.00     0.163 HD
ATOM     27  O   UNL A   1      42.110  18.727  26.394  1.00  0.00    -0.269 OA
BRANCH  25  28
ATOM     28  C   UNL A   1      41.504  20.978  26.688  1.00  0.00     0.039 A 
ATOM     29  C   UNL A   1      42.020  21.283  27.949  1.00  0.00     0.014 A 
ATOM     30  C   UNL A   1      41.309  21.986  25.739  1.00  0.00     0.014 A 
ATOM     31  C   UNL A   1      42.408  22.594  28.235  1.00  0.00     0.010 A 
ATOM     32  C   UNL A   1      41.765  23.273  26.000  1.00  0.00     0.010 A 
ATOM     33  C   UNL A   1      42.318  23.591  27.250  1.00  0.00    -0.014 A 
BRANCH  33  34
ATOM     34  C   UNL A   1      42.811  24.970  27.499  1.00  0.00     0.031 A 
ATOM     35  C   UNL A   1      41.909  25.987  28.147  1.00  0.00     0.074 A 
ATOM     36  C   UNL A   1      44.033  25.332  27.059  1.00  0.00     0.049 A 
ATOM     37  N   UNL A   1      42.130  27.254  28.379  1.00  0.00    -0.248 NA
ATOM     38  C   UNL A   1      40.575  25.526  28.566  1.00  0.00     0.031 C 
ATOM     39  C   UNL A   1      44.968  24.461  26.342  1.00  0.00     0.029 A 
ATOM     40  N   UNL A   1      44.687  26.537  27.122  1.00  0.00    -0.354 N 
ATOM     41  C   UNL A   1      40.957  27.749  28.937  1.00  0.00     0.074 A 
ATOM     42  C   UNL A   1      40.014  26.654  28.977  1.00  0.00     0.031 C 
ATOM     43  C   UNL A   1      46.073  25.159  26.035  1.00  0.00     0.029 A 
ATOM     44  C   UNL A   1      45.917  26.531  26.506  1.00  0.00     0.049 A 
ATOM     45  H   UNL A   1      44.312  27.331  27.567  1.00  0.00     0.167 HD
ATOM     46  C   UNL A   1      40.700  28.992  29.407  1.00  0.00     0.034 A 
ATOM     47  C   UNL A   1      46.816  27.522  26.336  1.00  0.00     0.034 A 
ATOM     48  C   UNL A   1      41.657  30.064  29.414  1.00  0.00     0.049 A 
ATOM     49  C   UNL A   1      46.519  28.882  26.911  1.00  0.00     0.074 A 
ATOM     50  C   UNL A   1      41.518  31.337  29.939  1.00  0.00     0.029 A 
ATOM     51  N   UNL A   1      42.932  29.990  28.875  1.00  0.00    -0.354 N 
ATOM     52  N   UNL A   1      45.464  29.285  27.576  1.00  0.00    -0.248 NA
ATOM     53  C   UNL A   1      47.554  29.913  26.746  1.00  0.00     0.031 C 
ATOM     54  C   UNL A   1      42.708  32.036  29.708  1.00  0.00     0.029 A 
ATOM     55  C   UNL A   1      43.591  31.193  29.055  1.00  0.00     0.049 A 
ATOM     56  H   UNL A   1      43.312  29.199  28.429  1.00  0.00     0.167 HD
ATOM     57  C   UNL A   1      45.724  30.600  27.942  1.00  0.00     0.074 A 
ATOM     58  C   UNL A   1      47.046  30.920  27.445  1.00  0.00     0.031 C 
ATOM     59  C   UNL A   1      44.934  31.473  28.614  1.00  0.00     0.034 A 
BRANCH  46  60
ATOM     60  C   UNL A   1      39.349  29.245  30.022  1.00  0.00     0.023 A 
ATOM     61  C   UNL A   1      39.057  28.700  31.290  1.00  0.00     0.012 A 
ATOM     62  C   UNL A   1      38.402  30.074  29.392  1.00  0.00     0.148 A 
ATOM     63  C   UNL A   1      37.836  28.956  31.909  1.00  0.00     0.002 A 
ATOM     64  C   UNL A   1      37.202  30.359  30.034  1.00  0.00     0.091 A 
ATOM     65  F   UNL A   1      38.690  30.567  28.179  1.00  0.00    -0.205 F 
ATOM     66  C   UNL A   1      36.914  29.793  31.287  1.00  0.00     0.022 A 
BRANCH  64  67
ATOM     67  S   UNL A   1      35.978  31.486  29.356  1.00  0.00     0.127 S 
ATOM     68  O   UNL A   1      36.823  32.565  28.845  1.00  0.00    -0.237 OA
ATOM     69  O   UNL A   1      35.345  30.666  28.323  1.00  0.00    -0.237 OA
ATOM     70  O   UNL A   1      35.108  31.851  30.465  1.00  0.00    -0.744 OA
ENDBRANCH  64  67
ENDBRANCH  46  60
BRANCH  47  71
ATOM     71  C   UNL A   1      48.111  27.253  25.649  1.00  0.00     0.023 A 
ATOM     72  C   UNL A   1      49.214  26.812  26.408  1.00  0.00     0.012 A 
ATOM     73  C   UNL A   1      48.260  27.425  24.260  1.00  0.00     0.148 A 
ATOM     74  C   UNL A   1      50.451  26.587  25.802  1.00  0.00     0.002 A 
ATOM     75  C   UNL A   1      49.480  27.146  23.654  1.00  0.00     0.091 A 
ATOM     76  F   UNL A   1      47.206  27.861  23.555  1.00  0.00    -0.205 F 
ATOM     77  C   UNL A   1      50.582  26.746  24.426  1.00  0.00     0.022 A 
BRANCH  75  78
ATOM     78  S   UNL A   1      49.694  27.201  21.872  1.00  0.00     0.127 S 
ATOM     79  O   UNL A   1      48.648  26.290  21.415  1.00  0.00    -0.237 OA
ATOM     80  O   UNL A   1      49.453  28.614  21.575  1.00  0.00    -0.237 OA
ATOM     81  O   UNL A   1      51.066  26.770  21.636  1.00  0.00    -0.744 OA
ENDBRANCH  75  78
ENDBRANCH  47  71
BRANCH  59  82
ATOM     82  C   UNL A   1      45.485  32.845  28.893  1.00  0.00     0.023 A 
ATOM     83  C   UNL A   1      46.217  33.078  30.074  1.00  0.00     0.012 A 
ATOM     84  C   UNL A   1      45.343  33.882  27.950  1.00  0.00     0.148 A 
ATOM     85  C   UNL A   1      46.775  34.330  30.326  1.00  0.00     0.002 A 
ATOM     86  C   UNL A   1      45.942  35.114  28.186  1.00  0.00     0.091 A 
ATOM     87  F   UNL A   1      44.626  33.646  26.842  1.00  0.00    -0.205 F 
ATOM     88  C   UNL A   1      46.648  35.343  29.378  1.00  0.00     0.022 A 
BRANCH  86  89
ATOM     89  S   UNL A   1      45.912  36.444  26.978  1.00  0.00     0.127 S 
ATOM     90  O   UNL A   1      44.488  36.775  26.936  1.00  0.00    -0.237 OA
ATOM     91  O   UNL A   1      46.756  37.458  27.612  1.00  0.00    -0.237 OA
ATOM     92  O   UNL A   1      46.462  35.883  25.752  1.00  0.00    -0.744 OA
ENDBRANCH  86  89
ENDBRANCH  59  82
ENDBRANCH  33  34
ENDBRANCH  25  28
ENDBRANCH  23  24
ENDBRANCH   1  23
TORSDOF 16
ENDMDL
