MODEL 1
REMARK VINA RESULT:     -13.3      0.000      0.000
REMARK SMILES Cc1ccc(S(=O)(=O)N[C@@H](Cc2cccc(F)c2)C(=O)NCCCCNC(=O)c2ccc(-c3c4nc(c(-c5cccc(S(=O)(=O)[O-])c5F)c5ccc([nH]5)c(-c5cccc(S(=O)(=O)[O-])c5F)c5nc(c(-c6cccc(S(=O)(=O)[O-])c6F)c6ccc3[nH]6)C=C5)C=C4)cc2)cc1
REMARK SMILES IDX 23 1 22 2 21 3 19 4 20 5 10 7 9 8 6 10 7 11 8 12 5 13 1 14
REMARK SMILES IDX 2 15 3 16 93 17 4 18 92 19 11 20 12 21 13 22 18 23 14 24
REMARK SMILES IDX 16 25 15 26 17 27 24 28 25 29 26 30 27 31 28 33 29 34 30 35
REMARK SMILES IDX 91 36 31 37 90 38 32 39 33 40 34 41 84 42 35 43 89 44 83 45
REMARK SMILES IDX 85 46 36 47 88 48 82 49 81 50 37 52 69 53 49 54 68 55 50 56
REMARK SMILES IDX 53 57 67 58 86 59 51 60 52 61 66 63 87 64 54 65 38 66 39 67
REMARK SMILES IDX 47 68 40 69 42 70 48 71 41 72 43 73 44 74 45 75 46 76 70 77
REMARK SMILES IDX 71 78 79 79 72 80 74 81 80 82 73 83 75 84 76 85 77 86 78 87
REMARK SMILES IDX 55 88 56 89 64 90 57 91 59 92 65 93 58 94 60 95 61 96 62 97
REMARK SMILES IDX 63 98
REMARK H PARENT 21 6 9 9 26 32 85 51 53 62
REMARK Flexibility Score: inf
ROOT
ATOM      1  C   UNL A   1      32.041  30.816  26.198  1.00  0.00     0.023 C 
ENDROOT
BRANCH   1   2
ATOM      2  C   UNL A   1      32.278  29.418  25.621  1.00  0.00     0.116 C 
BRANCH   2   3
ATOM      3  N   UNL A   1      33.108  29.468  24.429  1.00  0.00    -0.355 N 
ATOM      4  C   UNL A   1      33.573  28.462  23.638  1.00  0.00     0.238 C 
ATOM      5  O   UNL A   1      34.374  28.750  22.743  1.00  0.00    -0.273 OA
ATOM      6  H   UNL A   1      33.377  30.374  24.149  1.00  0.00     0.163 HD
BRANCH   4   7
ATOM      7  C   UNL A   1      33.183  27.000  23.896  1.00  0.00     0.163 C 
BRANCH   7   8
ATOM      8  N   UNL A   1      33.583  26.341  22.628  1.00  0.00    -0.198 NA
ATOM      9  H   UNL A   1      33.656  27.098  21.948  1.00  0.00     0.142 HD
BRANCH   8  10
ATOM     10  S   UNL A   1      32.766  25.140  21.846  1.00  0.00     0.241 S 
ATOM     11  O   UNL A   1      33.259  25.082  20.481  1.00  0.00    -0.207 OA
ATOM     12  O   UNL A   1      31.375  25.355  22.141  1.00  0.00    -0.207 OA
BRANCH  10  13
ATOM     13  C   UNL A   1      33.235  23.633  22.643  1.00  0.00     0.082 A 
ATOM     14  C   UNL A   1      34.467  20.212  24.916  1.00  0.00     0.044 C 
ATOM     15  C   UNL A   1      34.037  21.389  24.093  1.00  0.00    -0.051 A 
ATOM     16  C   UNL A   1      34.974  22.365  23.730  1.00  0.00     0.005 A 
ATOM     17  C   UNL A   1      32.708  21.519  23.671  1.00  0.00     0.005 A 
ATOM     18  C   UNL A   1      34.573  23.492  23.017  1.00  0.00     0.022 A 
ATOM     19  C   UNL A   1      32.307  22.632  22.932  1.00  0.00     0.022 A 
ENDBRANCH  10  13
ENDBRANCH   8  10
ENDBRANCH   7   8
BRANCH   7  20
ATOM     20  C   UNL A   1      33.753  26.344  25.165  1.00  0.00     0.065 C 
BRANCH  20  21
ATOM     21  C   UNL A   1      33.056  25.192  25.871  1.00  0.00    -0.043 A 
ATOM     22  C   UNL A   1      31.652  25.145  25.772  1.00  0.00     0.004 A 
ATOM     23  C   UNL A   1      33.684  24.158  26.576  1.00  0.00     0.043 A 
ATOM     24  C   UNL A   1      30.919  24.080  26.303  1.00  0.00     0.003 A 
ATOM     25  C   UNL A   1      32.950  23.073  27.058  1.00  0.00     0.123 A 
ATOM     26  C   UNL A   1      31.574  23.021  26.922  1.00  0.00     0.039 A 
ATOM     27  F   UNL A   1      33.597  22.063  27.653  1.00  0.00    -0.207 F 
ENDBRANCH  20  21
ENDBRANCH   7  20
ENDBRANCH   4   7
ENDBRANCH   2   3
ENDBRANCH   1   2
BRANCH   1  28
ATOM     28  C   UNL A   1      32.947  31.186  27.374  1.00  0.00     0.023 C 
BRANCH  28  29
ATOM     29  C   UNL A   1      34.371  30.678  27.224  1.00  0.00     0.116 C 
BRANCH  29  30
ATOM     30  N   UNL A   1      35.372  31.647  27.613  1.00  0.00    -0.352 N 
ATOM     31  C   UNL A   1      36.580  31.462  28.257  1.00  0.00     0.251 C 
ATOM     32  H   UNL A   1      35.159  32.580  27.384  1.00  0.00     0.163 HD
ATOM     33  O   UNL A   1      37.109  32.450  28.759  1.00  0.00    -0.269 OA
BRANCH  31  34
ATOM     34  C   UNL A   1      37.289  30.153  28.205  1.00  0.00     0.039 A 
ATOM     35  C   UNL A   1      37.247  29.349  29.354  1.00  0.00     0.014 A 
ATOM     36  C   UNL A   1      38.153  29.810  27.169  1.00  0.00     0.014 A 
ATOM     37  C   UNL A   1      38.236  28.392  29.572  1.00  0.00     0.010 A 
ATOM     38  C   UNL A   1      39.183  28.930  27.413  1.00  0.00     0.010 A 
ATOM     39  C   UNL A   1      39.263  28.282  28.646  1.00  0.00    -0.014 A 
BRANCH  39  40
ATOM     40  C   UNL A   1      40.494  27.542  28.841  1.00  0.00     0.031 A 
ATOM     41  C   UNL A   1      40.524  26.090  28.630  1.00  0.00     0.074 A 
ATOM     42  C   UNL A   1      41.640  28.241  28.985  1.00  0.00     0.049 A 
ATOM     43  N   UNL A   1      41.549  25.352  28.865  1.00  0.00    -0.248 NA
ATOM     44  C   UNL A   1      39.374  25.354  28.131  1.00  0.00     0.031 C 
ATOM     45  C   UNL A   1      43.004  27.789  28.758  1.00  0.00     0.029 A 
ATOM     46  N   UNL A   1      41.801  29.502  29.529  1.00  0.00    -0.354 N 
ATOM     47  C   UNL A   1      41.304  24.106  28.336  1.00  0.00     0.074 A 
ATOM     48  C   UNL A   1      39.911  24.144  27.951  1.00  0.00     0.031 C 
ATOM     49  C   UNL A   1      43.852  28.642  29.357  1.00  0.00     0.029 A 
ATOM     50  C   UNL A   1      43.053  29.557  30.150  1.00  0.00     0.049 A 
ATOM     51  H   UNL A   1      41.146  30.236  29.486  1.00  0.00     0.167 HD
ATOM     52  C   UNL A   1      42.357  23.253  28.190  1.00  0.00     0.034 A 
ATOM     53  C   UNL A   1      43.123  29.659  31.516  1.00  0.00     0.034 A 
ATOM     54  C   UNL A   1      43.569  23.804  28.829  1.00  0.00     0.049 A 
ATOM     55  C   UNL A   1      43.714  28.423  32.192  1.00  0.00     0.074 A 
ATOM     56  C   UNL A   1      44.694  24.483  28.390  1.00  0.00     0.029 A 
ATOM     57  N   UNL A   1      43.569  23.936  30.208  1.00  0.00    -0.354 N 
ATOM     58  N   UNL A   1      44.168  27.373  31.560  1.00  0.00    -0.248 NA
ATOM     59  C   UNL A   1      43.770  28.250  33.644  1.00  0.00     0.031 C 
ATOM     60  C   UNL A   1      45.321  25.086  29.527  1.00  0.00     0.029 A 
ATOM     61  C   UNL A   1      44.597  24.747  30.658  1.00  0.00     0.049 A 
ATOM     62  H   UNL A   1      42.911  23.503  30.800  1.00  0.00     0.167 HD
ATOM     63  C   UNL A   1      44.382  26.357  32.451  1.00  0.00     0.074 A 
ATOM     64  C   UNL A   1      44.170  26.971  33.751  1.00  0.00     0.031 C 
ATOM     65  C   UNL A   1      44.651  25.068  32.082  1.00  0.00     0.034 A 
BRANCH  52  66
ATOM     66  C   UNL A   1      42.379  22.014  27.308  1.00  0.00     0.023 A 
ATOM     67  C   UNL A   1      41.363  21.055  27.524  1.00  0.00     0.012 A 
ATOM     68  C   UNL A   1      43.339  21.678  26.325  1.00  0.00     0.148 A 
ATOM     69  C   UNL A   1      41.344  19.815  26.872  1.00  0.00     0.002 A 
ATOM     70  C   UNL A   1      43.358  20.419  25.717  1.00  0.00     0.091 A 
ATOM     71  F   UNL A   1      44.210  22.591  25.900  1.00  0.00    -0.205 F 
ATOM     72  C   UNL A   1      42.360  19.484  25.989  1.00  0.00     0.022 A 
BRANCH  70  73
ATOM     73  S   UNL A   1      44.683  19.897  24.609  1.00  0.00     0.127 S 
ATOM     74  O   UNL A   1      45.875  20.135  25.428  1.00  0.00    -0.237 OA
ATOM     75  O   UNL A   1      44.372  18.487  24.388  1.00  0.00    -0.237 OA
ATOM     76  O   UNL A   1      44.595  20.750  23.430  1.00  0.00    -0.744 OA
ENDBRANCH  70  73
ENDBRANCH  52  66
BRANCH  53  77
ATOM     77  C   UNL A   1      42.000  30.498  32.062  1.00  0.00     0.023 A 
ATOM     78  C   UNL A   1      41.899  31.826  31.573  1.00  0.00     0.012 A 
ATOM     79  C   UNL A   1      40.872  29.918  32.664  1.00  0.00     0.148 A 
ATOM     80  C   UNL A   1      40.662  32.472  31.503  1.00  0.00     0.002 A 
ATOM     81  C   UNL A   1      39.650  30.587  32.628  1.00  0.00     0.091 A 
ATOM     82  F   UNL A   1      40.977  28.702  33.213  1.00  0.00    -0.205 F 
ATOM     83  C   UNL A   1      39.529  31.833  31.995  1.00  0.00     0.022 A 
BRANCH  81  84
ATOM     84  S   UNL A   1      38.174  29.825  33.315  1.00  0.00     0.127 S 
ATOM     85  O   UNL A   1      37.120  30.521  32.582  1.00  0.00    -0.237 OA
ATOM     86  O   UNL A   1      38.337  28.416  32.959  1.00  0.00    -0.237 OA
ATOM     87  O   UNL A   1      38.254  30.090  34.744  1.00  0.00    -0.744 OA
ENDBRANCH  81  84
ENDBRANCH  53  77
BRANCH  65  88
ATOM     88  C   UNL A   1      44.995  23.998  33.092  1.00  0.00     0.023 A 
ATOM     89  C   UNL A   1      43.989  23.126  33.560  1.00  0.00     0.012 A 
ATOM     90  C   UNL A   1      46.262  23.918  33.719  1.00  0.00     0.148 A 
ATOM     91  C   UNL A   1      44.243  22.181  34.558  1.00  0.00     0.002 A 
ATOM     92  C   UNL A   1      46.477  23.053  34.787  1.00  0.00     0.091 A 
ATOM     93  F   UNL A   1      47.284  24.643  33.251  1.00  0.00    -0.205 F 
ATOM     94  C   UNL A   1      45.480  22.160  35.189  1.00  0.00     0.022 A 
BRANCH  92  95
ATOM     95  S   UNL A   1      47.966  23.133  35.793  1.00  0.00     0.127 S 
ATOM     96  O   UNL A   1      47.817  24.436  36.446  1.00  0.00    -0.237 OA
ATOM     97  O   UNL A   1      47.793  21.985  36.677  1.00  0.00    -0.237 OA
ATOM     98  O   UNL A   1      49.078  23.060  34.857  1.00  0.00    -0.744 OA
ENDBRANCH  92  95
ENDBRANCH  65  88
ENDBRANCH  39  40
ENDBRANCH  31  34
ENDBRANCH  29  30
ENDBRANCH  28  29
ENDBRANCH   1  28
TORSDOF 19
ENDMDL
MODEL 2
REMARK VINA RESULT:     -12.9      2.553      3.317
REMARK SMILES Cc1ccc(S(=O)(=O)N[C@@H](Cc2cccc(F)c2)C(=O)NCCCCNC(=O)c2ccc(-c3c4nc(c(-c5cccc(S(=O)(=O)[O-])c5F)c5ccc([nH]5)c(-c5cccc(S(=O)(=O)[O-])c5F)c5nc(c(-c6cccc(S(=O)(=O)[O-])c6F)c6ccc3[nH]6)C=C5)C=C4)cc2)cc1
REMARK SMILES IDX 23 1 22 2 21 3 19 4 20 5 10 7 9 8 6 10 7 11 8 12 5 13 1 14
REMARK SMILES IDX 2 15 3 16 93 17 4 18 92 19 11 20 12 21 13 22 18 23 14 24
REMARK SMILES IDX 16 25 15 26 17 27 24 28 25 29 26 30 27 31 28 33 29 34 30 35
REMARK SMILES IDX 91 36 31 37 90 38 32 39 33 40 34 41 84 42 35 43 89 44 83 45
REMARK SMILES IDX 85 46 36 47 88 48 82 49 81 50 37 52 69 53 49 54 68 55 50 56
REMARK SMILES IDX 53 57 67 58 86 59 51 60 52 61 66 63 87 64 54 65 38 66 39 67
REMARK SMILES IDX 47 68 40 69 42 70 48 71 41 72 43 73 44 74 45 75 46 76 70 77
REMARK SMILES IDX 71 78 79 79 72 80 74 81 80 82 73 83 75 84 76 85 77 86 78 87
REMARK SMILES IDX 55 88 56 89 64 90 57 91 59 92 65 93 58 94 60 95 61 96 62 97
REMARK SMILES IDX 63 98
REMARK H PARENT 21 6 9 9 26 32 85 51 53 62
REMARK Flexibility Score: inf
ROOT
ATOM      1  C   UNL A   1      32.770  28.376  27.236  1.00  0.00     0.023 C 
ENDROOT
BRANCH   1   2
ATOM      2  C   UNL A   1      31.564  27.445  27.090  1.00  0.00     0.116 C 
BRANCH   2   3
ATOM      3  N   UNL A   1      31.044  27.457  25.731  1.00  0.00    -0.355 N 
ATOM      4  C   UNL A   1      31.232  26.577  24.710  1.00  0.00     0.238 C 
ATOM      5  O   UNL A   1      30.782  26.871  23.599  1.00  0.00    -0.273 OA
ATOM      6  H   UNL A   1      30.465  28.224  25.516  1.00  0.00     0.163 HD
BRANCH   4   7
ATOM      7  C   UNL A   1      32.049  25.291  24.906  1.00  0.00     0.163 C 
BRANCH   7   8
ATOM      8  N   UNL A   1      30.994  24.295  25.219  1.00  0.00    -0.198 NA
ATOM      9  H   UNL A   1      30.152  24.845  25.387  1.00  0.00     0.142 HD
BRANCH   8  10
ATOM     10  S   UNL A   1      31.027  23.180  26.435  1.00  0.00     0.241 S 
ATOM     11  O   UNL A   1      29.806  22.397  26.353  1.00  0.00    -0.207 OA
ATOM     12  O   UNL A   1      31.385  23.906  27.623  1.00  0.00    -0.207 OA
BRANCH  10  13
ATOM     13  C   UNL A   1      32.375  22.098  26.066  1.00  0.00     0.082 A 
ATOM     14  C   UNL A   1      35.736  19.728  24.847  1.00  0.00     0.044 C 
ATOM     15  C   UNL A   1      34.551  20.531  25.294  1.00  0.00    -0.051 A 
ATOM     16  C   UNL A   1      33.426  20.631  24.465  1.00  0.00     0.005 A 
ATOM     17  C   UNL A   1      34.549  21.173  26.538  1.00  0.00     0.005 A 
ATOM     18  C   UNL A   1      32.343  21.423  24.843  1.00  0.00     0.022 A 
ATOM     19  C   UNL A   1      33.457  21.945  26.934  1.00  0.00     0.022 A 
ENDBRANCH  10  13
ENDBRANCH   8  10
ENDBRANCH   7   8
BRANCH   7  20
ATOM     20  C   UNL A   1      32.991  24.887  23.760  1.00  0.00     0.065 C 
BRANCH  20  21
ATOM     21  C   UNL A   1      34.404  24.383  24.005  1.00  0.00    -0.043 A 
ATOM     22  C   UNL A   1      34.972  24.675  25.261  1.00  0.00     0.004 A 
ATOM     23  C   UNL A   1      35.175  23.627  23.114  1.00  0.00     0.043 A 
ATOM     24  C   UNL A   1      36.227  24.181  25.626  1.00  0.00     0.003 A 
ATOM     25  C   UNL A   1      36.404  23.095  23.506  1.00  0.00     0.123 A 
ATOM     26  C   UNL A   1      36.935  23.359  24.756  1.00  0.00     0.039 A 
ATOM     27  F   UNL A   1      37.073  22.308  22.654  1.00  0.00    -0.207 F 
ENDBRANCH  20  21
ENDBRANCH   7  20
ENDBRANCH   4   7
ENDBRANCH   2   3
ENDBRANCH   1   2
BRANCH   1  28
ATOM     28  C   UNL A   1      32.435  29.869  27.214  1.00  0.00     0.023 C 
BRANCH  28  29
ATOM     29  C   UNL A   1      33.601  30.745  26.794  1.00  0.00     0.116 C 
BRANCH  29  30
ATOM     30  N   UNL A   1      34.058  31.636  27.838  1.00  0.00    -0.352 N 
ATOM     31  C   UNL A   1      34.925  31.399  28.886  1.00  0.00     0.251 C 
ATOM     32  H   UNL A   1      33.694  32.549  27.795  1.00  0.00     0.163 HD
ATOM     33  O   UNL A   1      34.917  32.201  29.817  1.00  0.00    -0.269 OA
BRANCH  31  34
ATOM     34  C   UNL A   1      35.940  30.311  28.817  1.00  0.00     0.039 A 
ATOM     35  C   UNL A   1      36.243  29.634  30.008  1.00  0.00     0.014 A 
ATOM     36  C   UNL A   1      36.737  30.099  27.696  1.00  0.00     0.014 A 
ATOM     37  C   UNL A   1      37.466  28.980  30.146  1.00  0.00     0.010 A 
ATOM     38  C   UNL A   1      37.981  29.532  27.849  1.00  0.00     0.010 A 
ATOM     39  C   UNL A   1      38.371  29.044  29.096  1.00  0.00    -0.014 A 
BRANCH  39  40
ATOM     40  C   UNL A   1      39.766  28.658  29.166  1.00  0.00     0.031 A 
ATOM     41  C   UNL A   1      40.165  27.275  28.878  1.00  0.00     0.074 A 
ATOM     42  C   UNL A   1      40.692  29.635  29.265  1.00  0.00     0.049 A 
ATOM     43  N   UNL A   1      41.365  26.834  29.002  1.00  0.00    -0.248 NA
ATOM     44  C   UNL A   1      39.216  26.272  28.423  1.00  0.00     0.031 C 
ATOM     45  C   UNL A   1      42.105  29.575  28.920  1.00  0.00     0.029 A 
ATOM     46  N   UNL A   1      40.555  30.875  29.861  1.00  0.00    -0.354 N 
ATOM     47  C   UNL A   1      41.418  25.585  28.427  1.00  0.00     0.074 A 
ATOM     48  C   UNL A   1      40.039  25.258  28.144  1.00  0.00     0.031 C 
ATOM     49  C   UNL A   1      42.740  30.606  29.500  1.00  0.00     0.029 A 
ATOM     50  C   UNL A   1      41.794  31.246  30.395  1.00  0.00     0.049 A 
ATOM     51  H   UNL A   1      39.727  31.407  29.902  1.00  0.00     0.167 HD
ATOM     52  C   UNL A   1      42.645  25.053  28.163  1.00  0.00     0.034 A 
ATOM     53  C   UNL A   1      41.945  31.322  31.756  1.00  0.00     0.034 A 
ATOM     54  C   UNL A   1      43.715  25.890  28.743  1.00  0.00     0.049 A 
ATOM     55  C   UNL A   1      42.898  30.270  32.323  1.00  0.00     0.074 A 
ATOM     56  C   UNL A   1      44.578  26.861  28.261  1.00  0.00     0.029 A 
ATOM     57  N   UNL A   1      43.792  25.974  30.124  1.00  0.00    -0.354 N 
ATOM     58  N   UNL A   1      43.562  29.401  31.607  1.00  0.00    -0.248 NA
ATOM     59  C   UNL A   1      43.116  30.073  33.757  1.00  0.00     0.031 C 
ATOM     60  C   UNL A   1      45.113  27.575  29.382  1.00  0.00     0.029 A 
ATOM     61  C   UNL A   1      44.600  27.018  30.542  1.00  0.00     0.049 A 
ATOM     62  H   UNL A   1      43.324  25.362  30.737  1.00  0.00     0.167 HD
ATOM     63  C   UNL A   1      44.111  28.453  32.427  1.00  0.00     0.074 A 
ATOM     64  C   UNL A   1      43.850  28.947  33.769  1.00  0.00     0.031 C 
ATOM     65  C   UNL A   1      44.683  27.297  31.973  1.00  0.00     0.034 A 
BRANCH  52  66
ATOM     66  C   UNL A   1      42.924  23.894  27.219  1.00  0.00     0.023 A 
ATOM     67  C   UNL A   1      43.702  24.173  26.072  1.00  0.00     0.012 A 
ATOM     68  C   UNL A   1      42.445  22.567  27.325  1.00  0.00     0.148 A 
ATOM     69  C   UNL A   1      43.923  23.229  25.060  1.00  0.00     0.002 A 
ATOM     70  C   UNL A   1      42.612  21.640  26.290  1.00  0.00     0.091 A 
ATOM     71  F   UNL A   1      41.884  22.145  28.457  1.00  0.00    -0.205 F 
ATOM     72  C   UNL A   1      43.351  21.970  25.155  1.00  0.00     0.022 A 
BRANCH  70  73
ATOM     73  S   UNL A   1      41.845  20.008  26.318  1.00  0.00     0.127 S 
ATOM     74  O   UNL A   1      42.455  19.366  25.150  1.00  0.00    -0.237 OA
ATOM     75  O   UNL A   1      42.288  19.472  27.603  1.00  0.00    -0.237 OA
ATOM     76  O   UNL A   1      40.409  20.224  26.192  1.00  0.00    -0.744 OA
ENDBRANCH  70  73
ENDBRANCH  52  66
BRANCH  53  77
ATOM     77  C   UNL A   1      40.688  31.808  32.422  1.00  0.00     0.023 A 
ATOM     78  C   UNL A   1      39.639  30.865  32.574  1.00  0.00     0.012 A 
ATOM     79  C   UNL A   1      40.679  32.957  33.230  1.00  0.00     0.148 A 
ATOM     80  C   UNL A   1      38.734  30.964  33.633  1.00  0.00     0.002 A 
ATOM     81  C   UNL A   1      39.745  33.069  34.259  1.00  0.00     0.091 A 
ATOM     82  F   UNL A   1      41.608  33.900  33.034  1.00  0.00    -0.205 F 
ATOM     83  C   UNL A   1      38.814  32.048  34.501  1.00  0.00     0.022 A 
BRANCH  81  84
ATOM     84  S   UNL A   1      39.771  34.489  35.360  1.00  0.00     0.127 S 
ATOM     85  O   UNL A   1      39.530  35.586  34.426  1.00  0.00    -0.237 OA
ATOM     86  O   UNL A   1      38.663  34.213  36.275  1.00  0.00    -0.237 OA
ATOM     87  O   UNL A   1      41.084  34.448  35.986  1.00  0.00    -0.744 OA
ENDBRANCH  81  84
ENDBRANCH  53  77
BRANCH  65  88
ATOM     88  C   UNL A   1      45.381  26.328  32.900  1.00  0.00     0.023 A 
ATOM     89  C   UNL A   1      46.777  26.152  32.807  1.00  0.00     0.012 A 
ATOM     90  C   UNL A   1      44.677  25.461  33.769  1.00  0.00     0.148 A 
ATOM     91  C   UNL A   1      47.451  25.204  33.583  1.00  0.00     0.002 A 
ATOM     92  C   UNL A   1      45.337  24.446  34.454  1.00  0.00     0.091 A 
ATOM     93  F   UNL A   1      43.368  25.646  33.979  1.00  0.00    -0.205 F 
ATOM     94  C   UNL A   1      46.728  24.335  34.389  1.00  0.00     0.022 A 
BRANCH  92  95
ATOM     95  S   UNL A   1      44.446  23.151  35.327  1.00  0.00     0.127 S 
ATOM     96  O   UNL A   1      43.379  22.827  34.376  1.00  0.00    -0.237 OA
ATOM     97  O   UNL A   1      45.471  22.122  35.466  1.00  0.00    -0.237 OA
ATOM     98  O   UNL A   1      43.976  23.759  36.563  1.00  0.00    -0.744 OA
ENDBRANCH  92  95
ENDBRANCH  65  88
ENDBRANCH  39  40
ENDBRANCH  31  34
ENDBRANCH  29  30
ENDBRANCH  28  29
ENDBRANCH   1  28
TORSDOF 19
ENDMDL
MODEL 3
REMARK VINA RESULT:     -12.9      4.412      9.777
REMARK SMILES Cc1ccc(S(=O)(=O)N[C@@H](Cc2cccc(F)c2)C(=O)NCCCCNC(=O)c2ccc(-c3c4nc(c(-c5cccc(S(=O)(=O)[O-])c5F)c5ccc([nH]5)c(-c5cccc(S(=O)(=O)[O-])c5F)c5nc(c(-c6cccc(S(=O)(=O)[O-])c6F)c6ccc3[nH]6)C=C5)C=C4)cc2)cc1
REMARK SMILES IDX 23 1 22 2 21 3 19 4 20 5 10 7 9 8 6 10 7 11 8 12 5 13 1 14
REMARK SMILES IDX 2 15 3 16 93 17 4 18 92 19 11 20 12 21 13 22 18 23 14 24
REMARK SMILES IDX 16 25 15 26 17 27 24 28 25 29 26 30 27 31 28 33 29 34 30 35
REMARK SMILES IDX 91 36 31 37 90 38 32 39 33 40 34 41 84 42 35 43 89 44 83 45
REMARK SMILES IDX 85 46 36 47 88 48 82 49 81 50 37 52 69 53 49 54 68 55 50 56
REMARK SMILES IDX 53 57 67 58 86 59 51 60 52 61 66 63 87 64 54 65 38 66 39 67
REMARK SMILES IDX 47 68 40 69 42 70 48 71 41 72 43 73 44 74 45 75 46 76 70 77
REMARK SMILES IDX 71 78 79 79 72 80 74 81 80 82 73 83 75 84 76 85 77 86 78 87
REMARK SMILES IDX 55 88 56 89 64 90 57 91 59 92 65 93 58 94 60 95 61 96 62 97
REMARK SMILES IDX 63 98
REMARK H PARENT 21 6 9 9 26 32 85 51 53 62
REMARK Flexibility Score: inf
ROOT
ATOM      1  C   UNL A   1      36.689  20.304  25.046  1.00  0.00     0.023 C 
ENDROOT
BRANCH   1   2
ATOM      2  C   UNL A   1      35.253  20.828  25.113  1.00  0.00     0.116 C 
BRANCH   2   3
ATOM      3  N   UNL A   1      34.909  21.264  26.458  1.00  0.00    -0.355 N 
ATOM      4  C   UNL A   1      34.166  22.326  26.875  1.00  0.00     0.238 C 
ATOM      5  O   UNL A   1      34.119  22.563  28.086  1.00  0.00    -0.273 OA
ATOM      6  H   UNL A   1      35.271  20.703  27.181  1.00  0.00     0.163 HD
BRANCH   4   7
ATOM      7  C   UNL A   1      33.471  23.256  25.870  1.00  0.00     0.163 C 
BRANCH   7   8
ATOM      8  N   UNL A   1      32.303  23.740  26.648  1.00  0.00    -0.198 NA
ATOM      9  H   UNL A   1      32.211  23.084  27.423  1.00  0.00     0.142 HD
BRANCH   8  10
ATOM     10  S   UNL A   1      30.767  23.953  26.083  1.00  0.00     0.241 S 
ATOM     11  O   UNL A   1      29.870  23.959  27.225  1.00  0.00    -0.207 OA
ATOM     12  O   UNL A   1      30.613  23.016  25.002  1.00  0.00    -0.207 OA
BRANCH  10  13
ATOM     13  C   UNL A   1      30.731  25.571  25.372  1.00  0.00     0.082 A 
ATOM     14  C   UNL A   1      30.223  29.477  23.676  1.00  0.00     0.044 C 
ATOM     15  C   UNL A   1      30.433  28.112  24.258  1.00  0.00    -0.051 A 
ATOM     16  C   UNL A   1      29.976  26.983  23.568  1.00  0.00     0.005 A 
ATOM     17  C   UNL A   1      31.095  27.950  25.482  1.00  0.00     0.005 A 
ATOM     18  C   UNL A   1      30.112  25.714  24.127  1.00  0.00     0.022 A 
ATOM     19  C   UNL A   1      31.259  26.680  26.035  1.00  0.00     0.022 A 
ENDBRANCH  10  13
ENDBRANCH   8  10
ENDBRANCH   7   8
BRANCH   7  20
ATOM     20  C   UNL A   1      34.329  24.369  25.246  1.00  0.00     0.065 C 
BRANCH  20  21
ATOM     21  C   UNL A   1      33.935  25.080  23.961  1.00  0.00    -0.043 A 
ATOM     22  C   UNL A   1      33.404  24.279  22.932  1.00  0.00     0.004 A 
ATOM     23  C   UNL A   1      34.017  26.457  23.725  1.00  0.00     0.043 A 
ATOM     24  C   UNL A   1      32.924  24.840  21.745  1.00  0.00     0.003 A 
ATOM     25  C   UNL A   1      33.487  27.015  22.559  1.00  0.00     0.123 A 
ATOM     26  C   UNL A   1      32.936  26.220  21.570  1.00  0.00     0.039 A 
ATOM     27  F   UNL A   1      33.509  28.345  22.407  1.00  0.00    -0.207 F 
ENDBRANCH  20  21
ENDBRANCH   7  20
ENDBRANCH   4   7
ENDBRANCH   2   3
ENDBRANCH   1   2
BRANCH   1  28
ATOM     28  C   UNL A   1      37.732  21.344  24.629  1.00  0.00     0.023 C 
BRANCH  28  29
ATOM     29  C   UNL A   1      38.132  22.284  25.752  1.00  0.00     0.116 C 
BRANCH  29  30
ATOM     30  N   UNL A   1      39.523  22.169  26.132  1.00  0.00    -0.352 N 
ATOM     31  C   UNL A   1      40.449  23.155  26.411  1.00  0.00     0.251 C 
ATOM     32  H   UNL A   1      39.860  21.248  26.202  1.00  0.00     0.163 HD
ATOM     33  O   UNL A   1      41.635  22.835  26.400  1.00  0.00    -0.269 OA
BRANCH  31  34
ATOM     34  C   UNL A   1      40.021  24.509  26.863  1.00  0.00     0.039 A 
ATOM     35  C   UNL A   1      40.585  25.616  26.211  1.00  0.00     0.014 A 
ATOM     36  C   UNL A   1      39.278  24.711  28.023  1.00  0.00     0.014 A 
ATOM     37  C   UNL A   1      40.633  26.853  26.852  1.00  0.00     0.010 A 
ATOM     38  C   UNL A   1      39.396  25.903  28.700  1.00  0.00     0.010 A 
ATOM     39  C   UNL A   1      40.140  26.944  28.145  1.00  0.00    -0.014 A 
BRANCH  39  40
ATOM     40  C   UNL A   1      40.347  28.063  29.045  1.00  0.00     0.031 A 
ATOM     41  C   UNL A   1      39.479  29.244  28.966  1.00  0.00     0.074 A 
ATOM     42  C   UNL A   1      41.184  27.892  30.089  1.00  0.00     0.049 A 
ATOM     43  N   UNL A   1      39.650  30.308  29.666  1.00  0.00    -0.248 NA
ATOM     44  C   UNL A   1      38.334  29.309  28.072  1.00  0.00     0.031 C 
ATOM     45  C   UNL A   1      41.235  28.643  31.335  1.00  0.00     0.029 A 
ATOM     46  N   UNL A   1      42.292  27.067  30.161  1.00  0.00    -0.354 N 
ATOM     47  C   UNL A   1      38.534  31.097  29.515  1.00  0.00     0.074 A 
ATOM     48  C   UNL A   1      37.778  30.459  28.461  1.00  0.00     0.031 C 
ATOM     49  C   UNL A   1      42.416  28.416  31.934  1.00  0.00     0.029 A 
ATOM     50  C   UNL A   1      43.236  27.670  30.998  1.00  0.00     0.049 A 
ATOM     51  H   UNL A   1      42.397  26.201  29.703  1.00  0.00     0.167 HD
ATOM     52  C   UNL A   1      38.351  32.123  30.394  1.00  0.00     0.034 A 
ATOM     53  C   UNL A   1      44.413  28.130  30.464  1.00  0.00     0.034 A 
ATOM     54  C   UNL A   1      39.538  32.292  31.255  1.00  0.00     0.049 A 
ATOM     55  C   UNL A   1      44.553  29.651  30.515  1.00  0.00     0.074 A 
ATOM     56  C   UNL A   1      39.889  31.907  32.540  1.00  0.00     0.029 A 
ATOM     57  N   UNL A   1      40.716  32.709  30.657  1.00  0.00    -0.354 N 
ATOM     58  N   UNL A   1      43.682  30.463  31.054  1.00  0.00    -0.248 NA
ATOM     59  C   UNL A   1      45.660  30.378  29.891  1.00  0.00     0.031 C 
ATOM     60  C   UNL A   1      41.310  32.031  32.668  1.00  0.00     0.029 A 
ATOM     61  C   UNL A   1      41.816  32.521  31.476  1.00  0.00     0.049 A 
ATOM     62  H   UNL A   1      40.764  33.094  29.751  1.00  0.00     0.167 HD
ATOM     63  C   UNL A   1      43.977  31.753  30.706  1.00  0.00     0.074 A 
ATOM     64  C   UNL A   1      45.256  31.654  30.021  1.00  0.00     0.031 C 
ATOM     65  C   UNL A   1      43.140  32.810  30.932  1.00  0.00     0.034 A 
BRANCH  52  66
ATOM     66  C   UNL A   1      37.042  32.859  30.637  1.00  0.00     0.023 A 
ATOM     67  C   UNL A   1      36.575  32.914  31.971  1.00  0.00     0.012 A 
ATOM     68  C   UNL A   1      36.200  33.453  29.669  1.00  0.00     0.148 A 
ATOM     69  C   UNL A   1      35.326  33.448  32.312  1.00  0.00     0.002 A 
ATOM     70  C   UNL A   1      34.927  33.932  29.996  1.00  0.00     0.091 A 
ATOM     71  F   UNL A   1      36.636  33.640  28.424  1.00  0.00    -0.205 F 
ATOM     72  C   UNL A   1      34.487  33.929  31.319  1.00  0.00     0.022 A 
BRANCH  70  73
ATOM     73  S   UNL A   1      33.759  34.513  28.750  1.00  0.00     0.127 S 
ATOM     74  O   UNL A   1      34.484  35.641  28.158  1.00  0.00    -0.237 OA
ATOM     75  O   UNL A   1      33.629  33.352  27.873  1.00  0.00    -0.237 OA
ATOM     76  O   UNL A   1      32.548  34.896  29.465  1.00  0.00    -0.744 OA
ENDBRANCH  70  73
ENDBRANCH  52  66
BRANCH  53  77
ATOM     77  C   UNL A   1      44.888  27.249  29.343  1.00  0.00     0.023 A 
ATOM     78  C   UNL A   1      45.168  25.896  29.668  1.00  0.00     0.012 A 
ATOM     79  C   UNL A   1      44.664  27.581  27.997  1.00  0.00     0.148 A 
ATOM     80  C   UNL A   1      45.023  24.884  28.715  1.00  0.00     0.002 A 
ATOM     81  C   UNL A   1      44.563  26.569  27.043  1.00  0.00     0.091 A 
ATOM     82  F   UNL A   1      44.492  28.865  27.661  1.00  0.00    -0.205 F 
ATOM     83  C   UNL A   1      44.680  25.220  27.410  1.00  0.00     0.022 A 
BRANCH  81  84
ATOM     84  S   UNL A   1      44.191  26.966  25.331  1.00  0.00     0.127 S 
ATOM     85  O   UNL A   1      43.376  28.169  25.482  1.00  0.00    -0.237 OA
ATOM     86  O   UNL A   1      45.514  27.195  24.753  1.00  0.00    -0.237 OA
ATOM     87  O   UNL A   1      43.514  25.785  24.817  1.00  0.00    -0.744 OA
ENDBRANCH  81  84
ENDBRANCH  53  77
BRANCH  65  88
ATOM     88  C   UNL A   1      43.549  34.235  30.637  1.00  0.00     0.023 A 
ATOM     89  C   UNL A   1      43.877  35.104  31.699  1.00  0.00     0.012 A 
ATOM     90  C   UNL A   1      43.474  34.799  29.341  1.00  0.00     0.148 A 
ATOM     91  C   UNL A   1      44.174  36.452  31.479  1.00  0.00     0.002 A 
ATOM     92  C   UNL A   1      43.662  36.163  29.143  1.00  0.00     0.091 A 
ATOM     93  F   UNL A   1      43.271  34.008  28.281  1.00  0.00    -0.205 F 
ATOM     94  C   UNL A   1      44.044  36.987  30.204  1.00  0.00     0.022 A 
BRANCH  92  95
ATOM     95  S   UNL A   1      43.286  36.958  27.574  1.00  0.00     0.127 S 
ATOM     96  O   UNL A   1      41.867  36.637  27.407  1.00  0.00    -0.237 OA
ATOM     97  O   UNL A   1      43.563  38.360  27.874  1.00  0.00    -0.237 OA
ATOM     98  O   UNL A   1      44.158  36.328  26.594  1.00  0.00    -0.744 OA
ENDBRANCH  92  95
ENDBRANCH  65  88
ENDBRANCH  39  40
ENDBRANCH  31  34
ENDBRANCH  29  30
ENDBRANCH  28  29
ENDBRANCH   1  28
TORSDOF 19
ENDMDL
