MODEL 1
REMARK VINA RESULT:     -12.6      0.000      0.000
REMARK SMILES CO[C@@]1(C(=O)NCCCCNC(=O)c2ccc(-c3c4nc(c(-c5cccc(S(=O)(=O)[O-])c5F)c5ccc([nH]5)c(-c5cccc(S(=O)(=O)[O-])c5F)c5nc(c(-c6cccc(S(=O)(=O)[O-])c6F)c6ccc3[nH]6)C=C5)C=C4)cc2)CC(c2ccccc2)=CC=C1C
REMARK SMILES IDX 9 1 8 2 7 3 6 4 4 5 5 6 3 8 77 9 87 10 78 11 86 12 88 13
REMARK SMILES IDX 85 14 2 15 1 16 79 17 80 18 84 19 81 20 83 21 82 22 10 23
REMARK SMILES IDX 11 24 12 25 13 27 14 28 15 29 76 30 16 31 75 32 17 33 18 34
REMARK SMILES IDX 19 35 69 36 20 37 74 38 68 39 70 40 21 41 73 42 67 43 66 44
REMARK SMILES IDX 22 46 54 47 34 48 53 49 35 50 38 51 52 52 71 53 36 54 37 55
REMARK SMILES IDX 51 57 72 58 39 59 23 60 24 61 32 62 25 63 27 64 33 65 26 66
REMARK SMILES IDX 28 67 29 68 30 69 31 70 55 71 56 72 64 73 57 74 59 75 65 76
REMARK SMILES IDX 58 77 60 78 61 79 62 80 63 81 40 82 41 83 49 84 42 85 44 86
REMARK SMILES IDX 50 87 43 88 45 89 46 90 47 91 48 92
REMARK H PARENT 6 7 11 26 70 45 38 56
REMARK Flexibility Score: inf
ROOT
ATOM      1  C   UNL A   1      35.657  21.747  24.336  1.00  0.00     0.023 C 
ENDROOT
BRANCH   1   2
ATOM      2  C   UNL A   1      35.089  22.976  23.631  1.00  0.00     0.023 C 
BRANCH   2   3
ATOM      3  C   UNL A   1      33.620  22.858  23.218  1.00  0.00     0.116 C 
BRANCH   3   4
ATOM      4  N   UNL A   1      32.938  21.794  23.932  1.00  0.00    -0.353 N 
ATOM      5  C   UNL A   1      32.203  21.757  25.087  1.00  0.00     0.256 C 
ATOM      6  O   UNL A   1      31.783  20.629  25.373  1.00  0.00    -0.271 OA
ATOM      7  H   UNL A   1      33.020  20.916  23.494  1.00  0.00     0.163 HD
BRANCH   5   8
ATOM      8  C   UNL A   1      31.838  23.060  25.957  1.00  0.00     0.171 C 
ATOM      9  C   UNL A   1      31.124  24.111  25.056  1.00  0.00     0.086 C 
ATOM     10  C   UNL A   1      33.139  23.644  26.554  1.00  0.00    -0.032 C 
ATOM     11  C   UNL A   1      31.596  25.542  25.067  1.00  0.00    -0.037 C 
ATOM     12  C   UNL A   1      33.513  24.930  26.399  1.00  0.00     0.003 C 
ATOM     13  C   UNL A   1      33.968  22.746  27.439  1.00  0.00     0.043 C 
ATOM     14  C   UNL A   1      32.728  25.901  25.682  1.00  0.00     0.004 C 
BRANCH   8  15
ATOM     15  O   UNL A   1      31.047  22.824  27.137  1.00  0.00    -0.364 OA
ATOM     16  C   UNL A   1      29.643  22.954  27.028  1.00  0.00     0.197 C 
ENDBRANCH   8  15
BRANCH  11  17
ATOM     17  C   UNL A   1      30.772  26.474  24.280  1.00  0.00    -0.022 A 
ATOM     18  C   UNL A   1      29.402  26.242  24.107  1.00  0.00     0.008 A 
ATOM     19  C   UNL A   1      31.322  27.676  23.815  1.00  0.00     0.008 A 
ATOM     20  C   UNL A   1      28.594  27.207  23.501  1.00  0.00     0.001 A 
ATOM     21  C   UNL A   1      30.515  28.641  23.210  1.00  0.00     0.001 A 
ATOM     22  C   UNL A   1      29.150  28.408  23.060  1.00  0.00     0.000 A 
ENDBRANCH  11  17
ENDBRANCH   5   8
ENDBRANCH   3   4
ENDBRANCH   2   3
ENDBRANCH   1   2
BRANCH   1  23
ATOM     23  C   UNL A   1      36.744  22.037  25.360  1.00  0.00     0.116 C 
BRANCH  23  24
ATOM     24  N   UNL A   1      37.732  20.972  25.477  1.00  0.00    -0.352 N 
ATOM     25  C   UNL A   1      39.016  21.059  25.966  1.00  0.00     0.251 C 
ATOM     26  H   UNL A   1      37.446  20.082  25.170  1.00  0.00     0.163 HD
ATOM     27  O   UNL A   1      39.768  20.097  25.929  1.00  0.00    -0.269 OA
BRANCH  25  28
ATOM     28  C   UNL A   1      39.471  22.359  26.496  1.00  0.00     0.039 A 
ATOM     29  C   UNL A   1      40.548  22.386  27.385  1.00  0.00     0.014 A 
ATOM     30  C   UNL A   1      38.894  23.543  26.032  1.00  0.00     0.014 A 
ATOM     31  C   UNL A   1      41.096  23.614  27.755  1.00  0.00     0.010 A 
ATOM     32  C   UNL A   1      39.490  24.758  26.341  1.00  0.00     0.010 A 
ATOM     33  C   UNL A   1      40.595  24.805  27.206  1.00  0.00    -0.014 A 
BRANCH  33  34
ATOM     34  C   UNL A   1      41.213  26.118  27.512  1.00  0.00     0.031 A 
ATOM     35  C   UNL A   1      42.620  26.402  27.069  1.00  0.00     0.074 A 
ATOM     36  C   UNL A   1      40.546  27.006  28.277  1.00  0.00     0.049 A 
ATOM     37  N   UNL A   1      43.361  27.453  27.303  1.00  0.00    -0.248 NA
ATOM     38  C   UNL A   1      43.299  25.351  26.292  1.00  0.00     0.031 C 
ATOM     39  C   UNL A   1      39.211  26.802  28.843  1.00  0.00     0.029 A 
ATOM     40  N   UNL A   1      40.915  28.245  28.733  1.00  0.00    -0.354 N 
ATOM     41  C   UNL A   1      44.600  27.175  26.741  1.00  0.00     0.074 A 
ATOM     42  C   UNL A   1      44.525  25.841  26.187  1.00  0.00     0.031 C 
ATOM     43  C   UNL A   1      38.872  27.882  29.567  1.00  0.00     0.029 A 
ATOM     44  C   UNL A   1      39.970  28.842  29.534  1.00  0.00     0.049 A 
ATOM     45  H   UNL A   1      41.775  28.669  28.509  1.00  0.00     0.167 HD
ATOM     46  C   UNL A   1      45.691  27.971  26.659  1.00  0.00     0.034 A 
ATOM     47  C   UNL A   1      39.986  30.032  30.167  1.00  0.00     0.034 A 
ATOM     48  C   UNL A   1      45.738  29.319  27.154  1.00  0.00     0.049 A 
ATOM     49  C   UNL A   1      41.184  30.928  29.999  1.00  0.00     0.074 A 
ATOM     50  C   UNL A   1      46.756  30.246  27.031  1.00  0.00     0.029 A 
ATOM     51  N   UNL A   1      44.718  29.934  27.865  1.00  0.00    -0.354 N 
ATOM     52  N   UNL A   1      42.283  30.715  29.317  1.00  0.00    -0.248 NA
ATOM     53  C   UNL A   1      41.129  32.243  30.655  1.00  0.00     0.031 C 
ATOM     54  C   UNL A   1      46.353  31.422  27.675  1.00  0.00     0.029 A 
ATOM     55  C   UNL A   1      45.082  31.228  28.188  1.00  0.00     0.049 A 
ATOM     56  H   UNL A   1      43.862  29.511  28.103  1.00  0.00     0.167 HD
ATOM     57  C   UNL A   1      43.035  31.879  29.432  1.00  0.00     0.074 A 
ATOM     58  C   UNL A   1      42.257  32.801  30.233  1.00  0.00     0.031 C 
ATOM     59  C   UNL A   1      44.266  32.153  28.935  1.00  0.00     0.034 A 
BRANCH  46  60
ATOM     60  C   UNL A   1      46.898  27.425  25.943  1.00  0.00     0.023 A 
ATOM     61  C   UNL A   1      47.770  26.555  26.628  1.00  0.00     0.012 A 
ATOM     62  C   UNL A   1      47.151  27.738  24.594  1.00  0.00     0.148 A 
ATOM     63  C   UNL A   1      48.896  26.031  25.995  1.00  0.00     0.002 A 
ATOM     64  C   UNL A   1      48.253  27.178  23.956  1.00  0.00     0.091 A 
ATOM     65  F   UNL A   1      46.327  28.588  23.967  1.00  0.00    -0.205 F 
ATOM     66  C   UNL A   1      49.131  26.335  24.657  1.00  0.00     0.022 A 
BRANCH  64  67
ATOM     67  S   UNL A   1      48.600  27.450  22.215  1.00  0.00     0.127 S 
ATOM     68  O   UNL A   1      48.651  26.080  21.706  1.00  0.00    -0.237 OA
ATOM     69  O   UNL A   1      47.431  28.218  21.781  1.00  0.00    -0.237 OA
ATOM     70  O   UNL A   1      49.856  28.187  22.170  1.00  0.00    -0.744 OA
ENDBRANCH  64  67
ENDBRANCH  46  60
BRANCH  47  71
ATOM     71  C   UNL A   1      38.793  30.481  30.938  1.00  0.00     0.023 A 
ATOM     72  C   UNL A   1      38.753  30.258  32.328  1.00  0.00     0.012 A 
ATOM     73  C   UNL A   1      37.724  31.156  30.321  1.00  0.00     0.148 A 
ATOM     74  C   UNL A   1      37.659  30.676  33.086  1.00  0.00     0.002 A 
ATOM     75  C   UNL A   1      36.659  31.616  31.088  1.00  0.00     0.091 A 
ATOM     76  F   UNL A   1      37.773  31.348  28.994  1.00  0.00    -0.205 F 
ATOM     77  C   UNL A   1      36.617  31.363  32.469  1.00  0.00     0.022 A 
BRANCH  75  78
ATOM     78  S   UNL A   1      35.341  32.623  30.399  1.00  0.00     0.127 S 
ATOM     79  O   UNL A   1      34.405  32.698  31.518  1.00  0.00    -0.237 OA
ATOM     80  O   UNL A   1      36.040  33.873  30.095  1.00  0.00    -0.237 OA
ATOM     81  O   UNL A   1      34.873  31.900  29.224  1.00  0.00    -0.744 OA
ENDBRANCH  75  78
ENDBRANCH  47  71
BRANCH  59  82
ATOM     82  C   UNL A   1      44.844  33.514  29.214  1.00  0.00     0.023 A 
ATOM     83  C   UNL A   1      45.573  33.729  30.400  1.00  0.00     0.012 A 
ATOM     84  C   UNL A   1      44.743  34.549  28.264  1.00  0.00     0.148 A 
ATOM     85  C   UNL A   1      46.171  34.964  30.649  1.00  0.00     0.002 A 
ATOM     86  C   UNL A   1      45.378  35.762  28.498  1.00  0.00     0.091 A 
ATOM     87  F   UNL A   1      44.027  34.330  27.151  1.00  0.00    -0.205 F 
ATOM     88  C   UNL A   1      46.084  35.975  29.693  1.00  0.00     0.022 A 
BRANCH  86  89
ATOM     89  S   UNL A   1      45.397  37.084  27.281  1.00  0.00     0.127 S 
ATOM     90  O   UNL A   1      43.969  37.322  27.076  1.00  0.00    -0.237 OA
ATOM     91  O   UNL A   1      46.099  38.154  27.992  1.00  0.00    -0.237 OA
ATOM     92  O   UNL A   1      46.119  36.554  26.131  1.00  0.00    -0.744 OA
ENDBRANCH  86  89
ENDBRANCH  59  82
ENDBRANCH  33  34
ENDBRANCH  25  28
ENDBRANCH  23  24
ENDBRANCH   1  23
TORSDOF 16
ENDMDL
MODEL 2
REMARK VINA RESULT:     -12.4      5.925      8.908
REMARK SMILES CO[C@@]1(C(=O)NCCCCNC(=O)c2ccc(-c3c4nc(c(-c5cccc(S(=O)(=O)[O-])c5F)c5ccc([nH]5)c(-c5cccc(S(=O)(=O)[O-])c5F)c5nc(c(-c6cccc(S(=O)(=O)[O-])c6F)c6ccc3[nH]6)C=C5)C=C4)cc2)CC(c2ccccc2)=CC=C1C
REMARK SMILES IDX 9 1 8 2 7 3 6 4 4 5 5 6 3 8 77 9 87 10 78 11 86 12 88 13
REMARK SMILES IDX 85 14 2 15 1 16 79 17 80 18 84 19 81 20 83 21 82 22 10 23
REMARK SMILES IDX 11 24 12 25 13 27 14 28 15 29 76 30 16 31 75 32 17 33 18 34
REMARK SMILES IDX 19 35 69 36 20 37 74 38 68 39 70 40 21 41 73 42 67 43 66 44
REMARK SMILES IDX 22 46 54 47 34 48 53 49 35 50 38 51 52 52 71 53 36 54 37 55
REMARK SMILES IDX 51 57 72 58 39 59 23 60 24 61 32 62 25 63 27 64 33 65 26 66
REMARK SMILES IDX 28 67 29 68 30 69 31 70 55 71 56 72 64 73 57 74 59 75 65 76
REMARK SMILES IDX 58 77 60 78 61 79 62 80 63 81 40 82 41 83 49 84 42 85 44 86
REMARK SMILES IDX 50 87 43 88 45 89 46 90 47 91 48 92
REMARK H PARENT 6 7 11 26 70 45 38 56
REMARK Flexibility Score: inf
ROOT
ATOM      1  C   UNL A   1      33.346  31.578  27.727  1.00  0.00     0.023 C 
ENDROOT
BRANCH   1   2
ATOM      2  C   UNL A   1      34.499  30.647  28.090  1.00  0.00     0.023 C 
BRANCH   2   3
ATOM      3  C   UNL A   1      34.417  29.251  27.468  1.00  0.00     0.116 C 
BRANCH   3   4
ATOM      4  N   UNL A   1      33.142  28.612  27.732  1.00  0.00    -0.353 N 
ATOM      5  C   UNL A   1      32.127  28.169  26.924  1.00  0.00     0.256 C 
ATOM      6  O   UNL A   1      31.178  27.673  27.545  1.00  0.00    -0.271 OA
ATOM      7  H   UNL A   1      32.970  28.464  28.690  1.00  0.00     0.163 HD
BRANCH   5   8
ATOM      8  C   UNL A   1      32.183  28.204  25.317  1.00  0.00     0.171 C 
ATOM      9  C   UNL A   1      31.154  29.240  24.776  1.00  0.00     0.086 C 
ATOM     10  C   UNL A   1      31.872  26.790  24.775  1.00  0.00    -0.032 C 
ATOM     11  C   UNL A   1      30.206  28.841  23.676  1.00  0.00    -0.037 C 
ATOM     12  C   UNL A   1      30.912  26.541  23.862  1.00  0.00     0.003 C 
ATOM     13  C   UNL A   1      32.766  25.657  25.219  1.00  0.00     0.043 C 
ATOM     14  C   UNL A   1      30.091  27.569  23.278  1.00  0.00     0.004 C 
BRANCH   8  15
ATOM     15  O   UNL A   1      33.477  28.467  24.741  1.00  0.00    -0.364 OA
ATOM     16  C   UNL A   1      33.531  28.812  23.371  1.00  0.00     0.197 C 
ENDBRANCH   8  15
BRANCH  11  17
ATOM     17  C   UNL A   1      29.367  29.932  23.153  1.00  0.00    -0.022 A 
ATOM     18  C   UNL A   1      29.231  31.130  23.864  1.00  0.00     0.008 A 
ATOM     19  C   UNL A   1      28.809  29.834  21.871  1.00  0.00     0.008 A 
ATOM     20  C   UNL A   1      28.570  32.219  23.291  1.00  0.00     0.001 A 
ATOM     21  C   UNL A   1      28.149  30.923  21.298  1.00  0.00     0.001 A 
ATOM     22  C   UNL A   1      28.036  32.117  22.006  1.00  0.00     0.000 A 
ENDBRANCH  11  17
ENDBRANCH   5   8
ENDBRANCH   3   4
ENDBRANCH   2   3
ENDBRANCH   1   2
BRANCH   1  23
ATOM     23  C   UNL A   1      33.760  32.901  27.101  1.00  0.00     0.116 C 
BRANCH  23  24
ATOM     24  N   UNL A   1      33.027  34.047  27.625  1.00  0.00    -0.352 N 
ATOM     25  C   UNL A   1      33.241  34.722  28.804  1.00  0.00     0.251 C 
ATOM     26  H   UNL A   1      32.288  34.380  27.065  1.00  0.00     0.163 HD
ATOM     27  O   UNL A   1      32.493  35.620  29.160  1.00  0.00    -0.269 OA
BRANCH  25  28
ATOM     28  C   UNL A   1      34.376  34.301  29.649  1.00  0.00     0.039 A 
ATOM     29  C   UNL A   1      34.123  33.525  30.782  1.00  0.00     0.014 A 
ATOM     30  C   UNL A   1      35.684  34.594  29.257  1.00  0.00     0.014 A 
ATOM     31  C   UNL A   1      35.195  32.979  31.488  1.00  0.00     0.010 A 
ATOM     32  C   UNL A   1      36.745  33.985  29.916  1.00  0.00     0.010 A 
ATOM     33  C   UNL A   1      36.511  33.174  31.036  1.00  0.00    -0.014 A 
BRANCH  33  34
ATOM     34  C   UNL A   1      37.664  32.533  31.714  1.00  0.00     0.031 A 
ATOM     35  C   UNL A   1      38.390  31.402  31.043  1.00  0.00     0.074 A 
ATOM     36  C   UNL A   1      37.984  32.898  32.972  1.00  0.00     0.049 A 
ATOM     37  N   UNL A   1      39.368  30.665  31.500  1.00  0.00    -0.248 NA
ATOM     38  C   UNL A   1      37.934  31.025  29.695  1.00  0.00     0.031 C 
ATOM     39  C   UNL A   1      37.290  33.919  33.760  1.00  0.00     0.029 A 
ATOM     40  N   UNL A   1      38.957  32.431  33.817  1.00  0.00    -0.354 N 
ATOM     41  C   UNL A   1      39.615  29.715  30.517  1.00  0.00     0.074 A 
ATOM     42  C   UNL A   1      38.660  29.943  29.455  1.00  0.00     0.031 C 
ATOM     43  C   UNL A   1      37.864  34.003  34.972  1.00  0.00     0.029 A 
ATOM     44  C   UNL A   1      38.950  33.031  35.054  1.00  0.00     0.049 A 
ATOM     45  H   UNL A   1      39.602  31.731  33.562  1.00  0.00     0.167 HD
ATOM     46  C   UNL A   1      40.575  28.762  30.484  1.00  0.00     0.034 A 
ATOM     47  C   UNL A   1      39.732  32.823  36.132  1.00  0.00     0.034 A 
ATOM     48  C   UNL A   1      41.562  28.582  31.512  1.00  0.00     0.049 A 
ATOM     49  C   UNL A   1      40.838  31.806  36.041  1.00  0.00     0.074 A 
ATOM     50  C   UNL A   1      42.640  27.716  31.529  1.00  0.00     0.029 A 
ATOM     51  N   UNL A   1      41.593  29.285  32.706  1.00  0.00    -0.354 N 
ATOM     52  N   UNL A   1      41.165  31.032  35.034  1.00  0.00    -0.248 NA
ATOM     53  C   UNL A   1      41.706  31.659  37.218  1.00  0.00     0.031 C 
ATOM     54  C   UNL A   1      43.320  27.892  32.740  1.00  0.00     0.029 A 
ATOM     55  C   UNL A   1      42.670  28.874  33.469  1.00  0.00     0.049 A 
ATOM     56  H   UNL A   1      40.944  29.976  32.971  1.00  0.00     0.167 HD
ATOM     57  C   UNL A   1      42.295  30.333  35.442  1.00  0.00     0.074 A 
ATOM     58  C   UNL A   1      42.608  30.790  36.780  1.00  0.00     0.031 C 
ATOM     59  C   UNL A   1      43.001  29.385  34.776  1.00  0.00     0.034 A 
BRANCH  46  60
ATOM     60  C   UNL A   1      40.645  27.889  29.259  1.00  0.00     0.023 A 
ATOM     61  C   UNL A   1      39.789  26.773  29.158  1.00  0.00     0.012 A 
ATOM     62  C   UNL A   1      41.522  28.187  28.198  1.00  0.00     0.148 A 
ATOM     63  C   UNL A   1      39.828  25.945  28.037  1.00  0.00     0.002 A 
ATOM     64  C   UNL A   1      41.525  27.381  27.065  1.00  0.00     0.091 A 
ATOM     65  F   UNL A   1      42.347  29.235  28.323  1.00  0.00    -0.205 F 
ATOM     66  C   UNL A   1      40.689  26.255  26.988  1.00  0.00     0.022 A 
BRANCH  64  67
ATOM     67  S   UNL A   1      42.545  27.739  25.630  1.00  0.00     0.127 S 
ATOM     68  O   UNL A   1      42.306  26.562  24.796  1.00  0.00    -0.237 OA
ATOM     69  O   UNL A   1      41.947  28.975  25.124  1.00  0.00    -0.237 OA
ATOM     70  O   UNL A   1      43.903  27.888  26.134  1.00  0.00    -0.744 OA
ENDBRANCH  64  67
ENDBRANCH  46  60
BRANCH  47  71
ATOM     71  C   UNL A   1      39.555  33.659  37.352  1.00  0.00     0.023 A 
ATOM     72  C   UNL A   1      40.120  34.949  37.385  1.00  0.00     0.012 A 
ATOM     73  C   UNL A   1      38.805  33.210  38.454  1.00  0.00     0.148 A 
ATOM     74  C   UNL A   1      39.964  35.766  38.504  1.00  0.00     0.002 A 
ATOM     75  C   UNL A   1      38.610  34.048  39.547  1.00  0.00     0.091 A 
ATOM     76  F   UNL A   1      38.286  31.975  38.410  1.00  0.00    -0.205 F 
ATOM     77  C   UNL A   1      39.202  35.321  39.581  1.00  0.00     0.022 A 
BRANCH  75  78
ATOM     78  S   UNL A   1      37.535  33.608  40.917  1.00  0.00     0.127 S 
ATOM     79  O   UNL A   1      37.358  34.895  41.585  1.00  0.00    -0.237 OA
ATOM     80  O   UNL A   1      36.348  33.105  40.223  1.00  0.00    -0.237 OA
ATOM     81  O   UNL A   1      38.260  32.593  41.669  1.00  0.00    -0.744 OA
ENDBRANCH  75  78
ENDBRANCH  47  71
BRANCH  59  82
ATOM     82  C   UNL A   1      44.199  28.793  35.467  1.00  0.00     0.023 A 
ATOM     83  C   UNL A   1      45.475  29.341  35.236  1.00  0.00     0.012 A 
ATOM     84  C   UNL A   1      44.050  27.757  36.410  1.00  0.00     0.148 A 
ATOM     85  C   UNL A   1      46.590  28.849  35.914  1.00  0.00     0.002 A 
ATOM     86  C   UNL A   1      45.157  27.302  37.113  1.00  0.00     0.091 A 
ATOM     87  F   UNL A   1      42.828  27.235  36.599  1.00  0.00    -0.205 F 
ATOM     88  C   UNL A   1      46.429  27.840  36.860  1.00  0.00     0.022 A 
BRANCH  86  89
ATOM     89  S   UNL A   1      45.025  26.072  38.417  1.00  0.00     0.127 S 
ATOM     90  O   UNL A   1      44.101  26.721  39.346  1.00  0.00    -0.237 OA
ATOM     91  O   UNL A   1      44.468  24.921  37.706  1.00  0.00    -0.237 OA
ATOM     92  O   UNL A   1      46.380  25.872  38.913  1.00  0.00    -0.744 OA
ENDBRANCH  86  89
ENDBRANCH  59  82
ENDBRANCH  33  34
ENDBRANCH  25  28
ENDBRANCH  23  24
ENDBRANCH   1  23
TORSDOF 16
ENDMDL
MODEL 3
REMARK VINA RESULT:     -12.4      1.559      7.826
REMARK SMILES CO[C@@]1(C(=O)NCCCCNC(=O)c2ccc(-c3c4nc(c(-c5cccc(S(=O)(=O)[O-])c5F)c5ccc([nH]5)c(-c5cccc(S(=O)(=O)[O-])c5F)c5nc(c(-c6cccc(S(=O)(=O)[O-])c6F)c6ccc3[nH]6)C=C5)C=C4)cc2)CC(c2ccccc2)=CC=C1C
REMARK SMILES IDX 9 1 8 2 7 3 6 4 4 5 5 6 3 8 77 9 87 10 78 11 86 12 88 13
REMARK SMILES IDX 85 14 2 15 1 16 79 17 80 18 84 19 81 20 83 21 82 22 10 23
REMARK SMILES IDX 11 24 12 25 13 27 14 28 15 29 76 30 16 31 75 32 17 33 18 34
REMARK SMILES IDX 19 35 69 36 20 37 74 38 68 39 70 40 21 41 73 42 67 43 66 44
REMARK SMILES IDX 22 46 54 47 34 48 53 49 35 50 38 51 52 52 71 53 36 54 37 55
REMARK SMILES IDX 51 57 72 58 39 59 23 60 24 61 32 62 25 63 27 64 33 65 26 66
REMARK SMILES IDX 28 67 29 68 30 69 31 70 55 71 56 72 64 73 57 74 59 75 65 76
REMARK SMILES IDX 58 77 60 78 61 79 62 80 63 81 40 82 41 83 49 84 42 85 44 86
REMARK SMILES IDX 50 87 43 88 45 89 46 90 47 91 48 92
REMARK H PARENT 6 7 11 26 70 45 38 56
REMARK Flexibility Score: inf
ROOT
ATOM      1  C   UNL A   1      37.743  19.639  24.860  1.00  0.00     0.023 C 
ENDROOT
BRANCH   1   2
ATOM      2  C   UNL A   1      36.354  20.259  24.975  1.00  0.00     0.023 C 
BRANCH   2   3
ATOM      3  C   UNL A   1      36.344  21.749  25.328  1.00  0.00     0.116 C 
BRANCH   3   4
ATOM      4  N   UNL A   1      35.566  22.021  26.521  1.00  0.00    -0.353 N 
ATOM      5  C   UNL A   1      34.386  22.680  26.745  1.00  0.00     0.256 C 
ATOM      6  O   UNL A   1      34.047  22.702  27.935  1.00  0.00    -0.271 OA
ATOM      7  H   UNL A   1      35.970  21.655  27.342  1.00  0.00     0.163 HD
BRANCH   5   8
ATOM      8  C   UNL A   1      33.471  23.298  25.576  1.00  0.00     0.171 C 
ATOM      9  C   UNL A   1      33.206  24.806  25.855  1.00  0.00     0.086 C 
ATOM     10  C   UNL A   1      32.142  22.511  25.512  1.00  0.00    -0.032 C 
ATOM     11  C   UNL A   1      31.798  25.339  25.784  1.00  0.00    -0.037 C 
ATOM     12  C   UNL A   1      30.930  23.098  25.569  1.00  0.00     0.003 C 
ATOM     13  C   UNL A   1      32.220  21.023  25.267  1.00  0.00     0.043 C 
ATOM     14  C   UNL A   1      30.745  24.522  25.672  1.00  0.00     0.004 C 
BRANCH   8  15
ATOM     15  O   UNL A   1      33.977  23.140  24.236  1.00  0.00    -0.364 OA
ATOM     16  C   UNL A   1      34.339  24.307  23.526  1.00  0.00     0.197 C 
ENDBRANCH   8  15
BRANCH  11  17
ATOM     17  C   UNL A   1      31.678  26.798  25.937  1.00  0.00    -0.022 A 
ATOM     18  C   UNL A   1      31.784  27.392  27.201  1.00  0.00     0.008 A 
ATOM     19  C   UNL A   1      31.597  27.619  24.804  1.00  0.00     0.008 A 
ATOM     20  C   UNL A   1      31.831  28.783  27.324  1.00  0.00     0.001 A 
ATOM     21  C   UNL A   1      31.645  29.008  24.927  1.00  0.00     0.001 A 
ATOM     22  C   UNL A   1      31.770  29.589  26.187  1.00  0.00     0.000 A 
ENDBRANCH  11  17
ENDBRANCH   5   8
ENDBRANCH   3   4
ENDBRANCH   2   3
ENDBRANCH   1   2
BRANCH   1  23
ATOM     23  C   UNL A   1      38.737  20.081  25.925  1.00  0.00     0.116 C 
BRANCH  23  24
ATOM     24  N   UNL A   1      39.932  19.249  25.987  1.00  0.00    -0.352 N 
ATOM     25  C   UNL A   1      41.217  19.636  26.289  1.00  0.00     0.251 C 
ATOM     26  H   UNL A   1      39.804  18.293  25.789  1.00  0.00     0.163 HD
ATOM     27  O   UNL A   1      42.145  18.842  26.223  1.00  0.00    -0.269 OA
BRANCH  25  28
ATOM     28  C   UNL A   1      41.451  21.047  26.653  1.00  0.00     0.039 A 
ATOM     29  C   UNL A   1      41.926  21.345  27.932  1.00  0.00     0.014 A 
ATOM     30  C   UNL A   1      41.295  22.050  25.694  1.00  0.00     0.014 A 
ATOM     31  C   UNL A   1      42.313  22.651  28.229  1.00  0.00     0.010 A 
ATOM     32  C   UNL A   1      41.753  23.332  25.968  1.00  0.00     0.010 A 
ATOM     33  C   UNL A   1      42.265  23.645  27.237  1.00  0.00    -0.014 A 
BRANCH  33  34
ATOM     34  C   UNL A   1      42.753  25.021  27.496  1.00  0.00     0.031 A 
ATOM     35  C   UNL A   1      41.837  26.032  28.124  1.00  0.00     0.074 A 
ATOM     36  C   UNL A   1      43.979  25.384  27.069  1.00  0.00     0.049 A 
ATOM     37  N   UNL A   1      42.048  27.300  28.362  1.00  0.00    -0.248 NA
ATOM     38  C   UNL A   1      40.492  25.567  28.503  1.00  0.00     0.031 C 
ATOM     39  C   UNL A   1      44.922  24.515  26.362  1.00  0.00     0.029 A 
ATOM     40  N   UNL A   1      44.629  26.589  27.142  1.00  0.00    -0.354 N 
ATOM     41  C   UNL A   1      40.855  27.791  28.877  1.00  0.00     0.074 A 
ATOM     42  C   UNL A   1      39.912  26.695  28.882  1.00  0.00     0.031 C 
ATOM     43  C   UNL A   1      46.031  25.215  26.071  1.00  0.00     0.029 A 
ATOM     44  C   UNL A   1      45.870  26.584  26.550  1.00  0.00     0.049 A 
ATOM     45  H   UNL A   1      44.244  27.385  27.577  1.00  0.00     0.167 HD
ATOM     46  C   UNL A   1      40.581  29.033  29.340  1.00  0.00     0.034 A 
ATOM     47  C   UNL A   1      46.778  27.571  26.413  1.00  0.00     0.034 A 
ATOM     48  C   UNL A   1      41.542  30.099  29.392  1.00  0.00     0.049 A 
ATOM     49  C   UNL A   1      46.474  28.924  27.000  1.00  0.00     0.074 A 
ATOM     50  C   UNL A   1      41.398  31.362  29.935  1.00  0.00     0.029 A 
ATOM     51  N   UNL A   1      42.830  30.025  28.884  1.00  0.00    -0.354 N 
ATOM     52  N   UNL A   1      45.401  29.322  27.639  1.00  0.00    -0.248 NA
ATOM     53  C   UNL A   1      47.520  29.951  26.884  1.00  0.00     0.031 C 
ATOM     54  C   UNL A   1      42.600  32.055  29.749  1.00  0.00     0.029 A 
ATOM     55  C   UNL A   1      43.493  31.219  29.100  1.00  0.00     0.049 A 
ATOM     56  H   UNL A   1      43.216  29.237  28.436  1.00  0.00     0.167 HD
ATOM     57  C   UNL A   1      45.654  30.632  28.030  1.00  0.00     0.074 A 
ATOM     58  C   UNL A   1      46.991  30.953  27.573  1.00  0.00     0.031 C 
ATOM     59  C   UNL A   1      44.847  31.498  28.691  1.00  0.00     0.034 A 
BRANCH  46  60
ATOM     60  C   UNL A   1      39.203  29.279  29.893  1.00  0.00     0.023 A 
ATOM     61  C   UNL A   1      38.906  28.873  31.211  1.00  0.00     0.012 A 
ATOM     62  C   UNL A   1      38.217  29.938  29.134  1.00  0.00     0.148 A 
ATOM     63  C   UNL A   1      37.640  29.086  31.753  1.00  0.00     0.002 A 
ATOM     64  C   UNL A   1      36.970  30.186  29.697  1.00  0.00     0.091 A 
ATOM     65  F   UNL A   1      38.507  30.292  27.875  1.00  0.00    -0.205 F 
ATOM     66  C   UNL A   1      36.676  29.751  31.000  1.00  0.00     0.022 A 
BRANCH  64  67
ATOM     67  S   UNL A   1      35.686  31.099  28.834  1.00  0.00     0.127 S 
ATOM     68  O   UNL A   1      36.475  32.057  28.059  1.00  0.00    -0.237 OA
ATOM     69  O   UNL A   1      35.043  30.054  28.037  1.00  0.00    -0.237 OA
ATOM     70  O   UNL A   1      34.840  31.674  29.871  1.00  0.00    -0.744 OA
ENDBRANCH  64  67
ENDBRANCH  46  60
BRANCH  47  71
ATOM     71  C   UNL A   1      48.093  27.289  25.773  1.00  0.00     0.023 A 
ATOM     72  C   UNL A   1      49.136  26.760  26.558  1.00  0.00     0.012 A 
ATOM     73  C   UNL A   1      48.307  27.498  24.399  1.00  0.00     0.148 A 
ATOM     74  C   UNL A   1      50.377  26.470  25.992  1.00  0.00     0.002 A 
ATOM     75  C   UNL A   1      49.530  27.160  23.829  1.00  0.00     0.091 A 
ATOM     76  F   UNL A   1      47.307  28.015  23.669  1.00  0.00    -0.205 F 
ATOM     77  C   UNL A   1      50.572  26.660  24.626  1.00  0.00     0.022 A 
BRANCH  75  78
ATOM     78  S   UNL A   1      49.823  27.248  22.059  1.00  0.00     0.127 S 
ATOM     79  O   UNL A   1      48.847  26.291  21.545  1.00  0.00    -0.237 OA
ATOM     80  O   UNL A   1      49.522  28.651  21.769  1.00  0.00    -0.237 OA
ATOM     81  O   UNL A   1      51.223  26.889  21.878  1.00  0.00    -0.744 OA
ENDBRANCH  75  78
ENDBRANCH  47  71
BRANCH  59  82
ATOM     82  C   UNL A   1      45.390  32.869  28.990  1.00  0.00     0.023 A 
ATOM     83  C   UNL A   1      46.164  33.072  30.148  1.00  0.00     0.012 A 
ATOM     84  C   UNL A   1      45.209  33.930  28.082  1.00  0.00     0.148 A 
ATOM     85  C   UNL A   1      46.730  34.319  30.411  1.00  0.00     0.002 A 
ATOM     86  C   UNL A   1      45.812  35.157  28.328  1.00  0.00     0.091 A 
ATOM     87  F   UNL A   1      44.450  33.721  26.995  1.00  0.00    -0.205 F 
ATOM     88  C   UNL A   1      46.565  35.356  29.496  1.00  0.00     0.022 A 
BRANCH  86  89
ATOM     89  S   UNL A   1      45.729  36.517  27.156  1.00  0.00     0.127 S 
ATOM     90  O   UNL A   1      46.558  37.527  27.812  1.00  0.00    -0.237 OA
ATOM     91  O   UNL A   1      46.319  35.931  25.953  1.00  0.00    -0.237 OA
ATOM     92  O   UNL A   1      44.315  36.849  27.032  1.00  0.00    -0.744 OA
ENDBRANCH  86  89
ENDBRANCH  59  82
ENDBRANCH  33  34
ENDBRANCH  25  28
ENDBRANCH  23  24
ENDBRANCH   1  23
TORSDOF 16
ENDMDL
