MODEL 1
REMARK VINA RESULT:     -15.0      0.000      0.000
REMARK SMILES O=C(NCCCCNC(=O)[C@H](c1c[nH]c2ccc(Cl)cc12)[NH+]1CCN(c2cccc(Cl)c2)CC1)c1ccc(-c2c3nc(c(-c4cccc(S(=O)(=O)[O-])c4F)c4ccc([nH]4)c(-c4cccc(S(=O)(=O)[O-])c4F)c4nc(c(-c5cccc(S(=O)(=O)[O-])c5F)c5ccc2[nH]5)C=C4)C=C3)cc1
REMARK SMILES IDX 5 1 4 2 3 3 1 4 2 5 35 7 36 8 97 9 37 10 96 11 38 12 39 13
REMARK SMILES IDX 40 14 90 15 41 16 95 17 89 18 91 19 42 20 94 21 88 22 87 23
REMARK SMILES IDX 43 25 75 26 55 27 74 28 56 29 59 30 73 31 92 32 57 33 58 34
REMARK SMILES IDX 72 36 93 37 60 38 44 39 45 40 53 41 46 42 48 43 54 44 47 45
REMARK SMILES IDX 49 46 50 47 51 48 52 49 76 50 77 51 85 52 78 53 80 54 86 55
REMARK SMILES IDX 79 56 81 57 82 58 83 59 84 60 61 61 62 62 70 63 63 64 65 65
REMARK SMILES IDX 71 66 64 67 66 68 67 69 68 70 69 71 6 72 7 73 8 74 9 75
REMARK SMILES IDX 10 77 11 78 22 79 23 80 34 81 24 83 33 84 25 85 26 86 27 87
REMARK SMILES IDX 32 88 28 89 30 90 29 91 31 92 12 93 13 94 21 95 14 96 15 97
REMARK SMILES IDX 20 98 16 100 18 101 17 102 19 103
REMARK H PARENT 3 6 91 24 59 35 8 76 22 82 14 99
REMARK Flexibility Score: inf
ROOT
ATOM      1  C   UNL A   1      36.685  20.233  24.841  1.00  0.00     0.023 C 
ENDROOT
BRANCH   1   2
ATOM      2  C   UNL A   1      38.006  19.207  24.998  1.00  0.00     0.116 C 
BRANCH   2   3
ATOM      3  N   UNL A   1      39.873  19.253  25.937  1.00  0.00    -0.352 N 
ATOM      4  O   UNL A   1      41.901  19.283  27.026  1.00  0.00    -0.269 OA
ATOM      5  C   UNL A   1      40.886  19.936  26.761  1.00  0.00     0.251 C 
ATOM      6  H   UNL A   1      40.278  18.382  25.722  1.00  0.00     0.163 HD
BRANCH   5   7
ATOM      7  C   UNL A   1      40.830  21.344  27.289  1.00  0.00     0.039 A 
ATOM      8  C   UNL A   1      40.161  22.317  26.557  1.00  0.00     0.014 A 
ATOM      9  C   UNL A   1      41.672  21.742  28.333  1.00  0.00     0.014 A 
ATOM     10  C   UNL A   1      40.695  23.604  26.545  1.00  0.00     0.010 A 
ATOM     11  C   UNL A   1      42.019  23.101  28.474  1.00  0.00     0.010 A 
ATOM     12  C   UNL A   1      41.611  24.044  27.518  1.00  0.00    -0.014 A 
BRANCH  12  13
ATOM     13  C   UNL A   1      42.042  25.483  27.546  1.00  0.00     0.031 A 
ATOM     14  C   UNL A   1      43.396  25.957  27.052  1.00  0.00     0.074 A 
ATOM     15  C   UNL A   1      41.190  26.399  28.055  1.00  0.00     0.049 A 
ATOM     16  N   UNL A   1      43.957  27.136  27.188  1.00  0.00    -0.248 NA
ATOM     17  C   UNL A   1      44.230  24.996  26.313  1.00  0.00     0.031 C 
ATOM     18  C   UNL A   1      39.843  26.111  28.559  1.00  0.00     0.029 A 
ATOM     19  N   UNL A   1      41.326  27.752  28.266  1.00  0.00    -0.354 N 
ATOM     20  C   UNL A   1      45.231  27.040  26.628  1.00  0.00     0.074 A 
ATOM     21  C   UNL A   1      45.345  25.690  26.114  1.00  0.00     0.031 C 
ATOM     22  C   UNL A   1      39.271  27.235  28.988  1.00  0.00     0.029 A 
ATOM     23  C   UNL A   1      40.266  28.291  28.958  1.00  0.00     0.049 A 
ATOM     24  H   UNL A   1      42.100  28.277  27.955  1.00  0.00     0.167 HD
ATOM     25  C   UNL A   1      46.213  27.977  26.569  1.00  0.00     0.034 A 
ATOM     26  C   UNL A   1      40.120  29.453  29.619  1.00  0.00     0.034 A 
ATOM     27  C   UNL A   1      46.080  29.325  27.073  1.00  0.00     0.049 A 
ATOM     28  C   UNL A   1      41.234  30.443  29.608  1.00  0.00     0.074 A 
ATOM     29  C   UNL A   1      46.997  30.363  27.011  1.00  0.00     0.029 A 
ATOM     30  N   UNL A   1      44.981  29.814  27.764  1.00  0.00    -0.354 N 
ATOM     31  N   UNL A   1      42.408  30.345  29.038  1.00  0.00    -0.248 NA
ATOM     32  C   UNL A   1      40.999  31.709  30.310  1.00  0.00     0.031 C 
ATOM     33  C   UNL A   1      46.483  31.450  27.725  1.00  0.00     0.029 A 
ATOM     34  C   UNL A   1      45.211  31.122  28.164  1.00  0.00     0.049 A 
ATOM     35  H   UNL A   1      44.156  29.307  27.943  1.00  0.00     0.167 HD
ATOM     36  C   UNL A   1      43.045  31.552  29.282  1.00  0.00     0.074 A 
ATOM     37  C   UNL A   1      42.119  32.366  30.045  1.00  0.00     0.031 C 
ATOM     38  C   UNL A   1      44.284  31.943  28.902  1.00  0.00     0.034 A 
BRANCH  25  39
ATOM     39  C   UNL A   1      47.554  27.583  25.981  1.00  0.00     0.023 A 
ATOM     40  C   UNL A   1      48.577  27.061  26.798  1.00  0.00     0.012 A 
ATOM     41  C   UNL A   1      47.774  27.672  24.587  1.00  0.00     0.148 A 
ATOM     42  C   UNL A   1      49.810  26.693  26.251  1.00  0.00     0.002 A 
ATOM     43  C   UNL A   1      48.987  27.258  24.044  1.00  0.00     0.091 A 
ATOM     44  F   UNL A   1      46.796  28.165  23.815  1.00  0.00    -0.205 F 
ATOM     45  C   UNL A   1      50.012  26.787  24.877  1.00  0.00     0.022 A 
BRANCH  43  46
ATOM     46  S   UNL A   1      49.312  27.260  22.275  1.00  0.00     0.127 S 
ATOM     47  O   UNL A   1      50.737  26.931  22.239  1.00  0.00    -0.237 OA
ATOM     48  O   UNL A   1      48.429  26.195  21.798  1.00  0.00    -0.237 OA
ATOM     49  O   UNL A   1      48.966  28.592  21.803  1.00  0.00    -0.744 OA
ENDBRANCH  43  46
ENDBRANCH  25  39
BRANCH  26  50
ATOM     50  C   UNL A   1      38.873  29.675  30.401  1.00  0.00     0.023 A 
ATOM     51  C   UNL A   1      38.742  29.117  31.684  1.00  0.00     0.012 A 
ATOM     52  C   UNL A   1      37.870  30.540  29.913  1.00  0.00     0.148 A 
ATOM     53  C   UNL A   1      37.626  29.409  32.466  1.00  0.00     0.002 A 
ATOM     54  C   UNL A   1      36.797  30.880  30.724  1.00  0.00     0.091 A 
ATOM     55  F   UNL A   1      38.025  31.063  28.689  1.00  0.00    -0.205 F 
ATOM     56  C   UNL A   1      36.664  30.301  31.994  1.00  0.00     0.022 A 
BRANCH  54  57
ATOM     57  S   UNL A   1      35.603  32.141  30.266  1.00  0.00     0.127 S 
ATOM     58  O   UNL A   1      34.975  31.540  29.091  1.00  0.00    -0.237 OA
ATOM     59  O   UNL A   1      34.758  32.196  31.457  1.00  0.00    -0.237 OA
ATOM     60  O   UNL A   1      36.376  33.350  30.016  1.00  0.00    -0.744 OA
ENDBRANCH  54  57
ENDBRANCH  26  50
BRANCH  38  61
ATOM     61  C   UNL A   1      44.701  33.347  29.242  1.00  0.00     0.023 A 
ATOM     62  C   UNL A   1      45.366  33.627  30.451  1.00  0.00     0.012 A 
ATOM     63  C   UNL A   1      44.485  34.386  28.314  1.00  0.00     0.148 A 
ATOM     64  C   UNL A   1      45.789  34.924  30.741  1.00  0.00     0.002 A 
ATOM     65  C   UNL A   1      44.960  35.661  28.583  1.00  0.00     0.091 A 
ATOM     66  F   UNL A   1      43.825  34.100  27.182  1.00  0.00    -0.205 F 
ATOM     67  C   UNL A   1      45.600  35.936  29.802  1.00  0.00     0.022 A 
BRANCH  65  68
ATOM     68  S   UNL A   1      44.847  37.001  27.394  1.00  0.00     0.127 S 
ATOM     69  O   UNL A   1      45.176  38.162  28.222  1.00  0.00    -0.237 OA
ATOM     70  O   UNL A   1      45.875  36.633  26.421  1.00  0.00    -0.237 OA
ATOM     71  O   UNL A   1      43.484  36.976  26.880  1.00  0.00    -0.744 OA
ENDBRANCH  65  68
ENDBRANCH  38  61
ENDBRANCH  12  13
ENDBRANCH   5   7
ENDBRANCH   2   3
ENDBRANCH   1   2
BRANCH   1  72
ATOM     72  C   UNL A   1      36.989  21.760  25.065  1.00  0.00     0.023 C 
BRANCH  72  73
ATOM     73  C   UNL A   1      36.933  22.756  23.880  1.00  0.00     0.116 C 
BRANCH  73  74
ATOM     74  N   UNL A   1      35.634  22.848  23.182  1.00  0.00    -0.351 N 
ATOM     75  C   UNL A   1      34.319  23.184  23.262  1.00  0.00     0.283 C 
ATOM     76  H   UNL A   1      35.786  22.529  22.263  1.00  0.00     0.163 HD
ATOM     77  O   UNL A   1      33.911  23.288  22.082  1.00  0.00    -0.268 OA
BRANCH  75  78
ATOM     78  C   UNL A   1      33.201  23.309  24.520  1.00  0.00     0.307 C 
BRANCH  78  79
ATOM     79  N   UNL A   1      31.709  23.423  24.224  1.00  0.00    -0.318 N 
ATOM     80  C   UNL A   1      30.758  23.775  25.401  1.00  0.00     0.284 C 
ATOM     81  C   UNL A   1      31.476  24.463  23.257  1.00  0.00     0.284 C 
ATOM     82  H   UNL A   1      31.488  22.475  23.920  1.00  0.00     0.349 HD
ATOM     83  C   UNL A   1      30.270  25.380  25.749  1.00  0.00     0.178 C 
ATOM     84  C   UNL A   1      31.782  25.693  24.058  1.00  0.00     0.178 C 
ATOM     85  N   UNL A   1      30.590  26.250  24.598  1.00  0.00    -0.360 N 
BRANCH  85  86
ATOM     86  C   UNL A   1      30.566  27.583  24.160  1.00  0.00     0.038 A 
ATOM     87  C   UNL A   1      31.455  28.728  25.256  1.00  0.00     0.026 A 
ATOM     88  C   UNL A   1      29.351  28.240  23.001  1.00  0.00     0.046 A 
ATOM     89  C   UNL A   1      31.005  30.484  25.314  1.00  0.00     0.004 A 
ATOM     90  C   UNL A   1      28.976  30.025  22.955  1.00  0.00     0.043 A 
ATOM     91  C   UNL A   1      29.754  31.163  24.133  1.00  0.00     0.020 A 
ATOM     92  Cl  UNL A   1      27.849  30.643  21.813  1.00  0.00    -0.084 Cl
ENDBRANCH  85  86
ENDBRANCH  78  79
BRANCH  78  93
ATOM     93  C   UNL A   1      33.354  21.959  25.249  1.00  0.00     0.044 A 
ATOM     94  C   UNL A   1      33.606  21.796  26.609  1.00  0.00     0.094 A 
ATOM     95  C   UNL A   1      33.061  20.648  24.744  1.00  0.00     0.011 A 
ATOM     96  N   UNL A   1      33.359  20.497  26.951  1.00  0.00    -0.361 N 
ATOM     97  C   UNL A   1      33.055  19.765  25.829  1.00  0.00     0.046 A 
ATOM     98  C   UNL A   1      32.738  20.140  23.471  1.00  0.00     0.031 A 
ATOM     99  H   UNL A   1      33.393  20.138  27.867  1.00  0.00     0.166 HD
ATOM    100  C   UNL A   1      32.743  18.405  25.710  1.00  0.00     0.028 A 
ATOM    101  C   UNL A   1      32.454  18.777  23.335  1.00  0.00     0.041 A 
ATOM    102  C   UNL A   1      32.453  17.922  24.432  1.00  0.00     0.022 A 
ATOM    103  Cl  UNL A   1      32.094  18.148  21.772  1.00  0.00    -0.084 Cl
ENDBRANCH  78  93
ENDBRANCH  75  78
ENDBRANCH  73  74
ENDBRANCH  72  73
ENDBRANCH   1  72
TORSDOF 17
ENDMDL
MODEL 2
REMARK VINA RESULT:     -14.9      4.982     11.174
REMARK SMILES O=C(NCCCCNC(=O)[C@H](c1c[nH]c2ccc(Cl)cc12)[NH+]1CCN(c2cccc(Cl)c2)CC1)c1ccc(-c2c3nc(c(-c4cccc(S(=O)(=O)[O-])c4F)c4ccc([nH]4)c(-c4cccc(S(=O)(=O)[O-])c4F)c4nc(c(-c5cccc(S(=O)(=O)[O-])c5F)c5ccc2[nH]5)C=C4)C=C3)cc1
REMARK SMILES IDX 5 1 4 2 3 3 1 4 2 5 35 7 36 8 97 9 37 10 96 11 38 12 39 13
REMARK SMILES IDX 40 14 90 15 41 16 95 17 89 18 91 19 42 20 94 21 88 22 87 23
REMARK SMILES IDX 43 25 75 26 55 27 74 28 56 29 59 30 73 31 92 32 57 33 58 34
REMARK SMILES IDX 72 36 93 37 60 38 44 39 45 40 53 41 46 42 48 43 54 44 47 45
REMARK SMILES IDX 49 46 50 47 51 48 52 49 76 50 77 51 85 52 78 53 80 54 86 55
REMARK SMILES IDX 79 56 81 57 82 58 83 59 84 60 61 61 62 62 70 63 63 64 65 65
REMARK SMILES IDX 71 66 64 67 66 68 67 69 68 70 69 71 6 72 7 73 8 74 9 75
REMARK SMILES IDX 10 77 11 78 22 79 23 80 34 81 24 83 33 84 25 85 26 86 27 87
REMARK SMILES IDX 32 88 28 89 30 90 29 91 31 92 12 93 13 94 21 95 14 96 15 97
REMARK SMILES IDX 20 98 16 100 18 101 17 102 19 103
REMARK H PARENT 3 6 91 24 59 35 8 76 22 82 14 99
REMARK Flexibility Score: inf
ROOT
ATOM      1  C   UNL A   1      31.377  30.808  25.782  1.00  0.00     0.023 C 
ENDROOT
BRANCH   1   2
ATOM      2  C   UNL A   1      31.223  32.316  26.509  1.00  0.00     0.116 C 
BRANCH   2   3
ATOM      3  N   UNL A   1      32.493  33.720  27.394  1.00  0.00    -0.352 N 
ATOM      4  O   UNL A   1      33.913  35.285  28.310  1.00  0.00    -0.269 OA
ATOM      5  C   UNL A   1      33.809  34.115  27.929  1.00  0.00     0.251 C 
ATOM      6  H   UNL A   1      31.931  34.520  27.512  1.00  0.00     0.163 HD
BRANCH   5   7
ATOM      7  C   UNL A   1      35.026  33.241  28.084  1.00  0.00     0.039 A 
ATOM      8  C   UNL A   1      34.860  31.878  28.288  1.00  0.00     0.014 A 
ATOM      9  C   UNL A   1      36.281  33.813  28.317  1.00  0.00     0.014 A 
ATOM     10  C   UNL A   1      35.749  31.235  29.148  1.00  0.00     0.010 A 
ATOM     11  C   UNL A   1      37.279  33.067  28.975  1.00  0.00     0.010 A 
ATOM     12  C   UNL A   1      36.995  31.793  29.489  1.00  0.00    -0.014 A 
BRANCH  12  13
ATOM     13  C   UNL A   1      37.977  30.994  30.299  1.00  0.00     0.031 A 
ATOM     14  C   UNL A   1      38.283  31.282  31.757  1.00  0.00     0.074 A 
ATOM     15  C   UNL A   1      38.637  29.982  29.694  1.00  0.00     0.049 A 
ATOM     16  N   UNL A   1      39.235  30.788  32.513  1.00  0.00    -0.248 NA
ATOM     17  C   UNL A   1      37.416  32.240  32.462  1.00  0.00     0.031 C 
ATOM     18  C   UNL A   1      38.448  29.566  28.301  1.00  0.00     0.029 A 
ATOM     19  N   UNL A   1      39.619  29.134  30.151  1.00  0.00    -0.354 N 
ATOM     20  C   UNL A   1      39.137  31.427  33.749  1.00  0.00     0.074 A 
ATOM     21  C   UNL A   1      38.002  32.321  33.652  1.00  0.00     0.031 C 
ATOM     22  C   UNL A   1      39.251  28.539  28.023  1.00  0.00     0.029 A 
ATOM     23  C   UNL A   1      40.137  28.338  29.155  1.00  0.00     0.049 A 
ATOM     24  H   UNL A   1      39.918  29.101  31.088  1.00  0.00     0.167 HD
ATOM     25  C   UNL A   1      39.929  31.295  34.846  1.00  0.00     0.034 A 
ATOM     26  C   UNL A   1      41.267  27.612  29.079  1.00  0.00     0.034 A 
ATOM     27  C   UNL A   1      41.050  30.388  34.933  1.00  0.00     0.049 A 
ATOM     28  C   UNL A   1      42.164  27.535  30.266  1.00  0.00     0.074 A 
ATOM     29  C   UNL A   1      41.878  30.142  36.018  1.00  0.00     0.029 A 
ATOM     30  N   UNL A   1      41.527  29.605  33.892  1.00  0.00    -0.354 N 
ATOM     31  N   UNL A   1      42.028  28.112  31.433  1.00  0.00    -0.248 NA
ATOM     32  C   UNL A   1      43.358  26.692  30.138  1.00  0.00     0.031 C 
ATOM     33  C   UNL A   1      42.894  29.271  35.611  1.00  0.00     0.029 A 
ATOM     34  C   UNL A   1      42.655  28.907  34.296  1.00  0.00     0.049 A 
ATOM     35  H   UNL A   1      41.122  29.551  32.996  1.00  0.00     0.167 HD
ATOM     36  C   UNL A   1      43.101  27.678  32.194  1.00  0.00     0.074 A 
ATOM     37  C   UNL A   1      43.873  26.782  31.356  1.00  0.00     0.031 C 
ATOM     38  C   UNL A   1      43.411  27.996  33.473  1.00  0.00     0.034 A 
BRANCH  25  39
ATOM     39  C   UNL A   1      39.657  32.184  36.044  1.00  0.00     0.023 A 
ATOM     40  C   UNL A   1      40.339  33.407  36.206  1.00  0.00     0.012 A 
ATOM     41  C   UNL A   1      38.664  31.828  36.985  1.00  0.00     0.148 A 
ATOM     42  C   UNL A   1      40.081  34.227  37.308  1.00  0.00     0.002 A 
ATOM     43  C   UNL A   1      38.379  32.673  38.053  1.00  0.00     0.091 A 
ATOM     44  F   UNL A   1      38.017  30.666  36.822  1.00  0.00    -0.205 F 
ATOM     45  C   UNL A   1      39.101  33.863  38.226  1.00  0.00     0.022 A 
BRANCH  43  46
ATOM     46  S   UNL A   1      37.074  32.332  39.242  1.00  0.00     0.127 S 
ATOM     47  O   UNL A   1      37.379  33.297  40.298  1.00  0.00    -0.237 OA
ATOM     48  O   UNL A   1      35.867  32.635  38.471  1.00  0.00    -0.237 OA
ATOM     49  O   UNL A   1      37.221  30.932  39.612  1.00  0.00    -0.744 OA
ENDBRANCH  43  46
ENDBRANCH  25  39
BRANCH  26  50
ATOM     50  C   UNL A   1      41.614  26.968  27.783  1.00  0.00     0.023 A 
ATOM     51  C   UNL A   1      42.156  27.740  26.741  1.00  0.00     0.012 A 
ATOM     52  C   UNL A   1      41.513  25.569  27.632  1.00  0.00     0.148 A 
ATOM     53  C   UNL A   1      42.585  27.128  25.564  1.00  0.00     0.002 A 
ATOM     54  C   UNL A   1      42.005  24.961  26.486  1.00  0.00     0.091 A 
ATOM     55  F   UNL A   1      40.998  24.857  28.644  1.00  0.00    -0.205 F 
ATOM     56  C   UNL A   1      42.525  25.741  25.443  1.00  0.00     0.022 A 
BRANCH  54  57
ATOM     57  S   UNL A   1      42.120  23.177  26.313  1.00  0.00     0.127 S 
ATOM     58  O   UNL A   1      40.711  22.789  26.306  1.00  0.00    -0.237 OA
ATOM     59  O   UNL A   1      42.804  23.046  25.028  1.00  0.00    -0.237 OA
ATOM     60  O   UNL A   1      42.892  22.714  27.458  1.00  0.00    -0.744 OA
ENDBRANCH  54  57
ENDBRANCH  26  50
BRANCH  38  61
ATOM     61  C   UNL A   1      44.606  27.317  34.085  1.00  0.00     0.023 A 
ATOM     62  C   UNL A   1      45.881  27.909  34.018  1.00  0.00     0.012 A 
ATOM     63  C   UNL A   1      44.438  26.110  34.792  1.00  0.00     0.148 A 
ATOM     64  C   UNL A   1      46.977  27.296  34.624  1.00  0.00     0.002 A 
ATOM     65  C   UNL A   1      45.521  25.536  35.443  1.00  0.00     0.091 A 
ATOM     66  F   UNL A   1      43.220  25.552  34.820  1.00  0.00    -0.205 F 
ATOM     67  C   UNL A   1      46.795  26.121  35.349  1.00  0.00     0.022 A 
BRANCH  65  68
ATOM     68  S   UNL A   1      45.361  24.077  36.477  1.00  0.00     0.127 S 
ATOM     69  O   UNL A   1      44.544  24.582  37.580  1.00  0.00    -0.237 OA
ATOM     70  O   UNL A   1      44.674  23.145  35.584  1.00  0.00    -0.237 OA
ATOM     71  O   UNL A   1      46.717  23.686  36.841  1.00  0.00    -0.744 OA
ENDBRANCH  65  68
ENDBRANCH  38  61
ENDBRANCH  12  13
ENDBRANCH   5   7
ENDBRANCH   2   3
ENDBRANCH   1   2
BRANCH   1  72
ATOM     72  C   UNL A   1      32.538  29.906  26.341  1.00  0.00     0.023 C 
BRANCH  72  73
ATOM     73  C   UNL A   1      32.244  28.808  27.391  1.00  0.00     0.116 C 
BRANCH  73  74
ATOM     74  N   UNL A   1      31.411  27.680  26.923  1.00  0.00    -0.351 N 
ATOM     75  C   UNL A   1      31.285  26.639  26.058  1.00  0.00     0.283 C 
ATOM     76  H   UNL A   1      30.597  27.684  27.477  1.00  0.00     0.163 HD
ATOM     77  O   UNL A   1      30.381  25.906  26.521  1.00  0.00    -0.268 OA
BRANCH  75  78
ATOM     78  C   UNL A   1      31.931  26.272  24.543  1.00  0.00     0.307 C 
BRANCH  78  79
ATOM     79  N   UNL A   1      31.289  25.203  23.664  1.00  0.00    -0.318 N 
ATOM     80  C   UNL A   1      32.021  24.800  22.355  1.00  0.00     0.284 C 
ATOM     81  C   UNL A   1      31.170  23.969  24.396  1.00  0.00     0.284 C 
ATOM     82  H   UNL A   1      30.411  25.652  23.403  1.00  0.00     0.349 HD
ATOM     83  C   UNL A   1      33.098  23.470  22.266  1.00  0.00     0.178 C 
ATOM     84  C   UNL A   1      32.602  23.541  24.500  1.00  0.00     0.178 C 
ATOM     85  N   UNL A   1      32.928  22.622  23.464  1.00  0.00    -0.360 N 
BRANCH  85  86
ATOM     86  C   UNL A   1      33.436  21.487  24.114  1.00  0.00     0.038 A 
ATOM     87  C   UNL A   1      35.149  21.680  24.691  1.00  0.00     0.026 A 
ATOM     88  C   UNL A   1      32.753  19.829  23.924  1.00  0.00     0.046 A 
ATOM     89  C   UNL A   1      36.217  20.230  24.902  1.00  0.00     0.004 A 
ATOM     90  C   UNL A   1      33.776  18.355  24.256  1.00  0.00     0.043 A 
ATOM     91  C   UNL A   1      35.526  18.527  24.701  1.00  0.00     0.020 A 
ATOM     92  Cl  UNL A   1      33.098  16.782  24.114  1.00  0.00    -0.084 Cl
ENDBRANCH  85  86
ENDBRANCH  78  79
BRANCH  78  93
ATOM     93  C   UNL A   1      31.741  27.587  23.761  1.00  0.00     0.044 A 
ATOM     94  C   UNL A   1      32.753  28.315  23.142  1.00  0.00     0.094 A 
ATOM     95  C   UNL A   1      30.509  28.190  23.339  1.00  0.00     0.011 A 
ATOM     96  N   UNL A   1      32.187  29.223  22.292  1.00  0.00    -0.361 N 
ATOM     97  C   UNL A   1      30.820  29.192  22.414  1.00  0.00     0.046 A 
ATOM     98  C   UNL A   1      29.151  27.934  23.612  1.00  0.00     0.031 A 
ATOM     99  H   UNL A   1      32.687  29.813  21.682  1.00  0.00     0.166 HD
ATOM    100  C   UNL A   1      29.848  29.948  21.746  1.00  0.00     0.028 A 
ATOM    101  C   UNL A   1      28.173  28.704  22.974  1.00  0.00     0.041 A 
ATOM    102  C   UNL A   1      28.511  29.693  22.056  1.00  0.00     0.022 A 
ATOM    103  Cl  UNL A   1      26.513  28.417  23.334  1.00  0.00    -0.084 Cl
ENDBRANCH  78  93
ENDBRANCH  75  78
ENDBRANCH  73  74
ENDBRANCH  72  73
ENDBRANCH   1  72
TORSDOF 17
ENDMDL
MODEL 3
REMARK VINA RESULT:     -13.7      5.331     11.054
REMARK SMILES O=C(NCCCCNC(=O)[C@H](c1c[nH]c2ccc(Cl)cc12)[NH+]1CCN(c2cccc(Cl)c2)CC1)c1ccc(-c2c3nc(c(-c4cccc(S(=O)(=O)[O-])c4F)c4ccc([nH]4)c(-c4cccc(S(=O)(=O)[O-])c4F)c4nc(c(-c5cccc(S(=O)(=O)[O-])c5F)c5ccc2[nH]5)C=C4)C=C3)cc1
REMARK SMILES IDX 5 1 4 2 3 3 1 4 2 5 35 7 36 8 97 9 37 10 96 11 38 12 39 13
REMARK SMILES IDX 40 14 90 15 41 16 95 17 89 18 91 19 42 20 94 21 88 22 87 23
REMARK SMILES IDX 43 25 75 26 55 27 74 28 56 29 59 30 73 31 92 32 57 33 58 34
REMARK SMILES IDX 72 36 93 37 60 38 44 39 45 40 53 41 46 42 48 43 54 44 47 45
REMARK SMILES IDX 49 46 50 47 51 48 52 49 76 50 77 51 85 52 78 53 80 54 86 55
REMARK SMILES IDX 79 56 81 57 82 58 83 59 84 60 61 61 62 62 70 63 63 64 65 65
REMARK SMILES IDX 71 66 64 67 66 68 67 69 68 70 69 71 6 72 7 73 8 74 9 75
REMARK SMILES IDX 10 77 11 78 22 79 23 80 34 81 24 83 33 84 25 85 26 86 27 87
REMARK SMILES IDX 32 88 28 89 30 90 29 91 31 92 12 93 13 94 21 95 14 96 15 97
REMARK SMILES IDX 20 98 16 100 18 101 17 102 19 103
REMARK H PARENT 3 6 91 24 59 35 8 76 22 82 14 99
REMARK Flexibility Score: inf
ROOT
ATOM      1  C   UNL A   1      31.408  30.438  26.311  1.00  0.00     0.023 C 
ENDROOT
BRANCH   1   2
ATOM      2  C   UNL A   1      31.397  32.105  26.529  1.00  0.00     0.116 C 
BRANCH   2   3
ATOM      3  N   UNL A   1      32.613  33.532  27.452  1.00  0.00    -0.352 N 
ATOM      4  O   UNL A   1      33.978  35.119  28.411  1.00  0.00    -0.269 OA
ATOM      5  C   UNL A   1      33.892  33.937  28.064  1.00  0.00     0.251 C 
ATOM      6  H   UNL A   1      32.051  34.338  27.503  1.00  0.00     0.163 HD
BRANCH   5   7
ATOM      7  C   UNL A   1      35.088  33.063  28.334  1.00  0.00     0.039 A 
ATOM      8  C   UNL A   1      34.889  31.744  28.723  1.00  0.00     0.014 A 
ATOM      9  C   UNL A   1      36.358  33.629  28.482  1.00  0.00     0.014 A 
ATOM     10  C   UNL A   1      35.768  31.204  29.660  1.00  0.00     0.010 A 
ATOM     11  C   UNL A   1      37.342  32.955  29.233  1.00  0.00     0.010 A 
ATOM     12  C   UNL A   1      37.029  31.771  29.918  1.00  0.00    -0.014 A 
BRANCH  12  13
ATOM     13  C   UNL A   1      37.996  31.067  30.827  1.00  0.00     0.031 A 
ATOM     14  C   UNL A   1      38.251  31.490  32.262  1.00  0.00     0.074 A 
ATOM     15  C   UNL A   1      38.691  30.016  30.336  1.00  0.00     0.049 A 
ATOM     16  N   UNL A   1      39.186  31.083  33.088  1.00  0.00    -0.248 NA
ATOM     17  C   UNL A   1      37.348  32.492  32.850  1.00  0.00     0.031 C 
ATOM     18  C   UNL A   1      38.554  29.473  28.981  1.00  0.00     0.029 A 
ATOM     19  N   UNL A   1      39.670  29.230  30.898  1.00  0.00    -0.354 N 
ATOM     20  C   UNL A   1      39.039  31.829  34.257  1.00  0.00     0.074 A 
ATOM     21  C   UNL A   1      37.893  32.690  34.045  1.00  0.00     0.031 C 
ATOM     22  C   UNL A   1      39.380  28.440  28.823  1.00  0.00     0.029 A 
ATOM     23  C   UNL A   1      40.233  28.357  29.995  1.00  0.00     0.049 A 
ATOM     24  H   UNL A   1      39.940  29.287  31.844  1.00  0.00     0.167 HD
ATOM     25  C   UNL A   1      39.797  31.811  35.385  1.00  0.00     0.034 A 
ATOM     26  C   UNL A   1      41.375  27.647  30.021  1.00  0.00     0.034 A 
ATOM     27  C   UNL A   1      40.928  30.935  35.589  1.00  0.00     0.049 A 
ATOM     28  C   UNL A   1      42.235  27.694  31.236  1.00  0.00     0.074 A 
ATOM     29  C   UNL A   1      41.724  30.803  36.717  1.00  0.00     0.029 A 
ATOM     30  N   UNL A   1      41.450  30.070  34.638  1.00  0.00    -0.354 N 
ATOM     31  N   UNL A   1      42.052  28.372  32.341  1.00  0.00    -0.248 NA
ATOM     32  C   UNL A   1      43.444  26.864  31.222  1.00  0.00     0.031 C 
ATOM     33  C   UNL A   1      42.765  29.918  36.422  1.00  0.00     0.029 A 
ATOM     34  C   UNL A   1      42.575  29.432  35.139  1.00  0.00     0.049 A 
ATOM     35  H   UNL A   1      41.075  29.928  33.739  1.00  0.00     0.167 HD
ATOM     36  C   UNL A   1      43.107  28.027  33.171  1.00  0.00     0.074 A 
ATOM     37  C   UNL A   1      43.919  27.073  32.442  1.00  0.00     0.031 C 
ATOM     38  C   UNL A   1      43.370  28.464  34.425  1.00  0.00     0.034 A 
BRANCH  25  39
ATOM     39  C   UNL A   1      39.473  32.799  36.489  1.00  0.00     0.023 A 
ATOM     40  C   UNL A   1      38.525  32.486  37.484  1.00  0.00     0.012 A 
ATOM     41  C   UNL A   1      40.168  34.028  36.572  1.00  0.00     0.148 A 
ATOM     42  C   UNL A   1      38.233  33.398  38.504  1.00  0.00     0.002 A 
ATOM     43  C   UNL A   1      39.906  34.909  37.617  1.00  0.00     0.091 A 
ATOM     44  F   UNL A   1      41.070  34.317  35.624  1.00  0.00    -0.205 F 
ATOM     45  C   UNL A   1      38.926  34.603  38.572  1.00  0.00     0.022 A 
BRANCH  43  46
ATOM     46  S   UNL A   1      40.807  36.449  37.840  1.00  0.00     0.127 S 
ATOM     47  O   UNL A   1      41.906  36.023  38.706  1.00  0.00    -0.237 OA
ATOM     48  O   UNL A   1      41.204  36.775  36.469  1.00  0.00    -0.237 OA
ATOM     49  O   UNL A   1      39.866  37.384  38.437  1.00  0.00    -0.744 OA
ENDBRANCH  43  46
ENDBRANCH  25  39
BRANCH  26  50
ATOM     50  C   UNL A   1      41.773  26.896  28.799  1.00  0.00     0.023 A 
ATOM     51  C   UNL A   1      41.159  25.667  28.502  1.00  0.00     0.012 A 
ATOM     52  C   UNL A   1      42.675  27.463  27.875  1.00  0.00     0.148 A 
ATOM     53  C   UNL A   1      41.446  25.010  27.307  1.00  0.00     0.002 A 
ATOM     54  C   UNL A   1      42.903  26.838  26.658  1.00  0.00     0.091 A 
ATOM     55  F   UNL A   1      43.240  28.640  28.181  1.00  0.00    -0.205 F 
ATOM     56  C   UNL A   1      42.303  25.601  26.379  1.00  0.00     0.022 A 
BRANCH  54  57
ATOM     57  S   UNL A   1      43.856  27.603  25.342  1.00  0.00     0.127 S 
ATOM     58  O   UNL A   1      44.702  26.493  24.906  1.00  0.00    -0.237 OA
ATOM     59  O   UNL A   1      42.807  27.987  24.399  1.00  0.00    -0.237 OA
ATOM     60  O   UNL A   1      44.557  28.722  25.956  1.00  0.00    -0.744 OA
ENDBRANCH  54  57
ENDBRANCH  26  50
BRANCH  38  61
ATOM     61  C   UNL A   1      44.555  27.865  35.132  1.00  0.00     0.023 A 
ATOM     62  C   UNL A   1      45.807  28.508  35.108  1.00  0.00     0.012 A 
ATOM     63  C   UNL A   1      44.396  26.684  35.885  1.00  0.00     0.148 A 
ATOM     64  C   UNL A   1      46.891  27.970  35.802  1.00  0.00     0.002 A 
ATOM     65  C   UNL A   1      45.462  26.187  36.620  1.00  0.00     0.091 A 
ATOM     66  F   UNL A   1      43.201  26.076  35.871  1.00  0.00    -0.205 F 
ATOM     67  C   UNL A   1      46.715  26.820  36.569  1.00  0.00     0.022 A 
BRANCH  65  68
ATOM     68  S   UNL A   1      45.303  24.769  37.710  1.00  0.00     0.127 S 
ATOM     69  O   UNL A   1      44.920  23.714  36.772  1.00  0.00    -0.237 OA
ATOM     70  O   UNL A   1      46.656  24.646  38.250  1.00  0.00    -0.237 OA
ATOM     71  O   UNL A   1      44.285  25.122  38.690  1.00  0.00    -0.744 OA
ENDBRANCH  65  68
ENDBRANCH  38  61
ENDBRANCH  12  13
ENDBRANCH   5   7
ENDBRANCH   2   3
ENDBRANCH   1   2
BRANCH   1  72
ATOM     72  C   UNL A   1      32.625  29.683  26.962  1.00  0.00     0.023 C 
BRANCH  72  73
ATOM     73  C   UNL A   1      32.415  28.332  27.688  1.00  0.00     0.116 C 
BRANCH  73  74
ATOM     74  N   UNL A   1      31.466  27.399  27.045  1.00  0.00    -0.351 N 
ATOM     75  C   UNL A   1      31.257  26.485  26.060  1.00  0.00     0.283 C 
ATOM     76  H   UNL A   1      30.620  27.471  27.544  1.00  0.00     0.163 HD
ATOM     77  O   UNL A   1      30.223  25.854  26.380  1.00  0.00    -0.268 OA
BRANCH  75  78
ATOM     78  C   UNL A   1      31.959  26.181  24.556  1.00  0.00     0.307 C 
BRANCH  78  79
ATOM     79  N   UNL A   1      31.363  25.135  23.618  1.00  0.00    -0.318 N 
ATOM     80  C   UNL A   1      32.163  24.763  22.340  1.00  0.00     0.284 C 
ATOM     81  C   UNL A   1      31.204  23.885  24.313  1.00  0.00     0.284 C 
ATOM     82  H   UNL A   1      30.501  25.594  23.322  1.00  0.00     0.349 HD
ATOM     83  C   UNL A   1      33.241  23.433  22.276  1.00  0.00     0.178 C 
ATOM     84  C   UNL A   1      32.628  23.450  24.481  1.00  0.00     0.178 C 
ATOM     85  N   UNL A   1      33.007  22.556  23.442  1.00  0.00    -0.360 N 
BRANCH  85  86
ATOM     86  C   UNL A   1      33.478  21.404  24.089  1.00  0.00     0.038 A 
ATOM     87  C   UNL A   1      35.190  21.547  24.682  1.00  0.00     0.026 A 
ATOM     88  C   UNL A   1      32.752  19.766  23.884  1.00  0.00     0.046 A 
ATOM     89  C   UNL A   1      36.218  20.067  24.894  1.00  0.00     0.004 A 
ATOM     90  C   UNL A   1      33.732  18.263  24.216  1.00  0.00     0.043 A 
ATOM     91  C   UNL A   1      35.482  18.385  24.677  1.00  0.00     0.020 A 
ATOM     92  Cl  UNL A   1      33.013  16.710  24.059  1.00  0.00    -0.084 Cl
ENDBRANCH  85  86
ENDBRANCH  78  79
BRANCH  78  93
ATOM     93  C   UNL A   1      31.776  27.521  23.816  1.00  0.00     0.044 A 
ATOM     94  C   UNL A   1      32.794  28.273  23.236  1.00  0.00     0.094 A 
ATOM     95  C   UNL A   1      30.549  28.133  23.395  1.00  0.00     0.011 A 
ATOM     96  N   UNL A   1      32.238  29.206  22.408  1.00  0.00    -0.361 N 
ATOM     97  C   UNL A   1      30.869  29.166  22.508  1.00  0.00     0.046 A 
ATOM     98  C   UNL A   1      29.188  27.863  23.638  1.00  0.00     0.031 A 
ATOM     99  H   UNL A   1      32.745  29.817  21.826  1.00  0.00     0.166 HD
ATOM    100  C   UNL A   1      29.905  29.941  21.851  1.00  0.00     0.028 A 
ATOM    101  C   UNL A   1      28.216  28.651  23.012  1.00  0.00     0.041 A 
ATOM    102  C   UNL A   1      28.564  29.671  22.131  1.00  0.00     0.022 A 
ATOM    103  Cl  UNL A   1      26.552  28.346  23.336  1.00  0.00    -0.084 Cl
ENDBRANCH  78  93
ENDBRANCH  75  78
ENDBRANCH  73  74
ENDBRANCH  72  73
ENDBRANCH   1  72
TORSDOF 17
ENDMDL
