MODEL 1
REMARK VINA RESULT:      -9.7      0.000      0.000
REMARK SMILES CN(C)C(=O)C[NH+]1CCN(c2cc(C(=O)NCCCCNC(=O)c3ccc(-c4c5nc(c(-c6cccc(S(=O)(=O)[O-])c6F)c6ccc([nH]6)c(-c6cccc(S(=O)(=O)[O-])c6F)c6nc(c(-c7cccc(S(=O)(=O)[O-])c7F)c7ccc4[nH]7)C=C6)C=C5)cc3)c3cc(NC(=O)c4cccc(Cl)c4)ccc3n2)CC1
REMARK SMILES IDX 18 1 17 2 16 3 14 4 15 5 13 7 11 8 12 9 103 10 102 11 87 12
REMARK SMILES IDX 101 13 88 14 100 15 89 16 10 17 7 18 8 19 105 20 9 22 104 23
REMARK SMILES IDX 6 24 4 25 1 26 2 27 3 28 5 29 90 30 91 31 92 33 93 34 94 35
REMARK SMILES IDX 99 36 95 37 97 38 96 39 98 40 19 41 20 42 21 43 22 44 23 46
REMARK SMILES IDX 24 47 25 48 86 49 26 50 85 51 27 52 28 53 29 54 79 55 30 56
REMARK SMILES IDX 84 57 78 58 80 59 31 60 83 61 77 62 76 63 32 65 64 66 44 67
REMARK SMILES IDX 63 68 45 69 48 70 62 71 81 72 46 73 47 74 61 76 82 77 49 78
REMARK SMILES IDX 33 79 34 80 42 81 35 82 37 83 43 84 36 85 38 86 39 87 40 88
REMARK SMILES IDX 41 89 65 90 66 91 74 92 67 93 69 94 75 95 68 96 70 97 71 98
REMARK SMILES IDX 72 99 73 100 50 101 51 102 59 103 52 104 54 105 60 106
REMARK SMILES IDX 53 107 55 108 56 109 57 110 58 111
REMARK H PARENT 16 6 7 21 90 32 21 45 80 64 48 75
REMARK Flexibility Score: inf
ROOT
ATOM      1  C   UNL A   1      38.390  23.566  26.402  1.00  0.00     0.023 C 
ENDROOT
BRANCH   1   2
ATOM      2  C   UNL A   1      39.394  24.534  27.034  1.00  0.00     0.116 C 
BRANCH   2   3
ATOM      3  N   UNL A   1      40.196  25.333  26.114  1.00  0.00    -0.352 N 
ATOM      4  C   UNL A   1      40.901  26.523  26.225  1.00  0.00     0.252 C 
ATOM      5  O   UNL A   1      41.519  26.876  25.215  1.00  0.00    -0.269 OA
ATOM      6  H   UNL A   1      40.251  24.940  25.213  1.00  0.00     0.163 HD
BRANCH   4   7
ATOM      7  C   UNL A   1      40.948  27.453  27.415  1.00  0.00     0.052 A 
ATOM      8  C   UNL A   1      39.615  28.784  28.966  1.00  0.00     0.130 A 
ATOM      9  C   UNL A   1      39.701  27.872  27.913  1.00  0.00     0.061 A 
ATOM     10  N   UNL A   1      40.722  29.181  29.616  1.00  0.00    -0.231 NA
ATOM     11  C   UNL A   1      41.922  28.835  29.139  1.00  0.00     0.074 A 
ATOM     12  C   UNL A   1      42.082  28.059  27.978  1.00  0.00     0.015 A 
ATOM     13  C   UNL A   1      43.055  29.325  29.780  1.00  0.00     0.031 A 
ATOM     14  C   UNL A   1      43.351  28.043  27.390  1.00  0.00     0.037 A 
ATOM     15  C   UNL A   1      44.331  29.210  29.216  1.00  0.00     0.028 A 
ATOM     16  C   UNL A   1      44.463  28.655  27.952  1.00  0.00     0.042 A 
BRANCH   8  17
ATOM     17  N   UNL A   1      38.407  29.348  29.320  1.00  0.00    -0.345 N 
ATOM     18  N   UNL A   1      36.685  31.704  28.869  1.00  0.00    -0.324 N 
ATOM     19  C   UNL A   1      37.975  31.741  29.603  1.00  0.00     0.284 C 
ATOM     20  C   UNL A   1      36.762  30.590  27.882  1.00  0.00     0.284 C 
ATOM     21  H   UNL A   1      36.534  32.592  28.390  1.00  0.00     0.348 HD
ATOM     22  C   UNL A   1      38.364  30.422  30.304  1.00  0.00     0.179 C 
ATOM     23  C   UNL A   1      37.232  29.219  28.443  1.00  0.00     0.179 C 
BRANCH  18  24
ATOM     24  C   UNL A   1      35.534  31.538  29.787  1.00  0.00     0.363 C 
BRANCH  24  25
ATOM     25  C   UNL A   1      35.003  32.905  30.256  1.00  0.00     0.277 C 
ATOM     26  C   UNL A   1      34.499  34.474  32.051  1.00  0.00     0.146 C 
ATOM     27  N   UNL A   1      35.021  33.191  31.623  1.00  0.00    -0.344 N 
ATOM     28  C   UNL A   1      35.680  32.365  32.618  1.00  0.00     0.146 C 
ATOM     29  O   UNL A   1      34.526  33.699  29.439  1.00  0.00    -0.268 OA
ENDBRANCH  24  25
ENDBRANCH  18  24
ENDBRANCH   8  17
BRANCH  16  30
ATOM     30  N   UNL A   1      45.696  28.748  27.287  1.00  0.00    -0.322 N 
ATOM     31  C   UNL A   1      46.326  29.824  26.686  1.00  0.00     0.255 C 
ATOM     32  H   UNL A   1      46.198  27.902  27.240  1.00  0.00     0.170 HD
ATOM     33  O   UNL A   1      47.315  29.635  25.982  1.00  0.00    -0.269 OA
BRANCH  31  34
ATOM     34  C   UNL A   1      45.861  31.217  26.898  1.00  0.00     0.041 A 
ATOM     35  C   UNL A   1      46.479  31.973  27.898  1.00  0.00     0.014 A 
ATOM     36  C   UNL A   1      44.904  31.812  26.069  1.00  0.00     0.034 A 
ATOM     37  C   UNL A   1      46.220  33.341  28.009  1.00  0.00     0.002 A 
ATOM     38  C   UNL A   1      44.669  33.183  26.169  1.00  0.00     0.041 A 
ATOM     39  C   UNL A   1      45.334  33.952  27.124  1.00  0.00     0.020 A 
ATOM     40  Cl  UNL A   1      43.604  33.944  25.053  1.00  0.00    -0.084 Cl
ENDBRANCH  31  34
ENDBRANCH  16  30
ENDBRANCH   4   7
ENDBRANCH   2   3
ENDBRANCH   1   2
BRANCH   1  41
ATOM     41  C   UNL A   1      38.835  22.126  26.099  1.00  0.00     0.023 C 
BRANCH  41  42
ATOM     42  C   UNL A   1      40.090  21.530  26.757  1.00  0.00     0.116 C 
BRANCH  42  43
ATOM     43  N   UNL A   1      40.697  20.375  26.117  1.00  0.00    -0.352 N 
ATOM     44  C   UNL A   1      42.016  20.218  25.716  1.00  0.00     0.251 C 
ATOM     45  H   UNL A   1      40.101  19.611  25.950  1.00  0.00     0.163 HD
ATOM     46  O   UNL A   1      42.368  19.188  25.161  1.00  0.00    -0.269 OA
BRANCH  44  47
ATOM     47  C   UNL A   1      42.986  21.333  25.892  1.00  0.00     0.039 A 
ATOM     48  C   UNL A   1      42.490  22.638  25.948  1.00  0.00     0.014 A 
ATOM     49  C   UNL A   1      44.356  21.106  26.049  1.00  0.00     0.014 A 
ATOM     50  C   UNL A   1      43.343  23.693  26.295  1.00  0.00     0.010 A 
ATOM     51  C   UNL A   1      45.201  22.153  26.429  1.00  0.00     0.010 A 
ATOM     52  C   UNL A   1      44.691  23.447  26.604  1.00  0.00    -0.014 A 
BRANCH  52  53
ATOM     53  C   UNL A   1      45.522  24.490  27.268  1.00  0.00     0.031 A 
ATOM     54  C   UNL A   1      46.719  25.100  26.596  1.00  0.00     0.074 A 
ATOM     55  C   UNL A   1      45.233  24.815  28.545  1.00  0.00     0.049 A 
ATOM     56  N   UNL A   1      47.535  26.016  27.051  1.00  0.00    -0.248 NA
ATOM     57  C   UNL A   1      47.055  24.610  25.251  1.00  0.00     0.031 C 
ATOM     58  C   UNL A   1      44.157  24.220  29.343  1.00  0.00     0.029 A 
ATOM     59  N   UNL A   1      45.827  25.704  29.408  1.00  0.00    -0.354 N 
ATOM     60  C   UNL A   1      48.491  26.205  26.060  1.00  0.00     0.074 A 
ATOM     61  C   UNL A   1      48.168  25.285  24.988  1.00  0.00     0.031 C 
ATOM     62  C   UNL A   1      44.163  24.763  30.570  1.00  0.00     0.029 A 
ATOM     63  C   UNL A   1      45.251  25.729  30.658  1.00  0.00     0.049 A 
ATOM     64  H   UNL A   1      46.593  26.269  29.156  1.00  0.00     0.167 HD
ATOM     65  C   UNL A   1      49.524  27.083  26.033  1.00  0.00     0.034 A 
ATOM     66  C   UNL A   1      45.559  26.452  31.754  1.00  0.00     0.034 A 
ATOM     67  C   UNL A   1      49.827  28.011  27.091  1.00  0.00     0.049 A 
ATOM     68  C   UNL A   1      46.681  27.451  31.677  1.00  0.00     0.074 A 
ATOM     69  C   UNL A   1      50.810  28.987  27.125  1.00  0.00     0.029 A 
ATOM     70  N   UNL A   1      49.160  28.078  28.305  1.00  0.00    -0.354 N 
ATOM     71  N   UNL A   1      47.458  27.740  30.662  1.00  0.00    -0.248 NA
ATOM     72  C   UNL A   1      46.941  28.256  32.880  1.00  0.00     0.031 C 
ATOM     73  C   UNL A   1      50.744  29.635  28.363  1.00  0.00     0.029 A 
ATOM     74  C   UNL A   1      49.710  29.074  29.094  1.00  0.00     0.049 A 
ATOM     75  H   UNL A   1      48.407  27.502  28.566  1.00  0.00     0.167 HD
ATOM     76  C   UNL A   1      48.272  28.782  31.089  1.00  0.00     0.074 A 
ATOM     77  C   UNL A   1      47.878  29.089  32.449  1.00  0.00     0.031 C 
ATOM     78  C   UNL A   1      49.268  29.415  30.422  1.00  0.00     0.034 A 
BRANCH  65  79
ATOM     79  C   UNL A   1      50.371  27.136  24.786  1.00  0.00     0.023 A 
ATOM     80  C   UNL A   1      51.644  26.530  24.797  1.00  0.00     0.012 A 
ATOM     81  C   UNL A   1      49.886  27.703  23.592  1.00  0.00     0.148 A 
ATOM     82  C   UNL A   1      52.434  26.512  23.648  1.00  0.00     0.002 A 
ATOM     83  C   UNL A   1      50.663  27.647  22.440  1.00  0.00     0.091 A 
ATOM     84  F   UNL A   1      48.678  28.285  23.604  1.00  0.00    -0.205 F 
ATOM     85  C   UNL A   1      51.940  27.062  22.469  1.00  0.00     0.022 A 
BRANCH  83  86
ATOM     86  S   UNL A   1      50.094  28.262  20.850  1.00  0.00     0.127 S 
ATOM     87  O   UNL A   1      51.211  27.906  19.977  1.00  0.00    -0.237 OA
ATOM     88  O   UNL A   1      48.878  27.478  20.634  1.00  0.00    -0.237 OA
ATOM     89  O   UNL A   1      49.872  29.690  21.028  1.00  0.00    -0.744 OA
ENDBRANCH  83  86
ENDBRANCH  65  79
BRANCH  66  90
ATOM     90  C   UNL A   1      44.741  26.317  32.992  1.00  0.00     0.023 A 
ATOM     91  C   UNL A   1      45.092  25.343  33.948  1.00  0.00     0.012 A 
ATOM     92  C   UNL A   1      43.637  27.155  33.241  1.00  0.00     0.148 A 
ATOM     93  C   UNL A   1      44.338  25.182  35.111  1.00  0.00     0.002 A 
ATOM     94  C   UNL A   1      42.923  27.026  34.429  1.00  0.00     0.091 A 
ATOM     95  F   UNL A   1      43.307  28.067  32.316  1.00  0.00    -0.205 F 
ATOM     96  C   UNL A   1      43.261  26.029  35.356  1.00  0.00     0.022 A 
BRANCH  94  97
ATOM     97  S   UNL A   1      41.613  28.169  34.879  1.00  0.00     0.127 S 
ATOM     98  O   UNL A   1      40.632  27.933  33.823  1.00  0.00    -0.237 OA
ATOM     99  O   UNL A   1      41.222  27.684  36.203  1.00  0.00    -0.237 OA
ATOM    100  O   UNL A   1      42.238  29.485  34.891  1.00  0.00    -0.744 OA
ENDBRANCH  94  97
ENDBRANCH  66  90
BRANCH  78 101
ATOM    101  C   UNL A   1      49.985  30.532  31.132  1.00  0.00     0.023 A 
ATOM    102  C   UNL A   1      51.162  30.260  31.856  1.00  0.00     0.012 A 
ATOM    103  C   UNL A   1      49.537  31.863  31.017  1.00  0.00     0.148 A 
ATOM    104  C   UNL A   1      51.868  31.290  32.478  1.00  0.00     0.002 A 
ATOM    105  C   UNL A   1      50.270  32.890  31.600  1.00  0.00     0.091 A 
ATOM    106  F   UNL A   1      48.402  32.101  30.342  1.00  0.00    -0.205 F 
ATOM    107  C   UNL A   1      51.430  32.604  32.339  1.00  0.00     0.022 A 
BRANCH 105 108
ATOM    108  S   UNL A   1      49.832  34.621  31.395  1.00  0.00     0.127 S 
ATOM    109  O   UNL A   1      48.544  34.686  32.082  1.00  0.00    -0.237 OA
ATOM    110  O   UNL A   1      50.927  35.303  32.086  1.00  0.00    -0.237 OA
ATOM    111  O   UNL A   1      49.788  34.855  29.958  1.00  0.00    -0.744 OA
ENDBRANCH 105 108
ENDBRANCH  78 101
ENDBRANCH  52  53
ENDBRANCH  44  47
ENDBRANCH  42  43
ENDBRANCH  41  42
ENDBRANCH   1  41
TORSDOF 19
ENDMDL
MODEL 2
REMARK VINA RESULT:      -9.6      3.818      8.760
REMARK SMILES CN(C)C(=O)C[NH+]1CCN(c2cc(C(=O)NCCCCNC(=O)c3ccc(-c4c5nc(c(-c6cccc(S(=O)(=O)[O-])c6F)c6ccc([nH]6)c(-c6cccc(S(=O)(=O)[O-])c6F)c6nc(c(-c7cccc(S(=O)(=O)[O-])c7F)c7ccc4[nH]7)C=C6)C=C5)cc3)c3cc(NC(=O)c4cccc(Cl)c4)ccc3n2)CC1
REMARK SMILES IDX 18 1 17 2 16 3 14 4 15 5 13 7 11 8 12 9 103 10 102 11 87 12
REMARK SMILES IDX 101 13 88 14 100 15 89 16 10 17 7 18 8 19 105 20 9 22 104 23
REMARK SMILES IDX 6 24 4 25 1 26 2 27 3 28 5 29 90 30 91 31 92 33 93 34 94 35
REMARK SMILES IDX 99 36 95 37 97 38 96 39 98 40 19 41 20 42 21 43 22 44 23 46
REMARK SMILES IDX 24 47 25 48 86 49 26 50 85 51 27 52 28 53 29 54 79 55 30 56
REMARK SMILES IDX 84 57 78 58 80 59 31 60 83 61 77 62 76 63 32 65 64 66 44 67
REMARK SMILES IDX 63 68 45 69 48 70 62 71 81 72 46 73 47 74 61 76 82 77 49 78
REMARK SMILES IDX 33 79 34 80 42 81 35 82 37 83 43 84 36 85 38 86 39 87 40 88
REMARK SMILES IDX 41 89 65 90 66 91 74 92 67 93 69 94 75 95 68 96 70 97 71 98
REMARK SMILES IDX 72 99 73 100 50 101 51 102 59 103 52 104 54 105 60 106
REMARK SMILES IDX 53 107 55 108 56 109 57 110 58 111
REMARK H PARENT 16 6 7 21 90 32 21 45 80 64 48 75
REMARK Flexibility Score: inf
ROOT
ATOM      1  C   UNL A   1      37.782  34.079  31.187  1.00  0.00     0.023 C 
ENDROOT
BRANCH   1   2
ATOM      2  C   UNL A   1      39.127  33.959  30.466  1.00  0.00     0.116 C 
BRANCH   2   3
ATOM      3  N   UNL A   1      40.320  34.216  31.265  1.00  0.00    -0.352 N 
ATOM      4  C   UNL A   1      41.668  34.367  30.973  1.00  0.00     0.252 C 
ATOM      5  O   UNL A   1      42.398  34.633  31.934  1.00  0.00    -0.269 OA
ATOM      6  H   UNL A   1      40.126  34.304  32.226  1.00  0.00     0.163 HD
BRANCH   4   7
ATOM      7  C   UNL A   1      42.342  34.188  29.633  1.00  0.00     0.052 A 
ATOM      8  C   UNL A   1      43.752  32.721  28.285  1.00  0.00     0.130 A 
ATOM      9  C   UNL A   1      43.034  32.975  29.454  1.00  0.00     0.061 A 
ATOM     10  N   UNL A   1      43.690  33.572  27.247  1.00  0.00    -0.231 NA
ATOM     11  C   UNL A   1      43.077  34.751  27.403  1.00  0.00     0.074 A 
ATOM     12  C   UNL A   1      42.481  35.143  28.613  1.00  0.00     0.015 A 
ATOM     13  C   UNL A   1      43.096  35.651  26.342  1.00  0.00     0.031 A 
ATOM     14  C   UNL A   1      42.176  36.499  28.766  1.00  0.00     0.037 A 
ATOM     15  C   UNL A   1      42.692  36.982  26.495  1.00  0.00     0.028 A 
ATOM     16  C   UNL A   1      42.329  37.437  27.754  1.00  0.00     0.042 A 
BRANCH   8  17
ATOM     17  N   UNL A   1      44.591  31.630  28.190  1.00  0.00    -0.345 N 
ATOM     18  N   UNL A   1      45.524  29.532  26.334  1.00  0.00    -0.324 N 
ATOM     19  C   UNL A   1      44.153  29.598  26.896  1.00  0.00     0.284 C 
ATOM     20  C   UNL A   1      46.051  30.925  26.270  1.00  0.00     0.284 C 
ATOM     21  H   UNL A   1      45.497  29.121  25.401  1.00  0.00     0.348 HD
ATOM     22  C   UNL A   1      44.046  30.281  28.277  1.00  0.00     0.179 C 
ATOM     23  C   UNL A   1      45.922  31.759  27.576  1.00  0.00     0.179 C 
BRANCH  18  24
ATOM     24  C   UNL A   1      46.406  28.654  27.136  1.00  0.00     0.363 C 
BRANCH  24  25
ATOM     25  C   UNL A   1      47.666  28.265  26.340  1.00  0.00     0.277 C 
ATOM     26  C   UNL A   1      48.835  26.730  24.852  1.00  0.00     0.146 C 
ATOM     27  N   UNL A   1      47.635  27.094  25.579  1.00  0.00    -0.344 N 
ATOM     28  C   UNL A   1      46.436  26.314  25.333  1.00  0.00     0.146 C 
ATOM     29  O   UNL A   1      48.689  28.951  26.424  1.00  0.00    -0.268 OA
ENDBRANCH  24  25
ENDBRANCH  18  24
ENDBRANCH   8  17
BRANCH  16  30
ATOM     30  N   UNL A   1      42.148  38.814  27.961  1.00  0.00    -0.322 N 
ATOM     31  C   UNL A   1      43.068  39.835  28.131  1.00  0.00     0.255 C 
ATOM     32  H   UNL A   1      41.208  39.102  27.991  1.00  0.00     0.170 HD
ATOM     33  O   UNL A   1      42.685  40.942  28.502  1.00  0.00    -0.269 OA
BRANCH  31  34
ATOM     34  C   UNL A   1      44.510  39.643  27.842  1.00  0.00     0.041 A 
ATOM     35  C   UNL A   1      45.335  39.188  28.874  1.00  0.00     0.014 A 
ATOM     36  C   UNL A   1      45.035  39.811  26.555  1.00  0.00     0.034 A 
ATOM     37  C   UNL A   1      46.651  38.803  28.607  1.00  0.00     0.002 A 
ATOM     38  C   UNL A   1      46.342  39.401  26.291  1.00  0.00     0.041 A 
ATOM     39  C   UNL A   1      47.146  38.885  27.307  1.00  0.00     0.020 A 
ATOM     40  Cl  UNL A   1      46.941  39.466  24.680  1.00  0.00    -0.084 Cl
ENDBRANCH  31  34
ENDBRANCH  16  30
ENDBRANCH   4   7
ENDBRANCH   2   3
ENDBRANCH   1   2
BRANCH   1  41
ATOM     41  C   UNL A   1      36.559  33.350  30.607  1.00  0.00     0.023 C 
BRANCH  41  42
ATOM     42  C   UNL A   1      36.250  33.396  29.102  1.00  0.00     0.116 C 
BRANCH  42  43
ATOM     43  N   UNL A   1      35.100  32.643  28.631  1.00  0.00    -0.352 N 
ATOM     44  C   UNL A   1      35.014  31.279  28.392  1.00  0.00     0.251 C 
ATOM     45  H   UNL A   1      34.282  33.163  28.463  1.00  0.00     0.163 HD
ATOM     46  O   UNL A   1      33.975  30.797  27.967  1.00  0.00    -0.269 OA
BRANCH  44  47
ATOM     47  C   UNL A   1      36.209  30.412  28.581  1.00  0.00     0.039 A 
ATOM     48  C   UNL A   1      37.163  30.372  27.561  1.00  0.00     0.014 A 
ATOM     49  C   UNL A   1      36.422  29.687  29.756  1.00  0.00     0.014 A 
ATOM     50  C   UNL A   1      38.383  29.717  27.773  1.00  0.00     0.010 A 
ATOM     51  C   UNL A   1      37.652  29.064  29.982  1.00  0.00     0.010 A 
ATOM     52  C   UNL A   1      38.663  29.117  29.012  1.00  0.00    -0.014 A 
BRANCH  52  53
ATOM     53  C   UNL A   1      40.050  28.698  29.357  1.00  0.00     0.031 A 
ATOM     54  C   UNL A   1      40.705  27.509  28.715  1.00  0.00     0.074 A 
ATOM     55  C   UNL A   1      40.685  29.359  30.348  1.00  0.00     0.049 A 
ATOM     56  N   UNL A   1      41.904  27.026  28.917  1.00  0.00    -0.248 NA
ATOM     57  C   UNL A   1      39.911  26.755  27.734  1.00  0.00     0.031 C 
ATOM     58  C   UNL A   1      40.117  30.468  31.121  1.00  0.00     0.029 A 
ATOM     59  N   UNL A   1      41.933  29.185  30.894  1.00  0.00    -0.354 N 
ATOM     60  C   UNL A   1      42.009  25.904  28.104  1.00  0.00     0.074 A 
ATOM     61  C   UNL A   1      40.737  25.762  27.424  1.00  0.00     0.031 C 
ATOM     62  C   UNL A   1      41.012  30.878  32.031  1.00  0.00     0.029 A 
ATOM     63  C   UNL A   1      42.210  30.054  31.926  1.00  0.00     0.049 A 
ATOM     64  H   UNL A   1      42.569  28.504  30.578  1.00  0.00     0.167 HD
ATOM     65  C   UNL A   1      43.074  25.086  27.918  1.00  0.00     0.034 A 
ATOM     66  C   UNL A   1      43.308  30.179  32.700  1.00  0.00     0.034 A 
ATOM     67  C   UNL A   1      44.344  25.246  28.579  1.00  0.00     0.049 A 
ATOM     68  C   UNL A   1      44.490  29.287  32.437  1.00  0.00     0.074 A 
ATOM     69  C   UNL A   1      45.505  24.510  28.403  1.00  0.00     0.029 A 
ATOM     70  N   UNL A   1      44.622  26.200  29.546  1.00  0.00    -0.354 N 
ATOM     71  N   UNL A   1      44.629  28.347  31.534  1.00  0.00    -0.248 NA
ATOM     72  C   UNL A   1      45.684  29.501  33.270  1.00  0.00     0.031 C 
ATOM     73  C   UNL A   1      46.479  25.011  29.272  1.00  0.00     0.029 A 
ATOM     74  C   UNL A   1      45.931  26.070  29.978  1.00  0.00     0.049 A 
ATOM     75  H   UNL A   1      43.982  26.870  29.877  1.00  0.00     0.167 HD
ATOM     76  C   UNL A   1      45.933  27.885  31.663  1.00  0.00     0.074 A 
ATOM     77  C   UNL A   1      46.550  28.662  32.718  1.00  0.00     0.031 C 
ATOM     78  C   UNL A   1      46.556  26.892  30.982  1.00  0.00     0.034 A 
BRANCH  65  79
ATOM     79  C   UNL A   1      42.942  23.977  26.906  1.00  0.00     0.023 A 
ATOM     80  C   UNL A   1      43.502  24.150  25.623  1.00  0.00     0.012 A 
ATOM     81  C   UNL A   1      42.346  22.745  27.239  1.00  0.00     0.148 A 
ATOM     82  C   UNL A   1      43.446  23.127  24.678  1.00  0.00     0.002 A 
ATOM     83  C   UNL A   1      42.329  21.715  26.304  1.00  0.00     0.091 A 
ATOM     84  F   UNL A   1      41.809  22.603  28.459  1.00  0.00    -0.205 F 
ATOM     85  C   UNL A   1      42.868  21.908  25.021  1.00  0.00     0.022 A 
BRANCH  83  86
ATOM     86  S   UNL A   1      41.672  20.082  26.666  1.00  0.00     0.127 S 
ATOM     87  O   UNL A   1      40.263  20.379  26.917  1.00  0.00    -0.237 OA
ATOM     88  O   UNL A   1      41.930  19.363  25.419  1.00  0.00    -0.237 OA
ATOM     89  O   UNL A   1      42.422  19.594  27.815  1.00  0.00    -0.744 OA
ENDBRANCH  83  86
ENDBRANCH  65  79
BRANCH  66  90
ATOM     90  C   UNL A   1      43.370  31.244  33.740  1.00  0.00     0.023 A 
ATOM     91  C   UNL A   1      44.126  32.407  33.492  1.00  0.00     0.012 A 
ATOM     92  C   UNL A   1      42.673  31.127  34.958  1.00  0.00     0.148 A 
ATOM     93  C   UNL A   1      44.217  33.416  34.451  1.00  0.00     0.002 A 
ATOM     94  C   UNL A   1      42.722  32.162  35.886  1.00  0.00     0.091 A 
ATOM     95  F   UNL A   1      41.970  30.009  35.185  1.00  0.00    -0.205 F 
ATOM     96  C   UNL A   1      43.507  33.299  35.643  1.00  0.00     0.022 A 
BRANCH  94  97
ATOM     97  S   UNL A   1      41.726  32.146  37.381  1.00  0.00     0.127 S 
ATOM     98  O   UNL A   1      42.484  31.238  38.238  1.00  0.00    -0.237 OA
ATOM     99  O   UNL A   1      41.759  33.551  37.790  1.00  0.00    -0.237 OA
ATOM    100  O   UNL A   1      40.410  31.682  36.961  1.00  0.00    -0.744 OA
ENDBRANCH  94  97
ENDBRANCH  66  90
BRANCH  78 101
ATOM    101  C   UNL A   1      47.994  26.607  31.324  1.00  0.00     0.023 A 
ATOM    102  C   UNL A   1      48.302  25.717  32.372  1.00  0.00     0.012 A 
ATOM    103  C   UNL A   1      49.039  27.158  30.556  1.00  0.00     0.148 A 
ATOM    104  C   UNL A   1      49.628  25.401  32.669  1.00  0.00     0.002 A 
ATOM    105  C   UNL A   1      50.356  26.803  30.828  1.00  0.00     0.091 A 
ATOM    106  F   UNL A   1      48.729  28.020  29.577  1.00  0.00    -0.205 F 
ATOM    107  C   UNL A   1      50.652  25.933  31.891  1.00  0.00     0.022 A 
BRANCH 105 108
ATOM    108  S   UNL A   1      51.732  27.366  29.819  1.00  0.00     0.127 S 
ATOM    109  O   UNL A   1      51.770  28.792  30.137  1.00  0.00    -0.237 OA
ATOM    110  O   UNL A   1      52.851  26.592  30.358  1.00  0.00    -0.237 OA
ATOM    111  O   UNL A   1      51.379  27.040  28.444  1.00  0.00    -0.744 OA
ENDBRANCH 105 108
ENDBRANCH  78 101
ENDBRANCH  52  53
ENDBRANCH  44  47
ENDBRANCH  42  43
ENDBRANCH  41  42
ENDBRANCH   1  41
TORSDOF 19
ENDMDL
MODEL 3
REMARK VINA RESULT:      -9.5      1.783      2.117
REMARK SMILES CN(C)C(=O)C[NH+]1CCN(c2cc(C(=O)NCCCCNC(=O)c3ccc(-c4c5nc(c(-c6cccc(S(=O)(=O)[O-])c6F)c6ccc([nH]6)c(-c6cccc(S(=O)(=O)[O-])c6F)c6nc(c(-c7cccc(S(=O)(=O)[O-])c7F)c7ccc4[nH]7)C=C6)C=C5)cc3)c3cc(NC(=O)c4cccc(Cl)c4)ccc3n2)CC1
REMARK SMILES IDX 18 1 17 2 16 3 14 4 15 5 13 7 11 8 12 9 103 10 102 11 87 12
REMARK SMILES IDX 101 13 88 14 100 15 89 16 10 17 7 18 8 19 105 20 9 22 104 23
REMARK SMILES IDX 6 24 4 25 1 26 2 27 3 28 5 29 90 30 91 31 92 33 93 34 94 35
REMARK SMILES IDX 99 36 95 37 97 38 96 39 98 40 19 41 20 42 21 43 22 44 23 46
REMARK SMILES IDX 24 47 25 48 86 49 26 50 85 51 27 52 28 53 29 54 79 55 30 56
REMARK SMILES IDX 84 57 78 58 80 59 31 60 83 61 77 62 76 63 32 65 64 66 44 67
REMARK SMILES IDX 63 68 45 69 48 70 62 71 81 72 46 73 47 74 61 76 82 77 49 78
REMARK SMILES IDX 33 79 34 80 42 81 35 82 37 83 43 84 36 85 38 86 39 87 40 88
REMARK SMILES IDX 41 89 65 90 66 91 74 92 67 93 69 94 75 95 68 96 70 97 71 98
REMARK SMILES IDX 72 99 73 100 50 101 51 102 59 103 52 104 54 105 60 106
REMARK SMILES IDX 53 107 55 108 56 109 57 110 58 111
REMARK H PARENT 16 6 7 21 90 32 21 45 80 64 48 75
REMARK Flexibility Score: inf
ROOT
ATOM      1  C   UNL A   1      38.510  23.590  26.387  1.00  0.00     0.023 C 
ENDROOT
BRANCH   1   2
ATOM      2  C   UNL A   1      39.511  24.582  26.986  1.00  0.00     0.116 C 
BRANCH   2   3
ATOM      3  N   UNL A   1      40.279  25.385  26.041  1.00  0.00    -0.352 N 
ATOM      4  C   UNL A   1      40.921  26.612  26.109  1.00  0.00     0.252 C 
ATOM      5  O   UNL A   1      41.529  26.957  25.090  1.00  0.00    -0.269 OA
ATOM      6  H   UNL A   1      40.362  24.960  25.157  1.00  0.00     0.163 HD
BRANCH   4   7
ATOM      7  C   UNL A   1      40.910  27.591  27.261  1.00  0.00     0.052 A 
ATOM      8  C   UNL A   1      39.495  28.897  28.761  1.00  0.00     0.130 A 
ATOM      9  C   UNL A   1      39.638  27.951  27.744  1.00  0.00     0.061 A 
ATOM     10  N   UNL A   1      40.575  29.387  29.393  1.00  0.00    -0.231 NA
ATOM     11  C   UNL A   1      41.795  29.096  28.928  1.00  0.00     0.074 A 
ATOM     12  C   UNL A   1      42.004  28.287  27.798  1.00  0.00     0.015 A 
ATOM     13  C   UNL A   1      42.895  29.681  29.547  1.00  0.00     0.031 A 
ATOM     14  C   UNL A   1      43.272  28.326  27.209  1.00  0.00     0.037 A 
ATOM     15  C   UNL A   1      44.176  29.623  28.986  1.00  0.00     0.028 A 
ATOM     16  C   UNL A   1      44.343  29.028  27.745  1.00  0.00     0.042 A 
BRANCH   8  17
ATOM     17  N   UNL A   1      38.255  29.399  29.095  1.00  0.00    -0.345 N 
ATOM     18  N   UNL A   1      36.590  31.835  28.977  1.00  0.00    -0.324 N 
ATOM     19  C   UNL A   1      37.790  31.685  29.837  1.00  0.00     0.284 C 
ATOM     20  C   UNL A   1      36.778  30.956  27.788  1.00  0.00     0.284 C 
ATOM     21  H   UNL A   1      36.491  32.807  28.687  1.00  0.00     0.348 HD
ATOM     22  C   UNL A   1      38.101  30.237  30.276  1.00  0.00     0.179 C 
ATOM     23  C   UNL A   1      37.185  29.486  28.087  1.00  0.00     0.179 C 
BRANCH  18  24
ATOM     24  C   UNL A   1      35.345  31.502  29.706  1.00  0.00     0.363 C 
BRANCH  24  25
ATOM     25  C   UNL A   1      34.780  32.741  30.425  1.00  0.00     0.277 C 
ATOM     26  C   UNL A   1      33.722  34.935  30.339  1.00  0.00     0.146 C 
ATOM     27  N   UNL A   1      34.232  33.765  29.649  1.00  0.00    -0.344 N 
ATOM     28  C   UNL A   1      33.984  33.663  28.223  1.00  0.00     0.146 C 
ATOM     29  O   UNL A   1      34.864  32.838  31.653  1.00  0.00    -0.268 OA
ENDBRANCH  24  25
ENDBRANCH  18  24
ENDBRANCH   8  17
BRANCH  16  30
ATOM     30  N   UNL A   1      45.568  29.170  27.074  1.00  0.00    -0.322 N 
ATOM     31  C   UNL A   1      46.162  30.276  26.490  1.00  0.00     0.255 C 
ATOM     32  H   UNL A   1      46.095  28.341  27.008  1.00  0.00     0.170 HD
ATOM     33  O   UNL A   1      47.152  30.130  25.777  1.00  0.00    -0.269 OA
BRANCH  31  34
ATOM     34  C   UNL A   1      45.657  31.651  26.732  1.00  0.00     0.041 A 
ATOM     35  C   UNL A   1      46.279  32.416  27.722  1.00  0.00     0.014 A 
ATOM     36  C   UNL A   1      44.655  32.220  25.939  1.00  0.00     0.034 A 
ATOM     37  C   UNL A   1      45.978  33.774  27.855  1.00  0.00     0.002 A 
ATOM     38  C   UNL A   1      44.378  33.582  26.061  1.00  0.00     0.041 A 
ATOM     39  C   UNL A   1      45.045  34.363  27.004  1.00  0.00     0.020 A 
ATOM     40  Cl  UNL A   1      43.254  34.318  24.986  1.00  0.00    -0.084 Cl
ENDBRANCH  31  34
ENDBRANCH  16  30
ENDBRANCH   4   7
ENDBRANCH   2   3
ENDBRANCH   1   2
BRANCH   1  41
ATOM     41  C   UNL A   1      38.921  22.116  26.239  1.00  0.00     0.023 C 
BRANCH  41  42
ATOM     42  C   UNL A   1      40.261  21.608  26.794  1.00  0.00     0.116 C 
BRANCH  42  43
ATOM     43  N   UNL A   1      40.915  20.526  26.078  1.00  0.00    -0.352 N 
ATOM     44  C   UNL A   1      42.237  20.457  25.660  1.00  0.00     0.251 C 
ATOM     45  H   UNL A   1      40.353  19.747  25.865  1.00  0.00     0.163 HD
ATOM     46  O   UNL A   1      42.631  19.482  25.038  1.00  0.00    -0.269 OA
BRANCH  44  47
ATOM     47  C   UNL A   1      43.156  21.601  25.902  1.00  0.00     0.039 A 
ATOM     48  C   UNL A   1      42.639  22.896  25.806  1.00  0.00     0.014 A 
ATOM     49  C   UNL A   1      44.492  21.416  26.266  1.00  0.00     0.014 A 
ATOM     50  C   UNL A   1      43.419  23.990  26.203  1.00  0.00     0.010 A 
ATOM     51  C   UNL A   1      45.259  22.502  26.695  1.00  0.00     0.010 A 
ATOM     52  C   UNL A   1      44.712  23.793  26.716  1.00  0.00    -0.014 A 
BRANCH  52  53
ATOM     53  C   UNL A   1      45.424  24.893  27.424  1.00  0.00     0.031 A 
ATOM     54  C   UNL A   1      46.709  25.472  26.904  1.00  0.00     0.074 A 
ATOM     55  C   UNL A   1      44.939  25.301  28.614  1.00  0.00     0.049 A 
ATOM     56  N   UNL A   1      47.441  26.430  27.413  1.00  0.00    -0.248 NA
ATOM     57  C   UNL A   1      47.253  24.895  25.665  1.00  0.00     0.031 C 
ATOM     58  C   UNL A   1      43.755  24.746  29.277  1.00  0.00     0.029 A 
ATOM     59  N   UNL A   1      45.387  26.256  29.493  1.00  0.00    -0.354 N 
ATOM     60  C   UNL A   1      48.538  26.564  26.571  1.00  0.00     0.074 A 
ATOM     61  C   UNL A   1      48.390  25.567  25.531  1.00  0.00     0.031 C 
ATOM     62  C   UNL A   1      43.567  25.374  30.447  1.00  0.00     0.029 A 
ATOM     63  C   UNL A   1      44.624  26.361  30.634  1.00  0.00     0.049 A 
ATOM     64  H   UNL A   1      46.181  26.815  29.323  1.00  0.00     0.167 HD
ATOM     65  C   UNL A   1      49.559  27.454  26.642  1.00  0.00     0.034 A 
ATOM     66  C   UNL A   1      44.755  27.163  31.710  1.00  0.00     0.034 A 
ATOM     67  C   UNL A   1      49.690  28.458  27.666  1.00  0.00     0.049 A 
ATOM     68  C   UNL A   1      45.870  28.171  31.737  1.00  0.00     0.074 A 
ATOM     69  C   UNL A   1      50.651  29.449  27.782  1.00  0.00     0.029 A 
ATOM     70  N   UNL A   1      48.841  28.599  28.754  1.00  0.00    -0.354 N 
ATOM     71  N   UNL A   1      46.795  28.400  30.837  1.00  0.00    -0.248 NA
ATOM     72  C   UNL A   1      45.936  29.062  32.906  1.00  0.00     0.031 C 
ATOM     73  C   UNL A   1      50.390  30.180  28.946  1.00  0.00     0.029 A 
ATOM     74  C   UNL A   1      49.257  29.656  29.546  1.00  0.00     0.049 A 
ATOM     75  H   UNL A   1      48.059  28.031  28.936  1.00  0.00     0.167 HD
ATOM     76  C   UNL A   1      47.527  29.482  31.310  1.00  0.00     0.074 A 
ATOM     77  C   UNL A   1      46.926  29.877  32.567  1.00  0.00     0.031 C 
ATOM     78  C   UNL A   1      48.612  30.082  30.762  1.00  0.00     0.034 A 
BRANCH  65  79
ATOM     79  C   UNL A   1      50.589  27.432  25.542  1.00  0.00     0.023 A 
ATOM     80  C   UNL A   1      50.381  28.225  24.394  1.00  0.00     0.012 A 
ATOM     81  C   UNL A   1      51.788  26.705  25.671  1.00  0.00     0.148 A 
ATOM     82  C   UNL A   1      51.336  28.272  23.379  1.00  0.00     0.002 A 
ATOM     83  C   UNL A   1      52.753  26.788  24.673  1.00  0.00     0.091 A 
ATOM     84  F   UNL A   1      51.963  25.948  26.764  1.00  0.00    -0.205 F 
ATOM     85  C   UNL A   1      52.524  27.561  23.523  1.00  0.00     0.022 A 
BRANCH  83  86
ATOM     86  S   UNL A   1      54.349  25.969  24.790  1.00  0.00     0.127 S 
ATOM     87  O   UNL A   1      54.839  26.461  26.077  1.00  0.00    -0.237 OA
ATOM     88  O   UNL A   1      53.971  24.556  24.783  1.00  0.00    -0.237 OA
ATOM     89  O   UNL A   1      55.109  26.402  23.626  1.00  0.00    -0.744 OA
ENDBRANCH  83  86
ENDBRANCH  65  79
BRANCH  66  90
ATOM     90  C   UNL A   1      43.754  27.102  32.813  1.00  0.00     0.023 A 
ATOM     91  C   UNL A   1      42.703  28.041  32.843  1.00  0.00     0.012 A 
ATOM     92  C   UNL A   1      43.817  26.114  33.813  1.00  0.00     0.148 A 
ATOM     93  C   UNL A   1      41.759  28.020  33.869  1.00  0.00     0.002 A 
ATOM     94  C   UNL A   1      42.840  26.064  34.802  1.00  0.00     0.091 A 
ATOM     95  F   UNL A   1      44.830  25.236  33.778  1.00  0.00    -0.205 F 
ATOM     96  C   UNL A   1      41.820  27.026  34.842  1.00  0.00     0.022 A 
BRANCH  94  97
ATOM     97  S   UNL A   1      42.772  24.732  36.006  1.00  0.00     0.127 S 
ATOM     98  O   UNL A   1      42.731  23.552  35.147  1.00  0.00    -0.237 OA
ATOM     99  O   UNL A   1      44.025  24.917  36.741  1.00  0.00    -0.237 OA
ATOM    100  O   UNL A   1      41.577  24.991  36.798  1.00  0.00    -0.744 OA
ENDBRANCH  94  97
ENDBRANCH  66  90
BRANCH  78 101
ATOM    101  C   UNL A   1      49.205  31.257  31.493  1.00  0.00     0.023 A 
ATOM    102  C   UNL A   1      50.327  31.070  32.324  1.00  0.00     0.012 A 
ATOM    103  C   UNL A   1      48.700  32.557  31.295  1.00  0.00     0.148 A 
ATOM    104  C   UNL A   1      50.921  32.155  32.969  1.00  0.00     0.002 A 
ATOM    105  C   UNL A   1      49.325  33.640  31.904  1.00  0.00     0.091 A 
ATOM    106  F   UNL A   1      47.618  32.713  30.518  1.00  0.00    -0.205 F 
ATOM    107  C   UNL A   1      50.429  33.439  32.750  1.00  0.00     0.022 A 
BRANCH 105 108
ATOM    108  S   UNL A   1      48.817  35.337  31.604  1.00  0.00     0.127 S 
ATOM    109  O   UNL A   1      48.699  35.360  30.148  1.00  0.00    -0.237 OA
ATOM    110  O   UNL A   1      47.544  35.413  32.321  1.00  0.00    -0.237 OA
ATOM    111  O   UNL A   1      49.873  36.174  32.160  1.00  0.00    -0.744 OA
ENDBRANCH 105 108
ENDBRANCH  78 101
ENDBRANCH  52  53
ENDBRANCH  44  47
ENDBRANCH  42  43
ENDBRANCH  41  42
ENDBRANCH   1  41
TORSDOF 19
ENDMDL
