MODEL 1
REMARK VINA RESULT:     -10.7      0.000      0.000
REMARK SMILES Cc1cc(NC(=O)CCC(=O)NCCCCNC(=O)c2ccc(-c3c4nc(c(-c5cccc(S(=O)(=O)[O-])c5F)c5ccc([nH]5)c(-c5cccc(S(=O)(=O)[O-])c5F)c5nc(c(-c6cccc(S(=O)(=O)[O-])c6F)c6ccc3[nH]6)C=C5)C=C4)cc2)ccc1S(=O)(=O)[O-]
REMARK SMILES IDX 14 1 13 2 12 3 10 4 11 5 9 7 8 8 6 9 5 10 7 12 4 13 1 14
REMARK SMILES IDX 2 15 3 16 85 17 84 18 83 19 86 20 87 21 88 22 89 23 15 24
REMARK SMILES IDX 16 25 17 26 18 27 19 29 20 30 21 31 82 32 22 33 81 34 23 35
REMARK SMILES IDX 24 36 25 37 75 38 26 39 80 40 74 41 76 42 27 43 79 44 73 45
REMARK SMILES IDX 72 46 28 48 60 49 40 50 59 51 41 52 44 53 58 54 77 55 42 56
REMARK SMILES IDX 43 57 57 59 78 60 45 61 29 62 30 63 38 64 31 65 33 66 39 67
REMARK SMILES IDX 32 68 34 69 35 70 36 71 37 72 61 73 62 74 70 75 63 76 65 77
REMARK SMILES IDX 71 78 64 79 66 80 67 81 68 82 69 83 46 84 47 85 55 86 48 87
REMARK SMILES IDX 50 88 56 89 49 90 51 91 52 92 53 93 54 94
REMARK H PARENT 12 6 5 11 17 28 76 47 44 58
REMARK Flexibility Score: inf
ROOT
ATOM      1  C   UNL A   1      39.399  24.836  26.703  1.00  0.00     0.023 C 
ENDROOT
BRANCH   1   2
ATOM      2  C   UNL A   1      38.058  24.108  26.531  1.00  0.00     0.116 C 
BRANCH   2   3
ATOM      3  N   UNL A   1      38.091  22.956  25.643  1.00  0.00    -0.356 N 
ATOM      4  C   UNL A   1      37.096  22.312  24.979  1.00  0.00     0.220 C 
ATOM      5  O   UNL A   1      37.395  21.505  24.098  1.00  0.00    -0.275 OA
ATOM      6  H   UNL A   1      38.989  22.578  25.499  1.00  0.00     0.163 HD
BRANCH   4   7
ATOM      7  C   UNL A   1      35.647  22.582  25.300  1.00  0.00     0.110 C 
BRANCH   7   8
ATOM      8  C   UNL A   1      34.736  23.047  24.169  1.00  0.00     0.110 C 
BRANCH   8   9
ATOM      9  C   UNL A   1      33.257  23.236  24.441  1.00  0.00     0.224 C 
ATOM     10  N   UNL A   1      32.375  22.216  24.635  1.00  0.00    -0.326 N 
ATOM     11  H   UNL A   1      31.481  22.518  24.911  1.00  0.00     0.169 HD
ATOM     12  O   UNL A   1      32.811  24.388  24.519  1.00  0.00    -0.275 OA
BRANCH  10  13
ATOM     13  C   UNL A   1      32.485  20.822  24.519  1.00  0.00     0.041 A 
ATOM     14  C   UNL A   1      32.338  18.192  21.824  1.00  0.00     0.046 C 
ATOM     15  C   UNL A   1      32.512  18.741  23.210  1.00  0.00    -0.032 A 
ATOM     16  C   UNL A   1      32.212  20.115  23.351  1.00  0.00     0.030 A 
ATOM     17  C   UNL A   1      33.067  18.073  24.311  1.00  0.00     0.057 A 
ATOM     18  C   UNL A   1      33.233  18.757  25.529  1.00  0.00     0.021 A 
ATOM     19  C   UNL A   1      32.920  20.112  25.638  1.00  0.00     0.027 A 
BRANCH  17  20
ATOM     20  S   UNL A   1      33.623  16.382  24.316  1.00  0.00     0.124 S 
ATOM     21  O   UNL A   1      32.631  15.580  24.961  1.00  0.00    -0.237 OA
ATOM     22  O   UNL A   1      34.082  16.082  22.962  1.00  0.00    -0.237 OA
ATOM     23  O   UNL A   1      34.944  16.279  25.229  1.00  0.00    -0.744 OA
ENDBRANCH  17  20
ENDBRANCH  10  13
ENDBRANCH   8   9
ENDBRANCH   7   8
ENDBRANCH   4   7
ENDBRANCH   2   3
ENDBRANCH   1   2
BRANCH   1  24
ATOM     24  C   UNL A   1      39.961  24.882  28.120  1.00  0.00     0.023 C 
BRANCH  24  25
ATOM     25  C   UNL A   1      40.001  26.269  28.728  1.00  0.00     0.116 C 
BRANCH  25  26
ATOM     26  N   UNL A   1      38.867  27.102  28.354  1.00  0.00    -0.352 N 
ATOM     27  C   UNL A   1      38.835  28.472  28.138  1.00  0.00     0.251 C 
ATOM     28  H   UNL A   1      38.010  26.631  28.239  1.00  0.00     0.163 HD
ATOM     29  O   UNL A   1      37.759  29.047  28.028  1.00  0.00    -0.269 OA
BRANCH  27  30
ATOM     30  C   UNL A   1      40.119  29.171  27.899  1.00  0.00     0.039 A 
ATOM     31  C   UNL A   1      40.744  28.928  26.672  1.00  0.00     0.014 A 
ATOM     32  C   UNL A   1      40.837  29.689  28.971  1.00  0.00     0.014 A 
ATOM     33  C   UNL A   1      42.133  28.899  26.617  1.00  0.00     0.010 A 
ATOM     34  C   UNL A   1      42.207  29.560  28.951  1.00  0.00     0.010 A 
ATOM     35  C   UNL A   1      42.842  29.080  27.800  1.00  0.00    -0.014 A 
BRANCH  35  36
ATOM     36  C   UNL A   1      44.271  28.874  27.945  1.00  0.00     0.031 A 
ATOM     37  C   UNL A   1      45.167  29.951  27.482  1.00  0.00     0.074 A 
ATOM     38  C   UNL A   1      44.741  27.807  28.631  1.00  0.00     0.049 A 
ATOM     39  N   UNL A   1      46.444  29.845  27.385  1.00  0.00    -0.248 NA
ATOM     40  C   UNL A   1      44.659  31.253  27.067  1.00  0.00     0.031 C 
ATOM     41  C   UNL A   1      46.094  27.620  29.147  1.00  0.00     0.029 A 
ATOM     42  N   UNL A   1      44.142  26.558  28.839  1.00  0.00    -0.354 N 
ATOM     43  C   UNL A   1      46.953  31.102  27.139  1.00  0.00     0.074 A 
ATOM     44  C   UNL A   1      45.797  31.923  26.877  1.00  0.00     0.031 C 
ATOM     45  C   UNL A   1      46.318  26.306  29.304  1.00  0.00     0.029 A 
ATOM     46  C   UNL A   1      45.188  25.621  28.704  1.00  0.00     0.049 A 
ATOM     47  H   UNL A   1      43.196  26.374  29.037  1.00  0.00     0.167 HD
ATOM     48  C   UNL A   1      48.291  31.299  27.307  1.00  0.00     0.034 A 
ATOM     49  C   UNL A   1      45.272  24.734  27.662  1.00  0.00     0.034 A 
ATOM     50  C   UNL A   1      48.979  30.009  27.498  1.00  0.00     0.049 A 
ATOM     51  C   UNL A   1      46.537  24.896  26.812  1.00  0.00     0.074 A 
ATOM     52  C   UNL A   1      49.410  29.273  28.589  1.00  0.00     0.029 A 
ATOM     53  N   UNL A   1      49.012  29.141  26.421  1.00  0.00    -0.354 N 
ATOM     54  N   UNL A   1      47.484  25.767  27.043  1.00  0.00    -0.248 NA
ATOM     55  C   UNL A   1      46.774  24.148  25.574  1.00  0.00     0.031 C 
ATOM     56  C   UNL A   1      49.617  27.923  28.155  1.00  0.00     0.029 A 
ATOM     57  C   UNL A   1      49.347  27.851  26.798  1.00  0.00     0.049 A 
ATOM     58  H   UNL A   1      48.821  29.408  25.494  1.00  0.00     0.167 HD
ATOM     59  C   UNL A   1      48.318  25.836  25.955  1.00  0.00     0.074 A 
ATOM     60  C   UNL A   1      47.857  24.772  25.079  1.00  0.00     0.031 C 
ATOM     61  C   UNL A   1      49.279  26.797  25.791  1.00  0.00     0.034 A 
BRANCH  48  62
ATOM     62  C   UNL A   1      48.980  32.642  27.493  1.00  0.00     0.023 A 
ATOM     63  C   UNL A   1      48.618  33.391  28.635  1.00  0.00     0.012 A 
ATOM     64  C   UNL A   1      49.895  33.271  26.615  1.00  0.00     0.148 A 
ATOM     65  C   UNL A   1      49.066  34.700  28.855  1.00  0.00     0.002 A 
ATOM     66  C   UNL A   1      50.306  34.595  26.803  1.00  0.00     0.091 A 
ATOM     67  F   UNL A   1      50.441  32.589  25.611  1.00  0.00    -0.205 F 
ATOM     68  C   UNL A   1      49.891  35.313  27.924  1.00  0.00     0.022 A 
BRANCH  66  69
ATOM     69  S   UNL A   1      51.330  35.472  25.603  1.00  0.00     0.127 S 
ATOM     70  O   UNL A   1      51.023  36.871  25.907  1.00  0.00    -0.237 OA
ATOM     71  O   UNL A   1      52.679  35.052  25.976  1.00  0.00    -0.237 OA
ATOM     72  O   UNL A   1      50.885  35.038  24.284  1.00  0.00    -0.744 OA
ENDBRANCH  66  69
ENDBRANCH  48  62
BRANCH  49  73
ATOM     73  C   UNL A   1      43.930  24.328  27.133  1.00  0.00     0.023 A 
ATOM     74  C   UNL A   1      43.537  24.888  25.892  1.00  0.00     0.012 A 
ATOM     75  C   UNL A   1      43.270  23.176  27.589  1.00  0.00     0.148 A 
ATOM     76  C   UNL A   1      42.669  24.202  25.042  1.00  0.00     0.002 A 
ATOM     77  C   UNL A   1      42.373  22.519  26.752  1.00  0.00     0.091 A 
ATOM     78  F   UNL A   1      43.564  22.694  28.803  1.00  0.00    -0.205 F 
ATOM     79  C   UNL A   1      42.122  22.992  25.456  1.00  0.00     0.022 A 
BRANCH  77  80
ATOM     80  S   UNL A   1      41.584  20.991  27.271  1.00  0.00     0.127 S 
ATOM     81  O   UNL A   1      42.741  20.152  27.563  1.00  0.00    -0.237 OA
ATOM     82  O   UNL A   1      40.817  21.411  28.443  1.00  0.00    -0.237 OA
ATOM     83  O   UNL A   1      40.766  20.598  26.133  1.00  0.00    -0.744 OA
ENDBRANCH  77  80
ENDBRANCH  49  73
BRANCH  61  84
ATOM     84  C   UNL A   1      50.241  26.795  24.618  1.00  0.00     0.023 A 
ATOM     85  C   UNL A   1      51.586  26.419  24.813  1.00  0.00     0.012 A 
ATOM     86  C   UNL A   1      49.895  27.302  23.341  1.00  0.00     0.148 A 
ATOM     87  C   UNL A   1      52.527  26.486  23.779  1.00  0.00     0.002 A 
ATOM     88  C   UNL A   1      50.861  27.471  22.351  1.00  0.00     0.091 A 
ATOM     89  F   UNL A   1      48.617  27.569  23.052  1.00  0.00    -0.205 F 
ATOM     90  C   UNL A   1      52.170  27.033  22.556  1.00  0.00     0.022 A 
BRANCH  88  91
ATOM     91  S   UNL A   1      50.523  28.381  20.835  1.00  0.00     0.127 S 
ATOM     92  O   UNL A   1      51.863  28.507  20.257  1.00  0.00    -0.237 OA
ATOM     93  O   UNL A   1      49.636  27.464  20.125  1.00  0.00    -0.237 OA
ATOM     94  O   UNL A   1      49.934  29.644  21.256  1.00  0.00    -0.744 OA
ENDBRANCH  88  91
ENDBRANCH  61  84
ENDBRANCH  35  36
ENDBRANCH  27  30
ENDBRANCH  25  26
ENDBRANCH  24  25
ENDBRANCH   1  24
TORSDOF 18
ENDMDL
MODEL 2
REMARK VINA RESULT:     -10.4      6.485     10.761
REMARK SMILES Cc1cc(NC(=O)CCC(=O)NCCCCNC(=O)c2ccc(-c3c4nc(c(-c5cccc(S(=O)(=O)[O-])c5F)c5ccc([nH]5)c(-c5cccc(S(=O)(=O)[O-])c5F)c5nc(c(-c6cccc(S(=O)(=O)[O-])c6F)c6ccc3[nH]6)C=C5)C=C4)cc2)ccc1S(=O)(=O)[O-]
REMARK SMILES IDX 14 1 13 2 12 3 10 4 11 5 9 7 8 8 6 9 5 10 7 12 4 13 1 14
REMARK SMILES IDX 2 15 3 16 85 17 84 18 83 19 86 20 87 21 88 22 89 23 15 24
REMARK SMILES IDX 16 25 17 26 18 27 19 29 20 30 21 31 82 32 22 33 81 34 23 35
REMARK SMILES IDX 24 36 25 37 75 38 26 39 80 40 74 41 76 42 27 43 79 44 73 45
REMARK SMILES IDX 72 46 28 48 60 49 40 50 59 51 41 52 44 53 58 54 77 55 42 56
REMARK SMILES IDX 43 57 57 59 78 60 45 61 29 62 30 63 38 64 31 65 33 66 39 67
REMARK SMILES IDX 32 68 34 69 35 70 36 71 37 72 61 73 62 74 70 75 63 76 65 77
REMARK SMILES IDX 71 78 64 79 66 80 67 81 68 82 69 83 46 84 47 85 55 86 48 87
REMARK SMILES IDX 50 88 56 89 49 90 51 91 52 92 53 93 54 94
REMARK H PARENT 12 6 5 11 17 28 76 47 44 58
REMARK Flexibility Score: inf
ROOT
ATOM      1  C   UNL A   1      33.844  29.464  27.153  1.00  0.00     0.023 C 
ENDROOT
BRANCH   1   2
ATOM      2  C   UNL A   1      33.014  30.087  26.022  1.00  0.00     0.116 C 
BRANCH   2   3
ATOM      3  N   UNL A   1      33.232  29.509  24.706  1.00  0.00    -0.356 N 
ATOM      4  C   UNL A   1      32.370  28.917  23.837  1.00  0.00     0.220 C 
ATOM      5  O   UNL A   1      32.740  28.715  22.679  1.00  0.00    -0.275 OA
ATOM      6  H   UNL A   1      34.164  29.553  24.389  1.00  0.00     0.163 HD
BRANCH   4   7
ATOM      7  C   UNL A   1      30.980  28.523  24.270  1.00  0.00     0.110 C 
BRANCH   7   8
ATOM      8  C   UNL A   1      30.153  27.656  23.325  1.00  0.00     0.110 C 
BRANCH   8   9
ATOM      9  C   UNL A   1      29.474  26.414  23.867  1.00  0.00     0.224 C 
ATOM     10  N   UNL A   1      30.136  25.324  24.346  1.00  0.00    -0.326 N 
ATOM     11  H   UNL A   1      29.544  24.657  24.762  1.00  0.00     0.169 HD
ATOM     12  O   UNL A   1      28.238  26.383  23.903  1.00  0.00    -0.275 OA
BRANCH  10  13
ATOM     13  C   UNL A   1      31.491  24.960  24.368  1.00  0.00     0.041 A 
ATOM     14  C   UNL A   1      33.962  23.416  26.756  1.00  0.00     0.046 C 
ATOM     15  C   UNL A   1      33.471  24.000  25.464  1.00  0.00    -0.032 A 
ATOM     16  C   UNL A   1      32.165  24.539  25.510  1.00  0.00     0.030 A 
ATOM     17  C   UNL A   1      34.109  23.931  24.218  1.00  0.00     0.057 A 
ATOM     18  C   UNL A   1      33.476  24.464  23.081  1.00  0.00     0.021 A 
ATOM     19  C   UNL A   1      32.189  24.996  23.161  1.00  0.00     0.027 A 
BRANCH  17  20
ATOM     20  S   UNL A   1      35.698  23.189  23.915  1.00  0.00     0.124 S 
ATOM     21  O   UNL A   1      35.919  23.145  22.503  1.00  0.00    -0.237 OA
ATOM     22  O   UNL A   1      36.649  23.841  24.813  1.00  0.00    -0.237 OA
ATOM     23  O   UNL A   1      35.652  21.658  24.408  1.00  0.00    -0.744 OA
ENDBRANCH  17  20
ENDBRANCH  10  13
ENDBRANCH   8   9
ENDBRANCH   7   8
ENDBRANCH   4   7
ENDBRANCH   2   3
ENDBRANCH   1   2
BRANCH   1  24
ATOM     24  C   UNL A   1      35.170  30.148  27.468  1.00  0.00     0.023 C 
BRANCH  24  25
ATOM     25  C   UNL A   1      35.266  30.700  28.876  1.00  0.00     0.116 C 
BRANCH  25  26
ATOM     26  N   UNL A   1      34.460  31.893  29.090  1.00  0.00    -0.352 N 
ATOM     27  C   UNL A   1      34.704  32.960  29.941  1.00  0.00     0.251 C 
ATOM     28  H   UNL A   1      33.632  31.951  28.559  1.00  0.00     0.163 HD
ATOM     29  O   UNL A   1      33.826  33.788  30.151  1.00  0.00    -0.269 OA
BRANCH  27  30
ATOM     30  C   UNL A   1      36.083  33.141  30.455  1.00  0.00     0.039 A 
ATOM     31  C   UNL A   1      37.043  33.567  29.532  1.00  0.00     0.014 A 
ATOM     32  C   UNL A   1      36.463  32.537  31.648  1.00  0.00     0.014 A 
ATOM     33  C   UNL A   1      38.348  33.103  29.655  1.00  0.00     0.010 A 
ATOM     34  C   UNL A   1      37.724  31.988  31.718  1.00  0.00     0.010 A 
ATOM     35  C   UNL A   1      38.632  32.202  30.676  1.00  0.00    -0.014 A 
BRANCH  35  36
ATOM     36  C   UNL A   1      39.881  31.475  30.809  1.00  0.00     0.031 A 
ATOM     37  C   UNL A   1      39.976  30.157  30.154  1.00  0.00     0.074 A 
ATOM     38  C   UNL A   1      40.960  32.068  31.370  1.00  0.00     0.049 A 
ATOM     39  N   UNL A   1      40.943  29.327  30.324  1.00  0.00    -0.248 NA
ATOM     40  C   UNL A   1      38.942  29.667  29.250  1.00  0.00     0.031 C 
ATOM     41  C   UNL A   1      42.348  31.622  31.291  1.00  0.00     0.029 A 
ATOM     42  N   UNL A   1      41.008  33.103  32.312  1.00  0.00    -0.354 N 
ATOM     43  C   UNL A   1      40.801  28.320  29.393  1.00  0.00     0.074 A 
ATOM     44  C   UNL A   1      39.504  28.542  28.804  1.00  0.00     0.031 C 
ATOM     45  C   UNL A   1      43.025  32.129  32.333  1.00  0.00     0.029 A 
ATOM     46  C   UNL A   1      42.038  32.741  33.205  1.00  0.00     0.049 A 
ATOM     47  H   UNL A   1      40.444  33.909  32.344  1.00  0.00     0.167 HD
ATOM     48  C   UNL A   1      41.865  27.497  29.168  1.00  0.00     0.034 A 
ATOM     49  C   UNL A   1      41.811  32.379  34.508  1.00  0.00     0.034 A 
ATOM     50  C   UNL A   1      42.910  27.722  30.184  1.00  0.00     0.049 A 
ATOM     51  C   UNL A   1      42.268  30.956  34.843  1.00  0.00     0.074 A 
ATOM     52  C   UNL A   1      44.077  28.465  30.250  1.00  0.00     0.029 A 
ATOM     53  N   UNL A   1      42.619  27.362  31.487  1.00  0.00    -0.354 N 
ATOM     54  N   UNL A   1      42.851  30.142  34.001  1.00  0.00    -0.248 NA
ATOM     55  C   UNL A   1      42.007  30.310  36.133  1.00  0.00     0.031 C 
ATOM     56  C   UNL A   1      44.426  28.613  31.632  1.00  0.00     0.029 A 
ATOM     57  C   UNL A   1      43.493  27.931  32.397  1.00  0.00     0.049 A 
ATOM     58  H   UNL A   1      41.876  26.769  31.740  1.00  0.00     0.167 HD
ATOM     59  C   UNL A   1      42.873  28.876  34.531  1.00  0.00     0.074 A 
ATOM     60  C   UNL A   1      42.373  29.041  35.885  1.00  0.00     0.031 C 
ATOM     61  C   UNL A   1      43.221  27.759  33.820  1.00  0.00     0.034 A 
BRANCH  48  62
ATOM     62  C   UNL A   1      42.073  26.622  27.943  1.00  0.00     0.023 A 
ATOM     63  C   UNL A   1      41.775  27.201  26.688  1.00  0.00     0.012 A 
ATOM     64  C   UNL A   1      42.465  25.262  27.911  1.00  0.00     0.148 A 
ATOM     65  C   UNL A   1      41.787  26.466  25.495  1.00  0.00     0.002 A 
ATOM     66  C   UNL A   1      42.430  24.512  26.730  1.00  0.00     0.091 A 
ATOM     67  F   UNL A   1      42.941  24.673  29.005  1.00  0.00    -0.205 F 
ATOM     68  C   UNL A   1      42.088  25.113  25.519  1.00  0.00     0.022 A 
BRANCH  66  69
ATOM     69  S   UNL A   1      42.753  22.737  26.699  1.00  0.00     0.127 S 
ATOM     70  O   UNL A   1      41.990  22.309  25.525  1.00  0.00    -0.237 OA
ATOM     71  O   UNL A   1      44.204  22.686  26.531  1.00  0.00    -0.237 OA
ATOM     72  O   UNL A   1      42.253  22.202  27.960  1.00  0.00    -0.744 OA
ENDBRANCH  66  69
ENDBRANCH  48  62
BRANCH  49  73
ATOM     73  C   UNL A   1      40.612  33.056  35.100  1.00  0.00     0.023 A 
ATOM     74  C   UNL A   1      39.371  32.383  34.973  1.00  0.00     0.012 A 
ATOM     75  C   UNL A   1      40.733  34.066  36.067  1.00  0.00     0.148 A 
ATOM     76  C   UNL A   1      38.360  32.564  35.918  1.00  0.00     0.002 A 
ATOM     77  C   UNL A   1      39.703  34.271  36.981  1.00  0.00     0.091 A 
ATOM     78  F   UNL A   1      41.866  34.775  36.131  1.00  0.00    -0.205 F 
ATOM     79  C   UNL A   1      38.547  33.477  36.950  1.00  0.00     0.022 A 
BRANCH  77  80
ATOM     80  S   UNL A   1      39.866  35.491  38.289  1.00  0.00     0.127 S 
ATOM     81  O   UNL A   1      38.726  35.160  39.138  1.00  0.00    -0.237 OA
ATOM     82  O   UNL A   1      41.173  35.170  38.862  1.00  0.00    -0.237 OA
ATOM     83  O   UNL A   1      39.816  36.772  37.601  1.00  0.00    -0.744 OA
ENDBRANCH  77  80
ENDBRANCH  49  73
BRANCH  61  84
ATOM     84  C   UNL A   1      43.318  26.385  34.457  1.00  0.00     0.023 A 
ATOM     85  C   UNL A   1      42.178  25.800  35.046  1.00  0.00     0.012 A 
ATOM     86  C   UNL A   1      44.549  25.704  34.628  1.00  0.00     0.148 A 
ATOM     87  C   UNL A   1      42.243  24.576  35.720  1.00  0.00     0.002 A 
ATOM     88  C   UNL A   1      44.626  24.545  35.396  1.00  0.00     0.091 A 
ATOM     89  F   UNL A   1      45.647  26.141  34.002  1.00  0.00    -0.205 F 
ATOM     90  C   UNL A   1      43.470  23.960  35.915  1.00  0.00     0.022 A 
BRANCH  88  91
ATOM     91  S   UNL A   1      46.203  23.825  35.881  1.00  0.00     0.127 S 
ATOM     92  O   UNL A   1      46.792  24.904  36.679  1.00  0.00    -0.237 OA
ATOM     93  O   UNL A   1      45.778  22.659  36.651  1.00  0.00    -0.237 OA
ATOM     94  O   UNL A   1      46.910  23.549  34.639  1.00  0.00    -0.744 OA
ENDBRANCH  88  91
ENDBRANCH  61  84
ENDBRANCH  35  36
ENDBRANCH  27  30
ENDBRANCH  25  26
ENDBRANCH  24  25
ENDBRANCH   1  24
TORSDOF 18
ENDMDL
MODEL 3
REMARK VINA RESULT:     -10.4      5.412      9.760
REMARK SMILES Cc1cc(NC(=O)CCC(=O)NCCCCNC(=O)c2ccc(-c3c4nc(c(-c5cccc(S(=O)(=O)[O-])c5F)c5ccc([nH]5)c(-c5cccc(S(=O)(=O)[O-])c5F)c5nc(c(-c6cccc(S(=O)(=O)[O-])c6F)c6ccc3[nH]6)C=C5)C=C4)cc2)ccc1S(=O)(=O)[O-]
REMARK SMILES IDX 14 1 13 2 12 3 10 4 11 5 9 7 8 8 6 9 5 10 7 12 4 13 1 14
REMARK SMILES IDX 2 15 3 16 85 17 84 18 83 19 86 20 87 21 88 22 89 23 15 24
REMARK SMILES IDX 16 25 17 26 18 27 19 29 20 30 21 31 82 32 22 33 81 34 23 35
REMARK SMILES IDX 24 36 25 37 75 38 26 39 80 40 74 41 76 42 27 43 79 44 73 45
REMARK SMILES IDX 72 46 28 48 60 49 40 50 59 51 41 52 44 53 58 54 77 55 42 56
REMARK SMILES IDX 43 57 57 59 78 60 45 61 29 62 30 63 38 64 31 65 33 66 39 67
REMARK SMILES IDX 32 68 34 69 35 70 36 71 37 72 61 73 62 74 70 75 63 76 65 77
REMARK SMILES IDX 71 78 64 79 66 80 67 81 68 82 69 83 46 84 47 85 55 86 48 87
REMARK SMILES IDX 50 88 56 89 49 90 51 91 52 92 53 93 54 94
REMARK H PARENT 12 6 5 11 17 28 76 47 44 58
REMARK Flexibility Score: inf
ROOT
ATOM      1  C   UNL A   1      44.528  25.337  24.995  1.00  0.00     0.023 C 
ENDROOT
BRANCH   1   2
ATOM      2  C   UNL A   1      44.709  26.781  25.482  1.00  0.00     0.116 C 
BRANCH   2   3
ATOM      3  N   UNL A   1      43.512  27.606  25.426  1.00  0.00    -0.356 N 
ATOM      4  C   UNL A   1      43.137  28.686  26.161  1.00  0.00     0.220 C 
ATOM      5  O   UNL A   1      42.185  29.365  25.774  1.00  0.00    -0.275 OA
ATOM      6  H   UNL A   1      42.862  27.335  24.738  1.00  0.00     0.163 HD
BRANCH   4   7
ATOM      7  C   UNL A   1      43.875  29.061  27.421  1.00  0.00     0.110 C 
BRANCH   7   8
ATOM      8  C   UNL A   1      43.053  29.374  28.668  1.00  0.00     0.110 C 
BRANCH   8   9
ATOM      9  C   UNL A   1      43.628  30.303  29.717  1.00  0.00     0.224 C 
ATOM     10  N   UNL A   1      42.927  30.793  30.778  1.00  0.00    -0.326 N 
ATOM     11  H   UNL A   1      43.483  31.288  31.421  1.00  0.00     0.169 HD
ATOM     12  O   UNL A   1      44.819  30.630  29.631  1.00  0.00    -0.275 OA
BRANCH  10  13
ATOM     13  C   UNL A   1      41.573  30.733  31.139  1.00  0.00     0.041 A 
ATOM     14  C   UNL A   1      38.241  31.873  29.797  1.00  0.00     0.046 C 
ATOM     15  C   UNL A   1      39.191  31.194  30.741  1.00  0.00    -0.032 A 
ATOM     16  C   UNL A   1      40.561  31.421  30.476  1.00  0.00     0.030 A 
ATOM     17  C   UNL A   1      38.860  30.268  31.740  1.00  0.00     0.057 A 
ATOM     18  C   UNL A   1      39.881  29.661  32.492  1.00  0.00     0.021 A 
ATOM     19  C   UNL A   1      41.224  29.911  32.210  1.00  0.00     0.027 A 
BRANCH  17  20
ATOM     20  S   UNL A   1      37.209  29.749  32.156  1.00  0.00     0.124 S 
ATOM     21  O   UNL A   1      36.580  30.792  32.904  1.00  0.00    -0.237 OA
ATOM     22  O   UNL A   1      36.609  29.221  30.933  1.00  0.00    -0.237 OA
ATOM     23  O   UNL A   1      37.304  28.484  33.146  1.00  0.00    -0.744 OA
ENDBRANCH  17  20
ENDBRANCH  10  13
ENDBRANCH   8   9
ENDBRANCH   7   8
ENDBRANCH   4   7
ENDBRANCH   2   3
ENDBRANCH   1   2
BRANCH   1  24
ATOM     24  C   UNL A   1      43.110  24.780  25.057  1.00  0.00     0.023 C 
BRANCH  24  25
ATOM     25  C   UNL A   1      43.022  23.357  25.569  1.00  0.00     0.116 C 
BRANCH  25  26
ATOM     26  N   UNL A   1      41.677  22.959  25.960  1.00  0.00    -0.352 N 
ATOM     27  C   UNL A   1      41.128  22.901  27.231  1.00  0.00     0.251 C 
ATOM     28  H   UNL A   1      41.079  22.697  25.223  1.00  0.00     0.163 HD
ATOM     29  O   UNL A   1      40.047  22.353  27.405  1.00  0.00    -0.269 OA
BRANCH  27  30
ATOM     30  C   UNL A   1      41.808  23.643  28.319  1.00  0.00     0.039 A 
ATOM     31  C   UNL A   1      41.758  25.038  28.251  1.00  0.00     0.014 A 
ATOM     32  C   UNL A   1      42.763  23.004  29.102  1.00  0.00     0.014 A 
ATOM     33  C   UNL A   1      42.847  25.775  28.701  1.00  0.00     0.010 A 
ATOM     34  C   UNL A   1      43.889  23.716  29.453  1.00  0.00     0.010 A 
ATOM     35  C   UNL A   1      43.960  25.084  29.170  1.00  0.00    -0.014 A 
BRANCH  35  36
ATOM     36  C   UNL A   1      45.240  25.695  29.477  1.00  0.00     0.031 A 
ATOM     37  C   UNL A   1      46.409  25.265  28.686  1.00  0.00     0.074 A 
ATOM     38  C   UNL A   1      45.311  26.735  30.339  1.00  0.00     0.049 A 
ATOM     39  N   UNL A   1      47.625  25.583  28.953  1.00  0.00    -0.248 NA
ATOM     40  C   UNL A   1      46.276  24.404  27.517  1.00  0.00     0.031 C 
ATOM     41  C   UNL A   1      46.427  27.661  30.510  1.00  0.00     0.029 A 
ATOM     42  N   UNL A   1      44.457  27.062  31.399  1.00  0.00    -0.354 N 
ATOM     43  C   UNL A   1      48.405  25.191  27.886  1.00  0.00     0.074 A 
ATOM     44  C   UNL A   1      47.529  24.400  27.059  1.00  0.00     0.031 C 
ATOM     45  C   UNL A   1      46.355  28.203  31.736  1.00  0.00     0.029 A 
ATOM     46  C   UNL A   1      45.309  27.485  32.442  1.00  0.00     0.049 A 
ATOM     47  H   UNL A   1      43.474  27.009  31.414  1.00  0.00     0.167 HD
ATOM     48  C   UNL A   1      49.669  25.695  27.793  1.00  0.00     0.034 A 
ATOM     49  C   UNL A   1      45.489  26.774  33.600  1.00  0.00     0.034 A 
ATOM     50  C   UNL A   1      50.032  26.400  29.036  1.00  0.00     0.049 A 
ATOM     51  C   UNL A   1      46.937  26.327  33.831  1.00  0.00     0.074 A 
ATOM     52  C   UNL A   1      50.024  27.718  29.461  1.00  0.00     0.029 A 
ATOM     53  N   UNL A   1      50.177  25.637  30.181  1.00  0.00    -0.354 N 
ATOM     54  N   UNL A   1      47.939  26.603  33.038  1.00  0.00    -0.248 NA
ATOM     55  C   UNL A   1      47.339  25.445  34.931  1.00  0.00     0.031 C 
ATOM     56  C   UNL A   1      50.079  27.720  30.892  1.00  0.00     0.029 A 
ATOM     57  C   UNL A   1      50.158  26.408  31.331  1.00  0.00     0.049 A 
ATOM     58  H   UNL A   1      50.282  24.659  30.179  1.00  0.00     0.167 HD
ATOM     59  C   UNL A   1      49.021  25.832  33.382  1.00  0.00     0.074 A 
ATOM     60  C   UNL A   1      48.610  25.156  34.600  1.00  0.00     0.031 C 
ATOM     61  C   UNL A   1      50.154  25.726  32.621  1.00  0.00     0.034 A 
BRANCH  48  62
ATOM     62  C   UNL A   1      50.525  25.734  26.537  1.00  0.00     0.023 A 
ATOM     63  C   UNL A   1      51.815  25.166  26.627  1.00  0.00     0.012 A 
ATOM     64  C   UNL A   1      50.210  26.341  25.297  1.00  0.00     0.148 A 
ATOM     65  C   UNL A   1      52.756  25.259  25.594  1.00  0.00     0.002 A 
ATOM     66  C   UNL A   1      51.162  26.481  24.282  1.00  0.00     0.091 A 
ATOM     67  F   UNL A   1      48.968  26.743  25.042  1.00  0.00    -0.205 F 
ATOM     68  C   UNL A   1      52.439  25.941  24.429  1.00  0.00     0.022 A 
BRANCH  66  69
ATOM     69  S   UNL A   1      50.835  27.406  22.767  1.00  0.00     0.127 S 
ATOM     70  O   UNL A   1      49.612  26.766  22.278  1.00  0.00    -0.237 OA
ATOM     71  O   UNL A   1      50.649  28.767  23.265  1.00  0.00    -0.237 OA
ATOM     72  O   UNL A   1      51.994  27.211  21.904  1.00  0.00    -0.744 OA
ENDBRANCH  66  69
ENDBRANCH  48  62
BRANCH  49  73
ATOM     73  C   UNL A   1      44.277  25.989  33.997  1.00  0.00     0.023 A 
ATOM     74  C   UNL A   1      44.246  24.624  33.615  1.00  0.00     0.012 A 
ATOM     75  C   UNL A   1      43.415  26.421  35.018  1.00  0.00     0.148 A 
ATOM     76  C   UNL A   1      43.538  23.688  34.369  1.00  0.00     0.002 A 
ATOM     77  C   UNL A   1      42.678  25.485  35.739  1.00  0.00     0.091 A 
ATOM     78  F   UNL A   1      43.364  27.724  35.319  1.00  0.00    -0.205 F 
ATOM     79  C   UNL A   1      42.790  24.115  35.461  1.00  0.00     0.022 A 
BRANCH  77  80
ATOM     80  S   UNL A   1      41.639  25.997  37.112  1.00  0.00     0.127 S 
ATOM     81  O   UNL A   1      42.638  26.337  38.120  1.00  0.00    -0.237 OA
ATOM     82  O   UNL A   1      40.914  27.138  36.554  1.00  0.00    -0.237 OA
ATOM     83  O   UNL A   1      40.803  24.837  37.388  1.00  0.00    -0.744 OA
ENDBRANCH  77  80
ENDBRANCH  49  73
BRANCH  61  84
ATOM     84  C   UNL A   1      51.367  24.933  33.071  1.00  0.00     0.023 A 
ATOM     85  C   UNL A   1      52.577  25.599  33.353  1.00  0.00     0.012 A 
ATOM     86  C   UNL A   1      51.396  23.516  33.082  1.00  0.00     0.148 A 
ATOM     87  C   UNL A   1      53.742  24.900  33.687  1.00  0.00     0.002 A 
ATOM     88  C   UNL A   1      52.585  22.826  33.304  1.00  0.00     0.091 A 
ATOM     89  F   UNL A   1      50.262  22.823  32.936  1.00  0.00    -0.205 F 
ATOM     90  C   UNL A   1      53.752  23.514  33.640  1.00  0.00     0.022 A 
BRANCH  88  91
ATOM     91  S   UNL A   1      52.723  21.052  33.032  1.00  0.00     0.127 S 
ATOM     92  O   UNL A   1      53.111  20.575  34.362  1.00  0.00    -0.237 OA
ATOM     93  O   UNL A   1      51.362  20.702  32.633  1.00  0.00    -0.237 OA
ATOM     94  O   UNL A   1      53.751  20.887  32.016  1.00  0.00    -0.744 OA
ENDBRANCH  88  91
ENDBRANCH  61  84
ENDBRANCH  35  36
ENDBRANCH  27  30
ENDBRANCH  25  26
ENDBRANCH  24  25
ENDBRANCH   1  24
TORSDOF 18
ENDMDL
