MODEL 1
REMARK VINA RESULT:     -10.9      0.000      0.000
REMARK SMILES CN(/C=C\C(=O)NCCCCNC(=O)c1ccc(-c2c3nc(c(-c4cccc(S(=O)(=O)[O-])c4F)c4ccc([nH]4)c(-c4cccc(S(=O)(=O)[O-])c4F)c4nc(c(-c5cccc(S(=O)(=O)[O-])c5F)c5ccc2[nH]5)C=C4)C=C3)cc1)C[C@@H]1CCCO1
REMARK SMILES IDX 9 1 8 2 7 3 5 4 6 5 4 7 3 8 2 9 1 10 78 11 79 12 80 13 83 14
REMARK SMILES IDX 81 15 82 16 10 17 11 18 12 19 13 20 14 22 15 23 16 24 77 25
REMARK SMILES IDX 17 26 76 27 18 28 19 29 20 30 70 31 21 32 75 33 69 34 71 35
REMARK SMILES IDX 22 36 74 37 68 38 67 39 23 41 55 42 35 43 54 44 36 45 39 46
REMARK SMILES IDX 53 47 72 48 37 49 38 50 52 52 73 53 40 54 24 55 25 56 33 57
REMARK SMILES IDX 26 58 28 59 34 60 27 61 29 62 30 63 31 64 32 65 56 66 57 67
REMARK SMILES IDX 65 68 58 69 60 70 66 71 59 72 61 73 62 74 63 75 64 76 41 77
REMARK SMILES IDX 42 78 50 79 43 80 45 81 51 82 44 83 46 84 47 85 48 86 49 87
REMARK H PARENT 7 6 12 21 71 40 39 51
REMARK Flexibility Score: inf
ROOT
ATOM      1  C   UNL A   1      36.130  23.332  23.516  1.00  0.00     0.023 C 
ENDROOT
BRANCH   1   2
ATOM      2  C   UNL A   1      34.631  23.611  23.517  1.00  0.00     0.116 C 
BRANCH   2   3
ATOM      3  N   UNL A   1      33.862  22.726  22.662  1.00  0.00    -0.353 N 
ATOM      4  C   UNL A   1      32.567  22.323  22.842  1.00  0.00     0.245 C 
ATOM      5  O   UNL A   1      32.005  21.601  22.023  1.00  0.00    -0.270 OA
ATOM      6  H   UNL A   1      34.323  22.375  21.865  1.00  0.00     0.163 HD
BRANCH   4   7
ATOM      7  C   UNL A   1      31.875  22.687  24.100  1.00  0.00     0.088 C 
ATOM      8  C   UNL A   1      31.910  22.010  25.256  1.00  0.00     0.086 C 
BRANCH   8   9
ATOM      9  N   UNL A   1      32.650  20.902  25.659  1.00  0.00    -0.378 N 
ATOM     10  C   UNL A   1      33.770  21.079  26.582  1.00  0.00     0.143 C 
BRANCH   9  11
ATOM     11  C   UNL A   1      32.369  19.568  25.070  1.00  0.00     0.147 C 
BRANCH  11  12
ATOM     12  C   UNL A   1      33.457  18.885  24.233  1.00  0.00     0.137 C 
ATOM     13  C   UNL A   1      32.848  17.854  23.289  1.00  0.00     0.036 C 
ATOM     14  O   UNL A   1      34.401  18.150  25.034  1.00  0.00    -0.376 OA
ATOM     15  C   UNL A   1      34.022  16.955  23.007  1.00  0.00     0.031 C 
ATOM     16  C   UNL A   1      34.739  16.940  24.340  1.00  0.00     0.160 C 
ENDBRANCH  11  12
ENDBRANCH   9  11
ENDBRANCH   8   9
ENDBRANCH   4   7
ENDBRANCH   2   3
ENDBRANCH   1   2
BRANCH   1  17
ATOM     17  C   UNL A   1      36.550  21.921  23.922  1.00  0.00     0.023 C 
BRANCH  17  18
ATOM     18  C   UNL A   1      37.004  21.745  25.368  1.00  0.00     0.116 C 
BRANCH  18  19
ATOM     19  N   UNL A   1      38.009  20.705  25.547  1.00  0.00    -0.352 N 
ATOM     20  C   UNL A   1      39.287  20.791  26.053  1.00  0.00     0.251 C 
ATOM     21  H   UNL A   1      37.733  19.804  25.262  1.00  0.00     0.163 HD
ATOM     22  O   UNL A   1      40.030  19.818  26.042  1.00  0.00    -0.269 OA
BRANCH  20  23
ATOM     23  C   UNL A   1      39.765  22.079  26.599  1.00  0.00     0.039 A 
ATOM     24  C   UNL A   1      40.760  22.079  27.579  1.00  0.00     0.014 A 
ATOM     25  C   UNL A   1      39.249  23.284  26.120  1.00  0.00     0.014 A 
ATOM     26  C   UNL A   1      41.305  23.294  28.006  1.00  0.00     0.010 A 
ATOM     27  C   UNL A   1      39.834  24.487  26.497  1.00  0.00     0.010 A 
ATOM     28  C   UNL A   1      40.877  24.504  27.434  1.00  0.00    -0.014 A 
BRANCH  28  29
ATOM     29  C   UNL A   1      41.544  25.794  27.744  1.00  0.00     0.031 A 
ATOM     30  C   UNL A   1      40.803  26.881  28.473  1.00  0.00     0.074 A 
ATOM     31  C   UNL A   1      42.774  26.032  27.248  1.00  0.00     0.049 A 
ATOM     32  N   UNL A   1      41.189  28.098  28.749  1.00  0.00    -0.248 NA
ATOM     33  C   UNL A   1      39.435  26.570  28.921  1.00  0.00     0.031 C 
ATOM     34  C   UNL A   1      43.555  25.095  26.435  1.00  0.00     0.029 A 
ATOM     35  N   UNL A   1      43.570  27.149  27.319  1.00  0.00    -0.354 N 
ATOM     36  C   UNL A   1      40.106  28.710  29.367  1.00  0.00     0.074 A 
ATOM     37  C   UNL A   1      39.034  27.739  29.398  1.00  0.00     0.031 C 
ATOM     38  C   UNL A   1      44.713  25.675  26.083  1.00  0.00     0.029 A 
ATOM     39  C   UNL A   1      44.750  27.030  26.622  1.00  0.00     0.049 A 
ATOM     40  H   UNL A   1      43.320  27.956  27.821  1.00  0.00     0.167 HD
ATOM     41  C   UNL A   1      40.021  29.958  29.888  1.00  0.00     0.034 A 
ATOM     42  C   UNL A   1      45.749  27.915  26.435  1.00  0.00     0.034 A 
ATOM     43  C   UNL A   1      41.107  30.900  29.902  1.00  0.00     0.049 A 
ATOM     44  C   UNL A   1      45.659  29.268  27.087  1.00  0.00     0.074 A 
ATOM     45  C   UNL A   1      41.155  32.149  30.495  1.00  0.00     0.029 A 
ATOM     46  N   UNL A   1      42.337  30.700  29.293  1.00  0.00    -0.354 N 
ATOM     47  N   UNL A   1      44.693  29.764  27.822  1.00  0.00    -0.248 NA
ATOM     48  C   UNL A   1      46.810  30.167  26.921  1.00  0.00     0.031 C 
ATOM     49  C   UNL A   1      42.410  32.709  30.236  1.00  0.00     0.029 A 
ATOM     50  C   UNL A   1      43.150  31.801  29.495  1.00  0.00     0.049 A 
ATOM     51  H   UNL A   1      42.593  29.892  28.791  1.00  0.00     0.167 HD
ATOM     52  C   UNL A   1      45.136  31.015  28.238  1.00  0.00     0.074 A 
ATOM     53  C   UNL A   1      46.463  31.192  27.687  1.00  0.00     0.031 C 
ATOM     54  C   UNL A   1      44.494  31.938  28.996  1.00  0.00     0.034 A 
BRANCH  41  55
ATOM     55  C   UNL A   1      38.728  30.352  30.553  1.00  0.00     0.023 A 
ATOM     56  C   UNL A   1      38.547  30.084  31.925  1.00  0.00     0.012 A 
ATOM     57  C   UNL A   1      37.721  31.037  29.844  1.00  0.00     0.148 A 
ATOM     58  C   UNL A   1      37.374  30.461  32.575  1.00  0.00     0.002 A 
ATOM     59  C   UNL A   1      36.570  31.446  30.510  1.00  0.00     0.091 A 
ATOM     60  F   UNL A   1      37.899  31.264  28.535  1.00  0.00    -0.205 F 
ATOM     61  C   UNL A   1      36.391  31.150  31.871  1.00  0.00     0.022 A 
BRANCH  59  62
ATOM     62  S   UNL A   1      35.279  32.405  29.708  1.00  0.00     0.127 S 
ATOM     63  O   UNL A   1      34.399  32.712  30.835  1.00  0.00    -0.237 OA
ATOM     64  O   UNL A   1      36.024  33.553  29.188  1.00  0.00    -0.237 OA
ATOM     65  O   UNL A   1      34.712  31.537  28.687  1.00  0.00    -0.744 OA
ENDBRANCH  59  62
ENDBRANCH  41  55
BRANCH  42  66
ATOM     66  C   UNL A   1      46.963  27.514  25.668  1.00  0.00     0.023 A 
ATOM     67  C   UNL A   1      47.961  26.756  26.311  1.00  0.00     0.012 A 
ATOM     68  C   UNL A   1      47.118  27.840  24.308  1.00  0.00     0.148 A 
ATOM     69  C   UNL A   1      49.105  26.356  25.622  1.00  0.00     0.002 A 
ATOM     70  C   UNL A   1      48.236  27.393  23.612  1.00  0.00     0.091 A 
ATOM     71  F   UNL A   1      46.162  28.571  23.715  1.00  0.00    -0.205 F 
ATOM     72  C   UNL A   1      49.239  26.666  24.271  1.00  0.00     0.022 A 
BRANCH  70  73
ATOM     73  S   UNL A   1      48.426  27.633  21.842  1.00  0.00     0.127 S 
ATOM     74  O   UNL A   1      49.579  28.527  21.783  1.00  0.00    -0.237 OA
ATOM     75  O   UNL A   1      48.678  26.270  21.375  1.00  0.00    -0.237 OA
ATOM     76  O   UNL A   1      47.162  28.196  21.388  1.00  0.00    -0.744 OA
ENDBRANCH  70  73
ENDBRANCH  42  66
BRANCH  54  77
ATOM     77  C   UNL A   1      45.227  33.214  29.315  1.00  0.00     0.023 A 
ATOM     78  C   UNL A   1      46.049  33.281  30.457  1.00  0.00     0.012 A 
ATOM     79  C   UNL A   1      45.169  34.313  28.436  1.00  0.00     0.148 A 
ATOM     80  C   UNL A   1      46.783  34.434  30.733  1.00  0.00     0.002 A 
ATOM     81  C   UNL A   1      45.938  35.441  28.693  1.00  0.00     0.091 A 
ATOM     82  F   UNL A   1      44.363  34.236  27.366  1.00  0.00    -0.205 F 
ATOM     83  C   UNL A   1      46.738  35.508  29.846  1.00  0.00     0.022 A 
BRANCH  81  84
ATOM     84  S   UNL A   1      46.014  36.831  27.557  1.00  0.00     0.127 S 
ATOM     85  O   UNL A   1      44.640  37.328  27.600  1.00  0.00    -0.237 OA
ATOM     86  O   UNL A   1      46.999  37.704  28.196  1.00  0.00    -0.237 OA
ATOM     87  O   UNL A   1      46.441  36.277  26.279  1.00  0.00    -0.744 OA
ENDBRANCH  81  84
ENDBRANCH  54  77
ENDBRANCH  28  29
ENDBRANCH  20  23
ENDBRANCH  18  19
ENDBRANCH  17  18
ENDBRANCH   1  17
TORSDOF 17
ENDMDL
MODEL 2
REMARK VINA RESULT:     -10.9      5.483      7.789
REMARK SMILES CN(/C=C\C(=O)NCCCCNC(=O)c1ccc(-c2c3nc(c(-c4cccc(S(=O)(=O)[O-])c4F)c4ccc([nH]4)c(-c4cccc(S(=O)(=O)[O-])c4F)c4nc(c(-c5cccc(S(=O)(=O)[O-])c5F)c5ccc2[nH]5)C=C4)C=C3)cc1)C[C@@H]1CCCO1
REMARK SMILES IDX 9 1 8 2 7 3 5 4 6 5 4 7 3 8 2 9 1 10 78 11 79 12 80 13 83 14
REMARK SMILES IDX 81 15 82 16 10 17 11 18 12 19 13 20 14 22 15 23 16 24 77 25
REMARK SMILES IDX 17 26 76 27 18 28 19 29 20 30 70 31 21 32 75 33 69 34 71 35
REMARK SMILES IDX 22 36 74 37 68 38 67 39 23 41 55 42 35 43 54 44 36 45 39 46
REMARK SMILES IDX 53 47 72 48 37 49 38 50 52 52 73 53 40 54 24 55 25 56 33 57
REMARK SMILES IDX 26 58 28 59 34 60 27 61 29 62 30 63 31 64 32 65 56 66 57 67
REMARK SMILES IDX 65 68 58 69 60 70 66 71 59 72 61 73 62 74 63 75 64 76 41 77
REMARK SMILES IDX 42 78 50 79 43 80 45 81 51 82 44 83 46 84 47 85 48 86 49 87
REMARK H PARENT 7 6 12 21 71 40 39 51
REMARK Flexibility Score: inf
ROOT
ATOM      1  C   UNL A   1      32.416  29.236  23.459  1.00  0.00     0.023 C 
ENDROOT
BRANCH   1   2
ATOM      2  C   UNL A   1      31.875  27.861  23.086  1.00  0.00     0.116 C 
BRANCH   2   3
ATOM      3  N   UNL A   1      32.546  27.245  21.955  1.00  0.00    -0.353 N 
ATOM      4  C   UNL A   1      32.483  25.934  21.572  1.00  0.00     0.245 C 
ATOM      5  O   UNL A   1      33.064  25.536  20.566  1.00  0.00    -0.270 OA
ATOM      6  H   UNL A   1      33.109  27.836  21.404  1.00  0.00     0.163 HD
BRANCH   4   7
ATOM      7  C   UNL A   1      31.783  24.967  22.449  1.00  0.00     0.088 C 
ATOM      8  C   UNL A   1      32.343  24.182  23.380  1.00  0.00     0.086 C 
BRANCH   8   9
ATOM      9  N   UNL A   1      33.641  24.115  23.877  1.00  0.00    -0.378 N 
ATOM     10  C   UNL A   1      34.164  25.218  24.682  1.00  0.00     0.143 C 
BRANCH   9  11
ATOM     11  C   UNL A   1      34.523  22.981  23.500  1.00  0.00     0.147 C 
BRANCH  11  12
ATOM     12  C   UNL A   1      35.493  22.418  24.546  1.00  0.00     0.137 C 
ATOM     13  C   UNL A   1      36.934  22.524  24.062  1.00  0.00     0.036 C 
ATOM     14  O   UNL A   1      35.285  21.017  24.805  1.00  0.00    -0.376 OA
ATOM     15  C   UNL A   1      37.622  21.474  24.892  1.00  0.00     0.031 C 
ATOM     16  C   UNL A   1      36.566  20.394  24.979  1.00  0.00     0.160 C 
ENDBRANCH  11  12
ENDBRANCH   9  11
ENDBRANCH   8   9
ENDBRANCH   4   7
ENDBRANCH   2   3
ENDBRANCH   1   2
BRANCH   1  17
ATOM     17  C   UNL A   1      33.327  29.290  24.684  1.00  0.00     0.023 C 
BRANCH  17  18
ATOM     18  C   UNL A   1      32.632  29.472  26.030  1.00  0.00     0.116 C 
BRANCH  18  19
ATOM     19  N   UNL A   1      32.451  30.865  26.415  1.00  0.00    -0.352 N 
ATOM     20  C   UNL A   1      33.240  31.672  27.203  1.00  0.00     0.251 C 
ATOM     21  H   UNL A   1      31.640  31.295  26.058  1.00  0.00     0.163 HD
ATOM     22  O   UNL A   1      32.878  32.805  27.497  1.00  0.00    -0.269 OA
BRANCH  20  23
ATOM     23  C   UNL A   1      34.529  31.154  27.710  1.00  0.00     0.039 A 
ATOM     24  C   UNL A   1      35.592  32.038  27.906  1.00  0.00     0.014 A 
ATOM     25  C   UNL A   1      34.673  29.801  28.018  1.00  0.00     0.014 A 
ATOM     26  C   UNL A   1      36.769  31.578  28.503  1.00  0.00     0.010 A 
ATOM     27  C   UNL A   1      35.817  29.356  28.669  1.00  0.00     0.010 A 
ATOM     28  C   UNL A   1      36.872  30.242  28.931  1.00  0.00    -0.014 A 
BRANCH  28  29
ATOM     29  C   UNL A   1      38.040  29.761  29.711  1.00  0.00     0.031 A 
ATOM     30  C   UNL A   1      38.290  30.270  31.104  1.00  0.00     0.074 A 
ATOM     31  C   UNL A   1      38.948  28.967  29.110  1.00  0.00     0.049 A 
ATOM     32  N   UNL A   1      39.301  30.035  31.898  1.00  0.00    -0.248 NA
ATOM     33  C   UNL A   1      37.289  31.193  31.666  1.00  0.00     0.031 C 
ATOM     34  C   UNL A   1      38.871  28.490  27.726  1.00  0.00     0.029 A 
ATOM     35  N   UNL A   1      40.135  28.452  29.570  1.00  0.00    -0.354 N 
ATOM     36  C   UNL A   1      39.080  30.804  33.034  1.00  0.00     0.074 A 
ATOM     37  C   UNL A   1      37.854  31.538  32.814  1.00  0.00     0.031 C 
ATOM     38  C   UNL A   1      39.960  27.756  27.452  1.00  0.00     0.029 A 
ATOM     39  C   UNL A   1      40.825  27.727  28.626  1.00  0.00     0.049 A 
ATOM     40  H   UNL A   1      40.459  28.588  30.489  1.00  0.00     0.167 HD
ATOM     41  C   UNL A   1      39.817  30.869  34.169  1.00  0.00     0.034 A 
ATOM     42  C   UNL A   1      42.022  27.112  28.698  1.00  0.00     0.034 A 
ATOM     43  C   UNL A   1      41.007  30.096  34.402  1.00  0.00     0.049 A 
ATOM     44  C   UNL A   1      42.782  27.141  29.995  1.00  0.00     0.074 A 
ATOM     45  C   UNL A   1      41.767  30.014  35.556  1.00  0.00     0.029 A 
ATOM     46  N   UNL A   1      41.613  29.273  33.466  1.00  0.00    -0.354 N 
ATOM     47  N   UNL A   1      42.465  27.733  31.122  1.00  0.00    -0.248 NA
ATOM     48  C   UNL A   1      44.043  26.387  30.047  1.00  0.00     0.031 C 
ATOM     49  C   UNL A   1      42.838  29.149  35.313  1.00  0.00     0.029 A 
ATOM     50  C   UNL A   1      42.736  28.680  34.013  1.00  0.00     0.049 A 
ATOM     51  H   UNL A   1      41.290  29.132  32.546  1.00  0.00     0.167 HD
ATOM     52  C   UNL A   1      43.464  27.390  32.026  1.00  0.00     0.074 A 
ATOM     53  C   UNL A   1      44.388  26.526  31.320  1.00  0.00     0.031 C 
ATOM     54  C   UNL A   1      43.610  27.769  33.319  1.00  0.00     0.034 A 
BRANCH  41  55
ATOM     55  C   UNL A   1      39.316  31.758  35.277  1.00  0.00     0.023 A 
ATOM     56  C   UNL A   1      38.410  31.238  36.223  1.00  0.00     0.012 A 
ATOM     57  C   UNL A   1      39.782  33.080  35.421  1.00  0.00     0.148 A 
ATOM     58  C   UNL A   1      37.949  32.026  37.276  1.00  0.00     0.002 A 
ATOM     59  C   UNL A   1      39.349  33.848  36.498  1.00  0.00     0.091 A 
ATOM     60  F   UNL A   1      40.626  33.566  34.500  1.00  0.00    -0.205 F 
ATOM     61  C   UNL A   1      38.426  33.326  37.419  1.00  0.00     0.022 A 
BRANCH  59  62
ATOM     62  S   UNL A   1      39.963  35.507  36.811  1.00  0.00     0.127 S 
ATOM     63  O   UNL A   1      39.323  35.820  38.087  1.00  0.00    -0.237 OA
ATOM     64  O   UNL A   1      41.409  35.292  36.892  1.00  0.00    -0.237 OA
ATOM     65  O   UNL A   1      39.534  36.313  35.678  1.00  0.00    -0.744 OA
ENDBRANCH  59  62
ENDBRANCH  41  55
BRANCH  42  66
ATOM     66  C   UNL A   1      42.529  26.338  27.530  1.00  0.00     0.023 A 
ATOM     67  C   UNL A   1      43.405  26.963  26.620  1.00  0.00     0.012 A 
ATOM     68  C   UNL A   1      42.186  24.986  27.335  1.00  0.00     0.148 A 
ATOM     69  C   UNL A   1      43.905  26.265  25.521  1.00  0.00     0.002 A 
ATOM     70  C   UNL A   1      42.730  24.282  26.266  1.00  0.00     0.091 A 
ATOM     71  F   UNL A   1      41.343  24.412  28.205  1.00  0.00    -0.205 F 
ATOM     72  C   UNL A   1      43.576  24.924  25.349  1.00  0.00     0.022 A 
BRANCH  70  73
ATOM     73  S   UNL A   1      42.466  22.519  26.043  1.00  0.00     0.127 S 
ATOM     74  O   UNL A   1      43.151  22.271  24.778  1.00  0.00    -0.237 OA
ATOM     75  O   UNL A   1      43.128  21.961  27.223  1.00  0.00    -0.237 OA
ATOM     76  O   UNL A   1      41.020  22.341  26.029  1.00  0.00    -0.744 OA
ENDBRANCH  70  73
ENDBRANCH  42  66
BRANCH  54  77
ATOM     77  C   UNL A   1      44.790  27.224  34.080  1.00  0.00     0.023 A 
ATOM     78  C   UNL A   1      45.993  27.956  34.123  1.00  0.00     0.012 A 
ATOM     79  C   UNL A   1      44.676  26.033  34.823  1.00  0.00     0.148 A 
ATOM     80  C   UNL A   1      47.074  27.496  34.874  1.00  0.00     0.002 A 
ATOM     81  C   UNL A   1      45.742  25.605  35.605  1.00  0.00     0.091 A 
ATOM     82  F   UNL A   1      43.529  25.340  34.752  1.00  0.00    -0.205 F 
ATOM     83  C   UNL A   1      46.944  26.330  35.624  1.00  0.00     0.022 A 
BRANCH  81  84
ATOM     84  S   UNL A   1      45.630  24.167  36.677  1.00  0.00     0.127 S 
ATOM     85  O   UNL A   1      44.625  24.597  37.648  1.00  0.00    -0.237 OA
ATOM     86  O   UNL A   1      45.180  23.124  35.755  1.00  0.00    -0.237 OA
ATOM     87  O   UNL A   1      46.970  23.962  37.210  1.00  0.00    -0.744 OA
ENDBRANCH  81  84
ENDBRANCH  54  77
ENDBRANCH  28  29
ENDBRANCH  20  23
ENDBRANCH  18  19
ENDBRANCH  17  18
ENDBRANCH   1  17
TORSDOF 17
ENDMDL
MODEL 3
REMARK VINA RESULT:     -10.8      5.565      8.077
REMARK SMILES CN(/C=C\C(=O)NCCCCNC(=O)c1ccc(-c2c3nc(c(-c4cccc(S(=O)(=O)[O-])c4F)c4ccc([nH]4)c(-c4cccc(S(=O)(=O)[O-])c4F)c4nc(c(-c5cccc(S(=O)(=O)[O-])c5F)c5ccc2[nH]5)C=C4)C=C3)cc1)C[C@@H]1CCCO1
REMARK SMILES IDX 9 1 8 2 7 3 5 4 6 5 4 7 3 8 2 9 1 10 78 11 79 12 80 13 83 14
REMARK SMILES IDX 81 15 82 16 10 17 11 18 12 19 13 20 14 22 15 23 16 24 77 25
REMARK SMILES IDX 17 26 76 27 18 28 19 29 20 30 70 31 21 32 75 33 69 34 71 35
REMARK SMILES IDX 22 36 74 37 68 38 67 39 23 41 55 42 35 43 54 44 36 45 39 46
REMARK SMILES IDX 53 47 72 48 37 49 38 50 52 52 73 53 40 54 24 55 25 56 33 57
REMARK SMILES IDX 26 58 28 59 34 60 27 61 29 62 30 63 31 64 32 65 56 66 57 67
REMARK SMILES IDX 65 68 58 69 60 70 66 71 59 72 61 73 62 74 63 75 64 76 41 77
REMARK SMILES IDX 42 78 50 79 43 80 45 81 51 82 44 83 46 84 47 85 48 86 49 87
REMARK H PARENT 7 6 12 21 71 40 39 51
REMARK Flexibility Score: inf
ROOT
ATOM      1  C   UNL A   1      32.088  28.145  27.225  1.00  0.00     0.023 C 
ENDROOT
BRANCH   1   2
ATOM      2  C   UNL A   1      31.546  27.150  26.206  1.00  0.00     0.116 C 
BRANCH   2   3
ATOM      3  N   UNL A   1      30.780  26.062  26.787  1.00  0.00    -0.353 N 
ATOM      4  C   UNL A   1      30.576  24.819  26.254  1.00  0.00     0.245 C 
ATOM      5  O   UNL A   1      29.941  23.962  26.863  1.00  0.00    -0.270 OA
ATOM      6  H   UNL A   1      30.360  26.239  27.660  1.00  0.00     0.163 HD
BRANCH   4   7
ATOM      7  C   UNL A   1      31.047  24.547  24.876  1.00  0.00     0.088 C 
ATOM      8  C   UNL A   1      32.206  23.973  24.525  1.00  0.00     0.086 C 
BRANCH   8   9
ATOM      9  N   UNL A   1      33.210  23.375  25.282  1.00  0.00    -0.378 N 
ATOM     10  C   UNL A   1      33.990  24.187  26.215  1.00  0.00     0.143 C 
BRANCH   9  11
ATOM     11  C   UNL A   1      33.555  21.948  25.062  1.00  0.00     0.147 C 
BRANCH  11  12
ATOM     12  C   UNL A   1      34.859  21.607  24.331  1.00  0.00     0.137 C 
ATOM     13  C   UNL A   1      35.979  21.321  25.324  1.00  0.00     0.036 C 
ATOM     14  O   UNL A   1      35.345  22.691  23.518  1.00  0.00    -0.376 OA
ATOM     15  C   UNL A   1      37.209  21.568  24.491  1.00  0.00     0.031 C 
ATOM     16  C   UNL A   1      36.776  22.730  23.624  1.00  0.00     0.160 C 
ENDBRANCH  11  12
ENDBRANCH   9  11
ENDBRANCH   8   9
ENDBRANCH   4   7
ENDBRANCH   2   3
ENDBRANCH   1   2
BRANCH   1  17
ATOM     17  C   UNL A   1      31.747  29.613  26.979  1.00  0.00     0.023 C 
BRANCH  17  18
ATOM     18  C   UNL A   1      32.879  30.487  26.448  1.00  0.00     0.116 C 
BRANCH  18  19
ATOM     19  N   UNL A   1      32.840  31.860  26.936  1.00  0.00    -0.352 N 
ATOM     20  C   UNL A   1      33.724  32.532  27.749  1.00  0.00     0.251 C 
ATOM     21  H   UNL A   1      32.063  32.387  26.639  1.00  0.00     0.163 HD
ATOM     22  O   UNL A   1      33.479  33.668  28.134  1.00  0.00    -0.269 OA
BRANCH  20  23
ATOM     23  C   UNL A   1      34.973  31.863  28.172  1.00  0.00     0.039 A 
ATOM     24  C   UNL A   1      36.150  32.608  28.266  1.00  0.00     0.014 A 
ATOM     25  C   UNL A   1      34.970  30.507  28.502  1.00  0.00     0.014 A 
ATOM     26  C   UNL A   1      37.303  32.012  28.785  1.00  0.00     0.010 A 
ATOM     27  C   UNL A   1      36.097  29.932  29.078  1.00  0.00     0.010 A 
ATOM     28  C   UNL A   1      37.271  30.681  29.238  1.00  0.00    -0.014 A 
BRANCH  28  29
ATOM     29  C   UNL A   1      38.425  30.068  29.942  1.00  0.00     0.031 A 
ATOM     30  C   UNL A   1      38.831  30.549  31.307  1.00  0.00     0.074 A 
ATOM     31  C   UNL A   1      39.190  29.170  29.289  1.00  0.00     0.049 A 
ATOM     32  N   UNL A   1      39.860  30.199  32.032  1.00  0.00    -0.248 NA
ATOM     33  C   UNL A   1      37.987  31.586  31.926  1.00  0.00     0.031 C 
ATOM     34  C   UNL A   1      38.960  28.700  27.919  1.00  0.00     0.029 A 
ATOM     35  N   UNL A   1      40.337  28.520  29.672  1.00  0.00    -0.354 N 
ATOM     36  C   UNL A   1      39.812  30.993  33.171  1.00  0.00     0.074 A 
ATOM     37  C   UNL A   1      38.668  31.867  33.028  1.00  0.00     0.031 C 
ATOM     38  C   UNL A   1      39.933  27.841  27.579  1.00  0.00     0.029 A 
ATOM     39  C   UNL A   1      40.869  27.715  28.691  1.00  0.00     0.049 A 
ATOM     40  H   UNL A   1      40.739  28.620  30.564  1.00  0.00     0.167 HD
ATOM     41  C   UNL A   1      40.629  30.976  34.251  1.00  0.00     0.034 A 
ATOM     42  C   UNL A   1      41.987  26.963  28.687  1.00  0.00     0.034 A 
ATOM     43  C   UNL A   1      41.733  30.069  34.411  1.00  0.00     0.049 A 
ATOM     44  C   UNL A   1      42.835  26.907  29.929  1.00  0.00     0.074 A 
ATOM     45  C   UNL A   1      42.557  29.902  35.511  1.00  0.00     0.029 A 
ATOM     46  N   UNL A   1      42.171  29.176  33.445  1.00  0.00    -0.354 N 
ATOM     47  N   UNL A   1      42.669  27.537  31.067  1.00  0.00    -0.248 NA
ATOM     48  C   UNL A   1      43.998  26.009  29.903  1.00  0.00     0.031 C 
ATOM     49  C   UNL A   1      43.500  28.915  35.205  1.00  0.00     0.029 A 
ATOM     50  C   UNL A   1      43.252  28.456  33.921  1.00  0.00     0.049 A 
ATOM     51  H   UNL A   1      41.770  29.070  32.552  1.00  0.00     0.167 HD
ATOM     52  C   UNL A   1      43.682  27.082  31.904  1.00  0.00     0.074 A 
ATOM     53  C   UNL A   1      44.445  26.111  31.147  1.00  0.00     0.031 C 
ATOM     54  C   UNL A   1      43.962  27.446  33.179  1.00  0.00     0.034 A 
BRANCH  41  55
ATOM     55  C   UNL A   1      40.315  31.922  35.381  1.00  0.00     0.023 A 
ATOM     56  C   UNL A   1      41.060  33.112  35.512  1.00  0.00     0.012 A 
ATOM     57  C   UNL A   1      39.251  31.671  36.270  1.00  0.00     0.148 A 
ATOM     58  C   UNL A   1      40.776  34.021  36.529  1.00  0.00     0.002 A 
ATOM     59  C   UNL A   1      38.948  32.603  37.258  1.00  0.00     0.091 A 
ATOM     60  F   UNL A   1      38.568  30.526  36.145  1.00  0.00    -0.205 F 
ATOM     61  C   UNL A   1      39.715  33.772  37.394  1.00  0.00     0.022 A 
BRANCH  59  62
ATOM     62  S   UNL A   1      37.552  32.410  38.373  1.00  0.00     0.127 S 
ATOM     63  O   UNL A   1      37.947  33.267  39.489  1.00  0.00    -0.237 OA
ATOM     64  O   UNL A   1      36.441  32.926  37.572  1.00  0.00    -0.237 OA
ATOM     65  O   UNL A   1      37.473  30.987  38.671  1.00  0.00    -0.744 OA
ENDBRANCH  59  62
ENDBRANCH  41  55
BRANCH  42  66
ATOM     66  C   UNL A   1      42.316  26.130  27.496  1.00  0.00     0.023 A 
ATOM     67  C   UNL A   1      43.043  26.705  26.436  1.00  0.00     0.012 A 
ATOM     68  C   UNL A   1      41.953  24.771  27.423  1.00  0.00     0.148 A 
ATOM     69  C   UNL A   1      43.376  25.952  25.310  1.00  0.00     0.002 A 
ATOM     70  C   UNL A   1      42.334  24.012  26.321  1.00  0.00     0.091 A 
ATOM     71  F   UNL A   1      41.253  24.244  28.437  1.00  0.00    -0.205 F 
ATOM     72  C   UNL A   1      43.030  24.605  25.256  1.00  0.00     0.022 A 
BRANCH  70  73
ATOM     73  S   UNL A   1      42.046  22.242  26.228  1.00  0.00     0.127 S 
ATOM     74  O   UNL A   1      40.605  22.184  26.003  1.00  0.00    -0.237 OA
ATOM     75  O   UNL A   1      42.866  21.860  25.078  1.00  0.00    -0.237 OA
ATOM     76  O   UNL A   1      42.513  21.705  27.500  1.00  0.00    -0.744 OA
ENDBRANCH  70  73
ENDBRANCH  42  66
BRANCH  54  77
ATOM     77  C   UNL A   1      45.120  26.768  33.863  1.00  0.00     0.023 A 
ATOM     78  C   UNL A   1      46.409  27.329  33.776  1.00  0.00     0.012 A 
ATOM     79  C   UNL A   1      44.912  25.628  34.664  1.00  0.00     0.148 A 
ATOM     80  C   UNL A   1      47.480  26.748  34.454  1.00  0.00     0.002 A 
ATOM     81  C   UNL A   1      45.975  25.082  35.373  1.00  0.00     0.091 A 
ATOM     82  F   UNL A   1      43.682  25.097  34.717  1.00  0.00    -0.205 F 
ATOM     83  C   UNL A   1      47.261  25.635  35.262  1.00  0.00     0.022 A 
BRANCH  81  84
ATOM     84  S   UNL A   1      45.765  23.707  36.511  1.00  0.00     0.127 S 
ATOM     85  O   UNL A   1      47.136  23.488  36.970  1.00  0.00    -0.237 OA
ATOM     86  O   UNL A   1      44.868  24.270  37.520  1.00  0.00    -0.237 OA
ATOM     87  O   UNL A   1      45.186  22.625  35.726  1.00  0.00    -0.744 OA
ENDBRANCH  81  84
ENDBRANCH  54  77
ENDBRANCH  28  29
ENDBRANCH  20  23
ENDBRANCH  18  19
ENDBRANCH  17  18
ENDBRANCH   1  17
TORSDOF 17
ENDMDL
